MODEL 1
REMARK VINA RESULT:    -4.300      0.000      0.000
REMARK INTER + INTRA:          -7.183
REMARK INTER:                  -6.562
REMARK INTRA:                  -0.621
REMARK UNBOUND:                -0.621
REMARK SMILES CCCCCCCCCC=CC(=O)[O-]
REMARK SMILES IDX 7 1 8 2 9 3 10 4 11 5 12 6 13 7 14 8 6 9 5 10 4 11 3 12 2 13
REMARK SMILES IDX 1 14
REMARK H PARENT
REMARK Flexibility Score: inf
ROOT
ATOM      1  C   UNL     1      -5.632   5.451  -2.700  1.00  0.00     0.000 C 
ENDROOT
BRANCH   1   2
ATOM      2  C   UNL     1      -5.816   4.377  -3.783  1.00  0.00     0.004 C 
BRANCH   2   3
ATOM      3  C   UNL     1      -4.825   4.552  -4.944  1.00  0.00     0.027 C 
BRANCH   3   4
ATOM      4  C   UNL     1      -4.004   5.809  -4.812  1.00  0.00    -0.025 C 
ATOM      5  C   UNL     1      -3.329   6.419  -5.801  1.00  0.00     0.020 C 
BRANCH   5   6
ATOM      6  C   UNL     1      -3.289   6.015  -7.222  1.00  0.00     0.064 C 
ATOM      7  O   UNL     1      -4.179   6.360  -8.042  1.00  0.00    -0.545 OA
ATOM      8  O   UNL     1      -2.221   5.251  -7.672  1.00  0.00    -0.545 OA
ENDBRANCH   5   6
ENDBRANCH   3   4
ENDBRANCH   2   3
ENDBRANCH   1   2
BRANCH   1   9
ATOM      9  C   UNL     1      -6.353   5.056  -1.406  1.00  0.00     0.000 C 
BRANCH   9  10
ATOM     10  C   UNL     1      -5.485   5.365  -0.177  1.00  0.00     0.000 C 
BRANCH  10  11
ATOM     11  C   UNL     1      -4.547   6.567  -0.389  1.00  0.00    -0.000 C 
BRANCH  11  12
ATOM     12  C   UNL     1      -3.433   6.715   0.662  1.00  0.00    -0.000 C 
BRANCH  12  13
ATOM     13  C   UNL     1      -3.369   5.532   1.638  1.00  0.00    -0.003 C 
ATOM     14  C   UNL     1      -1.947   5.317   2.149  1.00  0.00     0.004 C 
ENDBRANCH  12  13
ENDBRANCH  11  12
ENDBRANCH  10  11
ENDBRANCH   9  10
ENDBRANCH   1   9
TORSDOF 9
ENDMDL
MODEL 2
REMARK VINA RESULT:    -4.177     16.480     18.315
REMARK INTER + INTRA:          -6.996
REMARK INTER:                  -5.519
REMARK INTRA:                  -1.477
REMARK UNBOUND:                -0.621
REMARK SMILES CCCCCCCCCC=CC(=O)[O-]
REMARK SMILES IDX 7 1 8 2 9 3 10 4 11 5 12 6 13 7 14 8 6 9 5 10 4 11 3 12 2 13
REMARK SMILES IDX 1 14
REMARK H PARENT
REMARK Flexibility Score: inf
ROOT
ATOM      1  C   UNL     1       9.015  -2.838 -14.693  1.00  0.00     0.000 C 
ENDROOT
BRANCH   1   2
ATOM      2  C   UNL     1       9.225  -4.281 -14.211  1.00  0.00     0.004 C 
BRANCH   2   3
ATOM      3  C   UNL     1       8.214  -4.679 -13.124  1.00  0.00     0.027 C 
BRANCH   3   4
ATOM      4  C   UNL     1       8.785  -4.548 -11.735  1.00  0.00    -0.025 C 
ATOM      5  C   UNL     1       8.148  -4.044 -10.664  1.00  0.00     0.020 C 
BRANCH   5   6
ATOM      6  C   UNL     1       6.752  -3.562 -10.614  1.00  0.00     0.064 C 
ATOM      7  O   UNL     1       6.387  -2.504 -11.189  1.00  0.00    -0.545 OA
ATOM      8  O   UNL     1       5.807  -4.316  -9.930  1.00  0.00    -0.545 OA
ENDBRANCH   5   6
ENDBRANCH   3   4
ENDBRANCH   2   3
ENDBRANCH   1   2
BRANCH   1   9
ATOM      9  C   UNL     1       7.532  -2.450 -14.640  1.00  0.00     0.000 C 
BRANCH   9  10
ATOM     10  C   UNL     1       7.366  -0.937 -14.444  1.00  0.00     0.000 C 
BRANCH  10  11
ATOM     11  C   UNL     1       8.645  -0.252 -13.929  1.00  0.00    -0.000 C 
BRANCH  11  12
ATOM     12  C   UNL     1       8.645   0.079 -12.426  1.00  0.00    -0.000 C 
BRANCH  12  13
ATOM     13  C   UNL     1       9.512  -0.883 -11.601  1.00  0.00    -0.003 C 
ATOM     14  C   UNL     1      10.952  -0.895 -12.108  1.00  0.00     0.004 C 
ENDBRANCH  12  13
ENDBRANCH  11  12
ENDBRANCH  10  11
ENDBRANCH   9  10
ENDBRANCH   1   9
TORSDOF 9
ENDMDL
MODEL 3
REMARK VINA RESULT:    -4.172      1.413      2.428
REMARK INTER + INTRA:          -6.988
REMARK INTER:                  -6.159
REMARK INTRA:                  -0.829
REMARK UNBOUND:                -0.621
REMARK SMILES CCCCCCCCCC=CC(=O)[O-]
REMARK SMILES IDX 7 1 8 2 9 3 10 4 11 5 12 6 13 7 14 8 6 9 5 10 4 11 3 12 2 13
REMARK SMILES IDX 1 14
REMARK H PARENT
REMARK Flexibility Score: inf
ROOT
ATOM      1  C   UNL     1      -6.119   4.763  -0.910  1.00  0.00     0.000 C 
ENDROOT
BRANCH   1   2
ATOM      2  C   UNL     1      -5.815   6.176  -1.429  1.00  0.00     0.004 C 
BRANCH   2   3
ATOM      3  C   UNL     1      -5.492   6.183  -2.931  1.00  0.00     0.027 C 
BRANCH   3   4
ATOM      4  C   UNL     1      -5.646   4.820  -3.556  1.00  0.00    -0.025 C 
ATOM      5  C   UNL     1      -5.108   4.419  -4.720  1.00  0.00     0.020 C 
BRANCH   5   6
ATOM      6  C   UNL     1      -4.222   5.210  -5.601  1.00  0.00     0.064 C 
ATOM      7  O   UNL     1      -4.519   5.463  -6.797  1.00  0.00    -0.545 OA
ATOM      8  O   UNL     1      -3.035   5.711  -5.082  1.00  0.00    -0.545 OA
ENDBRANCH   5   6
ENDBRANCH   3   4
ENDBRANCH   2   3
ENDBRANCH   1   2
BRANCH   1   9
ATOM      9  C   UNL     1      -6.244   4.753   0.618  1.00  0.00     0.000 C 
BRANCH   9  10
ATOM     10  C   UNL     1      -5.659   3.463   1.210  1.00  0.00     0.000 C 
BRANCH  10  11
ATOM     11  C   UNL     1      -4.463   3.718   2.145  1.00  0.00    -0.000 C 
BRANCH  11  12
ATOM     12  C   UNL     1      -4.099   5.200   2.344  1.00  0.00    -0.000 C 
BRANCH  12  13
ATOM     13  C   UNL     1      -2.712   5.555   1.790  1.00  0.00    -0.003 C 
ATOM     14  C   UNL     1      -2.817   6.577   0.662  1.00  0.00     0.004 C 
ENDBRANCH  12  13
ENDBRANCH  11  12
ENDBRANCH  10  11
ENDBRANCH   9  10
ENDBRANCH   1   9
TORSDOF 9
ENDMDL
MODEL 4
REMARK VINA RESULT:    -4.154     13.377     16.011
REMARK INTER + INTRA:          -6.961
REMARK INTER:                  -6.236
REMARK INTRA:                  -0.725
REMARK UNBOUND:                -0.621
REMARK SMILES CCCCCCCCCC=CC(=O)[O-]
REMARK SMILES IDX 7 1 8 2 9 3 10 4 11 5 12 6 13 7 14 8 6 9 5 10 4 11 3 12 2 13
REMARK SMILES IDX 1 14
REMARK H PARENT
REMARK Flexibility Score: inf
ROOT
ATOM      1  C   UNL     1       4.491  -0.275 -13.610  1.00  0.00     0.000 C 
ENDROOT
BRANCH   1   2
ATOM      2  C   UNL     1       5.189  -1.446 -14.316  1.00  0.00     0.004 C 
BRANCH   2   3
ATOM      3  C   UNL     1       5.797  -2.443 -13.317  1.00  0.00     0.027 C 
BRANCH   3   4
ATOM      4  C   UNL     1       6.752  -1.781 -12.357  1.00  0.00    -0.025 C 
ATOM      5  C   UNL     1       7.278  -2.340 -11.255  1.00  0.00     0.020 C 
BRANCH   5   6
ATOM      6  C   UNL     1       7.070  -3.725 -10.783  1.00  0.00     0.064 C 
ATOM      7  O   UNL     1       7.947  -4.618 -10.915  1.00  0.00    -0.545 OA
ATOM      8  O   UNL     1       5.876  -4.045 -10.149  1.00  0.00    -0.545 OA
ENDBRANCH   5   6
ENDBRANCH   3   4
ENDBRANCH   2   3
ENDBRANCH   1   2
BRANCH   1   9
ATOM      9  C   UNL     1       4.843   1.060 -14.279  1.00  0.00     0.000 C 
BRANCH   9  10
ATOM     10  C   UNL     1       6.203   1.578 -13.790  1.00  0.00     0.000 C 
BRANCH  10  11
ATOM     11  C   UNL     1       6.314   3.113 -13.835  1.00  0.00    -0.000 C 
BRANCH  11  12
ATOM     12  C   UNL     1       6.174   3.815 -12.472  1.00  0.00    -0.000 C 
BRANCH  12  13
ATOM     13  C   UNL     1       5.099   4.911 -12.472  1.00  0.00    -0.003 C 
ATOM     14  C   UNL     1       3.709   4.318 -12.260  1.00  0.00     0.004 C 
ENDBRANCH  12  13
ENDBRANCH  11  12
ENDBRANCH  10  11
ENDBRANCH   9  10
ENDBRANCH   1   9
TORSDOF 9
ENDMDL
MODEL 5
REMARK VINA RESULT:    -4.151     16.004     17.748
REMARK INTER + INTRA:          -6.955
REMARK INTER:                  -5.643
REMARK INTRA:                  -1.312
REMARK UNBOUND:                -0.621
REMARK SMILES CCCCCCCCCC=CC(=O)[O-]
REMARK SMILES IDX 7 1 8 2 9 3 10 4 11 5 12 6 13 7 14 8 6 9 5 10 4 11 3 12 2 13
REMARK SMILES IDX 1 14
REMARK H PARENT
REMARK Flexibility Score: inf
ROOT
ATOM      1  C   UNL     1       9.709  -3.088 -12.605  1.00  0.00     0.000 C 
ENDROOT
BRANCH   1   2
ATOM      2  C   UNL     1       8.786  -3.441 -13.781  1.00  0.00     0.004 C 
BRANCH   2   3
ATOM      3  C   UNL     1       7.458  -4.053 -13.308  1.00  0.00     0.027 C 
BRANCH   3   4
ATOM      4  C   UNL     1       6.524  -3.020 -12.731  1.00  0.00    -0.025 C 
ATOM      5  C   UNL     1       6.184  -2.899 -11.437  1.00  0.00     0.020 C 
BRANCH   5   6
ATOM      6  C   UNL     1       6.687  -3.715 -10.312  1.00  0.00     0.064 C 
ATOM      7  O   UNL     1       7.886  -3.665  -9.931  1.00  0.00    -0.545 OA
ATOM      8  O   UNL     1       5.802  -4.545  -9.637  1.00  0.00    -0.545 OA
ENDBRANCH   5   6
ENDBRANCH   3   4
ENDBRANCH   2   3
ENDBRANCH   1   2
BRANCH   1   9
ATOM      9  C   UNL     1      10.141  -1.618 -12.667  1.00  0.00     0.000 C 
BRANCH   9  10
ATOM     10  C   UNL     1       9.191  -0.731 -11.849  1.00  0.00     0.000 C 
BRANCH  10  11
ATOM     11  C   UNL     1       8.773   0.550 -12.594  1.00  0.00    -0.000 C 
BRANCH  11  12
ATOM     12  C   UNL     1       7.794   0.332 -13.762  1.00  0.00    -0.000 C 
BRANCH  12  13
ATOM     13  C   UNL     1       6.456   1.060 -13.564  1.00  0.00    -0.003 C 
ATOM     14  C   UNL     1       5.284   0.176 -13.982  1.00  0.00     0.004 C 
ENDBRANCH  12  13
ENDBRANCH  11  12
ENDBRANCH  10  11
ENDBRANCH   9  10
ENDBRANCH   1   9
TORSDOF 9
ENDMDL
MODEL 6
REMARK VINA RESULT:    -4.121     16.674     18.655
REMARK INTER + INTRA:          -6.910
REMARK INTER:                  -5.452
REMARK INTRA:                  -1.457
REMARK UNBOUND:                -0.621
REMARK SMILES CCCCCCCCCC=CC(=O)[O-]
REMARK SMILES IDX 7 1 8 2 9 3 10 4 11 5 12 6 13 7 14 8 6 9 5 10 4 11 3 12 2 13
REMARK SMILES IDX 1 14
REMARK H PARENT
REMARK Flexibility Score: inf
ROOT
ATOM      1  C   UNL     1       8.811  -1.467 -11.475  1.00  0.00     0.000 C 
ENDROOT
BRANCH   1   2
ATOM      2  C   UNL     1       9.926  -1.693 -12.507  1.00  0.00     0.004 C 
BRANCH   2   3
ATOM      3  C   UNL     1       9.424  -2.458 -13.741  1.00  0.00     0.027 C 
BRANCH   3   4
ATOM      4  C   UNL     1      10.397  -3.517 -14.193  1.00  0.00    -0.025 C 
ATOM      5  C   UNL     1      10.390  -4.807 -13.819  1.00  0.00     0.020 C 
BRANCH   5   6
ATOM      6  C   UNL     1       9.408  -5.463 -12.930  1.00  0.00     0.064 C 
ATOM      7  O   UNL     1       9.674  -5.752 -11.734  1.00  0.00    -0.545 OA
ATOM      8  O   UNL     1       8.141  -5.745 -13.424  1.00  0.00    -0.545 OA
ENDBRANCH   5   6
ENDBRANCH   3   4
ENDBRANCH   2   3
ENDBRANCH   1   2
BRANCH   1   9
ATOM      9  C   UNL     1       8.608  -2.712 -10.604  1.00  0.00     0.000 C 
BRANCH   9  10
ATOM     10  C   UNL     1       7.236  -3.350 -10.867  1.00  0.00     0.000 C 
BRANCH  10  11
ATOM     11  C   UNL     1       6.310  -2.457 -11.713  1.00  0.00    -0.000 C 
BRANCH  11  12
ATOM     12  C   UNL     1       5.900  -3.050 -13.073  1.00  0.00    -0.000 C 
BRANCH  12  13
ATOM     13  C   UNL     1       5.651  -1.977 -14.143  1.00  0.00    -0.003 C 
ATOM     14  C   UNL     1       5.838  -0.575 -13.568  1.00  0.00     0.004 C 
ENDBRANCH  12  13
ENDBRANCH  11  12
ENDBRANCH  10  11
ENDBRANCH   9  10
ENDBRANCH   1   9
TORSDOF 9
ENDMDL
MODEL 7
REMARK VINA RESULT:    -4.066     14.825     16.494
REMARK INTER + INTRA:          -6.826
REMARK INTER:                  -6.020
REMARK INTRA:                  -0.806
REMARK UNBOUND:                -0.621
REMARK SMILES CCCCCCCCCC=CC(=O)[O-]
REMARK SMILES IDX 7 1 8 2 9 3 10 4 11 5 12 6 13 7 14 8 6 9 5 10 4 11 3 12 2 13
REMARK SMILES IDX 1 14
REMARK H PARENT
REMARK Flexibility Score: inf
ROOT
ATOM      1  C   UNL     1       5.760  -1.203 -12.875  1.00  0.00     0.000 C 
ENDROOT
BRANCH   1   2
ATOM      2  C   UNL     1       7.111  -0.473 -12.872  1.00  0.00     0.004 C 
BRANCH   2   3
ATOM      3  C   UNL     1       8.296  -1.451 -12.835  1.00  0.00     0.027 C 
BRANCH   3   4
ATOM      4  C   UNL     1       8.812  -1.673 -11.436  1.00  0.00    -0.025 C 
ATOM      5  C   UNL     1       8.482  -2.691 -10.624  1.00  0.00     0.020 C 
BRANCH   5   6
ATOM      6  C   UNL     1       7.589  -3.823 -10.948  1.00  0.00     0.064 C 
ATOM      7  O   UNL     1       6.468  -3.972 -10.395  1.00  0.00    -0.545 OA
ATOM      8  O   UNL     1       7.989  -4.738 -11.914  1.00  0.00    -0.545 OA
ENDBRANCH   5   6
ENDBRANCH   3   4
ENDBRANCH   2   3
ENDBRANCH   1   2
BRANCH   1   9
ATOM      9  C   UNL     1       4.707  -0.409 -13.658  1.00  0.00     0.000 C 
BRANCH   9  10
ATOM     10  C   UNL     1       5.299   0.897 -14.206  1.00  0.00     0.000 C 
BRANCH  10  11
ATOM     11  C   UNL     1       4.518   2.146 -13.760  1.00  0.00    -0.000 C 
BRANCH  11  12
ATOM     12  C   UNL     1       5.315   3.462 -13.805  1.00  0.00    -0.000 C 
BRANCH  12  13
ATOM     13  C   UNL     1       5.938   3.831 -12.451  1.00  0.00    -0.003 C 
ATOM     14  C   UNL     1       7.360   3.290 -12.335  1.00  0.00     0.004 C 
ENDBRANCH  12  13
ENDBRANCH  11  12
ENDBRANCH  10  11
ENDBRANCH   9  10
ENDBRANCH   1   9
TORSDOF 9
ENDMDL
MODEL 8
REMARK VINA RESULT:    -4.011      1.246      2.343
REMARK INTER + INTRA:          -6.742
REMARK INTER:                  -6.010
REMARK INTRA:                  -0.732
REMARK UNBOUND:                -0.621
REMARK SMILES CCCCCCCCCC=CC(=O)[O-]
REMARK SMILES IDX 7 1 8 2 9 3 10 4 11 5 12 6 13 7 14 8 6 9 5 10 4 11 3 12 2 13
REMARK SMILES IDX 1 14
REMARK H PARENT
REMARK Flexibility Score: inf
ROOT
ATOM      1  C   UNL     1      -5.837   5.326  -0.144  1.00  0.00     0.000 C 
ENDROOT
BRANCH   1   2
ATOM      2  C   UNL     1      -6.372   4.638  -1.409  1.00  0.00     0.004 C 
BRANCH   2   3
ATOM      3  C   UNL     1      -5.803   5.266  -2.691  1.00  0.00     0.027 C 
BRANCH   3   4
ATOM      4  C   UNL     1      -5.721   4.276  -3.825  1.00  0.00    -0.025 C 
ATOM      5  C   UNL     1      -5.081   4.464  -4.992  1.00  0.00     0.020 C 
BRANCH   5   6
ATOM      6  C   UNL     1      -4.291   5.649  -5.384  1.00  0.00     0.064 C 
ATOM      7  O   UNL     1      -4.801   6.620  -6.002  1.00  0.00    -0.545 OA
ATOM      8  O   UNL     1      -2.948   5.705  -5.036  1.00  0.00    -0.545 OA
ENDBRANCH   5   6
ENDBRANCH   3   4
ENDBRANCH   2   3
ENDBRANCH   1   2
BRANCH   1   9
ATOM      9  C   UNL     1      -4.891   6.478  -0.503  1.00  0.00     0.000 C 
BRANCH   9  10
ATOM     10  C   UNL     1      -4.092   6.937   0.726  1.00  0.00     0.000 C 
BRANCH  10  11
ATOM     11  C   UNL     1      -2.635   6.443   0.715  1.00  0.00    -0.000 C 
BRANCH  11  12
ATOM     12  C   UNL     1      -2.206   5.656   1.966  1.00  0.00    -0.000 C 
BRANCH  12  13
ATOM     13  C   UNL     1      -3.205   4.557   2.354  1.00  0.00    -0.003 C 
ATOM     14  C   UNL     1      -3.791   4.813   3.740  1.00  0.00     0.004 C 
ENDBRANCH  12  13
ENDBRANCH  11  12
ENDBRANCH  10  11
ENDBRANCH   9  10
ENDBRANCH   1   9
TORSDOF 9
ENDMDL
MODEL 9
REMARK VINA RESULT:    -3.977     14.945     16.512
REMARK INTER + INTRA:          -6.690
REMARK INTER:                  -5.316
REMARK INTRA:                  -1.373
REMARK UNBOUND:                -0.621
REMARK SMILES CCCCCCCCCC=CC(=O)[O-]
REMARK SMILES IDX 7 1 8 2 9 3 10 4 11 5 12 6 13 7 14 8 6 9 5 10 4 11 3 12 2 13
REMARK SMILES IDX 1 14
REMARK H PARENT
REMARK Flexibility Score: inf
ROOT
ATOM      1  C   UNL     1       5.990  -2.164 -13.775  1.00  0.00     0.000 C 
ENDROOT
BRANCH   1   2
ATOM      2  C   UNL     1       5.381  -0.924 -13.103  1.00  0.00     0.004 C 
BRANCH   2   3
ATOM      3  C   UNL     1       5.788   0.376 -13.815  1.00  0.00     0.027 C 
BRANCH   3   4
ATOM      4  C   UNL     1       7.089   0.932 -13.293  1.00  0.00    -0.025 C 
ATOM      5  C   UNL     1       7.315   2.205 -12.930  1.00  0.00     0.020 C 
BRANCH   5   6
ATOM      6  C   UNL     1       6.330   3.308 -12.921  1.00  0.00     0.064 C 
ATOM      7  O   UNL     1       6.148   4.052 -13.920  1.00  0.00    -0.545 OA
ATOM      8  O   UNL     1       5.563   3.512 -11.782  1.00  0.00    -0.545 OA
ENDBRANCH   5   6
ENDBRANCH   3   4
ENDBRANCH   2   3
ENDBRANCH   1   2
BRANCH   1   9
ATOM      9  C   UNL     1       6.376  -3.220 -12.733  1.00  0.00     0.000 C 
BRANCH   9  10
ATOM     10  C   UNL     1       6.733  -2.565 -11.391  1.00  0.00     0.000 C 
BRANCH  10  11
ATOM     11  C   UNL     1       8.236  -2.636 -11.068  1.00  0.00    -0.000 C 
BRANCH  11  12
ATOM     12  C   UNL     1       9.028  -1.351 -11.371  1.00  0.00    -0.000 C 
BRANCH  12  13
ATOM     13  C   UNL     1      10.179  -1.577 -12.361  1.00  0.00    -0.003 C 
ATOM     14  C   UNL     1       9.658  -1.708 -13.790  1.00  0.00     0.004 C 
ENDBRANCH  12  13
ENDBRANCH  11  12
ENDBRANCH  10  11
ENDBRANCH   9  10
ENDBRANCH   1   9
TORSDOF 9
ENDMDL
