MODEL 1
REMARK VINA RESULT:     1.803      0.000      0.000
REMARK INTER + INTRA:           1.856
REMARK INTER:                   1.856
REMARK INTRA:                   0.000
REMARK UNBOUND:                 0.000
REMARK SMILES Cc1cccc(O)c1C
REMARK SMILES IDX 1 1 2 2 8 3 6 4 5 5 4 6 3 7 9 8 7 9
REMARK H PARENT 7 10
REMARK Flexibility Score: inf
ROOT
ATOM      1  C   UNL     1       2.325   5.412  -9.320  1.00  0.00     0.045 C 
ATOM      2  C   UNL     1       0.894   5.631  -9.741  1.00  0.00    -0.045 A 
ATOM      3  C   UNL     1      -0.088   6.080  -8.821  1.00  0.00    -0.006 A 
ATOM      4  C   UNL     1      -1.410   6.290  -9.270  1.00  0.00     0.118 A 
ATOM      5  C   UNL     1      -1.752   6.015 -10.601  1.00  0.00     0.046 A 
ATOM      6  C   UNL     1      -0.791   5.543 -11.492  1.00  0.00     0.004 A 
ATOM      7  C   UNL     1       0.523   5.352 -11.067  1.00  0.00     0.004 A 
ATOM      8  C   UNL     1       0.281   6.387  -7.389  1.00  0.00     0.048 C 
ENDROOT
BRANCH   4   9
ATOM      9  O   UNL     1      -2.385   6.772  -8.395  1.00  0.00    -0.508 OA
ATOM     10  H   UNL     1      -3.209   7.259  -8.732  1.00  0.00     0.293 HD
ENDBRANCH   4   9
TORSDOF 1
ENDMDL
MODEL 2
REMARK VINA RESULT:     1.901      1.385      2.803
REMARK INTER + INTRA:           1.957
REMARK INTER:                   1.957
REMARK INTRA:                   0.000
REMARK UNBOUND:                 0.000
REMARK SMILES Cc1cccc(O)c1C
REMARK SMILES IDX 1 1 2 2 8 3 6 4 5 5 4 6 3 7 9 8 7 9
REMARK H PARENT 7 10
REMARK Flexibility Score: inf
ROOT
ATOM      1  C   UNL     1      -1.578   5.910 -11.211  1.00  0.00     0.045 C 
ATOM      2  C   UNL     1      -0.479   5.789 -10.186  1.00  0.00    -0.045 A 
ATOM      3  C   UNL     1      -0.603   6.364  -8.895  1.00  0.00    -0.006 A 
ATOM      4  C   UNL     1       0.446   6.204  -7.964  1.00  0.00     0.118 A 
ATOM      5  C   UNL     1       1.613   5.520  -8.331  1.00  0.00     0.046 A 
ATOM      6  C   UNL     1       1.743   4.986  -9.611  1.00  0.00     0.004 A 
ATOM      7  C   UNL     1       0.706   5.118 -10.533  1.00  0.00     0.004 A 
ATOM      8  C   UNL     1      -1.864   7.091  -8.494  1.00  0.00     0.048 C 
ENDROOT
BRANCH   4   9
ATOM      9  O   UNL     1       0.331   6.723  -6.673  1.00  0.00    -0.508 OA
ATOM     10  H   UNL     1       1.065   6.603  -5.984  1.00  0.00     0.293 HD
ENDBRANCH   4   9
TORSDOF 1
ENDMDL
MODEL 3
REMARK VINA RESULT:     2.317      1.270      2.408
REMARK INTER + INTRA:           2.385
REMARK INTER:                   2.385
REMARK INTRA:                   0.000
REMARK UNBOUND:                 0.000
REMARK SMILES Cc1cccc(O)c1C
REMARK SMILES IDX 1 1 2 2 8 3 6 4 5 5 4 6 3 7 9 8 7 9
REMARK H PARENT 7 10
REMARK Flexibility Score: inf
ROOT
ATOM      1  C   UNL     1       0.365   6.805  -6.782  1.00  0.00     0.045 C 
ATOM      2  C   UNL     1       0.331   6.281  -8.195  1.00  0.00    -0.045 A 
ATOM      3  C   UNL     1      -0.830   6.400  -9.001  1.00  0.00    -0.006 A 
ATOM      4  C   UNL     1      -0.804   5.913 -10.326  1.00  0.00     0.118 A 
ATOM      5  C   UNL     1       0.346   5.281 -10.819  1.00  0.00     0.046 A 
ATOM      6  C   UNL     1       1.472   5.138 -10.013  1.00  0.00     0.004 A 
ATOM      7  C   UNL     1       1.467   5.634  -8.710  1.00  0.00     0.004 A 
ATOM      8  C   UNL     1      -2.066   7.091  -8.475  1.00  0.00     0.048 C 
ENDROOT
BRANCH   4   9
ATOM      9  O   UNL     1      -1.919   6.056 -11.154  1.00  0.00    -0.508 OA
ATOM     10  H   UNL     1      -2.407   6.940 -11.241  1.00  0.00     0.293 HD
ENDBRANCH   4   9
TORSDOF 1
ENDMDL
MODEL 4
REMARK VINA RESULT:     2.576      0.909      2.706
REMARK INTER + INTRA:           2.652
REMARK INTER:                   2.652
REMARK INTRA:                   0.000
REMARK UNBOUND:                 0.000
REMARK SMILES Cc1cccc(O)c1C
REMARK SMILES IDX 1 1 2 2 8 3 6 4 5 5 4 6 3 7 9 8 7 9
REMARK H PARENT 7 10
REMARK Flexibility Score: inf
ROOT
ATOM      1  C   UNL     1       1.324   4.807 -10.324  1.00  0.00     0.045 C 
ATOM      2  C   UNL     1       0.613   5.589  -9.250  1.00  0.00    -0.045 A 
ATOM      3  C   UNL     1      -0.724   6.033  -9.418  1.00  0.00    -0.006 A 
ATOM      4  C   UNL     1      -1.353   6.744  -8.372  1.00  0.00     0.118 A 
ATOM      5  C   UNL     1      -0.644   7.042  -7.200  1.00  0.00     0.046 A 
ATOM      6  C   UNL     1       0.679   6.632  -7.054  1.00  0.00     0.004 A 
ATOM      7  C   UNL     1       1.305   5.910  -8.069  1.00  0.00     0.004 A 
ATOM      8  C   UNL     1      -1.493   5.703 -10.675  1.00  0.00     0.048 C 
ENDROOT
BRANCH   4   9
ATOM      9  O   UNL     1      -2.681   7.154  -8.495  1.00  0.00    -0.508 OA
ATOM     10  H   UNL     1      -2.922   8.096  -8.783  1.00  0.00     0.293 HD
ENDBRANCH   4   9
TORSDOF 1
ENDMDL
MODEL 5
REMARK VINA RESULT:     3.193      1.838      2.858
REMARK INTER + INTRA:           3.286
REMARK INTER:                   3.286
REMARK INTRA:                   0.000
REMARK UNBOUND:                 0.000
REMARK SMILES Cc1cccc(O)c1C
REMARK SMILES IDX 1 1 2 2 8 3 6 4 5 5 4 6 3 7 9 8 7 9
REMARK H PARENT 7 10
REMARK Flexibility Score: inf
ROOT
ATOM      1  C   UNL     1      -1.922   7.103  -7.780  1.00  0.00     0.045 C 
ATOM      2  C   UNL     1      -1.113   6.463  -8.878  1.00  0.00    -0.045 A 
ATOM      3  C   UNL     1       0.244   6.095  -8.682  1.00  0.00    -0.006 A 
ATOM      4  C   UNL     1       0.951   5.478  -9.737  1.00  0.00     0.118 A 
ATOM      5  C   UNL     1       0.328   5.273 -10.975  1.00  0.00     0.046 A 
ATOM      6  C   UNL     1      -0.993   5.666 -11.172  1.00  0.00     0.004 A 
ATOM      7  C   UNL     1      -1.710   6.256 -10.133  1.00  0.00     0.004 A 
ATOM      8  C   UNL     1       0.913   6.305  -7.345  1.00  0.00     0.048 C 
ENDROOT
BRANCH   4   9
ATOM      9  O   UNL     1       2.273   5.068  -9.556  1.00  0.00    -0.508 OA
ATOM     10  H   UNL     1       3.031   5.457 -10.105  1.00  0.00     0.293 HD
ENDBRANCH   4   9
TORSDOF 1
ENDMDL
MODEL 6
REMARK VINA RESULT:     3.197      1.616      2.955
REMARK INTER + INTRA:           3.290
REMARK INTER:                   3.290
REMARK INTRA:                   0.000
REMARK UNBOUND:                 0.000
REMARK SMILES Cc1cccc(O)c1C
REMARK SMILES IDX 1 1 2 2 8 3 6 4 5 5 4 6 3 7 9 8 7 9
REMARK H PARENT 7 10
REMARK Flexibility Score: inf
ROOT
ATOM      1  C   UNL     1      -0.284   5.448 -11.474  1.00  0.00     0.045 C 
ATOM      2  C   UNL     1      -0.439   5.908 -10.047  1.00  0.00    -0.045 A 
ATOM      3  C   UNL     1       0.598   5.730  -9.094  1.00  0.00    -0.006 A 
ATOM      4  C   UNL     1       0.412   6.199  -7.776  1.00  0.00     0.118 A 
ATOM      5  C   UNL     1      -0.802   6.794  -7.407  1.00  0.00     0.046 A 
ATOM      6  C   UNL     1      -1.828   6.937  -8.337  1.00  0.00     0.004 A 
ATOM      7  C   UNL     1      -1.650   6.499  -9.649  1.00  0.00     0.004 A 
ATOM      8  C   UNL     1       1.911   5.099  -9.494  1.00  0.00     0.048 C 
ENDROOT
BRANCH   4   9
ATOM      9  O   UNL     1       1.432   6.074  -6.831  1.00  0.00    -0.508 OA
ATOM     10  H   UNL     1       2.407   6.021  -7.104  1.00  0.00     0.293 HD
ENDBRANCH   4   9
TORSDOF 1
ENDMDL
MODEL 7
REMARK VINA RESULT:     3.412      1.777      3.371
REMARK INTER + INTRA:           3.512
REMARK INTER:                   3.512
REMARK INTRA:                   0.000
REMARK UNBOUND:                 0.000
REMARK SMILES Cc1cccc(O)c1C
REMARK SMILES IDX 1 1 2 2 8 3 6 4 5 5 4 6 3 7 9 8 7 9
REMARK H PARENT 7 10
REMARK Flexibility Score: inf
ROOT
ATOM      1  C   UNL     1      -1.497   7.182  -7.737  1.00  0.00     0.045 C 
ATOM      2  C   UNL     1      -0.521   6.404  -8.582  1.00  0.00    -0.045 A 
ATOM      3  C   UNL     1      -0.845   5.995  -9.901  1.00  0.00    -0.006 A 
ATOM      4  C   UNL     1       0.112   5.287 -10.660  1.00  0.00     0.118 A 
ATOM      5  C   UNL     1       1.351   4.957 -10.095  1.00  0.00     0.046 A 
ATOM      6  C   UNL     1       1.652   5.332  -8.788  1.00  0.00     0.004 A 
ATOM      7  C   UNL     1       0.724   6.051  -8.035  1.00  0.00     0.004 A 
ATOM      8  C   UNL     1      -2.176   6.359 -10.515  1.00  0.00     0.048 C 
ENDROOT
BRANCH   4   9
ATOM      9  O   UNL     1      -0.166   4.910 -11.975  1.00  0.00    -0.508 OA
ATOM     10  H   UNL     1      -0.785   4.135 -12.187  1.00  0.00     0.293 HD
ENDBRANCH   4   9
TORSDOF 1
ENDMDL
MODEL 8
REMARK VINA RESULT:     3.513      0.769      2.741
REMARK INTER + INTRA:           3.615
REMARK INTER:                   3.615
REMARK INTRA:                   0.000
REMARK UNBOUND:                 0.000
REMARK SMILES Cc1cccc(O)c1C
REMARK SMILES IDX 1 1 2 2 8 3 6 4 5 5 4 6 3 7 9 8 7 9
REMARK H PARENT 7 10
REMARK Flexibility Score: inf
ROOT
ATOM      1  C   UNL     1      -0.139   5.436 -12.838  1.00  0.00     0.045 C 
ATOM      2  C   UNL     1      -0.124   5.655 -11.347  1.00  0.00    -0.045 A 
ATOM      3  C   UNL     1      -1.305   5.996 -10.637  1.00  0.00    -0.006 A 
ATOM      4  C   UNL     1      -1.242   6.169  -9.237  1.00  0.00     0.118 A 
ATOM      5  C   UNL     1      -0.016   6.047  -8.568  1.00  0.00     0.046 A 
ATOM      6  C   UNL     1       1.145   5.745  -9.275  1.00  0.00     0.004 A 
ATOM      7  C   UNL     1       1.093   5.550 -10.655  1.00  0.00     0.004 A 
ATOM      8  C   UNL     1      -2.628   6.116 -11.354  1.00  0.00     0.048 C 
ENDROOT
BRANCH   4   9
ATOM      9  O   UNL     1      -2.396   6.462  -8.509  1.00  0.00    -0.508 OA
ATOM     10  H   UNL     1      -2.362   6.671  -7.517  1.00  0.00     0.293 HD
ENDBRANCH   4   9
TORSDOF 1
ENDMDL
MODEL 9
REMARK VINA RESULT:     4.482     10.686     11.987
REMARK INTER + INTRA:           4.613
REMARK INTER:                   4.613
REMARK INTRA:                   0.000
REMARK UNBOUND:                 0.000
REMARK SMILES Cc1cccc(O)c1C
REMARK SMILES IDX 1 1 2 2 8 3 6 4 5 5 4 6 3 7 9 8 7 9
REMARK H PARENT 7 10
REMARK Flexibility Score: inf
ROOT
ATOM      1  C   UNL     1      13.023   7.808  -9.451  1.00  0.00     0.045 C 
ATOM      2  C   UNL     1      12.172   7.660  -8.216  1.00  0.00    -0.045 A 
ATOM      3  C   UNL     1      10.809   8.056  -8.203  1.00  0.00    -0.006 A 
ATOM      4  C   UNL     1      10.049   7.876  -7.027  1.00  0.00     0.118 A 
ATOM      5  C   UNL     1      10.651   7.352  -5.875  1.00  0.00     0.046 A 
ATOM      6  C   UNL     1      11.997   6.995  -5.884  1.00  0.00     0.004 A 
ATOM      7  C   UNL     1      12.754   7.147  -7.045  1.00  0.00     0.004 A 
ATOM      8  C   UNL     1      10.157   8.611  -9.447  1.00  0.00     0.048 C 
ENDROOT
BRANCH   4   9
ATOM      9  O   UNL     1       8.696   8.218  -7.001  1.00  0.00    -0.508 OA
ATOM     10  H   UNL     1       8.118   8.041  -6.187  1.00  0.00     0.293 HD
ENDBRANCH   4   9
TORSDOF 1
ENDMDL
