MODEL 1
REMARK VINA RESULT:    11.116      0.000      0.000
REMARK INTER + INTRA:          24.789
REMARK INTER:                  24.112
REMARK INTRA:                   0.676
REMARK UNBOUND:                 0.676
REMARK SMILES CCCCCCCCCCCCCCCCCCCCCC(=O)[O-]
REMARK SMILES IDX 12 1 11 2 10 3 9 4 8 5 7 6 6 7 5 8 4 9 3 10 2 11 1 12 13 13
REMARK SMILES IDX 14 14 15 15 16 16 17 17 18 18 19 19 20 20 21 21 22 22 23 23
REMARK SMILES IDX 24 24
REMARK H PARENT
REMARK Flexibility Score: inf
ROOT
ATOM      1  C   UNL     1       8.163 -24.841 -19.019  1.00  0.00     0.000 C 
ENDROOT
BRANCH   1   2
ATOM      2  C   UNL     1       8.933 -24.383 -20.269  1.00  0.00     0.000 C 
BRANCH   2   3
ATOM      3  C   UNL     1      10.289 -25.096 -20.423  1.00  0.00     0.000 C 
BRANCH   3   4
ATOM      4  C   UNL     1      10.993 -24.744 -21.745  1.00  0.00    -0.000 C 
BRANCH   4   5
ATOM      5  C   UNL     1      10.245 -23.660 -22.540  1.00  0.00    -0.000 C 
BRANCH   5   6
ATOM      6  C   UNL     1      10.962 -23.271 -23.846  1.00  0.00    -0.000 C 
BRANCH   6   7
ATOM      7  C   UNL     1      12.392 -22.731 -23.665  1.00  0.00    -0.000 C 
BRANCH   7   8
ATOM      8  C   UNL     1      13.238 -22.839 -24.946  1.00  0.00    -0.000 C 
BRANCH   8   9
ATOM      9  C   UNL     1      12.778 -23.978 -25.872  1.00  0.00    -0.000 C 
BRANCH   9  10
ATOM     10  C   UNL     1      13.913 -24.709 -26.611  1.00  0.00    -0.000 C 
BRANCH  10  11
ATOM     11  C   UNL     1      15.309 -24.243 -26.174  1.00  0.00    -0.003 C 
ATOM     12  C   UNL     1      16.135 -23.786 -27.374  1.00  0.00     0.004 C 
ENDBRANCH  10  11
ENDBRANCH   9  10
ENDBRANCH   8   9
ENDBRANCH   7   8
ENDBRANCH   6   7
ENDBRANCH   5   6
ENDBRANCH   4   5
ENDBRANCH   3   4
ENDBRANCH   2   3
ENDBRANCH   1   2
BRANCH   1  13
ATOM     13  C   UNL     1       8.878 -24.461 -17.711  1.00  0.00     0.000 C 
BRANCH  13  14
ATOM     14  C   UNL     1       8.219 -25.093 -16.473  1.00  0.00     0.000 C 
BRANCH  14  15
ATOM     15  C   UNL     1       6.766 -25.528 -16.732  1.00  0.00     0.000 C 
BRANCH  15  16
ATOM     16  C   UNL     1       5.791 -24.982 -15.677  1.00  0.00     0.000 C 
BRANCH  16  17
ATOM     17  C   UNL     1       4.395 -25.616 -15.771  1.00  0.00     0.000 C 
BRANCH  17  18
ATOM     18  C   UNL     1       3.894 -26.040 -14.385  1.00  0.00     0.000 C 
BRANCH  18  19
ATOM     19  C   UNL     1       3.663 -24.820 -13.485  1.00  0.00     0.000 C 
BRANCH  19  20
ATOM     20  C   UNL     1       4.987 -24.103 -13.181  1.00  0.00     0.006 C 
BRANCH  20  21
ATOM     21  C   UNL     1       5.191 -22.859 -14.055  1.00  0.00     0.053 C 
BRANCH  21  22
ATOM     22  C   UNL     1       6.264 -21.966 -13.511  1.00  0.00     0.041 C 
ATOM     23  O   UNL     1       7.409 -22.429 -13.262  1.00  0.00    -0.550 OA
ATOM     24  O   UNL     1       6.010 -20.615 -13.310  1.00  0.00    -0.550 OA
ENDBRANCH  21  22
ENDBRANCH  20  21
ENDBRANCH  19  20
ENDBRANCH  18  19
ENDBRANCH  17  18
ENDBRANCH  16  17
ENDBRANCH  15  16
ENDBRANCH  14  15
ENDBRANCH  13  14
ENDBRANCH   1  13
TORSDOF 20
ENDMDL
MODEL 2
REMARK VINA RESULT:    11.501      0.611      1.056
REMARK INTER + INTRA:          25.623
REMARK INTER:                  26.526
REMARK INTRA:                  -0.902
REMARK UNBOUND:                 0.676
REMARK SMILES CCCCCCCCCCCCCCCCCCCCCC(=O)[O-]
REMARK SMILES IDX 12 1 11 2 10 3 9 4 8 5 7 6 6 7 5 8 4 9 3 10 2 11 1 12 13 13
REMARK SMILES IDX 14 14 15 15 16 16 17 17 18 18 19 19 20 20 21 21 22 22 23 23
REMARK SMILES IDX 24 24
REMARK H PARENT
REMARK Flexibility Score: inf
ROOT
ATOM      1  C   UNL     1       7.695 -25.660 -18.632  1.00  0.00     0.000 C 
ENDROOT
BRANCH   1   2
ATOM      2  C   UNL     1       8.028 -24.618 -19.712  1.00  0.00     0.000 C 
BRANCH   2   3
ATOM      3  C   UNL     1       9.542 -24.482 -19.955  1.00  0.00     0.000 C 
BRANCH   3   4
ATOM      4  C   UNL     1       9.935 -24.780 -21.412  1.00  0.00    -0.000 C 
BRANCH   4   5
ATOM      5  C   UNL     1      10.086 -23.501 -22.254  1.00  0.00    -0.000 C 
BRANCH   5   6
ATOM      6  C   UNL     1      10.997 -23.694 -23.480  1.00  0.00    -0.000 C 
BRANCH   6   7
ATOM      7  C   UNL     1      12.313 -22.896 -23.444  1.00  0.00    -0.000 C 
BRANCH   7   8
ATOM      8  C   UNL     1      12.908 -22.659 -24.842  1.00  0.00    -0.000 C 
BRANCH   8   9
ATOM      9  C   UNL     1      12.561 -23.780 -25.837  1.00  0.00    -0.000 C 
BRANCH   9  10
ATOM     10  C   UNL     1      13.752 -24.660 -26.261  1.00  0.00    -0.000 C 
BRANCH  10  11
ATOM     11  C   UNL     1      15.109 -23.984 -26.022  1.00  0.00    -0.003 C 
ATOM     12  C   UNL     1      15.863 -23.789 -27.335  1.00  0.00     0.004 C 
ENDBRANCH  10  11
ENDBRANCH   9  10
ENDBRANCH   8   9
ENDBRANCH   7   8
ENDBRANCH   6   7
ENDBRANCH   5   6
ENDBRANCH   4   5
ENDBRANCH   3   4
ENDBRANCH   2   3
ENDBRANCH   1   2
BRANCH   1  13
ATOM     13  C   UNL     1       8.047 -25.177 -17.214  1.00  0.00     0.000 C 
BRANCH  13  14
ATOM     14  C   UNL     1       6.926 -25.457 -16.198  1.00  0.00     0.000 C 
BRANCH  14  15
ATOM     15  C   UNL     1       5.598 -24.780 -16.580  1.00  0.00     0.000 C 
BRANCH  15  16
ATOM     16  C   UNL     1       4.373 -25.553 -16.065  1.00  0.00     0.000 C 
BRANCH  16  17
ATOM     17  C   UNL     1       4.585 -26.136 -14.660  1.00  0.00     0.000 C 
BRANCH  17  18
ATOM     18  C   UNL     1       3.411 -25.779 -13.739  1.00  0.00     0.000 C 
BRANCH  18  19
ATOM     19  C   UNL     1       3.578 -24.373 -13.151  1.00  0.00     0.000 C 
BRANCH  19  20
ATOM     20  C   UNL     1       5.053 -23.945 -13.163  1.00  0.00     0.006 C 
BRANCH  20  21
ATOM     21  C   UNL     1       5.302 -22.739 -14.079  1.00  0.00     0.053 C 
BRANCH  21  22
ATOM     22  C   UNL     1       6.417 -21.876 -13.572  1.00  0.00     0.041 C 
ATOM     23  O   UNL     1       6.208 -20.662 -13.307  1.00  0.00    -0.550 OA
ATOM     24  O   UNL     1       7.678 -22.419 -13.363  1.00  0.00    -0.550 OA
ENDBRANCH  21  22
ENDBRANCH  20  21
ENDBRANCH  19  20
ENDBRANCH  18  19
ENDBRANCH  17  18
ENDBRANCH  16  17
ENDBRANCH  15  16
ENDBRANCH  14  15
ENDBRANCH  13  14
ENDBRANCH   1  13
TORSDOF 20
ENDMDL
MODEL 3
REMARK VINA RESULT:    12.469      4.596     11.981
REMARK INTER + INTRA:          27.723
REMARK INTER:                  28.621
REMARK INTRA:                  -0.898
REMARK UNBOUND:                 0.676
REMARK SMILES CCCCCCCCCCCCCCCCCCCCCC(=O)[O-]
REMARK SMILES IDX 12 1 11 2 10 3 9 4 8 5 7 6 6 7 5 8 4 9 3 10 2 11 1 12 13 13
REMARK SMILES IDX 14 14 15 15 16 16 17 17 18 18 19 19 20 20 21 21 22 22 23 23
REMARK SMILES IDX 24 24
REMARK H PARENT
REMARK Flexibility Score: inf
ROOT
ATOM      1  C   UNL     1       8.043 -25.438 -17.682  1.00  0.00     0.000 C 
ENDROOT
BRANCH   1   2
ATOM      2  C   UNL     1       6.707 -25.802 -17.014  1.00  0.00     0.000 C 
BRANCH   2   3
ATOM      3  C   UNL     1       6.197 -24.697 -16.072  1.00  0.00     0.000 C 
BRANCH   3   4
ATOM      4  C   UNL     1       4.661 -24.655 -15.991  1.00  0.00    -0.000 C 
BRANCH   4   5
ATOM      5  C   UNL     1       4.059 -25.993 -15.528  1.00  0.00    -0.000 C 
BRANCH   5   6
ATOM      6  C   UNL     1       4.127 -26.186 -14.003  1.00  0.00    -0.000 C 
BRANCH   6   7
ATOM      7  C   UNL     1       3.299 -25.181 -13.182  1.00  0.00    -0.000 C 
BRANCH   7   8
ATOM      8  C   UNL     1       4.001 -23.822 -13.016  1.00  0.00    -0.000 C 
BRANCH   8   9
ATOM      9  C   UNL     1       5.487 -23.959 -12.643  1.00  0.00    -0.000 C 
BRANCH   9  10
ATOM     10  C   UNL     1       6.407 -22.882 -13.246  1.00  0.00    -0.000 C 
BRANCH  10  11
ATOM     11  C   UNL     1       5.652 -21.873 -14.122  1.00  0.00    -0.003 C 
ATOM     12  C   UNL     1       5.649 -20.486 -13.483  1.00  0.00     0.004 C 
ENDBRANCH  10  11
ENDBRANCH   9  10
ENDBRANCH   8   9
ENDBRANCH   7   8
ENDBRANCH   6   7
ENDBRANCH   5   6
ENDBRANCH   4   5
ENDBRANCH   3   4
ENDBRANCH   2   3
ENDBRANCH   1   2
BRANCH   1  13
ATOM     13  C   UNL     1       7.933 -25.343 -19.214  1.00  0.00     0.000 C 
BRANCH  13  14
ATOM     14  C   UNL     1       8.822 -24.234 -19.803  1.00  0.00     0.000 C 
BRANCH  14  15
ATOM     15  C   UNL     1      10.243 -24.724 -20.132  1.00  0.00     0.000 C 
BRANCH  15  16
ATOM     16  C   UNL     1      10.481 -24.869 -21.643  1.00  0.00     0.000 C 
BRANCH  16  17
ATOM     17  C   UNL     1      10.118 -23.598 -22.427  1.00  0.00     0.000 C 
BRANCH  17  18
ATOM     18  C   UNL     1      10.944 -23.498 -23.715  1.00  0.00     0.000 C 
BRANCH  18  19
ATOM     19  C   UNL     1      12.192 -22.632 -23.506  1.00  0.00     0.000 C 
BRANCH  19  20
ATOM     20  C   UNL     1      13.145 -22.743 -24.704  1.00  0.00     0.006 C 
BRANCH  20  21
ATOM     21  C   UNL     1      12.636 -23.728 -25.765  1.00  0.00     0.053 C 
BRANCH  21  22
ATOM     22  C   UNL     1      13.752 -24.530 -26.362  1.00  0.00     0.041 C 
ATOM     23  O   UNL     1      13.498 -25.547 -27.061  1.00  0.00    -0.550 OA
ATOM     24  O   UNL     1      15.070 -24.136 -26.174  1.00  0.00    -0.550 OA
ENDBRANCH  21  22
ENDBRANCH  20  21
ENDBRANCH  19  20
ENDBRANCH  18  19
ENDBRANCH  17  18
ENDBRANCH  16  17
ENDBRANCH  15  16
ENDBRANCH  14  15
ENDBRANCH  13  14
ENDBRANCH   1  13
TORSDOF 20
ENDMDL
MODEL 4
REMARK VINA RESULT:    13.118      4.682     12.297
REMARK INTER + INTRA:          29.131
REMARK INTER:                  28.998
REMARK INTRA:                   0.134
REMARK UNBOUND:                 0.676
REMARK SMILES CCCCCCCCCCCCCCCCCCCCCC(=O)[O-]
REMARK SMILES IDX 12 1 11 2 10 3 9 4 8 5 7 6 6 7 5 8 4 9 3 10 2 11 1 12 13 13
REMARK SMILES IDX 14 14 15 15 16 16 17 17 18 18 19 19 20 20 21 21 22 22 23 23
REMARK SMILES IDX 24 24
REMARK H PARENT
REMARK Flexibility Score: inf
ROOT
ATOM      1  C   UNL     1       7.660 -25.617 -17.393  1.00  0.00     0.000 C 
ENDROOT
BRANCH   1   2
ATOM      2  C   UNL     1       6.239 -25.343 -16.875  1.00  0.00     0.000 C 
BRANCH   2   3
ATOM      3  C   UNL     1       6.226 -24.413 -15.648  1.00  0.00     0.000 C 
BRANCH   3   4
ATOM      4  C   UNL     1       5.234 -23.248 -15.803  1.00  0.00    -0.000 C 
BRANCH   4   5
ATOM      5  C   UNL     1       5.260 -22.288 -14.600  1.00  0.00    -0.000 C 
BRANCH   5   6
ATOM      6  C   UNL     1       6.198 -22.763 -13.475  1.00  0.00    -0.000 C 
BRANCH   6   7
ATOM      7  C   UNL     1       5.539 -23.666 -12.417  1.00  0.00    -0.000 C 
BRANCH   7   8
ATOM      8  C   UNL     1       4.072 -23.997 -12.744  1.00  0.00    -0.000 C 
BRANCH   8   9
ATOM      9  C   UNL     1       3.840 -25.497 -12.997  1.00  0.00    -0.000 C 
BRANCH   9  10
ATOM     10  C   UNL     1       4.317 -26.002 -14.371  1.00  0.00    -0.000 C 
BRANCH  10  11
ATOM     11  C   UNL     1       3.180 -26.584 -15.222  1.00  0.00    -0.003 C 
ATOM     12  C   UNL     1       1.960 -26.904 -14.361  1.00  0.00     0.004 C 
ENDBRANCH  10  11
ENDBRANCH   9  10
ENDBRANCH   8   9
ENDBRANCH   7   8
ENDBRANCH   6   7
ENDBRANCH   5   6
ENDBRANCH   4   5
ENDBRANCH   3   4
ENDBRANCH   2   3
ENDBRANCH   1   2
BRANCH   1  13
ATOM     13  C   UNL     1       7.768 -25.490 -18.923  1.00  0.00     0.000 C 
BRANCH  13  14
ATOM     14  C   UNL     1       8.666 -24.318 -19.356  1.00  0.00     0.000 C 
BRANCH  14  15
ATOM     15  C   UNL     1       9.741 -24.739 -20.373  1.00  0.00     0.000 C 
BRANCH  15  16
ATOM     16  C   UNL     1       9.651 -23.946 -21.687  1.00  0.00     0.000 C 
BRANCH  16  17
ATOM     17  C   UNL     1      10.757 -24.321 -22.685  1.00  0.00     0.000 C 
BRANCH  17  18
ATOM     18  C   UNL     1      10.926 -23.228 -23.748  1.00  0.00     0.000 C 
BRANCH  18  19
ATOM     19  C   UNL     1      12.403 -22.860 -23.931  1.00  0.00     0.000 C 
BRANCH  19  20
ATOM     20  C   UNL     1      12.854 -23.108 -25.379  1.00  0.00     0.006 C 
BRANCH  20  21
ATOM     21  C   UNL     1      14.361 -23.376 -25.481  1.00  0.00     0.053 C 
BRANCH  21  22
ATOM     22  C   UNL     1      14.676 -24.388 -26.540  1.00  0.00     0.041 C 
ATOM     23  O   UNL     1      13.947 -25.406 -26.681  1.00  0.00    -0.550 OA
ATOM     24  O   UNL     1      15.757 -24.193 -27.391  1.00  0.00    -0.550 OA
ENDBRANCH  21  22
ENDBRANCH  20  21
ENDBRANCH  19  20
ENDBRANCH  18  19
ENDBRANCH  17  18
ENDBRANCH  16  17
ENDBRANCH  15  16
ENDBRANCH  14  15
ENDBRANCH  13  14
ENDBRANCH   1  13
TORSDOF 20
ENDMDL
MODEL 5
REMARK VINA RESULT:    13.507      5.524      9.652
REMARK INTER + INTRA:          29.976
REMARK INTER:                  31.006
REMARK INTRA:                  -1.030
REMARK UNBOUND:                 0.676
REMARK SMILES CCCCCCCCCCCCCCCCCCCCCC(=O)[O-]
REMARK SMILES IDX 12 1 11 2 10 3 9 4 8 5 7 6 6 7 5 8 4 9 3 10 2 11 1 12 13 13
REMARK SMILES IDX 14 14 15 15 16 16 17 17 18 18 19 19 20 20 21 21 22 22 23 23
REMARK SMILES IDX 24 24
REMARK H PARENT
REMARK Flexibility Score: inf
ROOT
ATOM      1  C   UNL     1       5.500 -21.570 -14.044  1.00  0.00     0.000 C 
ENDROOT
BRANCH   1   2
ATOM      2  C   UNL     1       6.443 -22.631 -13.453  1.00  0.00     0.000 C 
BRANCH   2   3
ATOM      3  C   UNL     1       5.704 -23.920 -13.050  1.00  0.00     0.000 C 
BRANCH   3   4
ATOM      4  C   UNL     1       4.363 -24.085 -13.785  1.00  0.00    -0.000 C 
BRANCH   4   5
ATOM      5  C   UNL     1       4.105 -25.537 -14.222  1.00  0.00    -0.000 C 
BRANCH   5   6
ATOM      6  C   UNL     1       4.363 -25.768 -15.722  1.00  0.00    -0.000 C 
BRANCH   6   7
ATOM      7  C   UNL     1       5.528 -24.953 -16.313  1.00  0.00    -0.000 C 
BRANCH   7   8
ATOM      8  C   UNL     1       6.887 -25.657 -16.162  1.00  0.00    -0.000 C 
BRANCH   8   9
ATOM      9  C   UNL     1       7.960 -25.095 -17.110  1.00  0.00    -0.000 C 
BRANCH   9  10
ATOM     10  C   UNL     1       7.747 -25.428 -18.598  1.00  0.00    -0.000 C 
BRANCH  10  11
ATOM     11  C   UNL     1       8.332 -24.366 -19.539  1.00  0.00    -0.003 C 
ATOM     12  C   UNL     1       9.619 -24.862 -20.193  1.00  0.00     0.004 C 
ENDBRANCH  10  11
ENDBRANCH   9  10
ENDBRANCH   8   9
ENDBRANCH   7   8
ENDBRANCH   6   7
ENDBRANCH   5   6
ENDBRANCH   4   5
ENDBRANCH   3   4
ENDBRANCH   2   3
ENDBRANCH   1   2
BRANCH   1  13
ATOM     13  C   UNL     1       5.607 -20.214 -13.325  1.00  0.00     0.000 C 
BRANCH  13  14
ATOM     14  C   UNL     1       5.053 -19.053 -14.169  1.00  0.00     0.000 C 
BRANCH  14  15
ATOM     15  C   UNL     1       4.437 -17.936 -13.308  1.00  0.00     0.000 C 
BRANCH  15  16
ATOM     16  C   UNL     1       3.061 -17.486 -13.825  1.00  0.00     0.000 C 
BRANCH  16  17
ATOM     17  C   UNL     1       3.159 -16.433 -14.940  1.00  0.00     0.000 C 
BRANCH  17  18
ATOM     18  C   UNL     1       1.919 -15.532 -14.949  1.00  0.00     0.000 C 
BRANCH  18  19
ATOM     19  C   UNL     1       1.306 -15.450 -16.352  1.00  0.00     0.000 C 
BRANCH  19  20
ATOM     20  C   UNL     1       1.852 -14.237 -17.120  1.00  0.00     0.006 C 
BRANCH  20  21
ATOM     21  C   UNL     1       3.163 -14.552 -17.852  1.00  0.00     0.053 C 
BRANCH  21  22
ATOM     22  C   UNL     1       3.240 -13.863 -19.180  1.00  0.00     0.041 C 
ATOM     23  O   UNL     1       3.381 -12.612 -19.238  1.00  0.00    -0.550 OA
ATOM     24  O   UNL     1       3.188 -14.604 -20.353  1.00  0.00    -0.550 OA
ENDBRANCH  21  22
ENDBRANCH  20  21
ENDBRANCH  19  20
ENDBRANCH  18  19
ENDBRANCH  17  18
ENDBRANCH  16  17
ENDBRANCH  15  16
ENDBRANCH  14  15
ENDBRANCH  13  14
ENDBRANCH   1  13
TORSDOF 20
ENDMDL
MODEL 6
REMARK VINA RESULT:    13.590      6.209     11.108
REMARK INTER + INTRA:          30.156
REMARK INTER:                  30.833
REMARK INTRA:                  -0.677
REMARK UNBOUND:                 0.676
REMARK SMILES CCCCCCCCCCCCCCCCCCCCCC(=O)[O-]
REMARK SMILES IDX 12 1 11 2 10 3 9 4 8 5 7 6 6 7 5 8 4 9 3 10 2 11 1 12 13 13
REMARK SMILES IDX 14 14 15 15 16 16 17 17 18 18 19 19 20 20 21 21 22 22 23 23
REMARK SMILES IDX 24 24
REMARK H PARENT
REMARK Flexibility Score: inf
ROOT
ATOM      1  C   UNL     1       5.769 -20.208 -13.300  1.00  0.00     0.000 C 
ENDROOT
BRANCH   1   2
ATOM      2  C   UNL     1       4.795 -19.291 -14.057  1.00  0.00     0.000 C 
BRANCH   2   3
ATOM      3  C   UNL     1       4.056 -18.315 -13.125  1.00  0.00     0.000 C 
BRANCH   3   4
ATOM      4  C   UNL     1       3.810 -16.945 -13.780  1.00  0.00    -0.000 C 
BRANCH   4   5
ATOM      5  C   UNL     1       2.605 -16.957 -14.736  1.00  0.00    -0.000 C 
BRANCH   5   6
ATOM      6  C   UNL     1       2.010 -15.556 -14.971  1.00  0.00    -0.000 C 
BRANCH   6   7
ATOM      7  C   UNL     1       1.371 -15.346 -16.355  1.00  0.00    -0.000 C 
BRANCH   7   8
ATOM      8  C   UNL     1       2.030 -14.206 -17.151  1.00  0.00    -0.000 C 
BRANCH   8   9
ATOM      9  C   UNL     1       3.092 -14.706 -18.144  1.00  0.00    -0.000 C 
BRANCH   9  10
ATOM     10  C   UNL     1       3.168 -13.915 -19.463  1.00  0.00    -0.000 C 
BRANCH  10  11
ATOM     11  C   UNL     1       3.306 -12.402 -19.246  1.00  0.00    -0.003 C 
ATOM     12  C   UNL     1       4.314 -12.097 -18.141  1.00  0.00     0.004 C 
ENDBRANCH  10  11
ENDBRANCH   9  10
ENDBRANCH   8   9
ENDBRANCH   7   8
ENDBRANCH   6   7
ENDBRANCH   5   6
ENDBRANCH   4   5
ENDBRANCH   3   4
ENDBRANCH   2   3
ENDBRANCH   1   2
BRANCH   1  13
ATOM     13  C   UNL     1       5.995 -21.552 -14.014  1.00  0.00     0.000 C 
BRANCH  13  14
ATOM     14  C   UNL     1       6.065 -22.737 -13.035  1.00  0.00     0.000 C 
BRANCH  14  15
ATOM     15  C   UNL     1       5.188 -23.922 -13.474  1.00  0.00     0.000 C 
BRANCH  15  16
ATOM     16  C   UNL     1       4.926 -23.932 -14.988  1.00  0.00     0.000 C 
BRANCH  16  17
ATOM     17  C   UNL     1       5.558 -25.141 -15.694  1.00  0.00     0.000 C 
BRANCH  17  18
ATOM     18  C   UNL     1       6.715 -24.700 -16.599  1.00  0.00     0.000 C 
BRANCH  18  19
ATOM     19  C   UNL     1       7.308 -25.894 -17.357  1.00  0.00     0.000 C 
BRANCH  19  20
ATOM     20  C   UNL     1       7.555 -25.539 -18.831  1.00  0.00     0.006 C 
BRANCH  20  21
ATOM     21  C   UNL     1       8.590 -24.419 -18.995  1.00  0.00     0.053 C 
BRANCH  21  22
ATOM     22  C   UNL     1       9.131 -24.360 -20.392  1.00  0.00     0.041 C 
ATOM     23  O   UNL     1       8.620 -23.578 -21.237  1.00  0.00    -0.550 OA
ATOM     24  O   UNL     1      10.219 -25.145 -20.751  1.00  0.00    -0.550 OA
ENDBRANCH  21  22
ENDBRANCH  20  21
ENDBRANCH  19  20
ENDBRANCH  18  19
ENDBRANCH  17  18
ENDBRANCH  16  17
ENDBRANCH  15  16
ENDBRANCH  14  15
ENDBRANCH  13  14
ENDBRANCH   1  13
TORSDOF 20
ENDMDL
MODEL 7
REMARK VINA RESULT:    13.946     12.312     14.012
REMARK INTER + INTRA:          30.928
REMARK INTER:                  28.951
REMARK INTRA:                   1.976
REMARK UNBOUND:                 0.676
REMARK SMILES CCCCCCCCCCCCCCCCCCCCCC(=O)[O-]
REMARK SMILES IDX 12 1 11 2 10 3 9 4 8 5 7 6 6 7 5 8 4 9 3 10 2 11 1 12 13 13
REMARK SMILES IDX 14 14 15 15 16 16 17 17 18 18 19 19 20 20 21 21 22 22 23 23
REMARK SMILES IDX 24 24
REMARK H PARENT
REMARK Flexibility Score: inf
ROOT
ATOM      1  C   UNL     1       0.851 -20.706 -25.312  1.00  0.00     0.000 C 
ENDROOT
BRANCH   1   2
ATOM      2  C   UNL     1       0.766 -21.962 -24.429  1.00  0.00     0.000 C 
BRANCH   2   3
ATOM      3  C   UNL     1       1.655 -23.108 -24.945  1.00  0.00     0.000 C 
BRANCH   3   4
ATOM      4  C   UNL     1       0.854 -24.389 -25.237  1.00  0.00    -0.000 C 
BRANCH   4   5
ATOM      5  C   UNL     1       1.761 -25.595 -25.535  1.00  0.00    -0.000 C 
BRANCH   5   6
ATOM      6  C   UNL     1       0.981 -26.821 -26.045  1.00  0.00    -0.000 C 
BRANCH   6   7
ATOM      7  C   UNL     1       1.830 -28.086 -26.264  1.00  0.00    -0.000 C 
BRANCH   7   8
ATOM      8  C   UNL     1       2.914 -28.273 -25.187  1.00  0.00    -0.000 C 
BRANCH   8   9
ATOM      9  C   UNL     1       2.440 -27.858 -23.784  1.00  0.00    -0.000 C 
BRANCH   9  10
ATOM     10  C   UNL     1       3.387 -26.900 -23.039  1.00  0.00    -0.000 C 
BRANCH  10  11
ATOM     11  C   UNL     1       4.868 -27.262 -23.220  1.00  0.00    -0.003 C 
ATOM     12  C   UNL     1       5.129 -27.819 -24.617  1.00  0.00     0.004 C 
ENDBRANCH  10  11
ENDBRANCH   9  10
ENDBRANCH   8   9
ENDBRANCH   7   8
ENDBRANCH   6   7
ENDBRANCH   5   6
ENDBRANCH   4   5
ENDBRANCH   3   4
ENDBRANCH   2   3
ENDBRANCH   1   2
BRANCH   1  13
ATOM     13  C   UNL     1      -0.079 -20.777 -26.535  1.00  0.00     0.000 C 
BRANCH  13  14
ATOM     14  C   UNL     1      -1.567 -20.695 -26.151  1.00  0.00     0.000 C 
BRANCH  14  15
ATOM     15  C   UNL     1      -2.125 -19.264 -26.242  1.00  0.00     0.000 C 
BRANCH  15  16
ATOM     16  C   UNL     1      -1.107 -18.206 -25.788  1.00  0.00     0.000 C 
BRANCH  16  17
ATOM     17  C   UNL     1      -1.263 -16.872 -26.534  1.00  0.00     0.000 C 
BRANCH  17  18
ATOM     18  C   UNL     1      -1.729 -15.765 -25.579  1.00  0.00     0.000 C 
BRANCH  18  19
ATOM     19  C   UNL     1      -1.348 -14.379 -26.113  1.00  0.00     0.000 C 
BRANCH  19  20
ATOM     20  C   UNL     1      -1.563 -14.297 -27.631  1.00  0.00     0.006 C 
BRANCH  20  21
ATOM     21  C   UNL     1      -1.697 -12.851 -28.124  1.00  0.00     0.053 C 
BRANCH  21  22
ATOM     22  C   UNL     1      -0.946 -11.893 -27.251  1.00  0.00     0.041 C 
ATOM     23  O   UNL     1      -1.417 -11.548 -26.135  1.00  0.00    -0.550 OA
ATOM     24  O   UNL     1       0.291 -11.405 -27.655  1.00  0.00    -0.550 OA
ENDBRANCH  21  22
ENDBRANCH  20  21
ENDBRANCH  19  20
ENDBRANCH  18  19
ENDBRANCH  17  18
ENDBRANCH  16  17
ENDBRANCH  15  16
ENDBRANCH  14  15
ENDBRANCH  13  14
ENDBRANCH   1  13
TORSDOF 20
ENDMDL
