MODEL 1
REMARK VINA RESULT:    -5.121      0.000      0.000
REMARK INTER + INTRA:          -5.589
REMARK INTER:                  -5.420
REMARK INTRA:                  -0.168
REMARK UNBOUND:                -0.168
REMARK SMILES CC1=CCC(C(C)C)=CC1
REMARK SMILES IDX 1 1 2 2 3 3 4 4 5 5 9 6 10 7 6 8 7 9 8 10
REMARK H PARENT
REMARK Flexibility Score: inf
ROOT
ATOM      1  C   UNL     1      10.113  10.011  30.699  1.00  0.00     0.039 C 
ATOM      2  C   UNL     1       9.595   8.703  30.171  1.00  0.00    -0.073 C 
ATOM      3  C   UNL     1       9.596   8.468  28.845  1.00  0.00    -0.023 C 
ATOM      4  C   UNL     1       9.036   7.184  28.285  1.00  0.00     0.058 C 
ATOM      5  C   UNL     1       9.216   6.029  29.251  1.00  0.00    -0.068 C 
ATOM      6  C   UNL     1       9.213   6.271  30.581  1.00  0.00    -0.023 C 
ATOM      7  C   UNL     1       9.027   7.668  31.117  1.00  0.00     0.057 C 
ENDROOT
BRANCH   5   8
ATOM      8  C   UNL     1       9.358   4.617  28.706  1.00  0.00     0.009 C 
ATOM      9  C   UNL     1      10.193   3.736  29.643  1.00  0.00     0.012 C 
ATOM     10  C   UNL     1       9.940   4.625  27.287  1.00  0.00     0.012 C 
ENDBRANCH   5   8
TORSDOF 1
ENDMDL
MODEL 2
REMARK VINA RESULT:    -4.590      2.456      3.996
REMARK INTER + INTRA:          -5.027
REMARK INTER:                  -4.858
REMARK INTRA:                  -0.169
REMARK UNBOUND:                -0.168
REMARK SMILES CC1=CCC(C(C)C)=CC1
REMARK SMILES IDX 1 1 2 2 3 3 4 4 5 5 9 6 10 7 6 8 7 9 8 10
REMARK H PARENT
REMARK Flexibility Score: inf
ROOT
ATOM      1  C   UNL     1      13.992   7.146  26.244  1.00  0.00     0.039 C 
ATOM      2  C   UNL     1      12.604   6.809  26.712  1.00  0.00    -0.073 C 
ATOM      3  C   UNL     1      12.325   5.564  27.139  1.00  0.00    -0.023 C 
ATOM      4  C   UNL     1      10.929   5.186  27.567  1.00  0.00     0.058 C 
ATOM      5  C   UNL     1      10.191   6.367  28.168  1.00  0.00    -0.068 C 
ATOM      6  C   UNL     1      10.475   7.615  27.734  1.00  0.00    -0.023 C 
ATOM      7  C   UNL     1      11.506   7.850  26.660  1.00  0.00     0.057 C 
ENDROOT
BRANCH   5   8
ATOM      8  C   UNL     1       9.119   6.121  29.218  1.00  0.00     0.009 C 
ATOM      9  C   UNL     1       8.939   7.340  30.131  1.00  0.00     0.012 C 
ATOM     10  C   UNL     1       9.420   4.858  30.034  1.00  0.00     0.012 C 
ENDBRANCH   5   8
TORSDOF 1
ENDMDL
MODEL 3
REMARK VINA RESULT:    -4.559     14.601     16.163
REMARK INTER + INTRA:          -4.994
REMARK INTER:                  -4.830
REMARK INTRA:                  -0.163
REMARK UNBOUND:                -0.168
REMARK SMILES CC1=CCC(C(C)C)=CC1
REMARK SMILES IDX 1 1 2 2 3 3 4 4 5 5 9 6 10 7 6 8 7 9 8 10
REMARK H PARENT
REMARK Flexibility Score: inf
ROOT
ATOM      1  C   UNL     1       2.749   8.267  15.389  1.00  0.00     0.039 C 
ATOM      2  C   UNL     1       4.123   7.803  14.996  1.00  0.00    -0.073 C 
ATOM      3  C   UNL     1       4.269   6.912  13.998  1.00  0.00    -0.023 C 
ATOM      4  C   UNL     1       5.633   6.392  13.617  1.00  0.00     0.058 C 
ATOM      5  C   UNL     1       6.713   7.429  13.859  1.00  0.00    -0.068 C 
ATOM      6  C   UNL     1       6.561   8.321  14.864  1.00  0.00    -0.023 C 
ATOM      7  C   UNL     1       5.340   8.296  15.748  1.00  0.00     0.057 C 
ENDROOT
BRANCH   5   8
ATOM      8  C   UNL     1       7.963   7.420  12.993  1.00  0.00     0.009 C 
ATOM      9  C   UNL     1       8.254   8.811  12.416  1.00  0.00     0.012 C 
ATOM     10  C   UNL     1       7.860   6.369  11.882  1.00  0.00     0.012 C 
ENDBRANCH   5   8
TORSDOF 1
ENDMDL
MODEL 4
REMARK VINA RESULT:    -4.498     14.604     16.266
REMARK INTER + INTRA:          -4.929
REMARK INTER:                  -4.782
REMARK INTRA:                  -0.147
REMARK UNBOUND:                -0.168
REMARK SMILES CC1=CCC(C(C)C)=CC1
REMARK SMILES IDX 1 1 2 2 3 3 4 4 5 5 9 6 10 7 6 8 7 9 8 10
REMARK H PARENT
REMARK Flexibility Score: inf
ROOT
ATOM      1  C   UNL     1       8.577   8.606  12.008  1.00  0.00     0.039 C 
ATOM      2  C   UNL     1       7.575   7.948  12.914  1.00  0.00    -0.073 C 
ATOM      3  C   UNL     1       7.191   8.563  14.048  1.00  0.00    -0.023 C 
ATOM      4  C   UNL     1       6.225   7.902  15.000  1.00  0.00     0.058 C 
ATOM      5  C   UNL     1       5.246   7.004  14.267  1.00  0.00    -0.068 C 
ATOM      6  C   UNL     1       5.638   6.388  13.129  1.00  0.00    -0.023 C 
ATOM      7  C   UNL     1       7.031   6.575  12.582  1.00  0.00     0.057 C 
ENDROOT
BRANCH   5   8
ATOM      8  C   UNL     1       3.858   6.784  14.847  1.00  0.00     0.009 C 
ATOM      9  C   UNL     1       3.094   8.106  14.989  1.00  0.00     0.012 C 
ATOM     10  C   UNL     1       3.928   6.037  16.184  1.00  0.00     0.012 C 
ENDBRANCH   5   8
TORSDOF 1
ENDMDL
MODEL 5
REMARK VINA RESULT:    -4.462      1.778      3.992
REMARK INTER + INTRA:          -4.891
REMARK INTER:                  -4.722
REMARK INTRA:                  -0.169
REMARK UNBOUND:                -0.168
REMARK SMILES CC1=CCC(C(C)C)=CC1
REMARK SMILES IDX 1 1 2 2 3 3 4 4 5 5 9 6 10 7 6 8 7 9 8 10
REMARK H PARENT
REMARK Flexibility Score: inf
ROOT
ATOM      1  C   UNL     1      10.300   3.740  31.125  1.00  0.00     0.039 C 
ATOM      2  C   UNL     1       9.972   4.589  29.930  1.00  0.00    -0.073 C 
ATOM      3  C   UNL     1       9.635   5.882  30.098  1.00  0.00    -0.023 C 
ATOM      4  C   UNL     1       9.253   6.743  28.920  1.00  0.00     0.058 C 
ATOM      5  C   UNL     1       9.980   6.317  27.659  1.00  0.00    -0.068 C 
ATOM      6  C   UNL     1      10.315   5.017  27.495  1.00  0.00    -0.023 C 
ATOM      7  C   UNL     1       9.972   3.987  28.541  1.00  0.00     0.057 C 
ENDROOT
BRANCH   5   8
ATOM      8  C   UNL     1      10.282   7.352  26.587  1.00  0.00     0.009 C 
ATOM      9  C   UNL     1      11.205   6.781  25.502  1.00  0.00     0.012 C 
ATOM     10  C   UNL     1      10.870   8.629  27.199  1.00  0.00     0.012 C 
ENDBRANCH   5   8
TORSDOF 1
ENDMDL
MODEL 6
REMARK VINA RESULT:    -4.429      3.015      4.077
REMARK INTER + INTRA:          -4.856
REMARK INTER:                  -4.720
REMARK INTRA:                  -0.135
REMARK UNBOUND:                -0.168
REMARK SMILES CC1=CCC(C(C)C)=CC1
REMARK SMILES IDX 1 1 2 2 3 3 4 4 5 5 9 6 10 7 6 8 7 9 8 10
REMARK H PARENT
REMARK Flexibility Score: inf
ROOT
ATOM      1  C   UNL     1      14.271   7.559  25.325  1.00  0.00     0.039 C 
ATOM      2  C   UNL     1      13.167   7.151  26.260  1.00  0.00    -0.073 C 
ATOM      3  C   UNL     1      11.990   7.804  26.233  1.00  0.00    -0.023 C 
ATOM      4  C   UNL     1      10.884   7.448  27.194  1.00  0.00     0.058 C 
ATOM      5  C   UNL     1      10.915   5.976  27.560  1.00  0.00    -0.068 C 
ATOM      6  C   UNL     1      12.100   5.326  27.586  1.00  0.00    -0.023 C 
ATOM      7  C   UNL     1      13.388   6.041  27.265  1.00  0.00     0.057 C 
ENDROOT
BRANCH   5   8
ATOM      8  C   UNL     1       9.619   5.271  27.928  1.00  0.00     0.009 C 
ATOM      9  C   UNL     1       9.320   5.396  29.427  1.00  0.00     0.012 C 
ATOM     10  C   UNL     1       9.642   3.803  27.487  1.00  0.00     0.012 C 
ENDBRANCH   5   8
TORSDOF 1
ENDMDL
MODEL 7
REMARK VINA RESULT:    -4.410     13.927     16.064
REMARK INTER + INTRA:          -4.836
REMARK INTER:                  -4.670
REMARK INTRA:                  -0.166
REMARK UNBOUND:                -0.168
REMARK SMILES CC1=CCC(C(C)C)=CC1
REMARK SMILES IDX 1 1 2 2 3 3 4 4 5 5 9 6 10 7 6 8 7 9 8 10
REMARK H PARENT
REMARK Flexibility Score: inf
ROOT
ATOM      1  C   UNL     1       7.133   5.608  10.875  1.00  0.00     0.039 C 
ATOM      2  C   UNL     1       7.406   6.194  12.231  1.00  0.00    -0.073 C 
ATOM      3  C   UNL     1       7.833   7.466  12.338  1.00  0.00    -0.023 C 
ATOM      4  C   UNL     1       8.162   8.063  13.684  1.00  0.00     0.058 C 
ATOM      5  C   UNL     1       7.303   7.467  14.783  1.00  0.00    -0.068 C 
ATOM      6  C   UNL     1       6.877   6.188  14.671  1.00  0.00    -0.023 C 
ATOM      7  C   UNL     1       7.248   5.347  13.476  1.00  0.00     0.057 C 
ENDROOT
BRANCH   5   8
ATOM      8  C   UNL     1       6.971   8.305  16.007  1.00  0.00     0.009 C 
ATOM      9  C   UNL     1       6.297   7.462  17.097  1.00  0.00     0.012 C 
ATOM     10  C   UNL     1       6.110   9.518  15.633  1.00  0.00     0.012 C 
ENDBRANCH   5   8
TORSDOF 1
ENDMDL
MODEL 8
REMARK VINA RESULT:    -4.370      2.239      3.014
REMARK INTER + INTRA:          -4.793
REMARK INTER:                  -4.634
REMARK INTRA:                  -0.160
REMARK UNBOUND:                -0.168
REMARK SMILES CC1=CCC(C(C)C)=CC1
REMARK SMILES IDX 1 1 2 2 3 3 4 4 5 5 9 6 10 7 6 8 7 9 8 10
REMARK H PARENT
REMARK Flexibility Score: inf
ROOT
ATOM      1  C   UNL     1       8.637   7.350  30.757  1.00  0.00     0.039 C 
ATOM      2  C   UNL     1       9.372   6.812  29.562  1.00  0.00    -0.073 C 
ATOM      3  C   UNL     1       9.677   7.631  28.538  1.00  0.00    -0.023 C 
ATOM      4  C   UNL     1      10.369   7.105  27.305  1.00  0.00     0.058 C 
ATOM      5  C   UNL     1      11.287   5.943  27.634  1.00  0.00    -0.068 C 
ATOM      6  C   UNL     1      10.975   5.123  28.663  1.00  0.00    -0.023 C 
ATOM      7  C   UNL     1       9.728   5.343  29.482  1.00  0.00     0.057 C 
ENDROOT
BRANCH   5   8
ATOM      8  C   UNL     1      12.518   5.700  26.775  1.00  0.00     0.009 C 
ATOM      9  C   UNL     1      13.810   5.906  27.577  1.00  0.00     0.012 C 
ATOM     10  C   UNL     1      12.501   6.577  25.518  1.00  0.00     0.012 C 
ENDBRANCH   5   8
TORSDOF 1
ENDMDL
MODEL 9
REMARK VINA RESULT:    -4.218      3.432      4.719
REMARK INTER + INTRA:          -4.633
REMARK INTER:                  -4.498
REMARK INTRA:                  -0.135
REMARK UNBOUND:                -0.168
REMARK SMILES CC1=CCC(C(C)C)=CC1
REMARK SMILES IDX 1 1 2 2 3 3 4 4 5 5 9 6 10 7 6 8 7 9 8 10
REMARK H PARENT
REMARK Flexibility Score: inf
ROOT
ATOM      1  C   UNL     1      14.724   8.122  25.463  1.00  0.00     0.039 C 
ATOM      2  C   UNL     1      13.653   7.190  25.954  1.00  0.00    -0.073 C 
ATOM      3  C   UNL     1      13.839   6.495  27.092  1.00  0.00    -0.023 C 
ATOM      4  C   UNL     1      12.800   5.516  27.580  1.00  0.00     0.058 C 
ATOM      5  C   UNL     1      11.400   5.944  27.185  1.00  0.00    -0.068 C 
ATOM      6  C   UNL     1      11.220   6.641  26.040  1.00  0.00    -0.023 C 
ATOM      7  C   UNL     1      12.385   6.992  25.151  1.00  0.00     0.057 C 
ENDROOT
BRANCH   5   8
ATOM      8  C   UNL     1      10.223   5.547  28.062  1.00  0.00     0.009 C 
ATOM      9  C   UNL     1       9.807   4.092  27.815  1.00  0.00     0.012 C 
ATOM     10  C   UNL     1       9.040   6.503  27.868  1.00  0.00     0.012 C 
ENDBRANCH   5   8
TORSDOF 1
ENDMDL
