MODEL 1
REMARK VINA RESULT:    -3.616      0.000      0.000
REMARK INTER + INTRA:         -10.182
REMARK INTER:                  -6.998
REMARK INTRA:                  -3.184
REMARK UNBOUND:                -3.184
REMARK SMILES CCCCCCCCCCCCCCCCCC(=O)[O-]
REMARK SMILES IDX 10 1 11 2 12 3 13 4 14 5 15 6 16 7 17 8 18 9 19 10 20 11
REMARK SMILES IDX 9 12 8 13 7 14 6 15 5 16 4 17 3 18 2 19 1 20
REMARK H PARENT
REMARK Flexibility Score: inf
ROOT
ATOM      1  C   UNL     1      50.675  -0.133  72.203  1.00  0.00     0.000 C 
ENDROOT
BRANCH   1   2
ATOM      2  C   UNL     1      51.573  -1.380  72.142  1.00  0.00     0.000 C 
BRANCH   2   3
ATOM      3  C   UNL     1      51.336  -2.336  73.322  1.00  0.00     0.000 C 
BRANCH   3   4
ATOM      4  C   UNL     1      51.149  -3.798  72.877  1.00  0.00     0.000 C 
BRANCH   4   5
ATOM      5  C   UNL     1      50.032  -4.028  71.839  1.00  0.00     0.000 C 
BRANCH   5   6
ATOM      6  C   UNL     1      48.613  -4.166  72.426  1.00  0.00     0.000 C 
BRANCH   6   7
ATOM      7  C   UNL     1      48.150  -5.616  72.674  1.00  0.00     0.006 C 
BRANCH   7   8
ATOM      8  C   UNL     1      46.632  -5.776  72.852  1.00  0.00     0.053 C 
BRANCH   8   9
ATOM      9  C   UNL     1      46.230  -5.740  74.294  1.00  0.00     0.041 C 
ATOM     10  O   UNL     1      45.606  -4.747  74.753  1.00  0.00    -0.550 OA
ATOM     11  O   UNL     1      46.567  -6.791  75.137  1.00  0.00    -0.550 OA
ENDBRANCH   8   9
ENDBRANCH   7   8
ENDBRANCH   6   7
ENDBRANCH   5   6
ENDBRANCH   4   5
ENDBRANCH   3   4
ENDBRANCH   2   3
ENDBRANCH   1   2
BRANCH   1  12
ATOM     12  C   UNL     1      49.243  -0.416  71.713  1.00  0.00     0.000 C 
BRANCH  12  13
ATOM     13  C   UNL     1      48.214  -0.404  72.856  1.00  0.00    -0.000 C 
BRANCH  13  14
ATOM     14  C   UNL     1      48.734   0.306  74.119  1.00  0.00    -0.000 C 
BRANCH  14  15
ATOM     15  C   UNL     1      48.705  -0.611  75.361  1.00  0.00    -0.000 C 
BRANCH  15  16
ATOM     16  C   UNL     1      47.887  -1.902  75.159  1.00  0.00    -0.000 C 
BRANCH  16  17
ATOM     17  C   UNL     1      48.432  -3.139  75.898  1.00  0.00    -0.000 C 
BRANCH  17  18
ATOM     18  C   UNL     1      49.808  -2.945  76.563  1.00  0.00    -0.000 C 
BRANCH  18  19
ATOM     19  C   UNL     1      50.593  -4.257  76.706  1.00  0.00    -0.003 C 
ATOM     20  C   UNL     1      49.869  -5.409  76.014  1.00  0.00     0.004 C 
ENDBRANCH  18  19
ENDBRANCH  17  18
ENDBRANCH  16  17
ENDBRANCH  15  16
ENDBRANCH  14  15
ENDBRANCH  13  14
ENDBRANCH  12  13
ENDBRANCH   1  12
TORSDOF 16
ENDMDL
MODEL 2
REMARK VINA RESULT:    -3.566      1.901      4.026
REMARK INTER + INTRA:         -10.086
REMARK INTER:                  -8.010
REMARK INTRA:                  -2.076
REMARK UNBOUND:                -3.184
REMARK SMILES CCCCCCCCCCCCCCCCCC(=O)[O-]
REMARK SMILES IDX 10 1 11 2 12 3 13 4 14 5 15 6 16 7 17 8 18 9 19 10 20 11
REMARK SMILES IDX 9 12 8 13 7 14 6 15 5 16 4 17 3 18 2 19 1 20
REMARK H PARENT
REMARK Flexibility Score: inf
ROOT
ATOM      1  C   UNL     1      47.669  -0.762  75.853  1.00  0.00     0.000 C 
ENDROOT
BRANCH   1   2
ATOM      2  C   UNL     1      48.280  -2.128  76.207  1.00  0.00     0.000 C 
BRANCH   2   3
ATOM      3  C   UNL     1      49.360  -2.569  75.206  1.00  0.00     0.000 C 
BRANCH   3   4
ATOM      4  C   UNL     1      49.020  -3.898  74.508  1.00  0.00     0.000 C 
BRANCH   4   5
ATOM      5  C   UNL     1      47.657  -3.928  73.786  1.00  0.00     0.000 C 
BRANCH   5   6
ATOM      6  C   UNL     1      47.647  -4.678  72.439  1.00  0.00     0.000 C 
BRANCH   6   7
ATOM      7  C   UNL     1      47.614  -6.216  72.551  1.00  0.00     0.006 C 
BRANCH   7   8
ATOM      8  C   UNL     1      46.428  -6.879  71.832  1.00  0.00     0.053 C 
BRANCH   8   9
ATOM      9  C   UNL     1      46.363  -8.351  72.099  1.00  0.00     0.041 C 
ATOM     10  O   UNL     1      45.762  -9.114  71.298  1.00  0.00    -0.550 OA
ATOM     11  O   UNL     1      46.943  -8.876  73.247  1.00  0.00    -0.550 OA
ENDBRANCH   8   9
ENDBRANCH   7   8
ENDBRANCH   6   7
ENDBRANCH   5   6
ENDBRANCH   4   5
ENDBRANCH   3   4
ENDBRANCH   2   3
ENDBRANCH   1   2
BRANCH   1  12
ATOM     12  C   UNL     1      48.573   0.062  74.919  1.00  0.00     0.000 C 
BRANCH  12  13
ATOM     13  C   UNL     1      47.783   0.767  73.804  1.00  0.00    -0.000 C 
BRANCH  13  14
ATOM     14  C   UNL     1      48.407   0.565  72.412  1.00  0.00    -0.000 C 
BRANCH  14  15
ATOM     15  C   UNL     1      48.283  -0.892  71.918  1.00  0.00    -0.000 C 
BRANCH  15  16
ATOM     16  C   UNL     1      49.640  -1.577  71.663  1.00  0.00    -0.000 C 
BRANCH  16  17
ATOM     17  C   UNL     1      50.874  -0.740  72.052  1.00  0.00    -0.000 C 
BRANCH  17  18
ATOM     18  C   UNL     1      52.029  -1.540  72.683  1.00  0.00    -0.000 C 
BRANCH  18  19
ATOM     19  C   UNL     1      53.262  -1.629  71.772  1.00  0.00    -0.003 C 
ATOM     20  C   UNL     1      53.680  -0.248  71.276  1.00  0.00     0.004 C 
ENDBRANCH  18  19
ENDBRANCH  17  18
ENDBRANCH  16  17
ENDBRANCH  15  16
ENDBRANCH  14  15
ENDBRANCH  13  14
ENDBRANCH  12  13
ENDBRANCH   1  12
TORSDOF 16
ENDMDL
MODEL 3
REMARK VINA RESULT:    -3.525      1.859      5.142
REMARK INTER + INTRA:         -10.005
REMARK INTER:                  -7.937
REMARK INTRA:                  -2.069
REMARK UNBOUND:                -3.184
REMARK SMILES CCCCCCCCCCCCCCCCCC(=O)[O-]
REMARK SMILES IDX 10 1 11 2 12 3 13 4 14 5 15 6 16 7 17 8 18 9 19 10 20 11
REMARK SMILES IDX 9 12 8 13 7 14 6 15 5 16 4 17 3 18 2 19 1 20
REMARK H PARENT
REMARK Flexibility Score: inf
ROOT
ATOM      1  C   UNL     1      48.454  -3.966  75.027  1.00  0.00     0.000 C 
ENDROOT
BRANCH   1   2
ATOM      2  C   UNL     1      48.437  -2.534  75.587  1.00  0.00     0.000 C 
BRANCH   2   3
ATOM      3  C   UNL     1      48.622  -2.495  77.113  1.00  0.00     0.000 C 
BRANCH   3   4
ATOM      4  C   UNL     1      49.928  -3.167  77.573  1.00  0.00     0.000 C 
BRANCH   4   5
ATOM      5  C   UNL     1      49.778  -4.148  78.754  1.00  0.00     0.000 C 
BRANCH   5   6
ATOM      6  C   UNL     1      49.388  -5.588  78.362  1.00  0.00     0.000 C 
BRANCH   6   7
ATOM      7  C   UNL     1      47.883  -5.906  78.468  1.00  0.00     0.006 C 
BRANCH   7   8
ATOM      8  C   UNL     1      47.538  -7.397  78.331  1.00  0.00     0.053 C 
BRANCH   8   9
ATOM      9  C   UNL     1      47.002  -7.726  76.972  1.00  0.00     0.041 C 
ATOM     10  O   UNL     1      45.930  -8.376  76.854  1.00  0.00    -0.550 OA
ATOM     11  O   UNL     1      47.701  -7.338  75.836  1.00  0.00    -0.550 OA
ENDBRANCH   8   9
ENDBRANCH   7   8
ENDBRANCH   6   7
ENDBRANCH   5   6
ENDBRANCH   4   5
ENDBRANCH   3   4
ENDBRANCH   2   3
ENDBRANCH   1   2
BRANCH   1  12
ATOM     12  C   UNL     1      47.357  -4.197  73.972  1.00  0.00     0.000 C 
BRANCH  12  13
ATOM     13  C   UNL     1      47.916  -4.249  72.540  1.00  0.00    -0.000 C 
BRANCH  13  14
ATOM     14  C   UNL     1      49.415  -4.592  72.498  1.00  0.00    -0.000 C 
BRANCH  14  15
ATOM     15  C   UNL     1      50.238  -3.535  71.731  1.00  0.00    -0.000 C 
BRANCH  15  16
ATOM     16  C   UNL     1      50.650  -2.325  72.594  1.00  0.00    -0.000 C 
BRANCH  16  17
ATOM     17  C   UNL     1      50.315  -0.949  71.987  1.00  0.00    -0.000 C 
BRANCH  17  18
ATOM     18  C   UNL     1      48.832  -0.743  71.626  1.00  0.00    -0.000 C 
BRANCH  18  19
ATOM     19  C   UNL     1      48.019  -0.122  72.771  1.00  0.00    -0.003 C 
ATOM     20  C   UNL     1      48.702   1.130  73.314  1.00  0.00     0.004 C 
ENDBRANCH  18  19
ENDBRANCH  17  18
ENDBRANCH  16  17
ENDBRANCH  15  16
ENDBRANCH  14  15
ENDBRANCH  13  14
ENDBRANCH  12  13
ENDBRANCH   1  12
TORSDOF 16
ENDMDL
MODEL 4
REMARK VINA RESULT:    -3.520      3.532      6.270
REMARK INTER + INTRA:          -9.996
REMARK INTER:                  -8.092
REMARK INTRA:                  -1.904
REMARK UNBOUND:                -3.184
REMARK SMILES CCCCCCCCCCCCCCCCCC(=O)[O-]
REMARK SMILES IDX 10 1 11 2 12 3 13 4 14 5 15 6 16 7 17 8 18 9 19 10 20 11
REMARK SMILES IDX 9 12 8 13 7 14 6 15 5 16 4 17 3 18 2 19 1 20
REMARK H PARENT
REMARK Flexibility Score: inf
ROOT
ATOM      1  C   UNL     1      47.363  -6.424  74.587  1.00  0.00     0.000 C 
ENDROOT
BRANCH   1   2
ATOM      2  C   UNL     1      46.886  -5.047  74.098  1.00  0.00     0.000 C 
BRANCH   2   3
ATOM      3  C   UNL     1      47.572  -4.615  72.791  1.00  0.00     0.000 C 
BRANCH   3   4
ATOM      4  C   UNL     1      49.103  -4.760  72.845  1.00  0.00     0.000 C 
BRANCH   4   5
ATOM      5  C   UNL     1      49.882  -3.835  71.888  1.00  0.00     0.000 C 
BRANCH   5   6
ATOM      6  C   UNL     1      49.571  -2.331  72.034  1.00  0.00     0.000 C 
BRANCH   6   7
ATOM      7  C   UNL     1      50.785  -1.447  72.384  1.00  0.00     0.006 C 
BRANCH   7   8
ATOM      8  C   UNL     1      51.948  -2.200  73.049  1.00  0.00     0.053 C 
BRANCH   8   9
ATOM      9  C   UNL     1      53.197  -2.142  72.226  1.00  0.00     0.041 C 
ATOM     10  O   UNL     1      53.936  -3.156  72.123  1.00  0.00    -0.550 OA
ATOM     11  O   UNL     1      53.560  -0.959  71.594  1.00  0.00    -0.550 OA
ENDBRANCH   8   9
ENDBRANCH   7   8
ENDBRANCH   6   7
ENDBRANCH   5   6
ENDBRANCH   4   5
ENDBRANCH   3   4
ENDBRANCH   2   3
ENDBRANCH   1   2
BRANCH   1  12
ATOM     12  C   UNL     1      46.348  -7.097  75.529  1.00  0.00     0.000 C 
BRANCH  12  13
ATOM     13  C   UNL     1      46.884  -8.403  76.140  1.00  0.00    -0.000 C 
BRANCH  13  14
ATOM     14  C   UNL     1      46.785  -8.427  77.675  1.00  0.00    -0.000 C 
BRANCH  14  15
ATOM     15  C   UNL     1      47.375  -7.156  78.322  1.00  0.00    -0.000 C 
BRANCH  15  16
ATOM     16  C   UNL     1      48.906  -7.041  78.176  1.00  0.00    -0.000 C 
BRANCH  16  17
ATOM     17  C   UNL     1      49.484  -5.643  78.473  1.00  0.00    -0.000 C 
BRANCH  17  18
ATOM     18  C   UNL     1      48.455  -4.497  78.453  1.00  0.00    -0.000 C 
BRANCH  18  19
ATOM     19  C   UNL     1      48.464  -3.709  77.135  1.00  0.00    -0.003 C 
ATOM     20  C   UNL     1      49.769  -3.927  76.374  1.00  0.00     0.004 C 
ENDBRANCH  18  19
ENDBRANCH  17  18
ENDBRANCH  16  17
ENDBRANCH  15  16
ENDBRANCH  14  15
ENDBRANCH  13  14
ENDBRANCH  12  13
ENDBRANCH   1  12
TORSDOF 16
ENDMDL
MODEL 5
REMARK VINA RESULT:    -3.516      3.353      5.055
REMARK INTER + INTRA:          -9.989
REMARK INTER:                  -7.920
REMARK INTRA:                  -2.069
REMARK UNBOUND:                -3.184
REMARK SMILES CCCCCCCCCCCCCCCCCC(=O)[O-]
REMARK SMILES IDX 10 1 11 2 12 3 13 4 14 5 15 6 16 7 17 8 18 9 19 10 20 11
REMARK SMILES IDX 9 12 8 13 7 14 6 15 5 16 4 17 3 18 2 19 1 20
REMARK H PARENT
REMARK Flexibility Score: inf
ROOT
ATOM      1  C   UNL     1      48.629  -0.104  75.574  1.00  0.00     0.000 C 
ENDROOT
BRANCH   1   2
ATOM      2  C   UNL     1      47.511  -0.051  74.520  1.00  0.00     0.000 C 
BRANCH   2   3
ATOM      3  C   UNL     1      47.965   0.616  73.211  1.00  0.00     0.000 C 
BRANCH   3   4
ATOM      4  C   UNL     1      48.381  -0.403  72.135  1.00  0.00     0.000 C 
BRANCH   4   5
ATOM      5  C   UNL     1      49.856  -0.849  72.192  1.00  0.00     0.000 C 
BRANCH   5   6
ATOM      6  C   UNL     1      50.112  -2.318  71.798  1.00  0.00     0.000 C 
BRANCH   6   7
ATOM      7  C   UNL     1      50.777  -3.179  72.890  1.00  0.00     0.006 C 
BRANCH   7   8
ATOM      8  C   UNL     1      51.833  -2.438  73.726  1.00  0.00     0.053 C 
BRANCH   8   9
ATOM      9  C   UNL     1      53.192  -2.508  73.101  1.00  0.00     0.041 C 
ATOM     10  O   UNL     1      54.097  -3.208  73.628  1.00  0.00    -0.550 OA
ATOM     11  O   UNL     1      53.468  -1.780  71.950  1.00  0.00    -0.550 OA
ENDBRANCH   8   9
ENDBRANCH   7   8
ENDBRANCH   6   7
ENDBRANCH   5   6
ENDBRANCH   4   5
ENDBRANCH   3   4
ENDBRANCH   2   3
ENDBRANCH   1   2
BRANCH   1  12
ATOM     12  C   UNL     1      48.949  -1.543  76.018  1.00  0.00     0.000 C 
BRANCH  12  13
ATOM     13  C   UNL     1      48.002  -2.580  75.391  1.00  0.00    -0.000 C 
BRANCH  13  14
ATOM     14  C   UNL     1      47.164  -3.332  76.439  1.00  0.00    -0.000 C 
BRANCH  14  15
ATOM     15  C   UNL     1      47.463  -2.862  77.879  1.00  0.00    -0.000 C 
BRANCH  15  16
ATOM     16  C   UNL     1      47.734  -4.017  78.863  1.00  0.00    -0.000 C 
BRANCH  16  17
ATOM     17  C   UNL     1      49.099  -4.711  78.691  1.00  0.00    -0.000 C 
BRANCH  17  18
ATOM     18  C   UNL     1      49.026  -6.205  78.322  1.00  0.00    -0.000 C 
BRANCH  18  19
ATOM     19  C   UNL     1      47.585  -6.714  78.174  1.00  0.00    -0.003 C 
ATOM     20  C   UNL     1      47.511  -8.224  78.381  1.00  0.00     0.004 C 
ENDBRANCH  18  19
ENDBRANCH  17  18
ENDBRANCH  16  17
ENDBRANCH  15  16
ENDBRANCH  14  15
ENDBRANCH  13  14
ENDBRANCH  12  13
ENDBRANCH   1  12
TORSDOF 16
ENDMDL
MODEL 6
REMARK VINA RESULT:    -3.498      3.040      5.475
REMARK INTER + INTRA:          -9.953
REMARK INTER:                  -7.702
REMARK INTRA:                  -2.251
REMARK UNBOUND:                -3.184
REMARK SMILES CCCCCCCCCCCCCCCCCC(=O)[O-]
REMARK SMILES IDX 10 1 11 2 12 3 13 4 14 5 15 6 16 7 17 8 18 9 19 10 20 11
REMARK SMILES IDX 9 12 8 13 7 14 6 15 5 16 4 17 3 18 2 19 1 20
REMARK H PARENT
REMARK Flexibility Score: inf
ROOT
ATOM      1  C   UNL     1      47.728   0.230  75.259  1.00  0.00     0.000 C 
ENDROOT
BRANCH   1   2
ATOM      2  C   UNL     1      48.606   1.330  74.641  1.00  0.00     0.000 C 
BRANCH   2   3
ATOM      3  C   UNL     1      48.511   1.368  73.106  1.00  0.00     0.000 C 
BRANCH   3   4
ATOM      4  C   UNL     1      47.915   0.079  72.514  1.00  0.00     0.000 C 
BRANCH   4   5
ATOM      5  C   UNL     1      48.758  -0.580  71.402  1.00  0.00     0.000 C 
BRANCH   5   6
ATOM      6  C   UNL     1      49.704  -1.702  71.877  1.00  0.00     0.000 C 
BRANCH   6   7
ATOM      7  C   UNL     1      50.829  -1.245  72.828  1.00  0.00     0.006 C 
BRANCH   7   8
ATOM      8  C   UNL     1      51.898  -2.314  73.106  1.00  0.00     0.053 C 
BRANCH   8   9
ATOM      9  C   UNL     1      53.115  -2.124  72.255  1.00  0.00     0.041 C 
ATOM     10  O   UNL     1      53.914  -3.079  72.069  1.00  0.00    -0.550 OA
ATOM     11  O   UNL     1      53.381  -0.883  71.688  1.00  0.00    -0.550 OA
ENDBRANCH   8   9
ENDBRANCH   7   8
ENDBRANCH   6   7
ENDBRANCH   5   6
ENDBRANCH   4   5
ENDBRANCH   3   4
ENDBRANCH   2   3
ENDBRANCH   1   2
BRANCH   1  12
ATOM     12  C   UNL     1      48.560  -0.906  75.881  1.00  0.00     0.000 C 
BRANCH  12  13
ATOM     13  C   UNL     1      48.130  -2.295  75.381  1.00  0.00    -0.000 C 
BRANCH  13  14
ATOM     14  C   UNL     1      49.263  -3.333  75.457  1.00  0.00    -0.000 C 
BRANCH  14  15
ATOM     15  C   UNL     1      48.813  -4.731  74.981  1.00  0.00    -0.000 C 
BRANCH  15  16
ATOM     16  C   UNL     1      48.894  -4.920  73.453  1.00  0.00    -0.000 C 
BRANCH  16  17
ATOM     17  C   UNL     1      47.584  -4.639  72.692  1.00  0.00    -0.000 C 
BRANCH  17  18
ATOM     18  C   UNL     1      46.788  -5.893  72.284  1.00  0.00    -0.000 C 
BRANCH  18  19
ATOM     19  C   UNL     1      46.145  -6.608  73.482  1.00  0.00    -0.003 C 
ATOM     20  C   UNL     1      44.924  -5.845  73.987  1.00  0.00     0.004 C 
ENDBRANCH  18  19
ENDBRANCH  17  18
ENDBRANCH  16  17
ENDBRANCH  15  16
ENDBRANCH  14  15
ENDBRANCH  13  14
ENDBRANCH  12  13
ENDBRANCH   1  12
TORSDOF 16
ENDMDL
MODEL 7
REMARK VINA RESULT:    -3.492      3.178      5.534
REMARK INTER + INTRA:          -9.943
REMARK INTER:                  -7.889
REMARK INTRA:                  -2.054
REMARK UNBOUND:                -3.184
REMARK SMILES CCCCCCCCCCCCCCCCCC(=O)[O-]
REMARK SMILES IDX 10 1 11 2 12 3 13 4 14 5 15 6 16 7 17 8 18 9 19 10 20 11
REMARK SMILES IDX 9 12 8 13 7 14 6 15 5 16 4 17 3 18 2 19 1 20
REMARK H PARENT
REMARK Flexibility Score: inf
ROOT
ATOM      1  C   UNL     1      48.972  -2.736  75.138  1.00  0.00     0.000 C 
ENDROOT
BRANCH   1   2
ATOM      2  C   UNL     1      48.357  -1.779  76.173  1.00  0.00     0.000 C 
BRANCH   2   3
ATOM      3  C   UNL     1      47.641  -0.585  75.521  1.00  0.00     0.000 C 
BRANCH   3   4
ATOM      4  C   UNL     1      48.524   0.155  74.500  1.00  0.00     0.000 C 
BRANCH   4   5
ATOM      5  C   UNL     1      47.923   0.281  73.086  1.00  0.00     0.000 C 
BRANCH   5   6
ATOM      6  C   UNL     1      48.671  -0.500  71.985  1.00  0.00     0.000 C 
BRANCH   6   7
ATOM      7  C   UNL     1      50.209  -0.425  72.066  1.00  0.00     0.006 C 
BRANCH   7   8
ATOM      8  C   UNL     1      50.909  -1.792  72.107  1.00  0.00     0.053 C 
BRANCH   8   9
ATOM      9  C   UNL     1      52.340  -1.677  72.534  1.00  0.00     0.041 C 
ATOM     10  O   UNL     1      53.164  -1.045  71.823  1.00  0.00    -0.550 OA
ATOM     11  O   UNL     1      52.769  -2.289  73.705  1.00  0.00    -0.550 OA
ENDBRANCH   8   9
ENDBRANCH   7   8
ENDBRANCH   6   7
ENDBRANCH   5   6
ENDBRANCH   4   5
ENDBRANCH   3   4
ENDBRANCH   2   3
ENDBRANCH   1   2
BRANCH   1  12
ATOM     12  C   UNL     1      47.903  -3.526  74.362  1.00  0.00     0.000 C 
BRANCH  12  13
ATOM     13  C   UNL     1      46.867  -4.185  75.287  1.00  0.00    -0.000 C 
BRANCH  13  14
ATOM     14  C   UNL     1      45.882  -5.093  74.530  1.00  0.00    -0.000 C 
BRANCH  14  15
ATOM     15  C   UNL     1      46.163  -6.592  74.769  1.00  0.00    -0.000 C 
BRANCH  15  16
ATOM     16  C   UNL     1      47.256  -6.857  75.824  1.00  0.00    -0.000 C 
BRANCH  16  17
ATOM     17  C   UNL     1      46.780  -7.615  77.078  1.00  0.00    -0.000 C 
BRANCH  17  18
ATOM     18  C   UNL     1      47.417  -7.147  78.400  1.00  0.00    -0.000 C 
BRANCH  18  19
ATOM     19  C   UNL     1      48.420  -6.001  78.207  1.00  0.00    -0.003 C 
ATOM     20  C   UNL     1      47.902  -4.706  78.826  1.00  0.00     0.004 C 
ENDBRANCH  18  19
ENDBRANCH  17  18
ENDBRANCH  16  17
ENDBRANCH  15  16
ENDBRANCH  14  15
ENDBRANCH  13  14
ENDBRANCH  12  13
ENDBRANCH   1  12
TORSDOF 16
ENDMDL
MODEL 8
REMARK VINA RESULT:    -3.492      1.558      4.311
REMARK INTER + INTRA:          -9.942
REMARK INTER:                  -7.603
REMARK INTRA:                  -2.339
REMARK UNBOUND:                -3.184
REMARK SMILES CCCCCCCCCCCCCCCCCC(=O)[O-]
REMARK SMILES IDX 10 1 11 2 12 3 13 4 14 5 15 6 16 7 17 8 18 9 19 10 20 11
REMARK SMILES IDX 9 12 8 13 7 14 6 15 5 16 4 17 3 18 2 19 1 20
REMARK H PARENT
REMARK Flexibility Score: inf
ROOT
ATOM      1  C   UNL     1      48.364   0.550  74.215  1.00  0.00     0.000 C 
ENDROOT
BRANCH   1   2
ATOM      2  C   UNL     1      47.294  -0.125  75.088  1.00  0.00     0.000 C 
BRANCH   2   3
ATOM      3  C   UNL     1      47.895  -1.114  76.100  1.00  0.00     0.000 C 
BRANCH   3   4
ATOM      4  C   UNL     1      49.420  -1.265  75.953  1.00  0.00     0.000 C 
BRANCH   4   5
ATOM      5  C   UNL     1      49.904  -2.681  75.582  1.00  0.00     0.000 C 
BRANCH   5   6
ATOM      6  C   UNL     1      48.870  -3.805  75.804  1.00  0.00     0.000 C 
BRANCH   6   7
ATOM      7  C   UNL     1      48.581  -4.677  74.566  1.00  0.00     0.006 C 
BRANCH   7   8
ATOM      8  C   UNL     1      47.360  -4.231  73.747  1.00  0.00     0.053 C 
BRANCH   8   9
ATOM      9  C   UNL     1      46.372  -5.341  73.562  1.00  0.00     0.041 C 
ATOM     10  O   UNL     1      45.401  -5.463  74.354  1.00  0.00    -0.550 OA
ATOM     11  O   UNL     1      46.540  -6.258  72.532  1.00  0.00    -0.550 OA
ENDBRANCH   8   9
ENDBRANCH   7   8
ENDBRANCH   6   7
ENDBRANCH   5   6
ENDBRANCH   4   5
ENDBRANCH   3   4
ENDBRANCH   2   3
ENDBRANCH   1   2
BRANCH   1  12
ATOM     12  C   UNL     1      47.917   0.703  72.750  1.00  0.00     0.000 C 
BRANCH  12  13
ATOM     13  C   UNL     1      48.333  -0.492  71.876  1.00  0.00    -0.000 C 
BRANCH  13  14
ATOM     14  C   UNL     1      49.811  -0.877  72.059  1.00  0.00    -0.000 C 
BRANCH  14  15
ATOM     15  C   UNL     1      50.038  -2.401  71.959  1.00  0.00    -0.000 C 
BRANCH  15  16
ATOM     16  C   UNL     1      51.474  -2.838  72.312  1.00  0.00    -0.000 C 
BRANCH  16  17
ATOM     17  C   UNL     1      52.459  -1.683  72.576  1.00  0.00    -0.000 C 
BRANCH  17  18
ATOM     18  C   UNL     1      53.576  -1.530  71.526  1.00  0.00    -0.000 C 
BRANCH  18  19
ATOM     19  C   UNL     1      53.857  -0.064  71.163  1.00  0.00    -0.003 C 
ATOM     20  C   UNL     1      52.572   0.760  71.171  1.00  0.00     0.004 C 
ENDBRANCH  18  19
ENDBRANCH  17  18
ENDBRANCH  16  17
ENDBRANCH  15  16
ENDBRANCH  14  15
ENDBRANCH  13  14
ENDBRANCH  12  13
ENDBRANCH   1  12
TORSDOF 16
ENDMDL
MODEL 9
REMARK VINA RESULT:    -3.482      3.511      6.340
REMARK INTER + INTRA:          -9.922
REMARK INTER:                  -7.852
REMARK INTRA:                  -2.070
REMARK UNBOUND:                -3.184
REMARK SMILES CCCCCCCCCCCCCCCCCC(=O)[O-]
REMARK SMILES IDX 10 1 11 2 12 3 13 4 14 5 15 6 16 7 17 8 18 9 19 10 20 11
REMARK SMILES IDX 9 12 8 13 7 14 6 15 5 16 4 17 3 18 2 19 1 20
REMARK H PARENT
REMARK Flexibility Score: inf
ROOT
ATOM      1  C   UNL     1      48.149  -3.687  75.812  1.00  0.00     0.000 C 
ENDROOT
BRANCH   1   2
ATOM      2  C   UNL     1      47.010  -4.378  75.046  1.00  0.00     0.000 C 
BRANCH   2   3
ATOM      3  C   UNL     1      47.483  -5.006  73.724  1.00  0.00     0.000 C 
BRANCH   3   4
ATOM      4  C   UNL     1      47.981  -3.959  72.711  1.00  0.00     0.000 C 
BRANCH   4   5
ATOM      5  C   UNL     1      49.343  -4.275  72.061  1.00  0.00     0.000 C 
BRANCH   5   6
ATOM      6  C   UNL     1      50.558  -4.180  73.007  1.00  0.00     0.000 C 
BRANCH   6   7
ATOM      7  C   UNL     1      50.916  -2.752  73.465  1.00  0.00     0.006 C 
BRANCH   7   8
ATOM      8  C   UNL     1      51.376  -1.820  72.332  1.00  0.00     0.053 C 
BRANCH   8   9
ATOM      9  C   UNL     1      52.859  -1.615  72.342  1.00  0.00     0.041 C 
ATOM     10  O   UNL     1      53.575  -2.209  73.190  1.00  0.00    -0.550 OA
ATOM     11  O   UNL     1      53.448  -0.746  71.431  1.00  0.00    -0.550 OA
ENDBRANCH   8   9
ENDBRANCH   7   8
ENDBRANCH   6   7
ENDBRANCH   5   6
ENDBRANCH   4   5
ENDBRANCH   3   4
ENDBRANCH   2   3
ENDBRANCH   1   2
BRANCH   1  12
ATOM     12  C   UNL     1      49.116  -4.693  76.462  1.00  0.00     0.000 C 
BRANCH  12  13
ATOM     13  C   UNL     1      48.900  -4.825  77.979  1.00  0.00    -0.000 C 
BRANCH  13  14
ATOM     14  C   UNL     1      48.796  -6.289  78.441  1.00  0.00    -0.000 C 
BRANCH  14  15
ATOM     15  C   UNL     1      47.334  -6.781  78.507  1.00  0.00    -0.000 C 
BRANCH  15  16
ATOM     16  C   UNL     1      47.087  -8.092  77.735  1.00  0.00    -0.000 C 
BRANCH  16  17
ATOM     17  C   UNL     1      46.740  -7.913  76.244  1.00  0.00    -0.000 C 
BRANCH  17  18
ATOM     18  C   UNL     1      45.280  -8.239  75.874  1.00  0.00    -0.000 C 
BRANCH  18  19
ATOM     19  C   UNL     1      44.891  -7.729  74.478  1.00  0.00    -0.003 C 
ATOM     20  C   UNL     1      43.991  -6.500  74.573  1.00  0.00     0.004 C 
ENDBRANCH  18  19
ENDBRANCH  17  18
ENDBRANCH  16  17
ENDBRANCH  15  16
ENDBRANCH  14  15
ENDBRANCH  13  14
ENDBRANCH  12  13
ENDBRANCH   1  12
TORSDOF 16
ENDMDL
