MODEL 1
REMARK VINA RESULT:    -8.337      0.000      0.000
REMARK INTER + INTRA:         -10.173
REMARK INTER:                 -10.042
REMARK INTRA:                  -0.131
REMARK UNBOUND:                -0.131
REMARK SMILES O=c1c(O)c(-c2ccc(O)c(O)c2)oc2cc(O)cc(O)c12
REMARK SMILES IDX 5 1 3 2 2 3 1 4 22 5 20 6 19 7 17 8 16 9 15 10 14 11 6 12
REMARK SMILES IDX 7 13 8 14 9 15 13 16 11 17 10 18 12 20 4 22 21 24 18 26
REMARK H PARENT 10 19 12 21 4 23 21 25 18 27
REMARK Flexibility Score: inf
ROOT
ATOM      1  C   UNL     1      13.179 -19.213 -19.057  1.00  0.00     0.180 A 
ATOM      2  C   UNL     1      11.989 -19.821 -18.621  1.00  0.00     0.208 A 
ATOM      3  C   UNL     1      12.037 -20.707 -17.533  1.00  0.00     0.238 A 
ATOM      4  O   UNL     1      10.960 -21.207 -17.113  1.00  0.00    -0.285 OA
ATOM      5  C   UNL     1      13.274 -20.987 -16.906  1.00  0.00     0.111 A 
ATOM      6  C   UNL     1      13.445 -21.899 -15.821  1.00  0.00     0.134 A 
ATOM      7  C   UNL     1      14.692 -22.000 -15.193  1.00  0.00     0.093 A 
ATOM      8  C   UNL     1      15.790 -21.270 -15.652  1.00  0.00     0.123 A 
ATOM      9  C   UNL     1      15.649 -20.421 -16.747  1.00  0.00     0.094 A 
ATOM     10  C   UNL     1      14.408 -20.272 -17.372  1.00  0.00     0.146 A 
ATOM     11  O   UNL     1      14.313 -19.445 -18.406  1.00  0.00    -0.452 OA
ENDROOT
BRANCH   1  12
ATOM     12  C   UNL     1      13.213 -18.287 -20.212  1.00  0.00     0.025 A 
ATOM     13  C   UNL     1      13.562 -16.935 -20.056  1.00  0.00     0.016 A 
ATOM     14  C   UNL     1      13.564 -16.074 -21.156  1.00  0.00     0.051 A 
ATOM     15  C   UNL     1      13.205 -16.547 -22.425  1.00  0.00     0.157 A 
ATOM     16  C   UNL     1      12.833 -18.751 -21.483  1.00  0.00     0.062 A 
ATOM     17  C   UNL     1      12.835 -17.893 -22.587  1.00  0.00     0.158 A 
BRANCH  15  18
ATOM     18  O   UNL     1      13.209 -15.685 -23.521  1.00  0.00    -0.504 OA
ATOM     19  H   UNL     1      12.785 -15.947 -24.403  1.00  0.00     0.293 HD
ENDBRANCH  15  18
BRANCH  17  20
ATOM     20  O   UNL     1      12.466 -18.393 -23.835  1.00  0.00    -0.504 OA
ATOM     21  H   UNL     1      11.524 -18.711 -24.031  1.00  0.00     0.293 HD
ENDBRANCH  17  20
ENDBRANCH   1  12
BRANCH   2  22
ATOM     22  O   UNL     1      10.775 -19.514 -19.241  1.00  0.00    -0.502 OA
ATOM     23  H   UNL     1      10.339 -18.604 -19.163  1.00  0.00     0.293 HD
ENDBRANCH   2  22
BRANCH   6  24
ATOM     24  O   UNL     1      12.436 -22.743 -15.345  1.00  0.00    -0.507 OA
ATOM     25  H   UNL     1      12.260 -22.936 -14.371  1.00  0.00     0.293 HD
ENDBRANCH   6  24
BRANCH   8  26
ATOM     26  O   UNL     1      17.032 -21.388 -15.031  1.00  0.00    -0.508 OA
ATOM     27  H   UNL     1      17.888 -21.121 -15.503  1.00  0.00     0.293 HD
ENDBRANCH   8  26
TORSDOF 6
ENDMDL
MODEL 2
REMARK VINA RESULT:    -8.241      1.407      3.007
REMARK INTER + INTRA:         -10.059
REMARK INTER:                  -9.812
REMARK INTRA:                  -0.247
REMARK UNBOUND:                -0.131
REMARK SMILES O=c1c(O)c(-c2ccc(O)c(O)c2)oc2cc(O)cc(O)c12
REMARK SMILES IDX 5 1 3 2 2 3 1 4 22 5 20 6 19 7 17 8 16 9 15 10 14 11 6 12
REMARK SMILES IDX 7 13 8 14 9 15 13 16 11 17 10 18 12 20 4 22 21 24 18 26
REMARK H PARENT 10 19 12 21 4 23 21 25 18 27
REMARK Flexibility Score: inf
ROOT
ATOM      1  C   UNL     1      13.786 -19.457 -18.156  1.00  0.00     0.180 A 
ATOM      2  C   UNL     1      15.050 -19.873 -17.705  1.00  0.00     0.208 A 
ATOM      3  C   UNL     1      15.130 -20.685 -16.562  1.00  0.00     0.238 A 
ATOM      4  O   UNL     1      16.261 -21.099 -16.193  1.00  0.00    -0.285 OA
ATOM      5  C   UNL     1      13.949 -21.057 -15.877  1.00  0.00     0.111 A 
ATOM      6  C   UNL     1      13.916 -21.843 -14.685  1.00  0.00     0.134 A 
ATOM      7  C   UNL     1      12.684 -22.259 -14.166  1.00  0.00     0.093 A 
ATOM      8  C   UNL     1      11.483 -21.863 -14.758  1.00  0.00     0.123 A 
ATOM      9  C   UNL     1      11.502 -21.047 -15.887  1.00  0.00     0.094 A 
ATOM     10  C   UNL     1      12.717 -20.646 -16.448  1.00  0.00     0.146 A 
ATOM     11  O   UNL     1      12.691 -19.877 -17.531  1.00  0.00    -0.452 OA
ENDROOT
BRANCH   1  12
ATOM     12  C   UNL     1      13.621 -18.581 -19.339  1.00  0.00     0.025 A 
ATOM     13  C   UNL     1      13.995 -17.227 -19.303  1.00  0.00     0.016 A 
ATOM     14  C   UNL     1      13.808 -16.412 -20.424  1.00  0.00     0.051 A 
ATOM     15  C   UNL     1      13.233 -16.935 -21.589  1.00  0.00     0.157 A 
ATOM     16  C   UNL     1      13.025 -19.094 -20.503  1.00  0.00     0.062 A 
ATOM     17  C   UNL     1      12.837 -18.282 -21.627  1.00  0.00     0.158 A 
BRANCH  15  18
ATOM     18  O   UNL     1      13.049 -16.119 -22.706  1.00  0.00    -0.504 OA
ATOM     19  H   UNL     1      12.134 -15.767 -22.960  1.00  0.00     0.293 HD
ENDBRANCH  15  18
BRANCH  17  20
ATOM     20  O   UNL     1      12.256 -18.830 -22.770  1.00  0.00    -0.504 OA
ATOM     21  H   UNL     1      12.750 -18.883 -23.653  1.00  0.00     0.293 HD
ENDBRANCH  17  20
ENDBRANCH   1  12
BRANCH   2  22
ATOM     22  O   UNL     1      16.202 -19.513 -18.409  1.00  0.00    -0.502 OA
ATOM     23  H   UNL     1      16.781 -20.191 -18.887  1.00  0.00     0.293 HD
ENDBRANCH   2  22
BRANCH   6  24
ATOM     24  O   UNL     1      15.055 -22.214 -13.964  1.00  0.00    -0.507 OA
ATOM     25  H   UNL     1      15.584 -23.059 -14.120  1.00  0.00     0.293 HD
ENDBRANCH   6  24
BRANCH   8  26
ATOM     26  O   UNL     1      10.261 -22.269 -14.226  1.00  0.00    -0.508 OA
ATOM     27  H   UNL     1       9.423 -21.708 -14.333  1.00  0.00     0.293 HD
ENDBRANCH   8  26
TORSDOF 6
ENDMDL
MODEL 3
REMARK VINA RESULT:    -8.070      0.614      1.436
REMARK INTER + INTRA:          -9.852
REMARK INTER:                  -9.625
REMARK INTRA:                  -0.227
REMARK UNBOUND:                -0.131
REMARK SMILES O=c1c(O)c(-c2ccc(O)c(O)c2)oc2cc(O)cc(O)c12
REMARK SMILES IDX 5 1 3 2 2 3 1 4 22 5 20 6 19 7 17 8 16 9 15 10 14 11 6 12
REMARK SMILES IDX 7 13 8 14 9 15 13 16 11 17 10 18 12 20 4 22 21 24 18 26
REMARK H PARENT 10 19 12 21 4 23 21 25 18 27
REMARK Flexibility Score: inf
ROOT
ATOM      1  C   UNL     1      13.077 -19.459 -19.022  1.00  0.00     0.180 A 
ATOM      2  C   UNL     1      11.895 -20.007 -18.496  1.00  0.00     0.208 A 
ATOM      3  C   UNL     1      11.972 -20.820 -17.353  1.00  0.00     0.238 A 
ATOM      4  O   UNL     1      10.904 -21.263 -16.855  1.00  0.00    -0.285 OA
ATOM      5  C   UNL     1      13.229 -21.087 -16.763  1.00  0.00     0.111 A 
ATOM      6  C   UNL     1      13.429 -21.929 -15.627  1.00  0.00     0.134 A 
ATOM      7  C   UNL     1      14.701 -22.019 -15.048  1.00  0.00     0.093 A 
ATOM      8  C   UNL     1      15.793 -21.347 -15.603  1.00  0.00     0.123 A 
ATOM      9  C   UNL     1      15.621 -20.570 -16.746  1.00  0.00     0.094 A 
ATOM     10  C   UNL     1      14.357 -20.433 -17.325  1.00  0.00     0.146 A 
ATOM     11  O   UNL     1      14.234 -19.674 -18.407  1.00  0.00    -0.452 OA
ENDROOT
BRANCH   1  12
ATOM     12  C   UNL     1      13.079 -18.612 -20.238  1.00  0.00     0.025 A 
ATOM     13  C   UNL     1      12.780 -19.147 -21.502  1.00  0.00     0.016 A 
ATOM     14  C   UNL     1      12.812 -18.335 -22.639  1.00  0.00     0.051 A 
ATOM     15  C   UNL     1      13.156 -16.982 -22.532  1.00  0.00     0.157 A 
ATOM     16  C   UNL     1      13.445 -17.259 -20.139  1.00  0.00     0.062 A 
ATOM     17  C   UNL     1      13.478 -16.443 -21.274  1.00  0.00     0.158 A 
BRANCH  15  18
ATOM     18  O   UNL     1      13.187 -16.173 -23.668  1.00  0.00    -0.504 OA
ATOM     19  H   UNL     1      13.258 -15.165 -23.600  1.00  0.00     0.293 HD
ENDBRANCH  15  18
BRANCH  17  20
ATOM     20  O   UNL     1      13.831 -15.101 -21.135  1.00  0.00    -0.504 OA
ATOM     21  H   UNL     1      13.590 -14.563 -20.311  1.00  0.00     0.293 HD
ENDBRANCH  17  20
ENDBRANCH   1  12
BRANCH   2  22
ATOM     22  O   UNL     1      10.661 -19.712 -19.082  1.00  0.00    -0.502 OA
ATOM     23  H   UNL     1      10.154 -18.859 -18.882  1.00  0.00     0.293 HD
ENDBRANCH   2  22
BRANCH   6  24
ATOM     24  O   UNL     1      12.425 -22.714 -15.052  1.00  0.00    -0.507 OA
ATOM     25  H   UNL     1      11.441 -22.627 -15.255  1.00  0.00     0.293 HD
ENDBRANCH   6  24
BRANCH   8  26
ATOM     26  O   UNL     1      17.059 -21.454 -15.030  1.00  0.00    -0.508 OA
ATOM     27  H   UNL     1      17.901 -21.326 -15.578  1.00  0.00     0.293 HD
ENDBRANCH   8  26
TORSDOF 6
ENDMDL
MODEL 4
REMARK VINA RESULT:    -7.880      1.664      2.988
REMARK INTER + INTRA:          -9.623
REMARK INTER:                  -9.494
REMARK INTRA:                  -0.129
REMARK UNBOUND:                -0.131
REMARK SMILES O=c1c(O)c(-c2ccc(O)c(O)c2)oc2cc(O)cc(O)c12
REMARK SMILES IDX 5 1 3 2 2 3 1 4 22 5 20 6 19 7 17 8 16 9 15 10 14 11 6 12
REMARK SMILES IDX 7 13 8 14 9 15 13 16 11 17 10 18 12 20 4 22 21 24 18 26
REMARK H PARENT 10 19 12 21 4 23 21 25 18 27
REMARK Flexibility Score: inf
ROOT
ATOM      1  C   UNL     1      12.686 -19.546 -18.784  1.00  0.00     0.180 A 
ATOM      2  C   UNL     1      13.847 -19.095 -18.134  1.00  0.00     0.208 A 
ATOM      3  C   UNL     1      14.218 -19.686 -16.915  1.00  0.00     0.238 A 
ATOM      4  O   UNL     1      15.288 -19.315 -16.365  1.00  0.00    -0.285 OA
ATOM      5  C   UNL     1      13.415 -20.707 -16.355  1.00  0.00     0.111 A 
ATOM      6  C   UNL     1      13.674 -21.348 -15.105  1.00  0.00     0.134 A 
ATOM      7  C   UNL     1      12.885 -22.435 -14.710  1.00  0.00     0.093 A 
ATOM      8  C   UNL     1      11.808 -22.864 -15.489  1.00  0.00     0.123 A 
ATOM      9  C   UNL     1      11.511 -22.208 -16.681  1.00  0.00     0.094 A 
ATOM     10  C   UNL     1      12.301 -21.143 -17.119  1.00  0.00     0.146 A 
ATOM     11  O   UNL     1      11.990 -20.552 -18.266  1.00  0.00    -0.452 OA
ENDROOT
BRANCH   1  12
ATOM     12  C   UNL     1      12.217 -18.956 -20.060  1.00  0.00     0.025 A 
ATOM     13  C   UNL     1      10.965 -18.327 -20.158  1.00  0.00     0.016 A 
ATOM     14  C   UNL     1      10.533 -17.799 -21.377  1.00  0.00     0.051 A 
ATOM     15  C   UNL     1      11.339 -17.903 -22.518  1.00  0.00     0.157 A 
ATOM     16  C   UNL     1      13.013 -19.077 -21.211  1.00  0.00     0.062 A 
ATOM     17  C   UNL     1      12.584 -18.549 -22.434  1.00  0.00     0.158 A 
BRANCH  15  18
ATOM     18  O   UNL     1      10.906 -17.374 -23.734  1.00  0.00    -0.504 OA
ATOM     19  H   UNL     1       9.980 -17.567 -24.096  1.00  0.00     0.293 HD
ENDBRANCH  15  18
BRANCH  17  20
ATOM     20  O   UNL     1      13.407 -18.675 -23.553  1.00  0.00    -0.504 OA
ATOM     21  H   UNL     1      13.157 -19.258 -24.343  1.00  0.00     0.293 HD
ENDBRANCH  17  20
ENDBRANCH   1  12
BRANCH   2  22
ATOM     22  O   UNL     1      14.637 -18.100 -18.716  1.00  0.00    -0.502 OA
ATOM     23  H   UNL     1      14.768 -17.191 -18.291  1.00  0.00     0.293 HD
ENDBRANCH   2  22
BRANCH   6  24
ATOM     24  O   UNL     1      14.666 -20.939 -14.210  1.00  0.00    -0.507 OA
ATOM     25  H   UNL     1      15.511 -20.453 -14.471  1.00  0.00     0.293 HD
ENDBRANCH   6  24
BRANCH   8  26
ATOM     26  O   UNL     1      11.019 -23.937 -15.081  1.00  0.00    -0.508 OA
ATOM     27  H   UNL     1      10.081 -23.800 -14.721  1.00  0.00     0.293 HD
ENDBRANCH   8  26
TORSDOF 6
ENDMDL
MODEL 5
REMARK VINA RESULT:    -7.248      1.793      6.672
REMARK INTER + INTRA:          -8.862
REMARK INTER:                  -8.620
REMARK INTRA:                  -0.241
REMARK UNBOUND:                -0.131
REMARK SMILES O=c1c(O)c(-c2ccc(O)c(O)c2)oc2cc(O)cc(O)c12
REMARK SMILES IDX 5 1 3 2 2 3 1 4 22 5 20 6 19 7 17 8 16 9 15 10 14 11 6 12
REMARK SMILES IDX 7 13 8 14 9 15 13 16 11 17 10 18 12 20 4 22 21 24 18 26
REMARK H PARENT 10 19 12 21 4 23 21 25 18 27
REMARK Flexibility Score: inf
ROOT
ATOM      1  C   UNL     1      13.380 -18.839 -18.831  1.00  0.00     0.180 A 
ATOM      2  C   UNL     1      12.103 -19.328 -19.154  1.00  0.00     0.208 A 
ATOM      3  C   UNL     1      11.360 -18.681 -20.155  1.00  0.00     0.238 A 
ATOM      4  O   UNL     1      10.240 -19.157 -20.478  1.00  0.00    -0.285 OA
ATOM      5  C   UNL     1      11.896 -17.546 -20.807  1.00  0.00     0.111 A 
ATOM      6  C   UNL     1      11.214 -16.789 -21.808  1.00  0.00     0.134 A 
ATOM      7  C   UNL     1      11.891 -15.763 -22.478  1.00  0.00     0.093 A 
ATOM      8  C   UNL     1      13.203 -15.424 -22.139  1.00  0.00     0.123 A 
ATOM      9  C   UNL     1      13.857 -16.117 -21.123  1.00  0.00     0.094 A 
ATOM     10  C   UNL     1      13.219 -17.170 -20.461  1.00  0.00     0.146 A 
ATOM     11  O   UNL     1      13.882 -17.812 -19.506  1.00  0.00    -0.452 OA
ENDROOT
BRANCH   1  12
ATOM     12  C   UNL     1      14.213 -19.452 -17.770  1.00  0.00     0.025 A 
ATOM     13  C   UNL     1      14.430 -18.801 -16.544  1.00  0.00     0.016 A 
ATOM     14  C   UNL     1      15.240 -19.388 -15.567  1.00  0.00     0.051 A 
ATOM     15  C   UNL     1      15.854 -20.624 -15.806  1.00  0.00     0.157 A 
ATOM     16  C   UNL     1      14.848 -20.682 -18.013  1.00  0.00     0.062 A 
ATOM     17  C   UNL     1      15.658 -21.272 -17.037  1.00  0.00     0.158 A 
BRANCH  15  18
ATOM     18  O   UNL     1      16.660 -21.207 -14.829  1.00  0.00    -0.504 OA
ATOM     19  H   UNL     1      16.693 -22.211 -14.698  1.00  0.00     0.293 HD
ENDBRANCH  15  18
BRANCH  17  20
ATOM     20  O   UNL     1      16.260 -22.500 -17.308  1.00  0.00    -0.504 OA
ATOM     21  H   UNL     1      17.234 -22.680 -17.097  1.00  0.00     0.293 HD
ENDBRANCH  17  20
ENDBRANCH   1  12
BRANCH   2  22
ATOM     22  O   UNL     1      11.601 -20.464 -18.513  1.00  0.00    -0.502 OA
ATOM     23  H   UNL     1      12.037 -21.374 -18.599  1.00  0.00     0.293 HD
ENDBRANCH   2  22
BRANCH   6  24
ATOM     24  O   UNL     1       9.875 -16.986 -22.157  1.00  0.00    -0.507 OA
ATOM     25  H   UNL     1       9.545 -17.165 -23.094  1.00  0.00     0.293 HD
ENDBRANCH   6  24
BRANCH   8  26
ATOM     26  O   UNL     1      13.864 -14.391 -22.800  1.00  0.00    -0.508 OA
ATOM     27  H   UNL     1      14.050 -14.432 -23.795  1.00  0.00     0.293 HD
ENDBRANCH   8  26
TORSDOF 6
ENDMDL
MODEL 6
REMARK VINA RESULT:    -7.180      2.057      7.357
REMARK INTER + INTRA:          -8.780
REMARK INTER:                  -9.186
REMARK INTRA:                   0.406
REMARK UNBOUND:                -0.131
REMARK SMILES O=c1c(O)c(-c2ccc(O)c(O)c2)oc2cc(O)cc(O)c12
REMARK SMILES IDX 5 1 3 2 2 3 1 4 22 5 20 6 19 7 17 8 16 9 15 10 14 11 6 12
REMARK SMILES IDX 7 13 8 14 9 15 13 16 11 17 10 18 12 20 4 22 21 24 18 26
REMARK H PARENT 10 19 12 21 4 23 21 25 18 27
REMARK Flexibility Score: inf
ROOT
ATOM      1  C   UNL     1      12.320 -19.497 -18.787  1.00  0.00     0.180 A 
ATOM      2  C   UNL     1      13.403 -18.633 -18.552  1.00  0.00     0.208 A 
ATOM      3  C   UNL     1      13.621 -17.561 -19.432  1.00  0.00     0.238 A 
ATOM      4  O   UNL     1      14.560 -16.759 -19.186  1.00  0.00    -0.285 OA
ATOM      5  C   UNL     1      12.765 -17.376 -20.543  1.00  0.00     0.111 A 
ATOM      6  C   UNL     1      12.916 -16.347 -21.521  1.00  0.00     0.134 A 
ATOM      7  C   UNL     1      11.934 -16.179 -22.505  1.00  0.00     0.093 A 
ATOM      8  C   UNL     1      10.840 -17.043 -22.585  1.00  0.00     0.123 A 
ATOM      9  C   UNL     1      10.713 -18.087 -21.671  1.00  0.00     0.094 A 
ATOM     10  C   UNL     1      11.658 -18.257 -20.656  1.00  0.00     0.146 A 
ATOM     11  O   UNL     1      11.494 -19.259 -19.800  1.00  0.00    -0.452 OA
ENDROOT
BRANCH   1  12
ATOM     12  C   UNL     1      12.040 -20.664 -17.917  1.00  0.00     0.025 A 
ATOM     13  C   UNL     1      11.279 -21.752 -18.377  1.00  0.00     0.016 A 
ATOM     14  C   UNL     1      11.007 -22.831 -17.531  1.00  0.00     0.051 A 
ATOM     15  C   UNL     1      11.479 -22.832 -16.212  1.00  0.00     0.157 A 
ATOM     16  C   UNL     1      12.493 -20.660 -16.588  1.00  0.00     0.062 A 
ATOM     17  C   UNL     1      12.224 -21.739 -15.738  1.00  0.00     0.158 A 
BRANCH  15  18
ATOM     18  O   UNL     1      11.207 -23.911 -15.371  1.00  0.00    -0.504 OA
ATOM     19  H   UNL     1      10.507 -23.851 -14.642  1.00  0.00     0.293 HD
ENDBRANCH  15  18
BRANCH  17  20
ATOM     20  O   UNL     1      12.703 -21.707 -14.429  1.00  0.00    -0.504 OA
ATOM     21  H   UNL     1      12.932 -20.839 -13.960  1.00  0.00     0.293 HD
ENDBRANCH  17  20
ENDBRANCH   1  12
BRANCH   2  22
ATOM     22  O   UNL     1      14.224 -18.822 -17.437  1.00  0.00    -0.502 OA
ATOM     23  H   UNL     1      14.866 -18.112 -17.108  1.00  0.00     0.293 HD
ENDBRANCH   2  22
BRANCH   6  24
ATOM     24  O   UNL     1      14.018 -15.489 -21.586  1.00  0.00    -0.507 OA
ATOM     25  H   UNL     1      14.939 -15.710 -21.239  1.00  0.00     0.293 HD
ENDBRANCH   6  24
BRANCH   8  26
ATOM     26  O   UNL     1       9.875 -16.879 -23.577  1.00  0.00    -0.508 OA
ATOM     27  H   UNL     1       9.090 -16.251 -23.453  1.00  0.00     0.293 HD
ENDBRANCH   8  26
TORSDOF 6
ENDMDL
MODEL 7
REMARK VINA RESULT:    -6.535      1.773      1.975
REMARK INTER + INTRA:          -8.003
REMARK INTER:                  -7.702
REMARK INTRA:                  -0.301
REMARK UNBOUND:                -0.131
REMARK SMILES O=c1c(O)c(-c2ccc(O)c(O)c2)oc2cc(O)cc(O)c12
REMARK SMILES IDX 5 1 3 2 2 3 1 4 22 5 20 6 19 7 17 8 16 9 15 10 14 11 6 12
REMARK SMILES IDX 7 13 8 14 9 15 13 16 11 17 10 18 12 20 4 22 21 24 18 26
REMARK H PARENT 10 19 12 21 4 23 21 25 18 27
REMARK Flexibility Score: inf
ROOT
ATOM      1  C   UNL     1      12.585 -19.593 -18.783  1.00  0.00     0.180 A 
ATOM      2  C   UNL     1      12.128 -20.854 -18.365  1.00  0.00     0.208 A 
ATOM      3  C   UNL     1      12.554 -21.355 -17.125  1.00  0.00     0.238 A 
ATOM      4  O   UNL     1      12.098 -22.461 -16.732  1.00  0.00    -0.285 OA
ATOM      5  C   UNL     1      13.443 -20.598 -16.327  1.00  0.00     0.111 A 
ATOM      6  C   UNL     1      13.971 -21.026 -15.071  1.00  0.00     0.134 A 
ATOM      7  C   UNL     1      14.740 -20.140 -14.306  1.00  0.00     0.093 A 
ATOM      8  C   UNL     1      15.054 -18.865 -14.781  1.00  0.00     0.123 A 
ATOM      9  C   UNL     1      14.593 -18.458 -16.031  1.00  0.00     0.094 A 
ATOM     10  C   UNL     1      13.794 -19.307 -16.801  1.00  0.00     0.146 A 
ATOM     11  O   UNL     1      13.367 -18.877 -17.983  1.00  0.00    -0.452 OA
ENDROOT
BRANCH   1  12
ATOM     12  C   UNL     1      12.200 -19.008 -20.089  1.00  0.00     0.025 A 
ATOM     13  C   UNL     1      10.969 -18.352 -20.262  1.00  0.00     0.016 A 
ATOM     14  C   UNL     1      10.617 -17.829 -21.509  1.00  0.00     0.051 A 
ATOM     15  C   UNL     1      11.481 -17.966 -22.603  1.00  0.00     0.157 A 
ATOM     16  C   UNL     1      13.054 -19.161 -21.194  1.00  0.00     0.062 A 
ATOM     17  C   UNL     1      12.705 -18.638 -22.444  1.00  0.00     0.158 A 
BRANCH  15  18
ATOM     18  O   UNL     1      11.127 -17.442 -23.846  1.00  0.00    -0.504 OA
ATOM     19  H   UNL     1      11.154 -18.006 -24.687  1.00  0.00     0.293 HD
ENDBRANCH  15  18
BRANCH  17  20
ATOM     20  O   UNL     1      13.584 -18.796 -23.515  1.00  0.00    -0.504 OA
ATOM     21  H   UNL     1      14.179 -18.044 -23.838  1.00  0.00     0.293 HD
ENDBRANCH  17  20
ENDBRANCH   1  12
BRANCH   2  22
ATOM     22  O   UNL     1      11.232 -21.576 -19.160  1.00  0.00    -0.502 OA
ATOM     23  H   UNL     1      10.966 -21.276 -20.089  1.00  0.00     0.293 HD
ENDBRANCH   2  22
BRANCH   6  24
ATOM     24  O   UNL     1      13.794 -22.310 -14.548  1.00  0.00    -0.507 OA
ATOM     25  H   UNL     1      13.098 -22.561 -13.862  1.00  0.00     0.293 HD
ENDBRANCH   6  24
BRANCH   8  26
ATOM     26  O   UNL     1      15.833 -17.995 -14.021  1.00  0.00    -0.508 OA
ATOM     27  H   UNL     1      15.415 -17.344 -13.367  1.00  0.00     0.293 HD
ENDBRANCH   8  26
TORSDOF 6
ENDMDL
MODEL 8
REMARK VINA RESULT:    -6.218      1.740      6.932
REMARK INTER + INTRA:          -7.621
REMARK INTER:                  -7.391
REMARK INTRA:                  -0.230
REMARK UNBOUND:                -0.131
REMARK SMILES O=c1c(O)c(-c2ccc(O)c(O)c2)oc2cc(O)cc(O)c12
REMARK SMILES IDX 5 1 3 2 2 3 1 4 22 5 20 6 19 7 17 8 16 9 15 10 14 11 6 12
REMARK SMILES IDX 7 13 8 14 9 15 13 16 11 17 10 18 12 20 4 22 21 24 18 26
REMARK H PARENT 10 19 12 21 4 23 21 25 18 27
REMARK Flexibility Score: inf
ROOT
ATOM      1  C   UNL     1      13.379 -18.970 -19.814  1.00  0.00     0.180 A 
ATOM      2  C   UNL     1      12.306 -18.079 -19.642  1.00  0.00     0.208 A 
ATOM      3  C   UNL     1      11.669 -17.553 -20.778  1.00  0.00     0.238 A 
ATOM      4  O   UNL     1      10.674 -16.798 -20.617  1.00  0.00    -0.285 OA
ATOM      5  C   UNL     1      12.123 -17.911 -22.069  1.00  0.00     0.111 A 
ATOM      6  C   UNL     1      11.578 -17.406 -23.289  1.00  0.00     0.134 A 
ATOM      7  C   UNL     1      12.019 -17.929 -24.511  1.00  0.00     0.093 A 
ATOM      8  C   UNL     1      13.031 -18.890 -24.559  1.00  0.00     0.123 A 
ATOM      9  C   UNL     1      13.611 -19.346 -23.378  1.00  0.00     0.094 A 
ATOM     10  C   UNL     1      13.166 -18.870 -22.142  1.00  0.00     0.146 A 
ATOM     11  O   UNL     1      13.739 -19.338 -21.039  1.00  0.00    -0.452 OA
ENDROOT
BRANCH   1  12
ATOM     12  C   UNL     1      14.116 -19.547 -18.666  1.00  0.00     0.025 A 
ATOM     13  C   UNL     1      15.437 -19.165 -18.378  1.00  0.00     0.016 A 
ATOM     14  C   UNL     1      16.121 -19.741 -17.305  1.00  0.00     0.051 A 
ATOM     15  C   UNL     1      15.501 -20.716 -16.512  1.00  0.00     0.157 A 
ATOM     16  C   UNL     1      13.506 -20.541 -17.882  1.00  0.00     0.062 A 
ATOM     17  C   UNL     1      14.188 -21.120 -16.806  1.00  0.00     0.158 A 
BRANCH  15  18
ATOM     18  O   UNL     1      16.186 -21.288 -15.441  1.00  0.00    -0.504 OA
ATOM     19  H   UNL     1      16.802 -22.082 -15.569  1.00  0.00     0.293 HD
ENDBRANCH  15  18
BRANCH  17  20
ATOM     20  O   UNL     1      13.545 -22.092 -16.041  1.00  0.00    -0.504 OA
ATOM     21  H   UNL     1      13.130 -22.917 -16.457  1.00  0.00     0.293 HD
ENDBRANCH  17  20
ENDBRANCH   1  12
BRANCH   2  22
ATOM     22  O   UNL     1      11.859 -17.756 -18.357  1.00  0.00    -0.502 OA
ATOM     23  H   UNL     1      11.789 -16.801 -18.030  1.00  0.00     0.293 HD
ENDBRANCH   2  22
BRANCH   6  24
ATOM     24  O   UNL     1      10.630 -16.381 -23.353  1.00  0.00    -0.507 OA
ATOM     25  H   UNL     1       9.658 -16.480 -23.102  1.00  0.00     0.293 HD
ENDBRANCH   6  24
BRANCH   8  26
ATOM     26  O   UNL     1      13.475 -19.393 -25.780  1.00  0.00    -0.508 OA
ATOM     27  H   UNL     1      13.763 -18.780 -26.533  1.00  0.00     0.293 HD
ENDBRANCH   8  26
TORSDOF 6
ENDMDL
MODEL 9
REMARK VINA RESULT:    -5.756      1.969      7.159
REMARK INTER + INTRA:          -7.065
REMARK INTER:                  -6.744
REMARK INTRA:                  -0.321
REMARK UNBOUND:                -0.131
REMARK SMILES O=c1c(O)c(-c2ccc(O)c(O)c2)oc2cc(O)cc(O)c12
REMARK SMILES IDX 5 1 3 2 2 3 1 4 22 5 20 6 19 7 17 8 16 9 15 10 14 11 6 12
REMARK SMILES IDX 7 13 8 14 9 15 13 16 11 17 10 18 12 20 4 22 21 24 18 26
REMARK H PARENT 10 19 12 21 4 23 21 25 18 27
REMARK Flexibility Score: inf
ROOT
ATOM      1  C   UNL     1      12.085 -19.178 -19.979  1.00  0.00     0.180 A 
ATOM      2  C   UNL     1      11.610 -17.860 -19.879  1.00  0.00     0.208 A 
ATOM      3  C   UNL     1      11.824 -16.976 -20.949  1.00  0.00     0.238 A 
ATOM      4  O   UNL     1      11.348 -15.812 -20.875  1.00  0.00    -0.285 OA
ATOM      5  C   UNL     1      12.523 -17.416 -22.097  1.00  0.00     0.111 A 
ATOM      6  C   UNL     1      12.831 -16.594 -23.223  1.00  0.00     0.134 A 
ATOM      7  C   UNL     1      13.414 -17.169 -24.359  1.00  0.00     0.093 A 
ATOM      8  C   UNL     1      13.758 -18.523 -24.385  1.00  0.00     0.123 A 
ATOM      9  C   UNL     1      13.516 -19.320 -23.269  1.00  0.00     0.094 A 
ATOM     10  C   UNL     1      12.903 -18.783 -22.135  1.00  0.00     0.146 A 
ATOM     11  O   UNL     1      12.680 -19.580 -21.097  1.00  0.00    -0.452 OA
ENDROOT
BRANCH   1  12
ATOM     12  C   UNL     1      11.920 -20.161 -18.883  1.00  0.00     0.025 A 
ATOM     13  C   UNL     1      10.758 -20.942 -18.770  1.00  0.00     0.016 A 
ATOM     14  C   UNL     1      10.614 -21.846 -17.714  1.00  0.00     0.051 A 
ATOM     15  C   UNL     1      11.621 -21.972 -16.749  1.00  0.00     0.157 A 
ATOM     16  C   UNL     1      12.918 -20.276 -17.901  1.00  0.00     0.062 A 
ATOM     17  C   UNL     1      12.778 -21.180 -16.842  1.00  0.00     0.158 A 
BRANCH  15  18
ATOM     18  O   UNL     1      11.474 -22.875 -15.696  1.00  0.00    -0.504 OA
ATOM     19  H   UNL     1      10.602 -22.960 -15.188  1.00  0.00     0.293 HD
ENDBRANCH  15  18
BRANCH  17  20
ATOM     20  O   UNL     1      13.796 -21.277 -15.894  1.00  0.00    -0.504 OA
ATOM     21  H   UNL     1      14.768 -21.117 -16.129  1.00  0.00     0.293 HD
ENDBRANCH  17  20
ENDBRANCH   1  12
BRANCH   2  22
ATOM     22  O   UNL     1      10.902 -17.452 -18.744  1.00  0.00    -0.502 OA
ATOM     23  H   UNL     1      10.352 -18.093 -18.187  1.00  0.00     0.293 HD
ENDBRANCH   2  22
BRANCH   6  24
ATOM     24  O   UNL     1      12.613 -15.214 -23.264  1.00  0.00    -0.507 OA
ATOM     25  H   UNL     1      11.878 -14.763 -23.788  1.00  0.00     0.293 HD
ENDBRANCH   6  24
BRANCH   8  26
ATOM     26  O   UNL     1      14.352 -19.083 -25.514  1.00  0.00    -0.508 OA
ATOM     27  H   UNL     1      15.290 -19.467 -25.484  1.00  0.00     0.293 HD
ENDBRANCH   8  26
TORSDOF 6
ENDMDL
