MODEL 1
REMARK VINA RESULT:    11.380      0.000      0.000
REMARK INTER + INTRA:          20.400
REMARK INTER:                  20.695
REMARK INTRA:                  -0.294
REMARK UNBOUND:                -0.294
REMARK SMILES CCCCCCCCCCCCCCCC(=O)[O-]
REMARK SMILES IDX 9 1 10 2 11 3 12 4 13 5 14 6 15 7 16 8 17 9 18 10 8 11 7 12
REMARK SMILES IDX 6 13 5 14 4 15 3 16 2 17 1 18
REMARK H PARENT
REMARK Flexibility Score: inf
ROOT
ATOM      1  C   UNL     1     -18.249  23.535  18.354  1.00  0.00     0.000 C 
ENDROOT
BRANCH   1   2
ATOM      2  C   UNL     1     -19.012  22.252  18.730  1.00  0.00     0.000 C 
BRANCH   2   3
ATOM      3  C   UNL     1     -19.125  21.977  20.243  1.00  0.00     0.000 C 
BRANCH   3   4
ATOM      4  C   UNL     1     -18.151  20.913  20.790  1.00  0.00     0.000 C 
BRANCH   4   5
ATOM      5  C   UNL     1     -17.939  20.947  22.317  1.00  0.00     0.000 C 
BRANCH   5   6
ATOM      6  C   UNL     1     -17.996  19.573  23.010  1.00  0.00     0.006 C 
BRANCH   6   7
ATOM      7  C   UNL     1     -17.335  18.462  22.185  1.00  0.00     0.053 C 
BRANCH   7   8
ATOM      8  C   UNL     1     -15.901  18.303  22.577  1.00  0.00     0.041 C 
ATOM      9  O   UNL     1     -15.017  19.040  22.064  1.00  0.00    -0.550 OA
ATOM     10  O   UNL     1     -15.543  17.374  23.547  1.00  0.00    -0.550 OA
ENDBRANCH   7   8
ENDBRANCH   6   7
ENDBRANCH   5   6
ENDBRANCH   4   5
ENDBRANCH   3   4
ENDBRANCH   2   3
ENDBRANCH   1   2
BRANCH   1  11
ATOM     11  C   UNL     1     -19.035  24.435  17.386  1.00  0.00     0.000 C 
BRANCH  11  12
ATOM     12  C   UNL     1     -18.355  25.794  17.161  1.00  0.00    -0.000 C 
BRANCH  12  13
ATOM     13  C   UNL     1     -18.225  26.154  15.670  1.00  0.00    -0.000 C 
BRANCH  13  14
ATOM     14  C   UNL     1     -16.948  25.583  15.030  1.00  0.00    -0.000 C 
BRANCH  14  15
ATOM     15  C   UNL     1     -15.627  26.122  15.615  1.00  0.00    -0.000 C 
BRANCH  15  16
ATOM     16  C   UNL     1     -15.435  25.880  17.123  1.00  0.00    -0.000 C 
BRANCH  16  17
ATOM     17  C   UNL     1     -14.137  25.129  17.446  1.00  0.00    -0.003 C 
ATOM     18  C   UNL     1     -13.766  24.164  16.325  1.00  0.00     0.004 C 
ENDBRANCH  16  17
ENDBRANCH  15  16
ENDBRANCH  14  15
ENDBRANCH  13  14
ENDBRANCH  12  13
ENDBRANCH  11  12
ENDBRANCH   1  11
TORSDOF 14
ENDMDL
