MODEL 1
REMARK VINA RESULT:    -3.690      0.000      0.000
REMARK INTER + INTRA:          -2.460
REMARK INTER:                  -4.553
REMARK INTRA:                   2.093
REMARK UNBOUND:                 2.093
REMARK SMILES C=C1CC[C@@H]2[C@H]([C@@H]3[C@@H]1CC[C@@H]3C)C2(C)C
REMARK SMILES IDX 3 1 2 2 1 3 8 4 12 5 11 6 10 7 7 8 9 9 4 11 5 12 6 13 13 14
REMARK SMILES IDX 14 16 15 17
REMARK H PARENT
REMARK Flexibility Score: 80.00
ROOT
ATOM      1  C   UNL     1     136.290 141.038 131.999  1.00  0.00     0.031 C 
ENDROOT
BRANCH   1   2
ATOM      2  C   UNL     1     136.409 139.996 130.910  1.00  0.00    -0.074 C 
ATOM      3  C   UNL     1     135.324 139.660 130.193  1.00  0.00     0.008 C 
BRANCH   2   4
ATOM      4  C   UNL     1     137.699 139.227 130.696  1.00  0.00     0.018 C 
ATOM      5  C   UNL     1     140.408 137.605 131.323  1.00  0.00     0.008 C 
ATOM      6  C   UNL     1     140.097 139.060 130.923  1.00  0.00    -0.010 C 
ATOM      7  C   UNL     1     139.782 139.163 129.420  1.00  0.00     0.004 C 
ATOM      8  C   UNL     1     138.849 139.634 131.617  1.00  0.00     0.003 CG0
ATOM      9  C   UNL     1     138.280 139.440 129.298  1.00  0.00     0.008 C 
ATOM     10  G   UNL     1     138.816 139.361 133.148  1.00  0.00     0.000 G0
ENDBRANCH   2   4
ENDBRANCH   1   2
BRANCH   1  11
ATOM     11  C   UNL     1     136.249 140.392 133.385  1.00  0.00     0.009 C 
BRANCH  11  12
ATOM     12  C   UNL     1     137.612 139.941 133.971  1.00  0.00    -0.001 C 
ATOM     13  C   UNL     1     138.804 139.362 133.171  1.00  0.00     0.002 CG0
ATOM     14  C   UNL     1     137.892 138.420 133.979  1.00  0.00    -0.029 C 
ATOM     15  G   UNL     1     138.850 139.629 131.639  1.00  0.00     0.000 G0
ATOM     16  C   UNL     1     137.009 137.398 133.240  1.00  0.00     0.011 C 
ATOM     17  C   UNL     1     138.551 137.885 135.259  1.00  0.00     0.011 C 
ENDBRANCH  11  12
ENDBRANCH   1  11
TORSDOF 0
ENDMDL
MODEL 2
REMARK VINA RESULT:    -3.619      2.464      4.325
REMARK INTER + INTRA:          -2.372
REMARK INTER:                  -4.490
REMARK INTRA:                   2.117
REMARK UNBOUND:                 2.093
REMARK SMILES C=C1CC[C@@H]2[C@H]([C@@H]3[C@@H]1CC[C@@H]3C)C2(C)C
REMARK SMILES IDX 3 1 2 2 1 3 8 4 12 5 11 6 10 7 7 8 9 9 4 11 5 12 6 13 13 14
REMARK SMILES IDX 14 16 15 17
REMARK H PARENT
REMARK Flexibility Score: 80.00
ROOT
ATOM      1  C   UNL     1     133.423 136.685 132.653  1.00  0.00     0.031 C 
ENDROOT
BRANCH   1   2
ATOM      2  C   UNL     1     134.502 136.290 133.635  1.00  0.00    -0.074 C 
ATOM      3  C   UNL     1     134.160 135.912 134.878  1.00  0.00     0.008 C 
BRANCH   2   4
ATOM      4  C   UNL     1     135.972 136.434 133.289  1.00  0.00     0.018 C 
ATOM      5  C   UNL     1     138.713 137.663 132.136  1.00  0.00     0.008 C 
ATOM      6  C   UNL     1     137.726 136.592 131.638  1.00  0.00    -0.010 C 
ATOM      7  C   UNL     1     137.922 135.266 132.394  1.00  0.00     0.004 C 
ATOM      8  C   UNL     1     136.250 136.957 131.880  1.00  0.00     0.003 CG0
ATOM      9  C   UNL     1     136.711 135.096 133.317  1.00  0.00     0.008 C 
ATOM     10  G   UNL     1     135.899 138.411 131.455  1.00  0.00     0.000 G0
ENDBRANCH   2   4
ENDBRANCH   1   2
BRANCH   1  11
ATOM     11  C   UNL     1     133.342 138.205 132.497  1.00  0.00     0.009 C 
BRANCH  11  12
ATOM     12  C   UNL     1     134.412 138.857 131.583  1.00  0.00    -0.001 C 
ATOM     13  C   UNL     1     135.888 138.413 131.443  1.00  0.00     0.002 CG0
ATOM     14  C   UNL     1     135.536 139.649 132.291  1.00  0.00    -0.029 C 
ATOM     15  G   UNL     1     136.260 136.971 131.893  1.00  0.00     0.000 G0
ATOM     16  C   UNL     1     135.758 139.615 133.814  1.00  0.00     0.011 C 
ATOM     17  C   UNL     1     135.920 140.977 131.621  1.00  0.00     0.011 C 
ENDBRANCH  11  12
ENDBRANCH   1  11
TORSDOF 0
ENDMDL
MODEL 3
REMARK VINA RESULT:    -3.605      1.759      3.679
REMARK INTER + INTRA:          -2.355
REMARK INTER:                  -4.463
REMARK INTRA:                   2.108
REMARK UNBOUND:                 2.093
REMARK SMILES C=C1CC[C@@H]2[C@H]([C@@H]3[C@@H]1CC[C@@H]3C)C2(C)C
REMARK SMILES IDX 3 1 2 2 1 3 8 4 12 5 11 6 10 7 7 8 9 9 4 11 5 12 6 13 13 14
REMARK SMILES IDX 14 16 15 17
REMARK H PARENT
REMARK Flexibility Score: 80.00
ROOT
ATOM      1  C   UNL     1     136.585 140.221 132.451  1.00  0.00     0.031 C 
ENDROOT
BRANCH   1   2
ATOM      2  C   UNL     1     136.227 139.188 133.496  1.00  0.00    -0.074 C 
ATOM      3  C   UNL     1     135.844 139.589 134.720  1.00  0.00     0.008 C 
BRANCH   2   4
ATOM      4  C   UNL     1     136.416 137.706 133.232  1.00  0.00     0.018 C 
ATOM      5  C   UNL     1     137.706 134.946 132.195  1.00  0.00     0.008 C 
ATOM      6  C   UNL     1     136.578 135.861 131.684  1.00  0.00    -0.010 C 
ATOM      7  C   UNL     1     135.291 135.662 132.506  1.00  0.00     0.004 C 
ATOM      8  C   UNL     1     136.893 137.361 131.821  1.00  0.00     0.003 CG0
ATOM      9  C   UNL     1     135.110 136.920 133.361  1.00  0.00     0.008 C 
ATOM     10  G   UNL     1     138.315 137.740 131.316  1.00  0.00     0.000 G0
ENDBRANCH   2   4
ENDBRANCH   1   2
BRANCH   1  11
ATOM     11  C   UNL     1     138.100 140.321 132.264  1.00  0.00     0.009 C 
BRANCH  11  12
ATOM     12  C   UNL     1     138.755 139.227 131.382  1.00  0.00    -0.001 C 
ATOM     13  C   UNL     1     138.338 137.737 131.315  1.00  0.00     0.002 CG0
ATOM     14  C   UNL     1     139.585 138.149 132.120  1.00  0.00    -0.029 C 
ATOM     15  G   UNL     1     136.914 137.357 131.812  1.00  0.00     0.000 G0
ATOM     16  C   UNL     1     139.587 137.992 133.651  1.00  0.00     0.011 C 
ATOM     17  C   UNL     1     140.905 137.763 131.438  1.00  0.00     0.011 C 
ENDBRANCH  11  12
ENDBRANCH   1  11
TORSDOF 0
ENDMDL
MODEL 4
REMARK VINA RESULT:    -3.581      2.109      3.927
REMARK INTER + INTRA:          -2.325
REMARK INTER:                  -4.543
REMARK INTRA:                   2.218
REMARK UNBOUND:                 2.093
REMARK SMILES C=C1CC[C@@H]2[C@H]([C@@H]3[C@@H]1CC[C@@H]3C)C2(C)C
REMARK SMILES IDX 3 1 2 2 1 3 8 4 12 5 11 6 10 7 7 8 9 9 4 11 5 12 6 13 13 14
REMARK SMILES IDX 14 16 15 17
REMARK H PARENT
REMARK Flexibility Score: 80.00
ROOT
ATOM      1  C   UNL     1     137.629 139.774 131.720  1.00  0.00     0.031 C 
ENDROOT
BRANCH   1   2
ATOM      2  C   UNL     1     136.171 140.171 131.771  1.00  0.00    -0.074 C 
ATOM      3  C   UNL     1     135.781 141.331 131.215  1.00  0.00     0.008 C 
BRANCH   2   4
ATOM      4  C   UNL     1     135.160 139.351 132.548  1.00  0.00     0.018 C 
ATOM      5  C   UNL     1     133.848 137.567 134.884  1.00  0.00     0.008 C 
ATOM      6  C   UNL     1     134.469 137.248 133.511  1.00  0.00    -0.010 C 
ATOM      7  C   UNL     1     133.488 137.577 132.372  1.00  0.00     0.004 C 
ATOM      8  C   UNL     1     135.721 138.084 133.194  1.00  0.00     0.003 CG0
ATOM      9  C   UNL     1     134.033 138.819 131.660  1.00  0.00     0.008 C 
ATOM     10  G   UNL     1     136.738 138.139 134.370  1.00  0.00     0.000 G0
ENDBRANCH   2   4
ENDBRANCH   1   2
BRANCH   1  11
ATOM     11  C   UNL     1     138.314 139.998 133.069  1.00  0.00     0.009 C 
BRANCH  11  12
ATOM     12  C   UNL     1     138.057 138.922 134.155  1.00  0.00    -0.001 C 
ATOM     13  C   UNL     1     136.740 138.137 134.370  1.00  0.00     0.002 CG0
ATOM     14  C   UNL     1     137.094 139.311 135.301  1.00  0.00    -0.029 C 
ATOM     15  G   UNL     1     135.730 138.073 133.189  1.00  0.00     0.000 G0
ATOM     16  C   UNL     1     136.232 140.586 135.278  1.00  0.00     0.011 C 
ATOM     17  C   UNL     1     137.535 138.866 136.703  1.00  0.00     0.011 C 
ENDBRANCH  11  12
ENDBRANCH   1  11
TORSDOF 0
ENDMDL
MODEL 5
REMARK VINA RESULT:    -3.515      1.887      4.193
REMARK INTER + INTRA:          -2.244
REMARK INTER:                  -4.395
REMARK INTRA:                   2.151
REMARK UNBOUND:                 2.093
REMARK SMILES C=C1CC[C@@H]2[C@H]([C@@H]3[C@@H]1CC[C@@H]3C)C2(C)C
REMARK SMILES IDX 3 1 2 2 1 3 8 4 12 5 11 6 10 7 7 8 9 9 4 11 5 12 6 13 13 14
REMARK SMILES IDX 14 16 15 17
REMARK H PARENT
REMARK Flexibility Score: 80.00
ROOT
ATOM      1  C   UNL     1     139.296 135.996 132.622  1.00  0.00     0.031 C 
ENDROOT
BRANCH   1   2
ATOM      2  C   UNL     1     139.845 137.385 132.391  1.00  0.00    -0.074 C 
ATOM      3  C   UNL     1     140.963 137.544 131.662  1.00  0.00     0.008 C 
BRANCH   2   4
ATOM      4  C   UNL     1     139.234 138.595 133.072  1.00  0.00     0.018 C 
ATOM      5  C   UNL     1     137.904 140.456 135.336  1.00  0.00     0.008 C 
ATOM      6  C   UNL     1     137.351 139.669 134.134  1.00  0.00    -0.010 C 
ATOM      7  C   UNL     1     137.622 140.413 132.814  1.00  0.00     0.004 C 
ATOM      8  C   UNL     1     138.014 138.293 133.942  1.00  0.00     0.003 CG0
ATOM      9  C   UNL     1     138.703 139.622 132.071  1.00  0.00     0.008 C 
ATOM     10  G   UNL     1     138.124 137.474 135.260  1.00  0.00     0.000 G0
ENDBRANCH   2   4
ENDBRANCH   1   2
BRANCH   1  11
ATOM     11  C   UNL     1     139.626 135.495 134.029  1.00  0.00     0.009 C 
BRANCH  11  12
ATOM     12  C   UNL     1     138.736 136.040 135.176  1.00  0.00    -0.001 C 
ATOM     13  C   UNL     1     138.132 137.463 135.266  1.00  0.00     0.002 CG0
ATOM     14  C   UNL     1     139.375 137.102 136.101  1.00  0.00    -0.029 C 
ATOM     15  G   UNL     1     138.021 138.290 133.954  1.00  0.00     0.000 G0
ATOM     16  C   UNL     1     140.720 137.784 135.795  1.00  0.00     0.011 C 
ATOM     17  C   UNL     1     139.074 136.930 137.597  1.00  0.00     0.011 C 
ENDBRANCH  11  12
ENDBRANCH   1  11
TORSDOF 0
ENDMDL
MODEL 6
REMARK VINA RESULT:    -3.510      3.014      4.347
REMARK INTER + INTRA:          -2.238
REMARK INTER:                  -4.428
REMARK INTRA:                   2.190
REMARK UNBOUND:                 2.093
REMARK SMILES C=C1CC[C@@H]2[C@H]([C@@H]3[C@@H]1CC[C@@H]3C)C2(C)C
REMARK SMILES IDX 3 1 2 2 1 3 8 4 12 5 11 6 10 7 7 8 9 9 4 11 5 12 6 13 13 14
REMARK SMILES IDX 14 16 15 17
REMARK H PARENT
REMARK Flexibility Score: 80.00
ROOT
ATOM      1  C   UNL     1     141.119 137.468 131.597  1.00  0.00     0.031 C 
ENDROOT
BRANCH   1   2
ATOM      2  C   UNL     1     139.953 137.849 130.714  1.00  0.00    -0.074 C 
ATOM      3  C   UNL     1     139.687 139.147 130.492  1.00  0.00     0.008 C 
BRANCH   2   4
ATOM      4  C   UNL     1     138.997 136.800 130.178  1.00  0.00     0.018 C 
ATOM      5  C   UNL     1     137.123 134.187 130.038  1.00  0.00     0.008 C 
ATOM      6  C   UNL     1     138.542 134.517 129.538  1.00  0.00    -0.010 C 
ATOM      7  C   UNL     1     138.491 135.374 128.260  1.00  0.00     0.004 C 
ATOM      8  C   UNL     1     139.363 135.358 130.531  1.00  0.00     0.003 CG0
ATOM      9  C   UNL     1     138.948 136.783 128.650  1.00  0.00     0.008 C 
ATOM     10  G   UNL     1     139.297 134.824 131.991  1.00  0.00     0.000 G0
ENDBRANCH   2   4
ENDBRANCH   1   2
BRANCH   1  11
ATOM     11  C   UNL     1     140.646 137.015 132.980  1.00  0.00     0.009 C 
BRANCH  11  12
ATOM     12  C   UNL     1     140.108 135.564 133.078  1.00  0.00    -0.001 C 
ATOM     13  C   UNL     1     139.298 134.814 131.994  1.00  0.00     0.002 CG0
ATOM     14  C   UNL     1     138.576 135.403 133.221  1.00  0.00    -0.029 C 
ATOM     15  G   UNL     1     139.371 135.345 130.534  1.00  0.00     0.000 G0
ATOM     16  C   UNL     1     137.587 136.567 133.034  1.00  0.00     0.011 C 
ATOM     17  C   UNL     1     138.123 134.338 134.230  1.00  0.00     0.011 C 
ENDBRANCH  11  12
ENDBRANCH   1  11
TORSDOF 0
ENDMDL
MODEL 7
REMARK VINA RESULT:    -3.484      1.210      4.361
REMARK INTER + INTRA:          -2.206
REMARK INTER:                  -4.398
REMARK INTRA:                   2.192
REMARK UNBOUND:                 2.093
REMARK SMILES C=C1CC[C@@H]2[C@H]([C@@H]3[C@@H]1CC[C@@H]3C)C2(C)C
REMARK SMILES IDX 3 1 2 2 1 3 8 4 12 5 11 6 10 7 7 8 9 9 4 11 5 12 6 13 13 14
REMARK SMILES IDX 14 16 15 17
REMARK H PARENT
REMARK Flexibility Score: 80.00
ROOT
ATOM      1  C   UNL     1     140.077 136.997 133.160  1.00  0.00     0.031 C 
ENDROOT
BRANCH   1   2
ATOM      2  C   UNL     1     138.577 136.816 133.096  1.00  0.00    -0.074 C 
ATOM      3  C   UNL     1     138.048 135.596 133.285  1.00  0.00     0.008 C 
BRANCH   2   4
ATOM      4  C   UNL     1     137.664 137.960 132.695  1.00  0.00     0.018 C 
ATOM      5  C   UNL     1     136.539 140.548 131.147  1.00  0.00     0.008 C 
ATOM      6  C   UNL     1     137.241 140.328 132.500  1.00  0.00    -0.010 C 
ATOM      7  C   UNL     1     136.260 139.769 133.546  1.00  0.00     0.004 C 
ATOM      8  C   UNL     1     138.375 139.290 132.443  1.00  0.00     0.003 CG0
ATOM      9  C   UNL     1     136.651 138.307 133.786  1.00  0.00     0.008 C 
ATOM     10  G   UNL     1     139.338 139.496 131.239  1.00  0.00     0.000 G0
ENDBRANCH   2   4
ENDBRANCH   1   2
BRANCH   1  11
ATOM     11  C   UNL     1     140.680 137.147 131.763  1.00  0.00     0.009 C 
BRANCH  11  12
ATOM     12  C   UNL     1     140.539 138.542 131.103  1.00  0.00    -0.001 C 
ATOM     13  C   UNL     1     139.329 139.499 131.236  1.00  0.00     0.002 CG0
ATOM     14  C   UNL     1     139.510 138.664 129.954  1.00  0.00    -0.029 C 
ATOM     15  G   UNL     1     138.361 139.284 132.434  1.00  0.00     0.000 G0
ATOM     16  C   UNL     1     138.492 137.559 129.617  1.00  0.00     0.011 C 
ATOM     17  C   UNL     1     139.973 139.493 128.747  1.00  0.00     0.011 C 
ENDBRANCH  11  12
ENDBRANCH   1  11
TORSDOF 0
ENDMDL
MODEL 8
REMARK VINA RESULT:    -3.461      1.770      3.219
REMARK INTER + INTRA:          -2.177
REMARK INTER:                  -4.307
REMARK INTRA:                   2.129
REMARK UNBOUND:                 2.093
REMARK SMILES C=C1CC[C@@H]2[C@H]([C@@H]3[C@@H]1CC[C@@H]3C)C2(C)C
REMARK SMILES IDX 3 1 2 2 1 3 8 4 12 5 11 6 10 7 7 8 9 9 4 11 5 12 6 13 13 14
REMARK SMILES IDX 14 16 15 17
REMARK H PARENT
REMARK Flexibility Score: 80.00
ROOT
ATOM      1  C   UNL     1     138.834 140.010 132.000  1.00  0.00     0.031 C 
ENDROOT
BRANCH   1   2
ATOM      2  C   UNL     1     139.209 138.836 131.124  1.00  0.00    -0.074 C 
ATOM      3  C   UNL     1     139.530 139.045 129.836  1.00  0.00     0.008 C 
BRANCH   2   4
ATOM      4  C   UNL     1     139.104 137.411 131.633  1.00  0.00     0.018 C 
ATOM      5  C   UNL     1     137.989 134.805 133.157  1.00  0.00     0.008 C 
ATOM      6  C   UNL     1     139.085 135.841 133.467  1.00  0.00    -0.010 C 
ATOM      7  C   UNL     1     140.353 135.567 132.640  1.00  0.00     0.004 C 
ATOM      8  C   UNL     1     138.689 137.282 133.099  1.00  0.00     0.003 CG0
ATOM      9  C   UNL     1     140.443 136.674 131.584  1.00  0.00     0.008 C 
ATOM     10  G   UNL     1     137.267 137.675 133.591  1.00  0.00     0.000 G0
ENDBRANCH   2   4
ENDBRANCH   1   2
BRANCH   1  11
ATOM     11  C   UNL     1     137.324 140.070 132.234  1.00  0.00     0.009 C 
BRANCH  11  12
ATOM     12  C   UNL     1     136.760 139.108 133.312  1.00  0.00    -0.001 C 
ATOM     13  C   UNL     1     137.255 137.671 133.604  1.00  0.00     0.002 CG0
ATOM     14  C   UNL     1     135.960 137.888 132.799  1.00  0.00    -0.029 C 
ATOM     15  G   UNL     1     138.677 137.278 133.112  1.00  0.00     0.000 G0
ATOM     16  C   UNL     1     135.909 137.479 131.316  1.00  0.00     0.011 C 
ATOM     17  C   UNL     1     134.687 137.561 133.594  1.00  0.00     0.011 C 
ENDBRANCH  11  12
ENDBRANCH   1  11
TORSDOF 0
ENDMDL
MODEL 9
REMARK VINA RESULT:    -3.423      2.481      5.027
REMARK INTER + INTRA:          -2.131
REMARK INTER:                  -4.272
REMARK INTRA:                   2.141
REMARK UNBOUND:                 2.093
REMARK SMILES C=C1CC[C@@H]2[C@H]([C@@H]3[C@@H]1CC[C@@H]3C)C2(C)C
REMARK SMILES IDX 3 1 2 2 1 3 8 4 12 5 11 6 10 7 7 8 9 9 4 11 5 12 6 13 13 14
REMARK SMILES IDX 14 16 15 17
REMARK H PARENT
REMARK Flexibility Score: 80.00
ROOT
ATOM      1  C   UNL     1     140.340 135.702 132.364  1.00  0.00     0.031 C 
ENDROOT
BRANCH   1   2
ATOM      2  C   UNL     1     139.151 134.967 131.788  1.00  0.00    -0.074 C 
ATOM      3  C   UNL     1     139.260 134.363 130.593  1.00  0.00     0.008 C 
BRANCH   2   4
ATOM      4  C   UNL     1     137.797 135.005 132.472  1.00  0.00     0.018 C 
ATOM      5  C   UNL     1     135.224 136.118 134.053  1.00  0.00     0.008 C 
ATOM      6  C   UNL     1     136.468 135.308 134.464  1.00  0.00    -0.010 C 
ATOM      7  C   UNL     1     136.332 133.835 134.038  1.00  0.00     0.004 C 
ATOM      8  C   UNL     1     137.764 135.786 133.786  1.00  0.00     0.003 CG0
ATOM      9  C   UNL     1     137.310 133.614 132.880  1.00  0.00     0.008 C 
ATOM     10  G   UNL     1     137.950 137.329 133.833  1.00  0.00     0.000 G0
ENDBRANCH   2   4
ENDBRANCH   1   2
BRANCH   1  11
ATOM     11  C   UNL     1     140.184 137.216 132.213  1.00  0.00     0.009 C 
BRANCH  11  12
ATOM     12  C   UNL     1     139.260 137.915 133.243  1.00  0.00    -0.001 C 
ATOM     13  C   UNL     1     137.960 137.331 133.848  1.00  0.00     0.002 CG0
ATOM     14  C   UNL     1     137.879 138.384 132.726  1.00  0.00    -0.029 C 
ATOM     15  G   UNL     1     137.755 135.791 133.782  1.00  0.00     0.000 G0
ATOM     16  C   UNL     1     137.317 137.986 131.350  1.00  0.00     0.011 C 
ATOM     17  C   UNL     1     137.433 139.768 133.221  1.00  0.00     0.011 C 
ENDBRANCH  11  12
ENDBRANCH   1  11
TORSDOF 0
ENDMDL
