MODEL 1
REMARK VINA RESULT:    84.286      0.000      0.000
REMARK INTER + INTRA:         125.680
REMARK INTER:                 123.704
REMARK INTRA:                   1.976
REMARK UNBOUND:                 1.976
REMARK SMILES Cc1cc2c(C(C)C)c(O)c(O)c(C=O)c2c(O)c1-c1c(C)cc2c(C(C)C)c(O)c(O)c(C=O)c2c1O
REMARK SMILES IDX 1 1 2 2 3 3 4 4 16 5 13 6 11 7 9 8 5 9 17 10 19 11 20 12
REMARK SMILES IDX 37 13 21 14 36 15 23 16 22 17 24 18 33 19 25 20 31 21 29 22
REMARK SMILES IDX 38 23 34 25 35 26 26 27 27 28 28 29 32 30 30 32 18 34 6 36
REMARK SMILES IDX 7 37 8 38 14 39 15 40 10 41 12 43
REMARK H PARENT 38 24 32 31 30 33 18 35 10 42 12 44
REMARK Flexibility Score: inf
ROOT
ATOM      1  C   UNL     1     -33.067  13.495  23.657  1.00  0.00     0.045 C 
ATOM      2  C   UNL     1     -33.454  12.059  23.403  1.00  0.00    -0.039 A 
ATOM      3  C   UNL     1     -33.361  11.130  24.440  1.00  0.00     0.013 A 
ATOM      4  C   UNL     1     -33.723   9.780  24.266  1.00  0.00    -0.006 A 
ATOM      5  C   UNL     1     -34.032   9.324  22.950  1.00  0.00     0.039 A 
ATOM      6  C   UNL     1     -34.159   7.925  22.717  1.00  0.00     0.072 A 
ATOM      7  C   UNL     1     -34.037   7.024  23.787  1.00  0.00     0.169 A 
ATOM      8  C   UNL     1     -33.828   7.482  25.093  1.00  0.00     0.162 A 
ATOM      9  C   UNL     1     -33.766   8.872  25.370  1.00  0.00     0.008 A 
ATOM     10  C   UNL     1     -34.234  10.290  21.919  1.00  0.00     0.132 A 
ATOM     11  C   UNL     1     -33.943  11.651  22.152  1.00  0.00     0.031 A 
ENDROOT
BRANCH  11  12
ATOM     12  C   UNL     1     -34.161  12.657  21.080  1.00  0.00     0.031 A 
ATOM     13  C   UNL     1     -33.609  12.463  19.798  1.00  0.00     0.132 A 
ATOM     14  C   UNL     1     -34.927  13.802  21.348  1.00  0.00    -0.039 A 
ATOM     15  C   UNL     1     -33.853  13.407  18.757  1.00  0.00     0.039 A 
ATOM     16  C   UNL     1     -35.082  14.772  20.357  1.00  0.00     0.013 A 
ATOM     17  C   UNL     1     -35.590  13.999  22.691  1.00  0.00     0.045 C 
ATOM     18  C   UNL     1     -34.508  14.636  19.078  1.00  0.00    -0.006 A 
ATOM     19  C   UNL     1     -33.445  13.172  17.412  1.00  0.00     0.072 A 
ATOM     20  C   UNL     1     -34.579  15.687  18.108  1.00  0.00     0.008 A 
ATOM     21  C   UNL     1     -33.582  14.189  16.448  1.00  0.00     0.169 A 
ATOM     22  C   UNL     1     -34.129  15.428  16.794  1.00  0.00     0.162 A 
BRANCH  13  23
ATOM     23  O   UNL     1     -32.783  11.356  19.567  1.00  0.00    -0.507 OA
ATOM     24  H   UNL     1     -32.656  10.599  20.227  1.00  0.00     0.293 HD
ENDBRANCH  13  23
BRANCH  19  25
ATOM     25  C   UNL     1     -32.968  11.852  16.951  1.00  0.00     0.264 C 
ATOM     26  O   UNL     1     -33.711  10.839  17.037  1.00  0.00    -0.298 OA
ENDBRANCH  19  25
BRANCH  20  27
ATOM     27  C   UNL     1     -35.112  17.104  18.411  1.00  0.00     0.017 C 
ATOM     28  C   UNL     1     -34.058  18.188  18.145  1.00  0.00     0.012 C 
ATOM     29  C   UNL     1     -36.481  17.420  17.774  1.00  0.00     0.012 C 
ENDBRANCH  20  27
BRANCH  21  30
ATOM     30  O   UNL     1     -33.200  13.990  15.116  1.00  0.00    -0.504 OA
ATOM     31  H   UNL     1     -32.302  14.258  14.737  1.00  0.00     0.293 HD
ENDBRANCH  21  30
BRANCH  22  32
ATOM     32  O   UNL     1     -34.246  16.418  15.811  1.00  0.00    -0.504 OA
ATOM     33  H   UNL     1     -34.188  17.409  16.013  1.00  0.00     0.293 HD
ENDBRANCH  22  32
ENDBRANCH  11  12
BRANCH  10  34
ATOM     34  O   UNL     1     -34.763   9.902  20.684  1.00  0.00    -0.507 OA
ATOM     35  H   UNL     1     -34.258   9.350  20.002  1.00  0.00     0.293 HD
ENDBRANCH  10  34
BRANCH   9  36
ATOM     36  C   UNL     1     -33.853   9.329  26.840  1.00  0.00     0.017 C 
ATOM     37  C   UNL     1     -32.756  10.337  27.204  1.00  0.00     0.012 C 
ATOM     38  C   UNL     1     -35.256   9.790  27.288  1.00  0.00     0.012 C 
ENDBRANCH   9  36
BRANCH   6  39
ATOM     39  C   UNL     1     -34.272   7.356  21.353  1.00  0.00     0.264 C 
ATOM     40  O   UNL     1     -34.479   6.126  21.181  1.00  0.00    -0.298 OA
ENDBRANCH   6  39
BRANCH   8  41
ATOM     41  O   UNL     1     -33.662   6.519  26.093  1.00  0.00    -0.504 OA
ATOM     42  H   UNL     1     -34.073   6.579  27.015  1.00  0.00     0.293 HD
ENDBRANCH   8  41
BRANCH   7  43
ATOM     43  O   UNL     1     -34.098   5.649  23.536  1.00  0.00    -0.504 OA
ATOM     44  H   UNL     1     -33.840   4.951  24.224  1.00  0.00     0.293 HD
ENDBRANCH   7  43
TORSDOF 11
ENDMDL
MODEL 2
REMARK VINA RESULT:    85.743      2.196      9.456
REMARK INTER + INTRA:         127.819
REMARK INTER:                 123.357
REMARK INTRA:                   4.463
REMARK UNBOUND:                 1.976
REMARK SMILES Cc1cc2c(C(C)C)c(O)c(O)c(C=O)c2c(O)c1-c1c(C)cc2c(C(C)C)c(O)c(O)c(C=O)c2c1O
REMARK SMILES IDX 1 1 2 2 3 3 4 4 16 5 13 6 11 7 9 8 5 9 17 10 19 11 20 12
REMARK SMILES IDX 37 13 21 14 36 15 23 16 22 17 24 18 33 19 25 20 31 21 29 22
REMARK SMILES IDX 38 23 34 25 35 26 26 27 27 28 28 29 32 30 30 32 18 34 6 36
REMARK SMILES IDX 7 37 8 38 14 39 15 40 10 41 12 43
REMARK H PARENT 38 24 32 31 30 33 18 35 10 42 12 44
REMARK Flexibility Score: inf
ROOT
ATOM      1  C   UNL     1     -32.672  11.158  18.290  1.00  0.00     0.045 C 
ATOM      2  C   UNL     1     -33.323  12.498  18.532  1.00  0.00    -0.039 A 
ATOM      3  C   UNL     1     -33.348  13.444  17.506  1.00  0.00     0.013 A 
ATOM      4  C   UNL     1     -33.955  14.704  17.667  1.00  0.00    -0.006 A 
ATOM      5  C   UNL     1     -34.404  15.078  18.968  1.00  0.00     0.039 A 
ATOM      6  C   UNL     1     -34.792  16.429  19.202  1.00  0.00     0.072 A 
ATOM      7  C   UNL     1     -34.782  17.352  18.143  1.00  0.00     0.169 A 
ATOM      8  C   UNL     1     -34.431  16.957  16.848  1.00  0.00     0.162 A 
ATOM      9  C   UNL     1     -34.107  15.605  16.568  1.00  0.00     0.008 A 
ATOM     10  C   UNL     1     -34.480  14.078  19.983  1.00  0.00     0.132 A 
ATOM     11  C   UNL     1     -33.938  12.794  19.758  1.00  0.00     0.031 A 
ENDROOT
BRANCH  11  12
ATOM     12  C   UNL     1     -34.023  11.751  20.813  1.00  0.00     0.031 A 
ATOM     13  C   UNL     1     -33.684  12.056  22.147  1.00  0.00     0.132 A 
ATOM     14  C   UNL     1     -34.452  10.457  20.476  1.00  0.00    -0.039 A 
ATOM     15  C   UNL     1     -33.807  11.067  23.167  1.00  0.00     0.039 A 
ATOM     16  C   UNL     1     -34.476   9.465  21.457  1.00  0.00     0.013 A 
ATOM     17  C   UNL     1     -34.889  10.123  19.070  1.00  0.00     0.045 C 
ATOM     18  C   UNL     1     -34.101   9.719  22.791  1.00  0.00    -0.006 A 
ATOM     19  C   UNL     1     -33.624  11.375  24.546  1.00  0.00     0.072 A 
ATOM     20  C   UNL     1     -34.022   8.669  23.761  1.00  0.00     0.008 A 
ATOM     21  C   UNL     1     -33.616  10.342  25.502  1.00  0.00     0.169 A 
ATOM     22  C   UNL     1     -33.800   9.012  25.114  1.00  0.00     0.162 A 
BRANCH  13  23
ATOM     23  O   UNL     1     -33.185  13.328  22.454  1.00  0.00    -0.507 OA
ATOM     24  H   UNL     1     -33.714  14.037  22.947  1.00  0.00     0.293 HD
ENDBRANCH  13  23
BRANCH  19  25
ATOM     25  C   UNL     1     -33.538  12.765  25.039  1.00  0.00     0.264 C 
ATOM     26  O   UNL     1     -34.250  13.144  26.007  1.00  0.00    -0.298 OA
ENDBRANCH  19  25
BRANCH  20  27
ATOM     27  C   UNL     1     -34.156   7.169  23.420  1.00  0.00     0.017 C 
ATOM     28  C   UNL     1     -35.219   6.473  24.280  1.00  0.00     0.012 C 
ATOM     29  C   UNL     1     -34.299   6.868  21.914  1.00  0.00     0.012 C 
ENDBRANCH  20  27
BRANCH  21  30
ATOM     30  O   UNL     1     -33.447  10.610  26.866  1.00  0.00    -0.504 OA
ATOM     31  H   UNL     1     -32.655  10.298  27.411  1.00  0.00     0.293 HD
ENDBRANCH  21  30
BRANCH  22  32
ATOM     32  O   UNL     1     -33.783   8.010  26.091  1.00  0.00    -0.504 OA
ATOM     33  H   UNL     1     -34.622   7.563  26.440  1.00  0.00     0.293 HD
ENDBRANCH  22  32
ENDBRANCH  11  12
BRANCH  10  34
ATOM     34  O   UNL     1     -35.130  14.347  21.192  1.00  0.00    -0.507 OA
ATOM     35  H   UNL     1     -35.473  13.631  21.819  1.00  0.00     0.293 HD
ENDBRANCH  10  34
BRANCH   9  36
ATOM     36  C   UNL     1     -34.038  15.160  15.093  1.00  0.00     0.017 C 
ATOM     37  C   UNL     1     -34.090  13.634  14.939  1.00  0.00     0.012 C 
ATOM     38  C   UNL     1     -35.028  15.884  14.156  1.00  0.00     0.012 C 
ENDBRANCH   9  36
BRANCH   6  39
ATOM     39  C   UNL     1     -35.072  16.949  20.561  1.00  0.00     0.264 C 
ATOM     40  O   UNL     1     -34.397  17.897  21.042  1.00  0.00    -0.298 OA
ENDBRANCH   6  39
BRANCH   8  41
ATOM     41  O   UNL     1     -34.392  17.949  15.861  1.00  0.00    -0.504 OA
ATOM     42  H   UNL     1     -35.209  18.419  15.495  1.00  0.00     0.293 HD
ENDBRANCH   8  41
BRANCH   7  43
ATOM     43  O   UNL     1     -35.102  18.690  18.397  1.00  0.00    -0.504 OA
ATOM     44  H   UNL     1     -35.743  19.222  17.822  1.00  0.00     0.293 HD
ENDBRANCH   7  43
TORSDOF 11
ENDMDL
MODEL 3
REMARK VINA RESULT:    87.273      1.518      9.149
REMARK INTER + INTRA:         130.064
REMARK INTER:                 124.714
REMARK INTRA:                   5.351
REMARK UNBOUND:                 1.976
REMARK SMILES Cc1cc2c(C(C)C)c(O)c(O)c(C=O)c2c(O)c1-c1c(C)cc2c(C(C)C)c(O)c(O)c(C=O)c2c1O
REMARK SMILES IDX 1 1 2 2 3 3 4 4 16 5 13 6 11 7 9 8 5 9 17 10 19 11 20 12
REMARK SMILES IDX 37 13 21 14 36 15 23 16 22 17 24 18 33 19 25 20 31 21 29 22
REMARK SMILES IDX 38 23 34 25 35 26 26 27 27 28 28 29 32 30 30 32 18 34 6 36
REMARK SMILES IDX 7 37 8 38 14 39 15 40 10 41 12 43
REMARK H PARENT 38 24 32 31 30 33 18 35 10 42 12 44
REMARK Flexibility Score: inf
ROOT
ATOM      1  C   UNL     1     -32.368  10.760  18.963  1.00  0.00     0.045 C 
ATOM      2  C   UNL     1     -33.099  12.076  18.846  1.00  0.00    -0.039 A 
ATOM      3  C   UNL     1     -33.168  12.714  17.607  1.00  0.00     0.013 A 
ATOM      4  C   UNL     1     -33.850  13.933  17.434  1.00  0.00    -0.006 A 
ATOM      5  C   UNL     1     -34.334  14.611  18.592  1.00  0.00     0.039 A 
ATOM      6  C   UNL     1     -34.802  15.950  18.463  1.00  0.00     0.072 A 
ATOM      7  C   UNL     1     -34.835  16.559  17.199  1.00  0.00     0.169 A 
ATOM      8  C   UNL     1     -34.449  15.858  16.052  1.00  0.00     0.162 A 
ATOM      9  C   UNL     1     -34.043  14.502  16.136  1.00  0.00     0.008 A 
ATOM     10  C   UNL     1     -34.360  13.912  19.836  1.00  0.00     0.132 A 
ATOM     11  C   UNL     1     -33.742  12.648  19.955  1.00  0.00     0.031 A 
ENDROOT
BRANCH  11  12
ATOM     12  C   UNL     1     -33.777  11.917  21.248  1.00  0.00     0.031 A 
ATOM     13  C   UNL     1     -33.988  10.524  21.274  1.00  0.00     0.132 A 
ATOM     14  C   UNL     1     -33.590  12.621  22.449  1.00  0.00    -0.039 A 
ATOM     15  C   UNL     1     -33.978   9.815  22.512  1.00  0.00     0.039 A 
ATOM     16  C   UNL     1     -33.679  11.941  23.664  1.00  0.00     0.013 A 
ATOM     17  C   UNL     1     -33.290  14.101  22.444  1.00  0.00     0.045 C 
ATOM     18  C   UNL     1     -33.934  10.558  23.733  1.00  0.00    -0.006 A 
ATOM     19  C   UNL     1     -34.033   8.393  22.570  1.00  0.00     0.072 A 
ATOM     20  C   UNL     1     -34.136   9.894  24.985  1.00  0.00     0.008 A 
ATOM     21  C   UNL     1     -34.163   7.745  23.812  1.00  0.00     0.169 A 
ATOM     22  C   UNL     1     -34.225   8.484  24.997  1.00  0.00     0.162 A 
BRANCH  13  23
ATOM     23  O   UNL     1     -34.250   9.847  20.076  1.00  0.00    -0.507 OA
ATOM     24  H   UNL     1     -33.631   9.859  19.275  1.00  0.00     0.293 HD
ENDBRANCH  13  23
BRANCH  19  25
ATOM     25  C   UNL     1     -33.859   7.547  21.371  1.00  0.00     0.264 C 
ATOM     26  O   UNL     1     -34.192   6.332  21.393  1.00  0.00    -0.298 OA
ENDBRANCH  19  25
BRANCH  20  27
ATOM     27  C   UNL     1     -34.274  10.627  26.337  1.00  0.00     0.017 C 
ATOM     28  C   UNL     1     -35.653  10.410  26.974  1.00  0.00     0.012 C 
ATOM     29  C   UNL     1     -33.107  10.383  27.316  1.00  0.00     0.012 C 
ENDBRANCH  20  27
BRANCH  21  30
ATOM     30  O   UNL     1     -34.211   6.348  23.907  1.00  0.00    -0.504 OA
ATOM     31  H   UNL     1     -33.476   5.781  24.306  1.00  0.00     0.293 HD
ENDBRANCH  21  30
BRANCH  22  32
ATOM     32  O   UNL     1     -34.357   7.806  26.215  1.00  0.00    -0.504 OA
ATOM     33  H   UNL     1     -34.439   8.280  27.106  1.00  0.00     0.293 HD
ENDBRANCH  22  32
ENDBRANCH  11  12
BRANCH  10  34
ATOM     34  O   UNL     1     -35.037  14.451  20.934  1.00  0.00    -0.507 OA
ATOM     35  H   UNL     1     -34.574  14.828  21.752  1.00  0.00     0.293 HD
ENDBRANCH  10  34
BRANCH   9  36
ATOM     36  C   UNL     1     -33.934  13.689  14.831  1.00  0.00     0.017 C 
ATOM     37  C   UNL     1     -34.780  12.409  14.867  1.00  0.00     0.012 C 
ATOM     38  C   UNL     1     -34.153  14.509  13.542  1.00  0.00     0.012 C 
ENDBRANCH   9  36
BRANCH   6  39
ATOM     39  C   UNL     1     -35.126  16.793  19.638  1.00  0.00     0.264 C 
ATOM     40  O   UNL     1     -34.666  17.960  19.742  1.00  0.00    -0.298 OA
ENDBRANCH   6  39
BRANCH   8  41
ATOM     41  O   UNL     1     -34.458  16.555  14.838  1.00  0.00    -0.504 OA
ATOM     42  H   UNL     1     -33.733  17.195  14.544  1.00  0.00     0.293 HD
ENDBRANCH   8  41
BRANCH   7  43
ATOM     43  O   UNL     1     -35.236  17.896  17.092  1.00  0.00    -0.504 OA
ATOM     44  H   UNL     1     -34.601  18.643  16.839  1.00  0.00     0.293 HD
ENDBRANCH   7  43
TORSDOF 11
ENDMDL
