MODEL 1
REMARK VINA RESULT:    -4.492      0.000      0.000
REMARK INTER + INTRA:         -17.362
REMARK INTER:                 -11.845
REMARK INTRA:                  -5.517
REMARK UNBOUND:                -5.517
REMARK SMILES CCCCCCCCCCCCCCCCCCCCCCCCCCCCCC(=O)[O-]
REMARK SMILES IDX 16 1 17 2 18 3 19 4 20 5 21 6 22 7 23 8 24 9 25 10 26 11
REMARK SMILES IDX 27 12 28 13 29 14 30 15 31 16 32 17 15 18 14 19 13 20 12 21
REMARK SMILES IDX 11 22 10 23 9 24 8 25 7 26 6 27 5 28 4 29 3 30 2 31 1 32
REMARK H PARENT
REMARK Flexibility Score: inf
ROOT
ATOM      1  C   UNL     1      44.972   2.995  22.138  1.00  0.00     0.000 C 
ENDROOT
BRANCH   1   2
ATOM      2  C   UNL     1      46.094   4.046  22.142  1.00  0.00     0.000 C 
BRANCH   2   3
ATOM      3  C   UNL     1      46.879   4.058  23.466  1.00  0.00     0.000 C 
BRANCH   3   4
ATOM      4  C   UNL     1      46.519   5.272  24.350  1.00  0.00     0.000 C 
BRANCH   4   5
ATOM      5  C   UNL     1      47.298   5.327  25.679  1.00  0.00     0.000 C 
BRANCH   5   6
ATOM      6  C   UNL     1      48.394   4.260  25.837  1.00  0.00     0.000 C 
BRANCH   6   7
ATOM      7  C   UNL     1      49.665   4.810  26.508  1.00  0.00     0.000 C 
BRANCH   7   8
ATOM      8  C   UNL     1      49.802   6.333  26.354  1.00  0.00     0.000 C 
BRANCH   8   9
ATOM      9  C   UNL     1      50.612   6.733  25.112  1.00  0.00     0.000 C 
BRANCH   9  10
ATOM     10  C   UNL     1      50.391   8.209  24.762  1.00  0.00     0.000 C 
BRANCH  10  11
ATOM     11  C   UNL     1      49.621   8.350  23.439  1.00  0.00     0.000 C 
BRANCH  11  12
ATOM     12  C   UNL     1      49.356   6.997  22.758  1.00  0.00     0.000 C 
BRANCH  12  13
ATOM     13  C   UNL     1      48.998   7.145  21.269  1.00  0.00     0.006 C 
BRANCH  13  14
ATOM     14  C   UNL     1      50.243   7.322  20.390  1.00  0.00     0.053 C 
BRANCH  14  15
ATOM     15  C   UNL     1      50.100   8.479  19.448  1.00  0.00     0.041 C 
ATOM     16  O   UNL     1      50.874   8.592  18.459  1.00  0.00    -0.550 OA
ATOM     17  O   UNL     1      49.117   9.435  19.666  1.00  0.00    -0.550 OA
ENDBRANCH  14  15
ENDBRANCH  13  14
ENDBRANCH  12  13
ENDBRANCH  11  12
ENDBRANCH  10  11
ENDBRANCH   9  10
ENDBRANCH   8   9
ENDBRANCH   7   8
ENDBRANCH   6   7
ENDBRANCH   5   6
ENDBRANCH   4   5
ENDBRANCH   3   4
ENDBRANCH   2   3
ENDBRANCH   1   2
BRANCH   1  18
ATOM     18  C   UNL     1      45.137   1.969  21.003  1.00  0.00     0.000 C 
BRANCH  18  19
ATOM     19  C   UNL     1      46.435   2.181  20.207  1.00  0.00     0.000 C 
BRANCH  19  20
ATOM     20  C   UNL     1      47.344   0.939  20.231  1.00  0.00     0.000 C 
BRANCH  20  21
ATOM     21  C   UNL     1      47.473   0.335  21.638  1.00  0.00     0.000 C 
BRANCH  21  22
ATOM     22  C   UNL     1      48.479  -0.825  21.690  1.00  0.00     0.000 C 
BRANCH  22  23
ATOM     23  C   UNL     1      49.539  -0.578  22.774  1.00  0.00     0.000 C 
BRANCH  23  24
ATOM     24  C   UNL     1      50.866  -0.045  22.204  1.00  0.00    -0.000 C 
BRANCH  24  25
ATOM     25  C   UNL     1      51.499   1.113  23.002  1.00  0.00    -0.000 C 
BRANCH  25  26
ATOM     26  C   UNL     1      50.522   2.229  23.423  1.00  0.00    -0.000 C 
BRANCH  26  27
ATOM     27  C   UNL     1      50.626   3.526  22.595  1.00  0.00    -0.000 C 
BRANCH  27  28
ATOM     28  C   UNL     1      49.725   3.577  21.345  1.00  0.00    -0.000 C 
BRANCH  28  29
ATOM     29  C   UNL     1      50.234   2.758  20.146  1.00  0.00    -0.000 C 
BRANCH  29  30
ATOM     30  C   UNL     1      51.487   3.368  19.497  1.00  0.00    -0.000 C 
BRANCH  30  31
ATOM     31  C   UNL     1      52.621   2.345  19.330  1.00  0.00    -0.003 C 
ATOM     32  C   UNL     1      53.886   2.738  20.092  1.00  0.00     0.004 C 
ENDBRANCH  30  31
ENDBRANCH  29  30
ENDBRANCH  28  29
ENDBRANCH  27  28
ENDBRANCH  26  27
ENDBRANCH  25  26
ENDBRANCH  24  25
ENDBRANCH  23  24
ENDBRANCH  22  23
ENDBRANCH  21  22
ENDBRANCH  20  21
ENDBRANCH  19  20
ENDBRANCH  18  19
ENDBRANCH   1  18
TORSDOF 28
ENDMDL
MODEL 2
REMARK VINA RESULT:    -4.370      1.805      4.563
REMARK INTER + INTRA:         -17.041
REMARK INTER:                 -11.559
REMARK INTRA:                  -5.481
REMARK UNBOUND:                -5.517
REMARK SMILES CCCCCCCCCCCCCCCCCCCCCCCCCCCCCC(=O)[O-]
REMARK SMILES IDX 16 1 17 2 18 3 19 4 20 5 21 6 22 7 23 8 24 9 25 10 26 11
REMARK SMILES IDX 27 12 28 13 29 14 30 15 31 16 32 17 15 18 14 19 13 20 12 21
REMARK SMILES IDX 11 22 10 23 9 24 8 25 7 26 6 27 5 28 4 29 3 30 2 31 1 32
REMARK H PARENT
REMARK Flexibility Score: inf
ROOT
ATOM      1  C   UNL     1      49.271   5.399  22.658  1.00  0.00     0.000 C 
ENDROOT
BRANCH   1   2
ATOM      2  C   UNL     1      49.762   4.861  24.012  1.00  0.00     0.000 C 
BRANCH   2   3
ATOM      3  C   UNL     1      50.202   5.987  24.964  1.00  0.00     0.000 C 
BRANCH   3   4
ATOM      4  C   UNL     1      50.359   7.341  24.238  1.00  0.00     0.000 C 
BRANCH   4   5
ATOM      5  C   UNL     1      49.344   8.410  24.688  1.00  0.00     0.000 C 
BRANCH   5   6
ATOM      6  C   UNL     1      47.957   7.869  25.078  1.00  0.00     0.000 C 
BRANCH   6   7
ATOM      7  C   UNL     1      46.808   8.702  24.485  1.00  0.00     0.000 C 
BRANCH   7   8
ATOM      8  C   UNL     1      46.757   8.630  22.951  1.00  0.00     0.000 C 
BRANCH   8   9
ATOM      9  C   UNL     1      47.007   9.991  22.284  1.00  0.00     0.000 C 
BRANCH   9  10
ATOM     10  C   UNL     1      47.745   9.824  20.951  1.00  0.00     0.000 C 
BRANCH  10  11
ATOM     11  C   UNL     1      48.176   8.364  20.741  1.00  0.00     0.000 C 
BRANCH  11  12
ATOM     12  C   UNL     1      49.704   8.194  20.708  1.00  0.00     0.000 C 
BRANCH  12  13
ATOM     13  C   UNL     1      50.339   8.804  19.446  1.00  0.00     0.006 C 
BRANCH  13  14
ATOM     14  C   UNL     1      51.397   7.881  18.827  1.00  0.00     0.053 C 
BRANCH  14  15
ATOM     15  C   UNL     1      50.962   7.350  17.495  1.00  0.00     0.041 C 
ATOM     16  O   UNL     1      50.113   7.980  16.808  1.00  0.00    -0.550 OA
ATOM     17  O   UNL     1      51.487   6.158  17.016  1.00  0.00    -0.550 OA
ENDBRANCH  14  15
ENDBRANCH  13  14
ENDBRANCH  12  13
ENDBRANCH  11  12
ENDBRANCH  10  11
ENDBRANCH   9  10
ENDBRANCH   8   9
ENDBRANCH   7   8
ENDBRANCH   6   7
ENDBRANCH   5   6
ENDBRANCH   4   5
ENDBRANCH   3   4
ENDBRANCH   2   3
ENDBRANCH   1   2
BRANCH   1  18
ATOM     18  C   UNL     1      47.799   5.038  22.385  1.00  0.00     0.000 C 
BRANCH  18  19
ATOM     19  C   UNL     1      47.092   4.487  23.634  1.00  0.00     0.000 C 
BRANCH  19  20
ATOM     20  C   UNL     1      45.617   4.923  23.709  1.00  0.00     0.000 C 
BRANCH  20  21
ATOM     21  C   UNL     1      45.115   5.519  22.385  1.00  0.00     0.000 C 
BRANCH  21  22
ATOM     22  C   UNL     1      43.709   5.025  22.013  1.00  0.00     0.000 C 
BRANCH  22  23
ATOM     23  C   UNL     1      43.559   3.528  22.320  1.00  0.00     0.000 C 
BRANCH  23  24
ATOM     24  C   UNL     1      43.590   2.650  21.056  1.00  0.00    -0.000 C 
BRANCH  24  25
ATOM     25  C   UNL     1      44.888   1.841  20.855  1.00  0.00    -0.000 C 
BRANCH  25  26
ATOM     26  C   UNL     1      46.050   2.620  20.204  1.00  0.00    -0.000 C 
BRANCH  26  27
ATOM     27  C   UNL     1      47.377   1.841  20.110  1.00  0.00    -0.000 C 
BRANCH  27  28
ATOM     28  C   UNL     1      48.054   1.538  21.461  1.00  0.00    -0.000 C 
BRANCH  28  29
ATOM     29  C   UNL     1      49.590   1.636  21.453  1.00  0.00    -0.000 C 
BRANCH  29  30
ATOM     30  C   UNL     1      50.116   2.654  20.428  1.00  0.00    -0.000 C 
BRANCH  30  31
ATOM     31  C   UNL     1      51.645   2.609  20.284  1.00  0.00    -0.003 C 
ATOM     32  C   UNL     1      52.135   3.257  18.990  1.00  0.00     0.004 C 
ENDBRANCH  30  31
ENDBRANCH  29  30
ENDBRANCH  28  29
ENDBRANCH  27  28
ENDBRANCH  26  27
ENDBRANCH  25  26
ENDBRANCH  24  25
ENDBRANCH  23  24
ENDBRANCH  22  23
ENDBRANCH  21  22
ENDBRANCH  20  21
ENDBRANCH  19  20
ENDBRANCH  18  19
ENDBRANCH   1  18
TORSDOF 28
ENDMDL
MODEL 3
REMARK VINA RESULT:    -4.328      2.730      7.088
REMARK INTER + INTRA:         -16.928
REMARK INTER:                 -11.740
REMARK INTRA:                  -5.188
REMARK UNBOUND:                -5.517
REMARK SMILES CCCCCCCCCCCCCCCCCCCCCCCCCCCCCC(=O)[O-]
REMARK SMILES IDX 16 1 17 2 18 3 19 4 20 5 21 6 22 7 23 8 24 9 25 10 26 11
REMARK SMILES IDX 27 12 28 13 29 14 30 15 31 16 32 17 15 18 14 19 13 20 12 21
REMARK SMILES IDX 11 22 10 23 9 24 8 25 7 26 6 27 5 28 4 29 3 30 2 31 1 32
REMARK H PARENT
REMARK Flexibility Score: inf
ROOT
ATOM      1  C   UNL     1      50.249   7.847  24.464  1.00  0.00     0.000 C 
ENDROOT
BRANCH   1   2
ATOM      2  C   UNL     1      49.948   7.327  25.879  1.00  0.00     0.000 C 
BRANCH   2   3
ATOM      3  C   UNL     1      50.686   6.013  26.189  1.00  0.00     0.000 C 
BRANCH   3   4
ATOM      4  C   UNL     1      49.970   5.180  27.274  1.00  0.00     0.000 C 
BRANCH   4   5
ATOM      5  C   UNL     1      48.432   5.241  27.192  1.00  0.00     0.000 C 
BRANCH   5   6
ATOM      6  C   UNL     1      47.727   3.875  27.142  1.00  0.00     0.000 C 
BRANCH   6   7
ATOM      7  C   UNL     1      46.651   3.804  26.045  1.00  0.00     0.000 C 
BRANCH   7   8
ATOM      8  C   UNL     1      46.848   4.868  24.954  1.00  0.00     0.000 C 
BRANCH   8   9
ATOM      9  C   UNL     1      47.225   4.262  23.594  1.00  0.00     0.000 C 
BRANCH   9  10
ATOM     10  C   UNL     1      48.675   4.596  23.226  1.00  0.00     0.000 C 
BRANCH  10  11
ATOM     11  C   UNL     1      49.634   3.505  23.729  1.00  0.00     0.000 C 
BRANCH  11  12
ATOM     12  C   UNL     1      50.074   2.540  22.615  1.00  0.00     0.000 C 
BRANCH  12  13
ATOM     13  C   UNL     1      50.903   3.238  21.523  1.00  0.00     0.006 C 
BRANCH  13  14
ATOM     14  C   UNL     1      50.689   2.605  20.142  1.00  0.00     0.053 C 
BRANCH  14  15
ATOM     15  C   UNL     1      51.915   2.707  19.286  1.00  0.00     0.041 C 
ATOM     16  O   UNL     1      52.695   1.723  19.176  1.00  0.00    -0.550 OA
ATOM     17  O   UNL     1      52.199   3.889  18.617  1.00  0.00    -0.550 OA
ENDBRANCH  14  15
ENDBRANCH  13  14
ENDBRANCH  12  13
ENDBRANCH  11  12
ENDBRANCH  10  11
ENDBRANCH   9  10
ENDBRANCH   8   9
ENDBRANCH   7   8
ENDBRANCH   6   7
ENDBRANCH   5   6
ENDBRANCH   4   5
ENDBRANCH   3   4
ENDBRANCH   2   3
ENDBRANCH   1   2
BRANCH   1  18
ATOM     18  C   UNL     1      49.123   8.745  23.919  1.00  0.00     0.000 C 
BRANCH  18  19
ATOM     19  C   UNL     1      47.726   8.172  24.211  1.00  0.00     0.000 C 
BRANCH  19  20
ATOM     20  C   UNL     1      46.700   9.273  24.532  1.00  0.00     0.000 C 
BRANCH  20  21
ATOM     21  C   UNL     1      47.301  10.683  24.428  1.00  0.00     0.000 C 
BRANCH  21  22
ATOM     22  C   UNL     1      46.252  11.745  24.068  1.00  0.00     0.000 C 
BRANCH  22  23
ATOM     23  C   UNL     1      45.659  11.475  22.678  1.00  0.00     0.000 C 
BRANCH  23  24
ATOM     24  C   UNL     1      46.573  11.947  21.534  1.00  0.00    -0.000 C 
BRANCH  24  25
ATOM     25  C   UNL     1      47.331  10.823  20.798  1.00  0.00    -0.000 C 
BRANCH  25  26
ATOM     26  C   UNL     1      46.613   9.459  20.772  1.00  0.00    -0.000 C 
BRANCH  26  27
ATOM     27  C   UNL     1      47.299   8.383  19.906  1.00  0.00    -0.000 C 
BRANCH  27  28
ATOM     28  C   UNL     1      47.880   7.188  20.687  1.00  0.00    -0.000 C 
BRANCH  28  29
ATOM     29  C   UNL     1      49.417   7.100  20.686  1.00  0.00    -0.000 C 
BRANCH  29  30
ATOM     30  C   UNL     1      50.091   8.447  20.377  1.00  0.00    -0.000 C 
BRANCH  30  31
ATOM     31  C   UNL     1      50.842   8.435  19.037  1.00  0.00    -0.003 C 
ATOM     32  C   UNL     1      51.801   7.251  18.910  1.00  0.00     0.004 C 
ENDBRANCH  30  31
ENDBRANCH  29  30
ENDBRANCH  28  29
ENDBRANCH  27  28
ENDBRANCH  26  27
ENDBRANCH  25  26
ENDBRANCH  24  25
ENDBRANCH  23  24
ENDBRANCH  22  23
ENDBRANCH  21  22
ENDBRANCH  20  21
ENDBRANCH  19  20
ENDBRANCH  18  19
ENDBRANCH   1  18
TORSDOF 28
ENDMDL
MODEL 4
REMARK VINA RESULT:    -4.299      1.663      3.102
REMARK INTER + INTRA:         -16.852
REMARK INTER:                 -10.921
REMARK INTRA:                  -5.930
REMARK UNBOUND:                -5.517
REMARK SMILES CCCCCCCCCCCCCCCCCCCCCCCCCCCCCC(=O)[O-]
REMARK SMILES IDX 16 1 17 2 18 3 19 4 20 5 21 6 22 7 23 8 24 9 25 10 26 11
REMARK SMILES IDX 27 12 28 13 29 14 30 15 31 16 32 17 15 18 14 19 13 20 12 21
REMARK SMILES IDX 11 22 10 23 9 24 8 25 7 26 6 27 5 28 4 29 3 30 2 31 1 32
REMARK H PARENT
REMARK Flexibility Score: inf
ROOT
ATOM      1  C   UNL     1      43.362   2.462  20.614  1.00  0.00     0.000 C 
ENDROOT
BRANCH   1   2
ATOM      2  C   UNL     1      43.562   1.049  21.186  1.00  0.00     0.000 C 
BRANCH   2   3
ATOM      3  C   UNL     1      43.199   0.965  22.679  1.00  0.00     0.000 C 
BRANCH   3   4
ATOM      4  C   UNL     1      44.276   0.229  23.504  1.00  0.00     0.000 C 
BRANCH   4   5
ATOM      5  C   UNL     1      44.542   0.860  24.885  1.00  0.00     0.000 C 
BRANCH   5   6
ATOM      6  C   UNL     1      45.237   2.232  24.852  1.00  0.00     0.000 C 
BRANCH   6   7
ATOM      7  C   UNL     1      46.373   2.346  25.883  1.00  0.00     0.000 C 
BRANCH   7   8
ATOM      8  C   UNL     1      47.637   2.997  25.299  1.00  0.00     0.000 C 
BRANCH   8   9
ATOM      9  C   UNL     1      47.319   4.152  24.336  1.00  0.00     0.000 C 
BRANCH   9  10
ATOM     10  C   UNL     1      48.598   4.882  23.910  1.00  0.00     0.000 C 
BRANCH  10  11
ATOM     11  C   UNL     1      48.265   6.195  23.185  1.00  0.00     0.000 C 
BRANCH  11  12
ATOM     12  C   UNL     1      48.787   6.225  21.739  1.00  0.00     0.000 C 
BRANCH  12  13
ATOM     13  C   UNL     1      47.980   7.179  20.840  1.00  0.00     0.006 C 
BRANCH  13  14
ATOM     14  C   UNL     1      48.734   8.486  20.562  1.00  0.00     0.053 C 
BRANCH  14  15
ATOM     15  C   UNL     1      49.813   8.299  19.538  1.00  0.00     0.041 C 
ATOM     16  O   UNL     1      50.999   8.071  19.900  1.00  0.00    -0.550 OA
ATOM     17  O   UNL     1      49.510   8.383  18.186  1.00  0.00    -0.550 OA
ENDBRANCH  14  15
ENDBRANCH  13  14
ENDBRANCH  12  13
ENDBRANCH  11  12
ENDBRANCH  10  11
ENDBRANCH   9  10
ENDBRANCH   8   9
ENDBRANCH   7   8
ENDBRANCH   6   7
ENDBRANCH   5   6
ENDBRANCH   4   5
ENDBRANCH   3   4
ENDBRANCH   2   3
ENDBRANCH   1   2
BRANCH   1  18
ATOM     18  C   UNL     1      43.485   3.552  21.693  1.00  0.00     0.000 C 
BRANCH  18  19
ATOM     19  C   UNL     1      44.894   4.163  21.750  1.00  0.00     0.000 C 
BRANCH  19  20
ATOM     20  C   UNL     1      45.716   3.851  20.486  1.00  0.00     0.000 C 
BRANCH  20  21
ATOM     21  C   UNL     1      47.003   3.073  20.802  1.00  0.00     0.000 C 
BRANCH  21  22
ATOM     22  C   UNL     1      47.189   1.849  19.893  1.00  0.00     0.000 C 
BRANCH  22  23
ATOM     23  C   UNL     1      47.536   0.603  20.721  1.00  0.00     0.000 C 
BRANCH  23  24
ATOM     24  C   UNL     1      47.446   0.848  22.238  1.00  0.00    -0.000 C 
BRANCH  24  25
ATOM     25  C   UNL     1      48.704   0.451  23.039  1.00  0.00    -0.000 C 
BRANCH  25  26
ATOM     26  C   UNL     1      49.844  -0.163  22.202  1.00  0.00    -0.000 C 
BRANCH  26  27
ATOM     27  C   UNL     1      51.111   0.709  22.097  1.00  0.00    -0.000 C 
BRANCH  27  28
ATOM     28  C   UNL     1      50.917   2.191  22.476  1.00  0.00    -0.000 C 
BRANCH  28  29
ATOM     29  C   UNL     1      50.585   3.123  21.297  1.00  0.00    -0.000 C 
BRANCH  29  30
ATOM     30  C   UNL     1      50.983   2.528  19.936  1.00  0.00    -0.000 C 
BRANCH  30  31
ATOM     31  C   UNL     1      52.390   2.958  19.495  1.00  0.00    -0.003 C 
ATOM     32  C   UNL     1      53.408   1.821  19.580  1.00  0.00     0.004 C 
ENDBRANCH  30  31
ENDBRANCH  29  30
ENDBRANCH  28  29
ENDBRANCH  27  28
ENDBRANCH  26  27
ENDBRANCH  25  26
ENDBRANCH  24  25
ENDBRANCH  23  24
ENDBRANCH  22  23
ENDBRANCH  21  22
ENDBRANCH  20  21
ENDBRANCH  19  20
ENDBRANCH  18  19
ENDBRANCH   1  18
TORSDOF 28
ENDMDL
MODEL 5
REMARK VINA RESULT:    -4.290      1.908      4.109
REMARK INTER + INTRA:         -16.829
REMARK INTER:                 -10.434
REMARK INTRA:                  -6.395
REMARK UNBOUND:                -5.517
REMARK SMILES CCCCCCCCCCCCCCCCCCCCCCCCCCCCCC(=O)[O-]
REMARK SMILES IDX 16 1 17 2 18 3 19 4 20 5 21 6 22 7 23 8 24 9 25 10 26 11
REMARK SMILES IDX 27 12 28 13 29 14 30 15 31 16 32 17 15 18 14 19 13 20 12 21
REMARK SMILES IDX 11 22 10 23 9 24 8 25 7 26 6 27 5 28 4 29 3 30 2 31 1 32
REMARK H PARENT
REMARK Flexibility Score: inf
ROOT
ATOM      1  C   UNL     1      47.643   0.629  22.124  1.00  0.00     0.000 C 
ENDROOT
BRANCH   1   2
ATOM      2  C   UNL     1      48.445   0.957  23.393  1.00  0.00     0.000 C 
BRANCH   2   3
ATOM      3  C   UNL     1      49.844   1.514  23.074  1.00  0.00     0.000 C 
BRANCH   3   4
ATOM      4  C   UNL     1      50.185   2.759  23.920  1.00  0.00     0.000 C 
BRANCH   4   5
ATOM      5  C   UNL     1      49.256   2.963  25.132  1.00  0.00     0.000 C 
BRANCH   5   6
ATOM      6  C   UNL     1      49.290   4.371  25.750  1.00  0.00     0.000 C 
BRANCH   6   7
ATOM      7  C   UNL     1      49.773   5.443  24.758  1.00  0.00     0.000 C 
BRANCH   7   8
ATOM      8  C   UNL     1      50.577   6.561  25.440  1.00  0.00     0.000 C 
BRANCH   8   9
ATOM      9  C   UNL     1      50.467   7.906  24.706  1.00  0.00     0.000 C 
BRANCH   9  10
ATOM     10  C   UNL     1      49.688   7.754  23.394  1.00  0.00     0.000 C 
BRANCH  10  11
ATOM     11  C   UNL     1      48.672   8.895  23.225  1.00  0.00     0.000 C 
BRANCH  11  12
ATOM     12  C   UNL     1      48.260   9.111  21.759  1.00  0.00     0.000 C 
BRANCH  12  13
ATOM     13  C   UNL     1      49.302   8.567  20.766  1.00  0.00     0.006 C 
BRANCH  13  14
ATOM     14  C   UNL     1      48.868   8.761  19.308  1.00  0.00     0.053 C 
BRANCH  14  15
ATOM     15  C   UNL     1      49.953   8.379  18.348  1.00  0.00     0.041 C 
ATOM     16  O   UNL     1      49.703   8.271  17.117  1.00  0.00    -0.550 OA
ATOM     17  O   UNL     1      51.238   8.134  18.812  1.00  0.00    -0.550 OA
ENDBRANCH  14  15
ENDBRANCH  13  14
ENDBRANCH  12  13
ENDBRANCH  11  12
ENDBRANCH  10  11
ENDBRANCH   9  10
ENDBRANCH   8   9
ENDBRANCH   7   8
ENDBRANCH   6   7
ENDBRANCH   5   6
ENDBRANCH   4   5
ENDBRANCH   3   4
ENDBRANCH   2   3
ENDBRANCH   1   2
BRANCH   1  18
ATOM     18  C   UNL     1      48.244   1.284  20.867  1.00  0.00     0.000 C 
BRANCH  18  19
ATOM     19  C   UNL     1      47.163   1.759  19.882  1.00  0.00     0.000 C 
BRANCH  19  20
ATOM     20  C   UNL     1      45.771   1.832  20.534  1.00  0.00     0.000 C 
BRANCH  20  21
ATOM     21  C   UNL     1      45.019   3.120  20.166  1.00  0.00     0.000 C 
BRANCH  21  22
ATOM     22  C   UNL     1      43.626   3.193  20.810  1.00  0.00     0.000 C 
BRANCH  22  23
ATOM     23  C   UNL     1      43.382   1.980  21.719  1.00  0.00     0.000 C 
BRANCH  23  24
ATOM     24  C   UNL     1      43.338   2.349  23.213  1.00  0.00    -0.000 C 
BRANCH  24  25
ATOM     25  C   UNL     1      44.587   1.946  24.022  1.00  0.00    -0.000 C 
BRANCH  25  26
ATOM     26  C   UNL     1      45.603   3.080  24.265  1.00  0.00    -0.000 C 
BRANCH  26  27
ATOM     27  C   UNL     1      45.104   4.488  23.882  1.00  0.00    -0.000 C 
BRANCH  27  28
ATOM     28  C   UNL     1      46.214   5.521  23.604  1.00  0.00    -0.000 C 
BRANCH  28  29
ATOM     29  C   UNL     1      46.082   6.268  22.264  1.00  0.00    -0.000 C 
BRANCH  29  30
ATOM     30  C   UNL     1      47.033   5.726  21.184  1.00  0.00    -0.000 C 
BRANCH  30  31
ATOM     31  C   UNL     1      48.082   4.759  21.754  1.00  0.00    -0.003 C 
ATOM     32  C   UNL     1      49.449   4.912  21.089  1.00  0.00     0.004 C 
ENDBRANCH  30  31
ENDBRANCH  29  30
ENDBRANCH  28  29
ENDBRANCH  27  28
ENDBRANCH  26  27
ENDBRANCH  25  26
ENDBRANCH  24  25
ENDBRANCH  23  24
ENDBRANCH  22  23
ENDBRANCH  21  22
ENDBRANCH  20  21
ENDBRANCH  19  20
ENDBRANCH  18  19
ENDBRANCH   1  18
TORSDOF 28
ENDMDL
MODEL 6
REMARK VINA RESULT:    -4.285      1.282      2.440
REMARK INTER + INTRA:         -16.815
REMARK INTER:                 -10.673
REMARK INTRA:                  -6.143
REMARK UNBOUND:                -5.517
REMARK SMILES CCCCCCCCCCCCCCCCCCCCCCCCCCCCCC(=O)[O-]
REMARK SMILES IDX 16 1 17 2 18 3 19 4 20 5 21 6 22 7 23 8 24 9 25 10 26 11
REMARK SMILES IDX 27 12 28 13 29 14 30 15 31 16 32 17 15 18 14 19 13 20 12 21
REMARK SMILES IDX 11 22 10 23 9 24 8 25 7 26 6 27 5 28 4 29 3 30 2 31 1 32
REMARK H PARENT
REMARK Flexibility Score: inf
ROOT
ATOM      1  C   UNL     1      46.817   3.515  23.803  1.00  0.00     0.000 C 
ENDROOT
BRANCH   1   2
ATOM      2  C   UNL     1      46.709   3.274  25.318  1.00  0.00     0.000 C 
BRANCH   2   3
ATOM      3  C   UNL     1      47.951   2.565  25.887  1.00  0.00     0.000 C 
BRANCH   3   4
ATOM      4  C   UNL     1      49.202   3.470  25.868  1.00  0.00     0.000 C 
BRANCH   4   5
ATOM      5  C   UNL     1      49.414   4.265  27.171  1.00  0.00     0.000 C 
BRANCH   5   6
ATOM      6  C   UNL     1      50.087   5.637  26.995  1.00  0.00     0.000 C 
BRANCH   6   7
ATOM      7  C   UNL     1      49.132   6.808  27.286  1.00  0.00     0.000 C 
BRANCH   7   8
ATOM      8  C   UNL     1      47.663   6.456  27.003  1.00  0.00     0.000 C 
BRANCH   8   9
ATOM      9  C   UNL     1      47.198   6.919  25.614  1.00  0.00     0.000 C 
BRANCH   9  10
ATOM     10  C   UNL     1      48.357   7.537  24.823  1.00  0.00     0.000 C 
BRANCH  10  11
ATOM     11  C   UNL     1      48.733   6.655  23.622  1.00  0.00     0.000 C 
BRANCH  11  12
ATOM     12  C   UNL     1      49.985   7.158  22.884  1.00  0.00     0.000 C 
BRANCH  12  13
ATOM     13  C   UNL     1      49.706   7.497  21.409  1.00  0.00     0.006 C 
BRANCH  13  14
ATOM     14  C   UNL     1      48.260   7.178  21.007  1.00  0.00     0.053 C 
BRANCH  14  15
ATOM     15  C   UNL     1      47.753   8.120  19.959  1.00  0.00     0.041 C 
ATOM     16  O   UNL     1      46.651   8.711  20.116  1.00  0.00    -0.550 OA
ATOM     17  O   UNL     1      48.494   8.341  18.805  1.00  0.00    -0.550 OA
ENDBRANCH  14  15
ENDBRANCH  13  14
ENDBRANCH  12  13
ENDBRANCH  11  12
ENDBRANCH  10  11
ENDBRANCH   9  10
ENDBRANCH   8   9
ENDBRANCH   7   8
ENDBRANCH   6   7
ENDBRANCH   5   6
ENDBRANCH   4   5
ENDBRANCH   3   4
ENDBRANCH   2   3
ENDBRANCH   1   2
BRANCH   1  18
ATOM     18  C   UNL     1      45.645   4.354  23.261  1.00  0.00     0.000 C 
BRANCH  18  19
ATOM     19  C   UNL     1      45.741   4.579  21.743  1.00  0.00     0.000 C 
BRANCH  19  20
ATOM     20  C   UNL     1      46.869   3.753  21.101  1.00  0.00     0.000 C 
BRANCH  20  21
ATOM     21  C   UNL     1      46.333   2.613  20.221  1.00  0.00     0.000 C 
BRANCH  21  22
ATOM     22  C   UNL     1      47.340   1.464  20.067  1.00  0.00     0.000 C 
BRANCH  22  23
ATOM     23  C   UNL     1      47.335   0.564  21.311  1.00  0.00     0.000 C 
BRANCH  23  24
ATOM     24  C   UNL     1      48.745   0.113  21.731  1.00  0.00    -0.000 C 
BRANCH  24  25
ATOM     25  C   UNL     1      49.282   0.766  23.021  1.00  0.00    -0.000 C 
BRANCH  25  26
ATOM     26  C   UNL     1      50.806   0.997  23.051  1.00  0.00    -0.000 C 
BRANCH  26  27
ATOM     27  C   UNL     1      51.241   2.466  22.877  1.00  0.00    -0.000 C 
BRANCH  27  28
ATOM     28  C   UNL     1      50.181   3.391  22.245  1.00  0.00    -0.000 C 
BRANCH  28  29
ATOM     29  C   UNL     1      50.553   3.951  20.861  1.00  0.00    -0.000 C 
BRANCH  29  30
ATOM     30  C   UNL     1      50.799   2.848  19.818  1.00  0.00    -0.000 C 
BRANCH  30  31
ATOM     31  C   UNL     1      52.106   3.057  19.038  1.00  0.00    -0.003 C 
ATOM     32  C   UNL     1      53.336   2.584  19.812  1.00  0.00     0.004 C 
ENDBRANCH  30  31
ENDBRANCH  29  30
ENDBRANCH  28  29
ENDBRANCH  27  28
ENDBRANCH  26  27
ENDBRANCH  25  26
ENDBRANCH  24  25
ENDBRANCH  23  24
ENDBRANCH  22  23
ENDBRANCH  21  22
ENDBRANCH  20  21
ENDBRANCH  19  20
ENDBRANCH  18  19
ENDBRANCH   1  18
TORSDOF 28
ENDMDL
MODEL 7
REMARK VINA RESULT:    -4.278      1.207      2.681
REMARK INTER + INTRA:         -16.799
REMARK INTER:                 -11.488
REMARK INTRA:                  -5.311
REMARK UNBOUND:                -5.517
REMARK SMILES CCCCCCCCCCCCCCCCCCCCCCCCCCCCCC(=O)[O-]
REMARK SMILES IDX 16 1 17 2 18 3 19 4 20 5 21 6 22 7 23 8 24 9 25 10 26 11
REMARK SMILES IDX 27 12 28 13 29 14 30 15 31 16 32 17 15 18 14 19 13 20 12 21
REMARK SMILES IDX 11 22 10 23 9 24 8 25 7 26 6 27 5 28 4 29 3 30 2 31 1 32
REMARK H PARENT
REMARK Flexibility Score: inf
ROOT
ATOM      1  C   UNL     1      48.710   4.715  22.745  1.00  0.00     0.000 C 
ENDROOT
BRANCH   1   2
ATOM      2  C   UNL     1      49.057   3.345  23.351  1.00  0.00     0.000 C 
BRANCH   2   3
ATOM      3  C   UNL     1      48.122   2.966  24.513  1.00  0.00     0.000 C 
BRANCH   3   4
ATOM      4  C   UNL     1      48.892   2.393  25.722  1.00  0.00     0.000 C 
BRANCH   4   5
ATOM      5  C   UNL     1      49.259   3.448  26.784  1.00  0.00     0.000 C 
BRANCH   5   6
ATOM      6  C   UNL     1      48.803   4.882  26.463  1.00  0.00     0.000 C 
BRANCH   6   7
ATOM      7  C   UNL     1      49.983   5.850  26.275  1.00  0.00     0.000 C 
BRANCH   7   8
ATOM      8  C   UNL     1      49.571   7.322  26.437  1.00  0.00     0.000 C 
BRANCH   8   9
ATOM      9  C   UNL     1      49.959   8.184  25.225  1.00  0.00     0.000 C 
BRANCH   9  10
ATOM     10  C   UNL     1      48.936   8.034  24.093  1.00  0.00     0.000 C 
BRANCH  10  11
ATOM     11  C   UNL     1      49.590   8.288  22.726  1.00  0.00     0.000 C 
BRANCH  11  12
ATOM     12  C   UNL     1      48.562   8.600  21.625  1.00  0.00     0.000 C 
BRANCH  12  13
ATOM     13  C   UNL     1      48.785   7.761  20.354  1.00  0.00     0.006 C 
BRANCH  13  14
ATOM     14  C   UNL     1      50.151   7.063  20.355  1.00  0.00     0.053 C 
BRANCH  14  15
ATOM     15  C   UNL     1      51.109   7.714  19.404  1.00  0.00     0.041 C 
ATOM     16  O   UNL     1      51.979   7.024  18.808  1.00  0.00    -0.550 OA
ATOM     17  O   UNL     1      51.045   9.083  19.181  1.00  0.00    -0.550 OA
ENDBRANCH  14  15
ENDBRANCH  13  14
ENDBRANCH  12  13
ENDBRANCH  11  12
ENDBRANCH  10  11
ENDBRANCH   9  10
ENDBRANCH   8   9
ENDBRANCH   7   8
ENDBRANCH   6   7
ENDBRANCH   5   6
ENDBRANCH   4   5
ENDBRANCH   3   4
ENDBRANCH   2   3
ENDBRANCH   1   2
BRANCH   1  18
ATOM     18  C   UNL     1      47.191   4.946  22.655  1.00  0.00     0.000 C 
BRANCH  18  19
ATOM     19  C   UNL     1      46.626   4.588  21.271  1.00  0.00     0.000 C 
BRANCH  19  20
ATOM     20  C   UNL     1      45.445   3.605  21.360  1.00  0.00     0.000 C 
BRANCH  20  21
ATOM     21  C   UNL     1      45.860   2.161  21.038  1.00  0.00     0.000 C 
BRANCH  21  22
ATOM     22  C   UNL     1      46.924   2.086  19.933  1.00  0.00     0.000 C 
BRANCH  22  23
ATOM     23  C   UNL     1      48.027   1.086  20.306  1.00  0.00     0.000 C 
BRANCH  23  24
ATOM     24  C   UNL     1      47.896   0.559  21.746  1.00  0.00    -0.000 C 
BRANCH  24  25
ATOM     25  C   UNL     1      48.470  -0.854  21.978  1.00  0.00    -0.000 C 
BRANCH  25  26
ATOM     26  C   UNL     1      49.650  -0.926  22.969  1.00  0.00    -0.000 C 
BRANCH  26  27
ATOM     27  C   UNL     1      50.711   0.179  22.793  1.00  0.00    -0.000 C 
BRANCH  27  28
ATOM     28  C   UNL     1      51.810  -0.131  21.757  1.00  0.00    -0.000 C 
BRANCH  28  29
ATOM     29  C   UNL     1      52.297   1.084  20.947  1.00  0.00    -0.000 C 
BRANCH  29  30
ATOM     30  C   UNL     1      51.486   2.358  21.237  1.00  0.00    -0.000 C 
BRANCH  30  31
ATOM     31  C   UNL     1      51.053   3.085  19.955  1.00  0.00    -0.003 C 
ATOM     32  C   UNL     1      52.222   3.358  19.009  1.00  0.00     0.004 C 
ENDBRANCH  30  31
ENDBRANCH  29  30
ENDBRANCH  28  29
ENDBRANCH  27  28
ENDBRANCH  26  27
ENDBRANCH  25  26
ENDBRANCH  24  25
ENDBRANCH  23  24
ENDBRANCH  22  23
ENDBRANCH  21  22
ENDBRANCH  20  21
ENDBRANCH  19  20
ENDBRANCH  18  19
ENDBRANCH   1  18
TORSDOF 28
ENDMDL
MODEL 8
REMARK VINA RESULT:    -4.268      2.349      6.471
REMARK INTER + INTRA:         -16.772
REMARK INTER:                 -10.767
REMARK INTRA:                  -6.004
REMARK UNBOUND:                -5.517
REMARK SMILES CCCCCCCCCCCCCCCCCCCCCCCCCCCCCC(=O)[O-]
REMARK SMILES IDX 16 1 17 2 18 3 19 4 20 5 21 6 22 7 23 8 24 9 25 10 26 11
REMARK SMILES IDX 27 12 28 13 29 14 30 15 31 16 32 17 15 18 14 19 13 20 12 21
REMARK SMILES IDX 11 22 10 23 9 24 8 25 7 26 6 27 5 28 4 29 3 30 2 31 1 32
REMARK H PARENT
REMARK Flexibility Score: inf
ROOT
ATOM      1  C   UNL     1      46.351   7.343  25.159  1.00  0.00     0.000 C 
ENDROOT
BRANCH   1   2
ATOM      2  C   UNL     1      45.060   6.644  24.702  1.00  0.00     0.000 C 
BRANCH   2   3
ATOM      3  C   UNL     1      44.407   7.349  23.500  1.00  0.00     0.000 C 
BRANCH   3   4
ATOM      4  C   UNL     1      43.685   6.359  22.561  1.00  0.00     0.000 C 
BRANCH   4   5
ATOM      5  C   UNL     1      43.593   4.925  23.120  1.00  0.00     0.000 C 
BRANCH   5   6
ATOM      6  C   UNL     1      44.038   3.817  22.150  1.00  0.00     0.000 C 
BRANCH   6   7
ATOM      7  C   UNL     1      45.098   2.885  22.761  1.00  0.00     0.000 C 
BRANCH   7   8
ATOM      8  C   UNL     1      45.379   1.655  21.883  1.00  0.00     0.000 C 
BRANCH   8   9
ATOM      9  C   UNL     1      45.877   2.029  20.479  1.00  0.00     0.000 C 
BRANCH   9  10
ATOM     10  C   UNL     1      47.133   1.231  20.109  1.00  0.00     0.000 C 
BRANCH  10  11
ATOM     11  C   UNL     1      48.398   2.084  20.289  1.00  0.00     0.000 C 
BRANCH  11  12
ATOM     12  C   UNL     1      49.313   1.562  21.409  1.00  0.00     0.000 C 
BRANCH  12  13
ATOM     13  C   UNL     1      50.800   1.860  21.145  1.00  0.00     0.006 C 
BRANCH  13  14
ATOM     14  C   UNL     1      50.992   2.872  20.008  1.00  0.00     0.053 C 
BRANCH  14  15
ATOM     15  C   UNL     1      52.359   2.773  19.400  1.00  0.00     0.041 C 
ATOM     16  O   UNL     1      53.015   3.818  19.141  1.00  0.00    -0.550 OA
ATOM     17  O   UNL     1      52.904   1.529  19.114  1.00  0.00    -0.550 OA
ENDBRANCH  14  15
ENDBRANCH  13  14
ENDBRANCH  12  13
ENDBRANCH  11  12
ENDBRANCH  10  11
ENDBRANCH   9  10
ENDBRANCH   8   9
ENDBRANCH   7   8
ENDBRANCH   6   7
ENDBRANCH   5   6
ENDBRANCH   4   5
ENDBRANCH   3   4
ENDBRANCH   2   3
ENDBRANCH   1   2
BRANCH   1  18
ATOM     18  C   UNL     1      46.619   8.643  24.380  1.00  0.00     0.000 C 
BRANCH  18  19
ATOM     19  C   UNL     1      47.964   9.284  24.757  1.00  0.00     0.000 C 
BRANCH  19  20
ATOM     20  C   UNL     1      49.129   8.737  23.913  1.00  0.00     0.000 C 
BRANCH  20  21
ATOM     21  C   UNL     1      50.310   8.269  24.778  1.00  0.00     0.000 C 
BRANCH  21  22
ATOM     22  C   UNL     1      49.856   7.505  26.030  1.00  0.00     0.000 C 
BRANCH  22  23
ATOM     23  C   UNL     1      50.551   6.139  26.117  1.00  0.00     0.000 C 
BRANCH  23  24
ATOM     24  C   UNL     1      49.570   4.959  26.000  1.00  0.00    -0.000 C 
BRANCH  24  25
ATOM     25  C   UNL     1      48.872   4.823  24.631  1.00  0.00    -0.000 C 
BRANCH  25  26
ATOM     26  C   UNL     1      49.813   4.863  23.411  1.00  0.00    -0.000 C 
BRANCH  26  27
ATOM     27  C   UNL     1      49.132   5.246  22.081  1.00  0.00    -0.000 C 
BRANCH  27  28
ATOM     28  C   UNL     1      47.594   5.328  22.135  1.00  0.00    -0.000 C 
BRANCH  28  29
ATOM     29  C   UNL     1      46.943   6.061  20.949  1.00  0.00    -0.000 C 
BRANCH  29  30
ATOM     30  C   UNL     1      47.177   7.581  20.987  1.00  0.00    -0.000 C 
BRANCH  30  31
ATOM     31  C   UNL     1      47.997   8.080  19.788  1.00  0.00    -0.003 C 
ATOM     32  C   UNL     1      49.453   8.371  20.150  1.00  0.00     0.004 C 
ENDBRANCH  30  31
ENDBRANCH  29  30
ENDBRANCH  28  29
ENDBRANCH  27  28
ENDBRANCH  26  27
ENDBRANCH  25  26
ENDBRANCH  24  25
ENDBRANCH  23  24
ENDBRANCH  22  23
ENDBRANCH  21  22
ENDBRANCH  20  21
ENDBRANCH  19  20
ENDBRANCH  18  19
ENDBRANCH   1  18
TORSDOF 28
ENDMDL
MODEL 9
REMARK VINA RESULT:    -4.248      2.989      6.825
REMARK INTER + INTRA:         -16.718
REMARK INTER:                 -10.682
REMARK INTRA:                  -6.036
REMARK UNBOUND:                -5.517
REMARK SMILES CCCCCCCCCCCCCCCCCCCCCCCCCCCCCC(=O)[O-]
REMARK SMILES IDX 16 1 17 2 18 3 19 4 20 5 21 6 22 7 23 8 24 9 25 10 26 11
REMARK SMILES IDX 27 12 28 13 29 14 30 15 31 16 32 17 15 18 14 19 13 20 12 21
REMARK SMILES IDX 11 22 10 23 9 24 8 25 7 26 6 27 5 28 4 29 3 30 2 31 1 32
REMARK H PARENT
REMARK Flexibility Score: inf
ROOT
ATOM      1  C   UNL     1      49.071   7.584  23.077  1.00  0.00     0.000 C 
ENDROOT
BRANCH   1   2
ATOM      2  C   UNL     1      50.344   7.725  23.928  1.00  0.00     0.000 C 
BRANCH   2   3
ATOM      3  C   UNL     1      50.063   7.561  25.433  1.00  0.00     0.000 C 
BRANCH   3   4
ATOM      4  C   UNL     1      50.773   6.328  26.030  1.00  0.00     0.000 C 
BRANCH   4   5
ATOM      5  C   UNL     1      50.154   5.832  27.352  1.00  0.00     0.000 C 
BRANCH   5   6
ATOM      6  C   UNL     1      48.679   6.213  27.564  1.00  0.00     0.000 C 
BRANCH   6   7
ATOM      7  C   UNL     1      47.765   4.985  27.713  1.00  0.00     0.000 C 
BRANCH   7   8
ATOM      8  C   UNL     1      47.560   4.237  26.386  1.00  0.00     0.000 C 
BRANCH   8   9
ATOM      9  C   UNL     1      48.282   2.881  26.351  1.00  0.00     0.000 C 
BRANCH   9  10
ATOM     10  C   UNL     1      49.309   2.834  25.214  1.00  0.00     0.000 C 
BRANCH  10  11
ATOM     11  C   UNL     1      48.954   3.842  24.110  1.00  0.00     0.000 C 
BRANCH  11  12
ATOM     12  C   UNL     1      50.079   4.013  23.076  1.00  0.00     0.000 C 
BRANCH  12  13
ATOM     13  C   UNL     1      49.544   4.191  21.644  1.00  0.00     0.006 C 
BRANCH  13  14
ATOM     14  C   UNL     1      48.095   3.708  21.506  1.00  0.00     0.053 C 
BRANCH  14  15
ATOM     15  C   UNL     1      47.998   2.469  20.669  1.00  0.00     0.041 C 
ATOM     16  O   UNL     1      48.857   1.554  20.789  1.00  0.00    -0.550 OA
ATOM     17  O   UNL     1      46.965   2.327  19.753  1.00  0.00    -0.550 OA
ENDBRANCH  14  15
ENDBRANCH  13  14
ENDBRANCH  12  13
ENDBRANCH  11  12
ENDBRANCH  10  11
ENDBRANCH   9  10
ENDBRANCH   8   9
ENDBRANCH   7   8
ENDBRANCH   6   7
ENDBRANCH   5   6
ENDBRANCH   4   5
ENDBRANCH   3   4
ENDBRANCH   2   3
ENDBRANCH   1   2
BRANCH   1  18
ATOM     18  C   UNL     1      47.855   7.145  23.913  1.00  0.00     0.000 C 
BRANCH  18  19
ATOM     19  C   UNL     1      46.583   7.001  23.062  1.00  0.00     0.000 C 
BRANCH  19  20
ATOM     20  C   UNL     1      45.454   7.932  23.539  1.00  0.00     0.000 C 
BRANCH  20  21
ATOM     21  C   UNL     1      45.774   8.598  24.886  1.00  0.00     0.000 C 
BRANCH  21  22
ATOM     22  C   UNL     1      45.627  10.127  24.837  1.00  0.00     0.000 C 
BRANCH  22  23
ATOM     23  C   UNL     1      47.003  10.803  24.763  1.00  0.00     0.000 C 
BRANCH  23  24
ATOM     24  C   UNL     1      47.464  11.068  23.319  1.00  0.00    -0.000 C 
BRANCH  24  25
ATOM     25  C   UNL     1      46.330  11.363  22.316  1.00  0.00    -0.000 C 
BRANCH  25  26
ATOM     26  C   UNL     1      46.425  10.599  20.979  1.00  0.00    -0.000 C 
BRANCH  26  27
ATOM     27  C   UNL     1      47.723   9.790  20.787  1.00  0.00    -0.000 C 
BRANCH  27  28
ATOM     28  C   UNL     1      47.608   8.589  19.827  1.00  0.00    -0.000 C 
BRANCH  28  29
ATOM     29  C   UNL     1      48.775   8.440  18.834  1.00  0.00    -0.000 C 
BRANCH  29  30
ATOM     30  C   UNL     1      50.108   8.959  19.399  1.00  0.00    -0.000 C 
BRANCH  30  31
ATOM     31  C   UNL     1      51.057   7.821  19.805  1.00  0.00    -0.003 C 
ATOM     32  C   UNL     1      51.432   6.919  18.629  1.00  0.00     0.004 C 
ENDBRANCH  30  31
ENDBRANCH  29  30
ENDBRANCH  28  29
ENDBRANCH  27  28
ENDBRANCH  26  27
ENDBRANCH  25  26
ENDBRANCH  24  25
ENDBRANCH  23  24
ENDBRANCH  22  23
ENDBRANCH  21  22
ENDBRANCH  20  21
ENDBRANCH  19  20
ENDBRANCH  18  19
ENDBRANCH   1  18
TORSDOF 28
ENDMDL
