MODEL 1
REMARK VINA RESULT:    -8.213      0.000      0.000
REMARK INTER + INTRA:         -10.208
REMARK INTER:                  -9.893
REMARK INTRA:                  -0.315
REMARK UNBOUND:                -0.315
REMARK SMILES O=c1c(O)c(-c2ccc(O)c(O)c2)oc2cc(O)cc(O)c12
REMARK SMILES IDX 5 1 3 2 2 3 1 4 22 5 20 6 19 7 17 8 16 9 15 10 14 11 6 12
REMARK SMILES IDX 7 13 8 14 9 15 13 16 11 17 10 18 12 20 4 22 21 24 18 26
REMARK H PARENT 10 19 12 21 4 23 21 25 18 27
REMARK Flexibility Score: inf
ROOT
ATOM      1  C   UNL     1      13.402   9.933  81.976  1.00  0.00     0.180 A 
ATOM      2  C   UNL     1      14.053   8.885  82.649  1.00  0.00     0.208 A 
ATOM      3  C   UNL     1      15.184   8.297  82.062  1.00  0.00     0.238 A 
ATOM      4  O   UNL     1      15.730   7.323  82.642  1.00  0.00    -0.285 OA
ATOM      5  C   UNL     1      15.660   8.774  80.816  1.00  0.00     0.111 A 
ATOM      6  C   UNL     1      16.820   8.279  80.148  1.00  0.00     0.134 A 
ATOM      7  C   UNL     1      17.122   8.735  78.859  1.00  0.00     0.093 A 
ATOM      8  C   UNL     1      16.345   9.715  78.241  1.00  0.00     0.123 A 
ATOM      9  C   UNL     1      15.243  10.250  78.910  1.00  0.00     0.094 A 
ATOM     10  C   UNL     1      14.895   9.788  80.182  1.00  0.00     0.146 A 
ATOM     11  O   UNL     1      13.833  10.314  80.778  1.00  0.00    -0.452 OA
ENDROOT
BRANCH   1  12
ATOM     12  C   UNL     1      12.219  10.620  82.544  1.00  0.00     0.025 A 
ATOM     13  C   UNL     1      12.398  11.780  83.314  1.00  0.00     0.016 A 
ATOM     14  C   UNL     1      11.298  12.433  83.876  1.00  0.00     0.051 A 
ATOM     15  C   UNL     1      10.007  11.930  83.691  1.00  0.00     0.157 A 
ATOM     16  C   UNL     1      10.922  10.104  82.375  1.00  0.00     0.062 A 
ATOM     17  C   UNL     1       9.816  10.757  82.940  1.00  0.00     0.158 A 
BRANCH  15  18
ATOM     18  O   UNL     1       8.928  12.604  84.262  1.00  0.00    -0.504 OA
ATOM     19  H   UNL     1       8.310  12.161  84.931  1.00  0.00     0.293 HD
ENDBRANCH  15  18
BRANCH  17  20
ATOM     20  O   UNL     1       8.533  10.243  82.764  1.00  0.00    -0.504 OA
ATOM     21  H   UNL     1       8.374   9.254  82.608  1.00  0.00     0.293 HD
ENDBRANCH  17  20
ENDBRANCH   1  12
BRANCH   2  22
ATOM     22  O   UNL     1      13.554   8.415  83.867  1.00  0.00    -0.502 OA
ATOM     23  H   UNL     1      12.653   7.958  83.945  1.00  0.00     0.293 HD
ENDBRANCH   2  22
BRANCH   6  24
ATOM     24  O   UNL     1      17.716   7.367  80.713  1.00  0.00    -0.507 OA
ATOM     25  H   UNL     1      18.236   6.676  80.193  1.00  0.00     0.293 HD
ENDBRANCH   6  24
BRANCH   8  26
ATOM     26  O   UNL     1      16.684  10.158  76.965  1.00  0.00    -0.508 OA
ATOM     27  H   UNL     1      16.315  11.022  76.588  1.00  0.00     0.293 HD
ENDBRANCH   8  26
TORSDOF 6
ENDMDL
MODEL 2
REMARK VINA RESULT:    -8.062      6.070     11.349
REMARK INTER + INTRA:         -10.026
REMARK INTER:                  -9.729
REMARK INTRA:                  -0.297
REMARK UNBOUND:                -0.315
REMARK SMILES O=c1c(O)c(-c2ccc(O)c(O)c2)oc2cc(O)cc(O)c12
REMARK SMILES IDX 5 1 3 2 2 3 1 4 22 5 20 6 19 7 17 8 16 9 15 10 14 11 6 12
REMARK SMILES IDX 7 13 8 14 9 15 13 16 11 17 10 18 12 20 4 22 21 24 18 26
REMARK H PARENT 10 19 12 21 4 23 21 25 18 27
REMARK Flexibility Score: inf
ROOT
ATOM      1  C   UNL     1      19.790   5.798  75.969  1.00  0.00     0.180 A 
ATOM      2  C   UNL     1      19.164   6.758  75.155  1.00  0.00     0.208 A 
ATOM      3  C   UNL     1      18.539   7.860  75.759  1.00  0.00     0.238 A 
ATOM      4  O   UNL     1      17.933   8.687  75.029  1.00  0.00    -0.285 OA
ATOM      5  C   UNL     1      18.559   7.997  77.169  1.00  0.00     0.111 A 
ATOM      6  C   UNL     1      17.992   9.094  77.885  1.00  0.00     0.134 A 
ATOM      7  C   UNL     1      17.956   9.060  79.284  1.00  0.00     0.093 A 
ATOM      8  C   UNL     1      18.525   8.003  79.994  1.00  0.00     0.123 A 
ATOM      9  C   UNL     1      19.136   6.954  79.305  1.00  0.00     0.094 A 
ATOM     10  C   UNL     1      19.155   6.942  77.908  1.00  0.00     0.146 A 
ATOM     11  O   UNL     1      19.736   5.920  77.291  1.00  0.00    -0.452 OA
ENDROOT
BRANCH   1  12
ATOM     12  C   UNL     1      20.493   4.623  75.404  1.00  0.00     0.025 A 
ATOM     13  C   UNL     1      19.754   3.486  75.040  1.00  0.00     0.016 A 
ATOM     14  C   UNL     1      20.399   2.359  74.525  1.00  0.00     0.051 A 
ATOM     15  C   UNL     1      21.789   2.345  74.379  1.00  0.00     0.157 A 
ATOM     16  C   UNL     1      21.893   4.600  75.276  1.00  0.00     0.062 A 
ATOM     17  C   UNL     1      22.542   3.468  74.760  1.00  0.00     0.158 A 
BRANCH  15  18
ATOM     18  O   UNL     1      22.405   1.206  73.859  1.00  0.00    -0.504 OA
ATOM     19  H   UNL     1      22.944   0.575  74.439  1.00  0.00     0.293 HD
ENDBRANCH  15  18
BRANCH  17  20
ATOM     20  O   UNL     1      23.930   3.455  74.631  1.00  0.00    -0.504 OA
ATOM     21  H   UNL     1      24.517   4.105  75.140  1.00  0.00     0.293 HD
ENDBRANCH  17  20
ENDBRANCH   1  12
BRANCH   2  22
ATOM     22  O   UNL     1      19.136   6.592  73.767  1.00  0.00    -0.502 OA
ATOM     23  H   UNL     1      18.880   5.715  73.330  1.00  0.00     0.293 HD
ENDBRANCH   2  22
BRANCH   6  24
ATOM     24  O   UNL     1      17.479  10.242  77.275  1.00  0.00    -0.507 OA
ATOM     25  H   UNL     1      16.497  10.442  77.161  1.00  0.00     0.293 HD
ENDBRANCH   6  24
BRANCH   8  26
ATOM     26  O   UNL     1      18.486   8.010  81.386  1.00  0.00    -0.508 OA
ATOM     27  H   UNL     1      19.157   8.536  81.933  1.00  0.00     0.293 HD
ENDBRANCH   8  26
TORSDOF 6
ENDMDL
MODEL 3
REMARK VINA RESULT:    -7.961      2.634      4.504
REMARK INTER + INTRA:          -9.905
REMARK INTER:                  -9.628
REMARK INTRA:                  -0.277
REMARK UNBOUND:                -0.315
REMARK SMILES O=c1c(O)c(-c2ccc(O)c(O)c2)oc2cc(O)cc(O)c12
REMARK SMILES IDX 5 1 3 2 2 3 1 4 22 5 20 6 19 7 17 8 16 9 15 10 14 11 6 12
REMARK SMILES IDX 7 13 8 14 9 15 13 16 11 17 10 18 12 20 4 22 21 24 18 26
REMARK H PARENT 10 19 12 21 4 23 21 25 18 27
REMARK Flexibility Score: inf
ROOT
ATOM      1  C   UNL     1      17.049   9.463  79.422  1.00  0.00     0.180 A 
ATOM      2  C   UNL     1      18.022   8.612  79.976  1.00  0.00     0.208 A 
ATOM      3  C   UNL     1      18.990   8.044  79.133  1.00  0.00     0.238 A 
ATOM      4  O   UNL     1      19.825   7.241  79.625  1.00  0.00    -0.285 OA
ATOM      5  C   UNL     1      18.983   8.345  77.749  1.00  0.00     0.111 A 
ATOM      6  C   UNL     1      19.941   7.858  76.809  1.00  0.00     0.134 A 
ATOM      7  C   UNL     1      19.761   8.113  75.444  1.00  0.00     0.093 A 
ATOM      8  C   UNL     1      18.697   8.894  74.992  1.00  0.00     0.123 A 
ATOM      9  C   UNL     1      17.789   9.426  75.909  1.00  0.00     0.094 A 
ATOM     10  C   UNL     1      17.921   9.157  77.273  1.00  0.00     0.146 A 
ATOM     11  O   UNL     1      17.030   9.673  78.110  1.00  0.00    -0.452 OA
ENDROOT
BRANCH   1  12
ATOM     12  C   UNL     1      16.012  10.119  80.251  1.00  0.00     0.025 A 
ATOM     13  C   UNL     1      16.359  11.225  81.043  1.00  0.00     0.016 A 
ATOM     14  C   UNL     1      15.402  11.847  81.847  1.00  0.00     0.051 A 
ATOM     15  C   UNL     1      14.089  11.367  81.884  1.00  0.00     0.157 A 
ATOM     16  C   UNL     1      14.697   9.625  80.304  1.00  0.00     0.062 A 
ATOM     17  C   UNL     1      13.735  10.248  81.113  1.00  0.00     0.158 A 
BRANCH  15  18
ATOM     18  O   UNL     1      13.155  12.010  82.696  1.00  0.00    -0.504 OA
ATOM     19  H   UNL     1      12.987  11.725  83.653  1.00  0.00     0.293 HD
ENDBRANCH  15  18
BRANCH  17  20
ATOM     20  O   UNL     1      12.431   9.755  81.157  1.00  0.00    -0.504 OA
ATOM     21  H   UNL     1      12.069   9.285  81.978  1.00  0.00     0.293 HD
ENDBRANCH  17  20
ENDBRANCH   1  12
BRANCH   2  22
ATOM     22  O   UNL     1      17.997   8.311  81.341  1.00  0.00    -0.502 OA
ATOM     23  H   UNL     1      17.180   7.921  81.796  1.00  0.00     0.293 HD
ENDBRANCH   2  22
BRANCH   6  24
ATOM     24  O   UNL     1      21.090   7.145  77.164  1.00  0.00    -0.507 OA
ATOM     25  H   UNL     1      21.169   6.140  77.153  1.00  0.00     0.293 HD
ENDBRANCH   6  24
BRANCH   8  26
ATOM     26  O   UNL     1      18.558   9.143  73.629  1.00  0.00    -0.508 OA
ATOM     27  H   UNL     1      18.782  10.046  73.229  1.00  0.00     0.293 HD
ENDBRANCH   8  26
TORSDOF 6
ENDMDL
MODEL 4
REMARK VINA RESULT:    -7.892      3.790      5.750
REMARK INTER + INTRA:          -9.821
REMARK INTER:                  -9.631
REMARK INTRA:                  -0.191
REMARK UNBOUND:                -0.315
REMARK SMILES O=c1c(O)c(-c2ccc(O)c(O)c2)oc2cc(O)cc(O)c12
REMARK SMILES IDX 5 1 3 2 2 3 1 4 22 5 20 6 19 7 17 8 16 9 15 10 14 11 6 12
REMARK SMILES IDX 7 13 8 14 9 15 13 16 11 17 10 18 12 20 4 22 21 24 18 26
REMARK H PARENT 10 19 12 21 4 23 21 25 18 27
REMARK Flexibility Score: inf
ROOT
ATOM      1  C   UNL     1      15.628   7.130  81.736  1.00  0.00     0.180 A 
ATOM      2  C   UNL     1      15.665   8.162  82.690  1.00  0.00     0.208 A 
ATOM      3  C   UNL     1      15.850   9.484  82.257  1.00  0.00     0.238 A 
ATOM      4  O   UNL     1      15.937  10.396  83.119  1.00  0.00    -0.285 OA
ATOM      5  C   UNL     1      15.982   9.761  80.874  1.00  0.00     0.111 A 
ATOM      6  C   UNL     1      16.133  11.067  80.320  1.00  0.00     0.134 A 
ATOM      7  C   UNL     1      16.386  11.211  78.950  1.00  0.00     0.093 A 
ATOM      8  C   UNL     1      16.425  10.103  78.105  1.00  0.00     0.123 A 
ATOM      9  C   UNL     1      16.218   8.825  78.626  1.00  0.00     0.094 A 
ATOM     10  C   UNL     1      16.001   8.646  79.995  1.00  0.00     0.146 A 
ATOM     11  O   UNL     1      15.820   7.414  80.452  1.00  0.00    -0.452 OA
ENDROOT
BRANCH   1  12
ATOM     12  C   UNL     1      15.410   5.715  82.113  1.00  0.00     0.025 A 
ATOM     13  C   UNL     1      16.408   4.766  81.842  1.00  0.00     0.016 A 
ATOM     14  C   UNL     1      16.216   3.422  82.171  1.00  0.00     0.051 A 
ATOM     15  C   UNL     1      15.019   3.003  82.761  1.00  0.00     0.157 A 
ATOM     16  C   UNL     1      14.199   5.288  82.688  1.00  0.00     0.062 A 
ATOM     17  C   UNL     1      14.003   3.939  83.017  1.00  0.00     0.158 A 
BRANCH  15  18
ATOM     18  O   UNL     1      14.856   1.655  83.080  1.00  0.00    -0.504 OA
ATOM     19  H   UNL     1      14.258   1.043  82.539  1.00  0.00     0.293 HD
ENDBRANCH  15  18
BRANCH  17  20
ATOM     20  O   UNL     1      12.802   3.525  83.591  1.00  0.00    -0.504 OA
ATOM     21  H   UNL     1      11.938   3.508  83.061  1.00  0.00     0.293 HD
ENDBRANCH  17  20
ENDBRANCH   1  12
BRANCH   2  22
ATOM     22  O   UNL     1      15.556   7.864  84.051  1.00  0.00    -0.502 OA
ATOM     23  H   UNL     1      15.276   8.554  84.738  1.00  0.00     0.293 HD
ENDBRANCH   2  22
BRANCH   6  24
ATOM     24  O   UNL     1      16.020  12.247  81.061  1.00  0.00    -0.507 OA
ATOM     25  H   UNL     1      15.861  12.287  82.056  1.00  0.00     0.293 HD
ENDBRANCH   6  24
BRANCH   8  26
ATOM     26  O   UNL     1      16.662  10.284  76.744  1.00  0.00    -0.508 OA
ATOM     27  H   UNL     1      16.384   9.591  76.060  1.00  0.00     0.293 HD
ENDBRANCH   8  26
TORSDOF 6
ENDMDL
MODEL 5
REMARK VINA RESULT:    -7.640      2.372      3.918
REMARK INTER + INTRA:          -9.518
REMARK INTER:                  -9.270
REMARK INTRA:                  -0.248
REMARK UNBOUND:                -0.315
REMARK SMILES O=c1c(O)c(-c2ccc(O)c(O)c2)oc2cc(O)cc(O)c12
REMARK SMILES IDX 5 1 3 2 2 3 1 4 22 5 20 6 19 7 17 8 16 9 15 10 14 11 6 12
REMARK SMILES IDX 7 13 8 14 9 15 13 16 11 17 10 18 12 20 4 22 21 24 18 26
REMARK H PARENT 10 19 12 21 4 23 21 25 18 27
REMARK Flexibility Score: inf
ROOT
ATOM      1  C   UNL     1      13.793   8.417  82.031  1.00  0.00     0.180 A 
ATOM      2  C   UNL     1      14.979   8.662  81.318  1.00  0.00     0.208 A 
ATOM      3  C   UNL     1      15.876   7.605  81.102  1.00  0.00     0.238 A 
ATOM      4  O   UNL     1      16.961   7.842  80.510  1.00  0.00    -0.285 OA
ATOM      5  C   UNL     1      15.569   6.311  81.590  1.00  0.00     0.111 A 
ATOM      6  C   UNL     1      16.386   5.157  81.394  1.00  0.00     0.134 A 
ATOM      7  C   UNL     1      16.050   3.956  82.032  1.00  0.00     0.093 A 
ATOM      8  C   UNL     1      14.893   3.850  82.803  1.00  0.00     0.123 A 
ATOM      9  C   UNL     1      14.054   4.956  82.951  1.00  0.00     0.094 A 
ATOM     10  C   UNL     1      14.383   6.178  82.357  1.00  0.00     0.146 A 
ATOM     11  O   UNL     1      13.565   7.208  82.532  1.00  0.00    -0.452 OA
ENDROOT
BRANCH   1  12
ATOM     12  C   UNL     1      12.787   9.476  82.276  1.00  0.00     0.025 A 
ATOM     13  C   UNL     1      13.040  10.459  83.246  1.00  0.00     0.016 A 
ATOM     14  C   UNL     1      12.096  11.454  83.507  1.00  0.00     0.051 A 
ATOM     15  C   UNL     1      10.880  11.475  82.816  1.00  0.00     0.157 A 
ATOM     16  C   UNL     1      11.555   9.486  81.596  1.00  0.00     0.062 A 
ATOM     17  C   UNL     1      10.605  10.485  81.859  1.00  0.00     0.158 A 
BRANCH  15  18
ATOM     18  O   UNL     1       9.958  12.483  83.097  1.00  0.00    -0.504 OA
ATOM     19  H   UNL     1      10.242  13.438  83.274  1.00  0.00     0.293 HD
ENDBRANCH  15  18
BRANCH  17  20
ATOM     20  O   UNL     1       9.390  10.491  81.177  1.00  0.00    -0.504 OA
ATOM     21  H   UNL     1       9.338  10.310  80.181  1.00  0.00     0.293 HD
ENDBRANCH  17  20
ENDBRANCH   1  12
BRANCH   2  22
ATOM     22  O   UNL     1      15.272   9.952  80.865  1.00  0.00    -0.502 OA
ATOM     23  H   UNL     1      15.420  10.164  79.886  1.00  0.00     0.293 HD
ENDBRANCH   2  22
BRANCH   6  24
ATOM     24  O   UNL     1      17.514   5.129  80.569  1.00  0.00    -0.507 OA
ATOM     25  H   UNL     1      18.122   5.917  80.402  1.00  0.00     0.293 HD
ENDBRANCH   6  24
BRANCH   8  26
ATOM     26  O   UNL     1      14.580   2.636  83.410  1.00  0.00    -0.508 OA
ATOM     27  H   UNL     1      13.854   2.032  83.044  1.00  0.00     0.293 HD
ENDBRANCH   8  26
TORSDOF 6
ENDMDL
MODEL 6
REMARK VINA RESULT:    -7.626      4.393      6.748
REMARK INTER + INTRA:          -9.502
REMARK INTER:                  -9.487
REMARK INTRA:                  -0.014
REMARK UNBOUND:                -0.315
REMARK SMILES O=c1c(O)c(-c2ccc(O)c(O)c2)oc2cc(O)cc(O)c12
REMARK SMILES IDX 5 1 3 2 2 3 1 4 22 5 20 6 19 7 17 8 16 9 15 10 14 11 6 12
REMARK SMILES IDX 7 13 8 14 9 15 13 16 11 17 10 18 12 20 4 22 21 24 18 26
REMARK H PARENT 10 19 12 21 4 23 21 25 18 27
REMARK Flexibility Score: inf
ROOT
ATOM      1  C   UNL     1      17.817   8.000  79.043  1.00  0.00     0.180 A 
ATOM      2  C   UNL     1      18.362   8.332  77.791  1.00  0.00     0.208 A 
ATOM      3  C   UNL     1      18.690   7.303  76.895  1.00  0.00     0.238 A 
ATOM      4  O   UNL     1      19.228   7.604  75.798  1.00  0.00    -0.285 OA
ATOM      5  C   UNL     1      18.454   5.953  77.255  1.00  0.00     0.111 A 
ATOM      6  C   UNL     1      18.710   4.832  76.410  1.00  0.00     0.134 A 
ATOM      7  C   UNL     1      18.562   3.536  76.918  1.00  0.00     0.093 A 
ATOM      8  C   UNL     1      18.104   3.320  78.218  1.00  0.00     0.123 A 
ATOM      9  C   UNL     1      17.792   4.409  79.033  1.00  0.00     0.094 A 
ATOM     10  C   UNL     1      17.965   5.715  78.567  1.00  0.00     0.146 A 
ATOM     11  O   UNL     1      17.669   6.722  79.377  1.00  0.00    -0.452 OA
ENDROOT
BRANCH   1  12
ATOM     12  C   UNL     1      17.422   9.031  80.030  1.00  0.00     0.025 A 
ATOM     13  C   UNL     1      16.571  10.075  79.635  1.00  0.00     0.016 A 
ATOM     14  C   UNL     1      16.203  11.069  80.544  1.00  0.00     0.051 A 
ATOM     15  C   UNL     1      16.689  11.044  81.855  1.00  0.00     0.157 A 
ATOM     16  C   UNL     1      17.926   9.018  81.342  1.00  0.00     0.062 A 
ATOM     17  C   UNL     1      17.558  10.017  82.256  1.00  0.00     0.158 A 
BRANCH  15  18
ATOM     18  O   UNL     1      16.301  12.049  82.741  1.00  0.00    -0.504 OA
ATOM     19  H   UNL     1      15.328  12.264  82.920  1.00  0.00     0.293 HD
ENDBRANCH  15  18
BRANCH  17  20
ATOM     20  O   UNL     1      18.058   9.994  83.558  1.00  0.00    -0.504 OA
ATOM     21  H   UNL     1      18.575  10.777  83.941  1.00  0.00     0.293 HD
ENDBRANCH  17  20
ENDBRANCH   1  12
BRANCH   2  22
ATOM     22  O   UNL     1      18.608   9.669  77.464  1.00  0.00    -0.502 OA
ATOM     23  H   UNL     1      18.205  10.112  76.647  1.00  0.00     0.293 HD
ENDBRANCH   2  22
BRANCH   6  24
ATOM     24  O   UNL     1      19.084   4.936  75.067  1.00  0.00    -0.507 OA
ATOM     25  H   UNL     1      18.438   4.997  74.294  1.00  0.00     0.293 HD
ENDBRANCH   6  24
BRANCH   8  26
ATOM     26  O   UNL     1      17.952   2.017  78.686  1.00  0.00    -0.508 OA
ATOM     27  H   UNL     1      18.661   1.572  79.255  1.00  0.00     0.293 HD
ENDBRANCH   8  26
TORSDOF 6
ENDMDL
MODEL 7
REMARK VINA RESULT:    -7.623      4.149      8.881
REMARK INTER + INTRA:          -9.498
REMARK INTER:                  -9.324
REMARK INTRA:                  -0.174
REMARK UNBOUND:                -0.315
REMARK SMILES O=c1c(O)c(-c2ccc(O)c(O)c2)oc2cc(O)cc(O)c12
REMARK SMILES IDX 5 1 3 2 2 3 1 4 22 5 20 6 19 7 17 8 16 9 15 10 14 11 6 12
REMARK SMILES IDX 7 13 8 14 9 15 13 16 11 17 10 18 12 20 4 22 21 24 18 26
REMARK H PARENT 10 19 12 21 4 23 21 25 18 27
REMARK Flexibility Score: inf
ROOT
ATOM      1  C   UNL     1      18.068   8.037  78.029  1.00  0.00     0.180 A 
ATOM      2  C   UNL     1      17.636   9.290  77.562  1.00  0.00     0.208 A 
ATOM      3  C   UNL     1      17.093  10.208  78.474  1.00  0.00     0.238 A 
ATOM      4  O   UNL     1      16.658  11.306  78.041  1.00  0.00    -0.285 OA
ATOM      5  C   UNL     1      17.003   9.868  79.846  1.00  0.00     0.111 A 
ATOM      6  C   UNL     1      16.508  10.736  80.865  1.00  0.00     0.134 A 
ATOM      7  C   UNL     1      16.342  10.248  82.168  1.00  0.00     0.093 A 
ATOM      8  C   UNL     1      16.716   8.947  82.502  1.00  0.00     0.123 A 
ATOM      9  C   UNL     1      17.259   8.109  81.527  1.00  0.00     0.094 A 
ATOM     10  C   UNL     1      17.401   8.555  80.210  1.00  0.00     0.146 A 
ATOM     11  O   UNL     1      17.910   7.723  79.311  1.00  0.00    -0.452 OA
ENDROOT
BRANCH   1  12
ATOM     12  C   UNL     1      18.675   7.027  77.132  1.00  0.00     0.025 A 
ATOM     13  C   UNL     1      20.036   6.710  77.269  1.00  0.00     0.016 A 
ATOM     14  C   UNL     1      20.633   5.776  76.420  1.00  0.00     0.051 A 
ATOM     15  C   UNL     1      19.887   5.155  75.415  1.00  0.00     0.157 A 
ATOM     16  C   UNL     1      17.930   6.417  76.107  1.00  0.00     0.062 A 
ATOM     17  C   UNL     1      18.529   5.479  75.253  1.00  0.00     0.158 A 
BRANCH  15  18
ATOM     18  O   UNL     1      20.510   4.224  74.584  1.00  0.00    -0.504 OA
ATOM     19  H   UNL     1      20.028   3.787  73.808  1.00  0.00     0.293 HD
ENDBRANCH  15  18
BRANCH  17  20
ATOM     20  O   UNL     1      17.783   4.874  74.243  1.00  0.00    -0.504 OA
ATOM     21  H   UNL     1      18.214   4.266  73.556  1.00  0.00     0.293 HD
ENDBRANCH  17  20
ENDBRANCH   1  12
BRANCH   2  22
ATOM     22  O   UNL     1      17.713   9.596  76.200  1.00  0.00    -0.502 OA
ATOM     23  H   UNL     1      17.022   9.278  75.531  1.00  0.00     0.293 HD
ENDBRANCH   2  22
BRANCH   6  24
ATOM     24  O   UNL     1      16.191  12.082  80.658  1.00  0.00    -0.507 OA
ATOM     25  H   UNL     1      15.507  12.599  81.190  1.00  0.00     0.293 HD
ENDBRANCH   6  24
BRANCH   8  26
ATOM     26  O   UNL     1      16.554   8.500  83.811  1.00  0.00    -0.508 OA
ATOM     27  H   UNL     1      16.443   9.147  84.583  1.00  0.00     0.293 HD
ENDBRANCH   8  26
TORSDOF 6
ENDMDL
MODEL 8
REMARK VINA RESULT:    -7.594      4.353      6.258
REMARK INTER + INTRA:          -9.463
REMARK INTER:                  -9.207
REMARK INTRA:                  -0.256
REMARK UNBOUND:                -0.315
REMARK SMILES O=c1c(O)c(-c2ccc(O)c(O)c2)oc2cc(O)cc(O)c12
REMARK SMILES IDX 5 1 3 2 2 3 1 4 22 5 20 6 19 7 17 8 16 9 15 10 14 11 6 12
REMARK SMILES IDX 7 13 8 14 9 15 13 16 11 17 10 18 12 20 4 22 21 24 18 26
REMARK H PARENT 10 19 12 21 4 23 21 25 18 27
REMARK Flexibility Score: inf
ROOT
ATOM      1  C   UNL     1      17.233   8.611  78.408  1.00  0.00     0.180 A 
ATOM      2  C   UNL     1      16.228   7.806  77.842  1.00  0.00     0.208 A 
ATOM      3  C   UNL     1      16.531   7.034  76.710  1.00  0.00     0.238 A 
ATOM      4  O   UNL     1      15.613   6.358  76.176  1.00  0.00    -0.285 OA
ATOM      5  C   UNL     1      17.838   7.064  76.165  1.00  0.00     0.111 A 
ATOM      6  C   UNL     1      18.266   6.292  75.044  1.00  0.00     0.134 A 
ATOM      7  C   UNL     1      19.544   6.499  74.510  1.00  0.00     0.093 A 
ATOM      8  C   UNL     1      20.432   7.401  75.096  1.00  0.00     0.123 A 
ATOM      9  C   UNL     1      20.045   8.118  76.230  1.00  0.00     0.094 A 
ATOM     10  C   UNL     1      18.763   7.960  76.763  1.00  0.00     0.146 A 
ATOM     11  O   UNL     1      18.430   8.668  77.835  1.00  0.00    -0.452 OA
ENDROOT
BRANCH   1  12
ATOM     12  C   UNL     1      16.997   9.433  79.617  1.00  0.00     0.025 A 
ATOM     13  C   UNL     1      16.277  10.633  79.508  1.00  0.00     0.016 A 
ATOM     14  C   UNL     1      16.061  11.434  80.631  1.00  0.00     0.051 A 
ATOM     15  C   UNL     1      16.572  11.057  81.877  1.00  0.00     0.157 A 
ATOM     16  C   UNL     1      17.528   9.065  80.866  1.00  0.00     0.062 A 
ATOM     17  C   UNL     1      17.313   9.869  81.996  1.00  0.00     0.158 A 
BRANCH  15  18
ATOM     18  O   UNL     1      16.338  11.875  82.982  1.00  0.00    -0.504 OA
ATOM     19  H   UNL     1      16.871  11.789  83.838  1.00  0.00     0.293 HD
ENDBRANCH  15  18
BRANCH  17  20
ATOM     20  O   UNL     1      17.838   9.495  83.232  1.00  0.00    -0.504 OA
ATOM     21  H   UNL     1      18.809   9.664  83.470  1.00  0.00     0.293 HD
ENDBRANCH  17  20
ENDBRANCH   1  12
BRANCH   2  22
ATOM     22  O   UNL     1      14.939   7.809  78.383  1.00  0.00    -0.502 OA
ATOM     23  H   UNL     1      14.138   8.163  77.875  1.00  0.00     0.293 HD
ENDBRANCH   2  22
BRANCH   6  24
ATOM     24  O   UNL     1      17.491   5.298  74.439  1.00  0.00    -0.507 OA
ATOM     25  H   UNL     1      16.984   5.412  73.575  1.00  0.00     0.293 HD
ENDBRANCH   6  24
BRANCH   8  26
ATOM     26  O   UNL     1      21.701   7.570  74.550  1.00  0.00    -0.508 OA
ATOM     27  H   UNL     1      22.087   8.491  74.379  1.00  0.00     0.293 HD
ENDBRANCH   8  26
TORSDOF 6
ENDMDL
MODEL 9
REMARK VINA RESULT:    -7.573      4.176      6.613
REMARK INTER + INTRA:          -9.437
REMARK INTER:                  -9.148
REMARK INTRA:                  -0.289
REMARK UNBOUND:                -0.315
REMARK SMILES O=c1c(O)c(-c2ccc(O)c(O)c2)oc2cc(O)cc(O)c12
REMARK SMILES IDX 5 1 3 2 2 3 1 4 22 5 20 6 19 7 17 8 16 9 15 10 14 11 6 12
REMARK SMILES IDX 7 13 8 14 9 15 13 16 11 17 10 18 12 20 4 22 21 24 18 26
REMARK H PARENT 10 19 12 21 4 23 21 25 18 27
REMARK Flexibility Score: inf
ROOT
ATOM      1  C   UNL     1      17.906   8.600  79.010  1.00  0.00     0.180 A 
ATOM      2  C   UNL     1      17.443   9.408  77.956  1.00  0.00     0.208 A 
ATOM      3  C   UNL     1      17.969   9.216  76.669  1.00  0.00     0.238 A 
ATOM      4  O   UNL     1      17.591   9.979  75.741  1.00  0.00    -0.285 OA
ATOM      5  C   UNL     1      18.940   8.209  76.447  1.00  0.00     0.111 A 
ATOM      6  C   UNL     1      19.510   7.901  75.176  1.00  0.00     0.134 A 
ATOM      7  C   UNL     1      20.557   6.974  75.095  1.00  0.00     0.093 A 
ATOM      8  C   UNL     1      21.008   6.297  76.228  1.00  0.00     0.123 A 
ATOM      9  C   UNL     1      20.415   6.546  77.467  1.00  0.00     0.094 A 
ATOM     10  C   UNL     1      19.394   7.493  77.585  1.00  0.00     0.146 A 
ATOM     11  O   UNL     1      18.865   7.709  78.782  1.00  0.00    -0.452 OA
ENDROOT
BRANCH   1  12
ATOM     12  C   UNL     1      17.381   8.725  80.389  1.00  0.00     0.025 A 
ATOM     13  C   UNL     1      16.389   7.838  80.833  1.00  0.00     0.016 A 
ATOM     14  C   UNL     1      15.865   7.950  82.123  1.00  0.00     0.051 A 
ATOM     15  C   UNL     1      16.312   8.958  82.982  1.00  0.00     0.157 A 
ATOM     16  C   UNL     1      17.815   9.751  81.247  1.00  0.00     0.062 A 
ATOM     17  C   UNL     1      17.289   9.867  82.542  1.00  0.00     0.158 A 
BRANCH  15  18
ATOM     18  O   UNL     1      15.772   9.044  84.265  1.00  0.00    -0.504 OA
ATOM     19  H   UNL     1      14.814   8.786  84.464  1.00  0.00     0.293 HD
ENDBRANCH  15  18
BRANCH  17  20
ATOM     20  O   UNL     1      17.729  10.883  83.389  1.00  0.00    -0.504 OA
ATOM     21  H   UNL     1      17.318  11.027  84.304  1.00  0.00     0.293 HD
ENDBRANCH  17  20
ENDBRANCH   1  12
BRANCH   2  22
ATOM     22  O   UNL     1      16.501  10.411  78.202  1.00  0.00    -0.502 OA
ATOM     23  H   UNL     1      15.917  10.799  77.471  1.00  0.00     0.293 HD
ENDBRANCH   2  22
BRANCH   6  24
ATOM     24  O   UNL     1      19.072   8.452  73.968  1.00  0.00    -0.507 OA
ATOM     25  H   UNL     1      19.656   8.600  73.159  1.00  0.00     0.293 HD
ENDBRANCH   6  24
BRANCH   8  26
ATOM     26  O   UNL     1      22.040   5.369  76.109  1.00  0.00    -0.508 OA
ATOM     27  H   UNL     1      22.429   4.901  76.920  1.00  0.00     0.293 HD
ENDBRANCH   8  26
TORSDOF 6
ENDMDL
