MODEL 1
REMARK VINA RESULT:    -3.216      0.000      0.000
REMARK INTER + INTRA:          -4.311
REMARK INTER:                  -4.156
REMARK INTRA:                  -0.156
REMARK UNBOUND:                -0.156
REMARK SMILES CCCCCCC(=O)[O-]
REMARK SMILES IDX 5 1 6 2 7 3 8 4 9 5 4 6 3 7 2 8 1 9
REMARK H PARENT
REMARK Flexibility Score: inf
ROOT
ATOM      1  C   UNL     1      25.322  40.089   0.955  1.00  0.00     0.006 C 
ENDROOT
BRANCH   1   2
ATOM      2  C   UNL     1      24.917  39.362  -0.330  1.00  0.00     0.053 C 
BRANCH   2   3
ATOM      3  C   UNL     1      25.948  39.565  -1.395  1.00  0.00     0.041 C 
ATOM      4  O   UNL     1      25.932  40.606  -2.103  1.00  0.00    -0.550 OA
ATOM      5  O   UNL     1      26.957  38.627  -1.572  1.00  0.00    -0.550 OA
ENDBRANCH   2   3
ENDBRANCH   1   2
BRANCH   1   6
ATOM      6  C   UNL     1      24.093  40.406   1.821  1.00  0.00     0.000 C 
BRANCH   6   7
ATOM      7  C   UNL     1      24.454  41.249   3.063  1.00  0.00    -0.000 C 
BRANCH   7   8
ATOM      8  C   UNL     1      25.949  41.597   3.157  1.00  0.00    -0.003 C 
ATOM      9  C   UNL     1      26.209  42.943   3.829  1.00  0.00     0.004 C 
ENDBRANCH   7   8
ENDBRANCH   6   7
ENDBRANCH   1   6
TORSDOF 5
ENDMDL
MODEL 2
REMARK VINA RESULT:    -3.135     18.218     19.125
REMARK INTER + INTRA:          -4.208
REMARK INTER:                  -4.056
REMARK INTRA:                  -0.152
REMARK UNBOUND:                -0.156
REMARK SMILES CCCCCCC(=O)[O-]
REMARK SMILES IDX 5 1 6 2 7 3 8 4 9 5 4 6 3 7 2 8 1 9
REMARK H PARENT
REMARK Flexibility Score: inf
ROOT
ATOM      1  C   UNL     1      42.601  32.473   1.118  1.00  0.00     0.006 C 
ENDROOT
BRANCH   1   2
ATOM      2  C   UNL     1      42.856  32.824  -0.350  1.00  0.00     0.053 C 
BRANCH   2   3
ATOM      3  C   UNL     1      41.672  32.460  -1.189  1.00  0.00     0.041 C 
ATOM      4  O   UNL     1      41.789  31.623  -2.122  1.00  0.00    -0.550 OA
ATOM      5  O   UNL     1      40.427  33.009  -0.909  1.00  0.00    -0.550 OA
ENDBRANCH   2   3
ENDBRANCH   1   2
BRANCH   1   6
ATOM      6  C   UNL     1      43.922  32.253   1.870  1.00  0.00     0.000 C 
BRANCH   6   7
ATOM      7  C   UNL     1      43.723  31.473   3.187  1.00  0.00    -0.000 C 
BRANCH   7   8
ATOM      8  C   UNL     1      42.261  31.080   3.454  1.00  0.00    -0.003 C 
ATOM      9  C   UNL     1      42.125  29.891   4.403  1.00  0.00     0.004 C 
ENDBRANCH   7   8
ENDBRANCH   6   7
ENDBRANCH   1   6
TORSDOF 5
ENDMDL
MODEL 3
REMARK VINA RESULT:    -3.134     18.971     20.135
REMARK INTER + INTRA:          -4.206
REMARK INTER:                  -4.052
REMARK INTRA:                  -0.153
REMARK UNBOUND:                -0.156
REMARK SMILES CCCCCCC(=O)[O-]
REMARK SMILES IDX 5 1 6 2 7 3 8 4 9 5 4 6 3 7 2 8 1 9
REMARK H PARENT
REMARK Flexibility Score: inf
ROOT
ATOM      1  C   UNL     1      43.111  31.981   2.239  1.00  0.00     0.006 C 
ENDROOT
BRANCH   1   2
ATOM      2  C   UNL     1      43.815  31.560   3.532  1.00  0.00     0.053 C 
BRANCH   2   3
ATOM      3  C   UNL     1      42.958  30.615   4.312  1.00  0.00     0.041 C 
ATOM      4  O   UNL     1      41.897  30.159   3.811  1.00  0.00    -0.550 OA
ATOM      5  O   UNL     1      43.356  30.197   5.576  1.00  0.00    -0.550 OA
ENDBRANCH   2   3
ENDBRANCH   1   2
BRANCH   1   6
ATOM      6  C   UNL     1      44.125  32.455   1.187  1.00  0.00     0.000 C 
BRANCH   6   7
ATOM      7  C   UNL     1      43.442  33.128  -0.022  1.00  0.00    -0.000 C 
BRANCH   7   8
ATOM      8  C   UNL     1      42.010  32.629  -0.277  1.00  0.00    -0.003 C 
ATOM      9  C   UNL     1      41.776  32.193  -1.722  1.00  0.00     0.004 C 
ENDBRANCH   7   8
ENDBRANCH   6   7
ENDBRANCH   1   6
TORSDOF 5
ENDMDL
MODEL 4
REMARK VINA RESULT:    -3.088      3.475      5.115
REMARK INTER + INTRA:          -4.146
REMARK INTER:                  -3.988
REMARK INTRA:                  -0.158
REMARK UNBOUND:                -0.156
REMARK SMILES CCCCCCC(=O)[O-]
REMARK SMILES IDX 5 1 6 2 7 3 8 4 9 5 4 6 3 7 2 8 1 9
REMARK H PARENT
REMARK Flexibility Score: inf
ROOT
ATOM      1  C   UNL     1      24.917  40.903   2.348  1.00  0.00     0.006 C 
ENDROOT
BRANCH   1   2
ATOM      2  C   UNL     1      24.307  41.482   3.628  1.00  0.00     0.053 C 
BRANCH   2   3
ATOM      3  C   UNL     1      25.269  42.415   4.293  1.00  0.00     0.041 C 
ATOM      4  O   UNL     1      26.106  43.057   3.607  1.00  0.00    -0.550 OA
ATOM      5  O   UNL     1      25.207  42.613   5.667  1.00  0.00    -0.550 OA
ENDBRANCH   2   3
ENDBRANCH   1   2
BRANCH   1   6
ATOM      6  C   UNL     1      23.875  40.103   1.553  1.00  0.00     0.000 C 
BRANCH   6   7
ATOM      7  C   UNL     1      24.521  39.232   0.454  1.00  0.00    -0.000 C 
BRANCH   7   8
ATOM      8  C   UNL     1      25.895  39.745  -0.010  1.00  0.00    -0.003 C 
ATOM      9  C   UNL     1      25.936  40.080  -1.499  1.00  0.00     0.004 C 
ENDBRANCH   7   8
ENDBRANCH   6   7
ENDBRANCH   1   6
TORSDOF 5
ENDMDL
MODEL 5
REMARK VINA RESULT:    -3.038      3.014      4.980
REMARK INTER + INTRA:          -4.082
REMARK INTER:                  -3.938
REMARK INTRA:                  -0.144
REMARK UNBOUND:                -0.156
REMARK SMILES CCCCCCC(=O)[O-]
REMARK SMILES IDX 5 1 6 2 7 3 8 4 9 5 4 6 3 7 2 8 1 9
REMARK H PARENT
REMARK Flexibility Score: inf
ROOT
ATOM      1  C   UNL     1      25.402  40.010   1.077  1.00  0.00     0.006 C 
ENDROOT
BRANCH   1   2
ATOM      2  C   UNL     1      24.181  40.457   1.885  1.00  0.00     0.053 C 
BRANCH   2   3
ATOM      3  C   UNL     1      24.607  41.132   3.150  1.00  0.00     0.041 C 
ATOM      4  O   UNL     1      25.588  41.921   3.148  1.00  0.00    -0.550 OA
ATOM      5  O   UNL     1      23.889  40.930   4.321  1.00  0.00    -0.550 OA
ENDBRANCH   2   3
ENDBRANCH   1   2
BRANCH   1   6
ATOM      6  C   UNL     1      24.979  39.326  -0.232  1.00  0.00     0.000 C 
BRANCH   6   7
ATOM      7  C   UNL     1      25.746  39.874  -1.453  1.00  0.00    -0.000 C 
BRANCH   7   8
ATOM      8  C   UNL     1      27.250  39.554  -1.430  1.00  0.00    -0.003 C 
ATOM      9  C   UNL     1      27.551  38.076  -1.668  1.00  0.00     0.004 C 
ENDBRANCH   7   8
ENDBRANCH   6   7
ENDBRANCH   1   6
TORSDOF 5
ENDMDL
MODEL 6
REMARK VINA RESULT:    -3.018      0.754      1.344
REMARK INTER + INTRA:          -4.056
REMARK INTER:                  -3.921
REMARK INTRA:                  -0.135
REMARK UNBOUND:                -0.156
REMARK SMILES CCCCCCC(=O)[O-]
REMARK SMILES IDX 5 1 6 2 7 3 8 4 9 5 4 6 3 7 2 8 1 9
REMARK H PARENT
REMARK Flexibility Score: inf
ROOT
ATOM      1  C   UNL     1      25.457  40.086   1.361  1.00  0.00     0.006 C 
ENDROOT
BRANCH   1   2
ATOM      2  C   UNL     1      25.054  39.492   0.009  1.00  0.00     0.053 C 
BRANCH   2   3
ATOM      3  C   UNL     1      26.065  39.836  -1.039  1.00  0.00     0.041 C 
ATOM      4  O   UNL     1      27.235  39.380  -0.964  1.00  0.00    -0.550 OA
ATOM      5  O   UNL     1      25.700  40.622  -2.125  1.00  0.00    -0.550 OA
ENDBRANCH   2   3
ENDBRANCH   1   2
BRANCH   1   6
ATOM      6  C   UNL     1      24.243  40.692   2.081  1.00  0.00     0.000 C 
BRANCH   6   7
ATOM      7  C   UNL     1      24.339  40.543   3.615  1.00  0.00    -0.000 C 
BRANCH   7   8
ATOM      8  C   UNL     1      24.397  41.887   4.361  1.00  0.00    -0.003 C 
ATOM      9  C   UNL     1      25.666  42.682   4.063  1.00  0.00     0.004 C 
ENDBRANCH   7   8
ENDBRANCH   6   7
ENDBRANCH   1   6
TORSDOF 5
ENDMDL
MODEL 7
REMARK VINA RESULT:    -2.938      1.834      2.357
REMARK INTER + INTRA:          -3.952
REMARK INTER:                  -3.686
REMARK INTRA:                  -0.266
REMARK UNBOUND:                -0.156
REMARK SMILES CCCCCCC(=O)[O-]
REMARK SMILES IDX 5 1 6 2 7 3 8 4 9 5 4 6 3 7 2 8 1 9
REMARK H PARENT
REMARK Flexibility Score: inf
ROOT
ATOM      1  C   UNL     1      25.579  39.959  -0.538  1.00  0.00     0.006 C 
ENDROOT
BRANCH   1   2
ATOM      2  C   UNL     1      26.538  39.031  -1.289  1.00  0.00     0.053 C 
BRANCH   2   3
ATOM      3  C   UNL     1      27.896  39.060  -0.662  1.00  0.00     0.041 C 
ATOM      4  O   UNL     1      28.922  38.858  -1.362  1.00  0.00    -0.550 OA
ATOM      5  O   UNL     1      28.032  39.361   0.687  1.00  0.00    -0.550 OA
ENDBRANCH   2   3
ENDBRANCH   1   2
BRANCH   1   6
ATOM      6  C   UNL     1      24.426  39.166   0.094  1.00  0.00     0.000 C 
BRANCH   6   7
ATOM      7  C   UNL     1      24.357  39.354   1.625  1.00  0.00    -0.000 C 
BRANCH   7   8
ATOM      8  C   UNL     1      24.947  40.690   2.108  1.00  0.00    -0.003 C 
ATOM      9  C   UNL     1      24.297  41.202   3.391  1.00  0.00     0.004 C 
ENDBRANCH   7   8
ENDBRANCH   6   7
ENDBRANCH   1   6
TORSDOF 5
ENDMDL
MODEL 8
REMARK VINA RESULT:    -2.885      2.685      4.337
REMARK INTER + INTRA:          -3.884
REMARK INTER:                  -3.538
REMARK INTRA:                  -0.346
REMARK UNBOUND:                -0.156
REMARK SMILES CCCCCCC(=O)[O-]
REMARK SMILES IDX 5 1 6 2 7 3 8 4 9 5 4 6 3 7 2 8 1 9
REMARK H PARENT
REMARK Flexibility Score: inf
ROOT
ATOM      1  C   UNL     1      24.500  39.368  -0.075  1.00  0.00     0.006 C 
ENDROOT
BRANCH   1   2
ATOM      2  C   UNL     1      24.866  39.081   1.384  1.00  0.00     0.053 C 
BRANCH   2   3
ATOM      3  C   UNL     1      25.003  40.358   2.151  1.00  0.00     0.041 C 
ATOM      4  O   UNL     1      23.980  41.022   2.465  1.00  0.00    -0.550 OA
ATOM      5  O   UNL     1      26.257  40.789   2.564  1.00  0.00    -0.550 OA
ENDBRANCH   2   3
ENDBRANCH   1   2
BRANCH   1   6
ATOM      6  C   UNL     1      25.686  39.987  -0.829  1.00  0.00     0.000 C 
BRANCH   6   7
ATOM      7  C   UNL     1      26.585  38.917  -1.485  1.00  0.00    -0.000 C 
BRANCH   7   8
ATOM      8  C   UNL     1      28.077  39.077  -1.150  1.00  0.00    -0.003 C 
ATOM      9  C   UNL     1      28.375  38.935   0.341  1.00  0.00     0.004 C 
ENDBRANCH   7   8
ENDBRANCH   6   7
ENDBRANCH   1   6
TORSDOF 5
ENDMDL
MODEL 9
REMARK VINA RESULT:    -0.809     16.579     17.294
REMARK INTER + INTRA:          -1.201
REMARK INTER:                  -1.117
REMARK INTRA:                  -0.085
REMARK UNBOUND:                -0.156
REMARK SMILES CCCCCCC(=O)[O-]
REMARK SMILES IDX 5 1 6 2 7 3 8 4 9 5 4 6 3 7 2 8 1 9
REMARK H PARENT
REMARK Flexibility Score: inf
ROOT
ATOM      1  C   UNL     1      39.918  32.322   4.735  1.00  0.00     0.006 C 
ENDROOT
BRANCH   1   2
ATOM      2  C   UNL     1      41.075  31.365   4.432  1.00  0.00     0.053 C 
BRANCH   2   3
ATOM      3  C   UNL     1      42.367  31.930   4.933  1.00  0.00     0.041 C 
ATOM      4  O   UNL     1      43.347  32.057   4.153  1.00  0.00    -0.550 OA
ATOM      5  O   UNL     1      42.473  32.362   6.249  1.00  0.00    -0.550 OA
ENDBRANCH   2   3
ENDBRANCH   1   2
BRANCH   1   6
ATOM      6  C   UNL     1      39.216  32.765   3.443  1.00  0.00     0.000 C 
BRANCH   6   7
ATOM      7  C   UNL     1      38.835  34.260   3.467  1.00  0.00    -0.000 C 
BRANCH   7   8
ATOM      8  C   UNL     1      37.573  34.588   2.651  1.00  0.00    -0.003 C 
ATOM      9  C   UNL     1      37.883  35.257   1.314  1.00  0.00     0.004 C 
ENDBRANCH   7   8
ENDBRANCH   6   7
ENDBRANCH   1   6
TORSDOF 5
ENDMDL
