MODEL 1
REMARK VINA RESULT:    -4.963      0.000      0.000
REMARK INTER + INTRA:          -8.917
REMARK INTER:                  -7.574
REMARK INTRA:                  -1.343
REMARK UNBOUND:                -1.343
REMARK SMILES OC[C@@H]1O[C@H](O[C@]2(CO)O[C@H](CO)[C@@H](O)[C@H]2O)[C@@H](O)[C@H](O)[C@H]1O
REMARK SMILES IDX 6 1 5 2 3 3 22 4 4 5 20 6 18 7 2 8 1 9 23 11 21 13 19 15
REMARK SMILES IDX 7 17 16 18 10 19 14 20 11 21 8 22 9 23 17 25 15 27 12 29
REMARK SMILES IDX 13 30
REMARK H PARENT 1 10 23 12 21 14 19 16 9 24 17 26 15 28 13 31
REMARK Flexibility Score: inf
ROOT
ATOM      1  O   UNL     1      57.446 -39.576  46.544  1.00  0.00    -0.313 OA
ENDROOT
BRANCH   1   2
ATOM      2  C   UNL     1      58.312 -40.122  47.528  1.00  0.00     0.285 C 
ATOM      3  C   UNL     1      59.047 -42.187  46.557  1.00  0.00     0.178 C 
ATOM      4  C   UNL     1      60.564 -41.877  46.754  1.00  0.00     0.177 C 
ATOM      5  O   UNL     1      58.224 -41.545  47.524  1.00  0.00    -0.341 OA
ATOM      6  C   UNL     1      60.782 -40.659  47.664  1.00  0.00     0.179 C 
ATOM      7  C   UNL     1      59.749 -39.580  47.309  1.00  0.00     0.202 C 
BRANCH   3   8
ATOM      8  C   UNL     1      58.562 -41.926  45.117  1.00  0.00     0.191 C 
BRANCH   8   9
ATOM      9  O   UNL     1      57.197 -42.228  45.014  1.00  0.00    -0.394 OA
ATOM     10  H   UNL     1      57.001 -42.292  44.044  1.00  0.00     0.210 HD
ENDBRANCH   8   9
ENDBRANCH   3   8
BRANCH   4  11
ATOM     11  O   UNL     1      61.219 -42.984  47.321  1.00  0.00    -0.387 OA
ATOM     12  H   UNL     1      60.669 -43.783  47.107  1.00  0.00     0.211 HD
ENDBRANCH   4  11
BRANCH   6  13
ATOM     13  O   UNL     1      62.085 -40.168  47.478  1.00  0.00    -0.387 OA
ATOM     14  H   UNL     1      62.703 -40.826  47.891  1.00  0.00     0.211 HD
ENDBRANCH   6  13
BRANCH   7  15
ATOM     15  O   UNL     1      59.961 -38.403  48.051  1.00  0.00    -0.385 OA
ATOM     16  H   UNL     1      60.210 -38.666  48.976  1.00  0.00     0.211 HD
ENDBRANCH   7  15
ENDBRANCH   1   2
BRANCH   1  17
ATOM     17  C   UNL     1      56.157 -39.214  47.036  1.00  0.00     0.224 C 
ATOM     18  C   UNL     1      55.946 -39.976  48.358  1.00  0.00     0.208 C 
ATOM     19  O   UNL     1      56.075 -37.824  47.321  1.00  0.00    -0.337 OA
ATOM     20  C   UNL     1      55.225 -38.996  49.247  1.00  0.00     0.180 C 
ATOM     21  C   UNL     1      55.612 -37.641  48.644  1.00  0.00     0.179 C 
BRANCH  17  22
ATOM     22  C   UNL     1      55.100 -39.568  45.960  1.00  0.00     0.225 C 
BRANCH  22  23
ATOM     23  O   UNL     1      53.803 -39.459  46.478  1.00  0.00    -0.391 OA
ATOM     24  H   UNL     1      53.343 -38.771  45.931  1.00  0.00     0.210 HD
ENDBRANCH  22  23
ENDBRANCH  17  22
BRANCH  18  25
ATOM     25  O   UNL     1      55.226 -41.175  48.210  1.00  0.00    -0.385 OA
ATOM     26  H   UNL     1      55.497 -41.558  47.335  1.00  0.00     0.211 HD
ENDBRANCH  18  25
BRANCH  20  27
ATOM     27  O   UNL     1      53.835 -39.185  49.175  1.00  0.00    -0.387 OA
ATOM     28  H   UNL     1      53.456 -38.351  48.793  1.00  0.00     0.211 HD
ENDBRANCH  20  27
BRANCH  21  29
ATOM     29  C   UNL     1      56.704 -36.932  49.458  1.00  0.00     0.191 C 
BRANCH  29  30
ATOM     30  O   UNL     1      57.802 -36.621  48.642  1.00  0.00    -0.394 OA
ATOM     31  H   UNL     1      58.471 -36.161  49.214  1.00  0.00     0.210 HD
ENDBRANCH  29  30
ENDBRANCH  21  29
ENDBRANCH   1  17
TORSDOF 13
ENDMDL
MODEL 2
REMARK VINA RESULT:    -4.911      1.361      2.718
REMARK INTER + INTRA:          -8.839
REMARK INTER:                  -7.805
REMARK INTRA:                  -1.033
REMARK UNBOUND:                -1.343
REMARK SMILES OC[C@@H]1O[C@H](O[C@]2(CO)O[C@H](CO)[C@@H](O)[C@H]2O)[C@@H](O)[C@H](O)[C@H]1O
REMARK SMILES IDX 6 1 5 2 3 3 22 4 4 5 20 6 18 7 2 8 1 9 23 11 21 13 19 15
REMARK SMILES IDX 7 17 16 18 10 19 14 20 11 21 8 22 9 23 17 25 15 27 12 29
REMARK SMILES IDX 13 30
REMARK H PARENT 1 10 23 12 21 14 19 16 9 24 17 26 15 28 13 31
REMARK Flexibility Score: inf
ROOT
ATOM      1  O   UNL     1      56.492 -39.900  46.749  1.00  0.00    -0.313 OA
ENDROOT
BRANCH   1   2
ATOM      2  C   UNL     1      57.540 -40.266  47.636  1.00  0.00     0.285 C 
ATOM      3  C   UNL     1      58.527 -42.184  46.590  1.00  0.00     0.178 C 
ATOM      4  C   UNL     1      59.976 -41.606  46.628  1.00  0.00     0.177 C 
ATOM      5  O   UNL     1      57.707 -41.682  47.640  1.00  0.00    -0.341 OA
ATOM      6  C   UNL     1      60.066 -40.353  47.511  1.00  0.00     0.179 C 
ATOM      7  C   UNL     1      58.826 -39.481  47.268  1.00  0.00     0.202 C 
BRANCH   3   8
ATOM      8  C   UNL     1      57.856 -42.039  45.210  1.00  0.00     0.191 C 
BRANCH   8   9
ATOM      9  O   UNL     1      58.630 -42.683  44.236  1.00  0.00    -0.394 OA
ATOM     10  H   UNL     1      57.989 -43.096  43.602  1.00  0.00     0.210 HD
ENDBRANCH   8   9
ENDBRANCH   3   8
BRANCH   4  11
ATOM     11  O   UNL     1      60.874 -42.568  47.121  1.00  0.00    -0.387 OA
ATOM     12  H   UNL     1      61.170 -42.252  48.015  1.00  0.00     0.211 HD
ENDBRANCH   4  11
BRANCH   6  13
ATOM     13  O   UNL     1      61.234 -39.641  47.190  1.00  0.00    -0.387 OA
ATOM     14  H   UNL     1      61.588 -40.031  46.349  1.00  0.00     0.211 HD
ENDBRANCH   6  13
BRANCH   7  15
ATOM     15  O   UNL     1      58.899 -38.272  47.986  1.00  0.00    -0.385 OA
ATOM     16  H   UNL     1      59.756 -38.268  48.489  1.00  0.00     0.211 HD
ENDBRANCH   7  15
ENDBRANCH   1   2
BRANCH   1  17
ATOM     17  C   UNL     1      55.335 -39.375  47.396  1.00  0.00     0.224 C 
ATOM     18  C   UNL     1      55.482 -37.841  47.411  1.00  0.00     0.208 C 
ATOM     19  O   UNL     1      54.146 -39.687  46.684  1.00  0.00    -0.337 OA
ATOM     20  C   UNL     1      54.088 -37.327  47.162  1.00  0.00     0.180 C 
ATOM     21  C   UNL     1      53.415 -38.501  46.444  1.00  0.00     0.179 C 
BRANCH  17  22
ATOM     22  C   UNL     1      55.243 -39.986  48.817  1.00  0.00     0.225 C 
BRANCH  22  23
ATOM     23  O   UNL     1      54.124 -39.495  49.501  1.00  0.00    -0.391 OA
ATOM     24  H   UNL     1      54.148 -39.907  50.403  1.00  0.00     0.210 HD
ENDBRANCH  22  23
ENDBRANCH  17  22
BRANCH  18  25
ATOM     25  O   UNL     1      56.018 -37.337  48.609  1.00  0.00    -0.385 OA
ATOM     26  H   UNL     1      55.502 -36.515  48.824  1.00  0.00     0.211 HD
ENDBRANCH  18  25
BRANCH  20  27
ATOM     27  O   UNL     1      53.432 -37.052  48.373  1.00  0.00    -0.387 OA
ATOM     28  H   UNL     1      52.458 -37.103  48.185  1.00  0.00     0.211 HD
ENDBRANCH  20  27
BRANCH  21  29
ATOM     29  C   UNL     1      53.316 -38.277  44.928  1.00  0.00     0.191 C 
BRANCH  29  30
ATOM     30  O   UNL     1      52.249 -39.012  44.391  1.00  0.00    -0.394 OA
ATOM     31  H   UNL     1      52.425 -39.118  43.420  1.00  0.00     0.210 HD
ENDBRANCH  29  30
ENDBRANCH  21  29
ENDBRANCH   1  17
TORSDOF 13
ENDMDL
MODEL 3
REMARK VINA RESULT:    -4.816      1.663      3.371
REMARK INTER + INTRA:          -8.693
REMARK INTER:                  -7.111
REMARK INTRA:                  -1.582
REMARK UNBOUND:                -1.343
REMARK SMILES OC[C@@H]1O[C@H](O[C@]2(CO)O[C@H](CO)[C@@H](O)[C@H]2O)[C@@H](O)[C@H](O)[C@H]1O
REMARK SMILES IDX 6 1 5 2 3 3 22 4 4 5 20 6 18 7 2 8 1 9 23 11 21 13 19 15
REMARK SMILES IDX 7 17 16 18 10 19 14 20 11 21 8 22 9 23 17 25 15 27 12 29
REMARK SMILES IDX 13 30
REMARK H PARENT 1 10 23 12 21 14 19 16 9 24 17 26 15 28 13 31
REMARK Flexibility Score: inf
ROOT
ATOM      1  O   UNL     1      58.757 -39.703  47.927  1.00  0.00    -0.313 OA
ENDROOT
BRANCH   1   2
ATOM      2  C   UNL     1      59.882 -39.637  47.062  1.00  0.00     0.285 C 
ATOM      3  C   UNL     1      60.706 -37.407  47.370  1.00  0.00     0.178 C 
ATOM      4  C   UNL     1      62.165 -37.862  47.684  1.00  0.00     0.177 C 
ATOM      5  O   UNL     1      60.013 -38.321  46.527  1.00  0.00    -0.341 OA
ATOM      6  C   UNL     1      62.378 -39.348  47.363  1.00  0.00     0.179 C 
ATOM      7  C   UNL     1      61.143 -40.139  47.814  1.00  0.00     0.202 C 
BRANCH   3   8
ATOM      8  C   UNL     1      59.898 -37.057  48.635  1.00  0.00     0.191 C 
BRANCH   8   9
ATOM      9  O   UNL     1      58.580 -36.738  48.284  1.00  0.00    -0.394 OA
ATOM     10  H   UNL     1      58.576 -35.766  48.081  1.00  0.00     0.210 HD
ENDBRANCH   8   9
ENDBRANCH   3   8
BRANCH   4  11
ATOM     11  O   UNL     1      63.085 -37.105  46.938  1.00  0.00    -0.387 OA
ATOM     12  H   UNL     1      62.581 -36.337  46.557  1.00  0.00     0.211 HD
ENDBRANCH   4  11
BRANCH   6  13
ATOM     13  O   UNL     1      63.524 -39.808  48.033  1.00  0.00    -0.387 OA
ATOM     14  H   UNL     1      63.782 -39.103  48.682  1.00  0.00     0.211 HD
ENDBRANCH   6  13
BRANCH   7  15
ATOM     15  O   UNL     1      61.321 -41.523  47.627  1.00  0.00    -0.385 OA
ATOM     16  H   UNL     1      62.041 -41.649  46.955  1.00  0.00     0.211 HD
ENDBRANCH   7  15
ENDBRANCH   1   2
BRANCH   1  17
ATOM     17  C   UNL     1      57.534 -40.029  47.271  1.00  0.00     0.224 C 
ATOM     18  C   UNL     1      56.635 -40.729  48.309  1.00  0.00     0.208 C 
ATOM     19  O   UNL     1      56.850 -38.866  46.823  1.00  0.00    -0.337 OA
ATOM     20  C   UNL     1      55.250 -40.217  48.014  1.00  0.00     0.180 C 
ATOM     21  C   UNL     1      55.522 -38.885  47.307  1.00  0.00     0.179 C 
BRANCH  17  22
ATOM     22  C   UNL     1      57.853 -40.924  46.047  1.00  0.00     0.225 C 
BRANCH  22  23
ATOM     23  O   UNL     1      56.685 -41.242  45.342  1.00  0.00    -0.391 OA
ATOM     24  H   UNL     1      56.979 -41.559  44.448  1.00  0.00     0.210 HD
ENDBRANCH  22  23
ENDBRANCH  17  22
BRANCH  18  25
ATOM     25  O   UNL     1      56.696 -42.133  48.252  1.00  0.00    -0.385 OA
ATOM     26  H   UNL     1      55.758 -42.456  48.298  1.00  0.00     0.211 HD
ENDBRANCH  18  25
BRANCH  20  27
ATOM     27  O   UNL     1      54.564 -41.094  47.158  1.00  0.00    -0.387 OA
ATOM     28  H   UNL     1      53.686 -41.278  47.586  1.00  0.00     0.211 HD
ENDBRANCH  20  27
BRANCH  21  29
ATOM     29  C   UNL     1      55.315 -37.680  48.236  1.00  0.00     0.191 C 
BRANCH  29  30
ATOM     30  O   UNL     1      55.815 -36.511  47.643  1.00  0.00    -0.394 OA
ATOM     31  H   UNL     1      55.036 -35.930  47.439  1.00  0.00     0.210 HD
ENDBRANCH  29  30
ENDBRANCH  21  29
ENDBRANCH   1  17
TORSDOF 13
ENDMDL
MODEL 4
REMARK VINA RESULT:    -4.743      1.758      5.677
REMARK INTER + INTRA:          -8.582
REMARK INTER:                  -7.409
REMARK INTRA:                  -1.173
REMARK UNBOUND:                -1.343
REMARK SMILES OC[C@@H]1O[C@H](O[C@]2(CO)O[C@H](CO)[C@@H](O)[C@H]2O)[C@@H](O)[C@H](O)[C@H]1O
REMARK SMILES IDX 6 1 5 2 3 3 22 4 4 5 20 6 18 7 2 8 1 9 23 11 21 13 19 15
REMARK SMILES IDX 7 17 16 18 10 19 14 20 11 21 8 22 9 23 17 25 15 27 12 29
REMARK SMILES IDX 13 30
REMARK H PARENT 1 10 23 12 21 14 19 16 9 24 17 26 15 28 13 31
REMARK Flexibility Score: inf
ROOT
ATOM      1  O   UNL     1      55.927 -40.207  47.059  1.00  0.00    -0.313 OA
ENDROOT
BRANCH   1   2
ATOM      2  C   UNL     1      55.854 -39.144  47.998  1.00  0.00     0.285 C 
ATOM      3  C   UNL     1      54.288 -37.621  47.012  1.00  0.00     0.178 C 
ATOM      4  C   UNL     1      53.383 -37.543  48.281  1.00  0.00     0.177 C 
ATOM      5  O   UNL     1      55.648 -37.906  47.322  1.00  0.00    -0.341 OA
ATOM      6  C   UNL     1      54.061 -38.181  49.502  1.00  0.00     0.179 C 
ATOM      7  C   UNL     1      54.774 -39.468  49.063  1.00  0.00     0.202 C 
BRANCH   3   8
ATOM      8  C   UNL     1      53.729 -38.565  45.930  1.00  0.00     0.191 C 
BRANCH   8   9
ATOM      9  O   UNL     1      52.447 -38.998  46.294  1.00  0.00    -0.394 OA
ATOM     10  H   UNL     1      52.224 -39.745  45.680  1.00  0.00     0.210 HD
ENDBRANCH   8   9
ENDBRANCH   3   8
BRANCH   4  11
ATOM     11  O   UNL     1      53.079 -36.205  48.584  1.00  0.00    -0.387 OA
ATOM     12  H   UNL     1      52.750 -35.789  47.743  1.00  0.00     0.211 HD
ENDBRANCH   4  11
BRANCH   6  13
ATOM     13  O   UNL     1      53.089 -38.468  50.475  1.00  0.00    -0.387 OA
ATOM     14  H   UNL     1      52.224 -38.565  49.999  1.00  0.00     0.211 HD
ENDBRANCH   6  13
BRANCH   7  15
ATOM     15  O   UNL     1      55.336 -40.144  50.161  1.00  0.00    -0.385 OA
ATOM     16  H   UNL     1      55.727 -39.464  50.771  1.00  0.00     0.211 HD
ENDBRANCH   7  15
ENDBRANCH   1   2
BRANCH   1  17
ATOM     17  C   UNL     1      57.204 -40.839  46.989  1.00  0.00     0.224 C 
ATOM     18  C   UNL     1      57.511 -41.076  45.498  1.00  0.00     0.208 C 
ATOM     19  O   UNL     1      58.231 -40.009  47.515  1.00  0.00    -0.337 OA
ATOM     20  C   UNL     1      58.988 -40.803  45.371  1.00  0.00     0.180 C 
ATOM     21  C   UNL     1      59.269 -39.886  46.564  1.00  0.00     0.179 C 
BRANCH  17  22
ATOM     22  C   UNL     1      57.151 -42.152  47.810  1.00  0.00     0.225 C 
BRANCH  22  23
ATOM     23  O   UNL     1      55.869 -42.362  48.334  1.00  0.00    -0.391 OA
ATOM     24  H   UNL     1      55.996 -42.601  49.289  1.00  0.00     0.210 HD
ENDBRANCH  22  23
ENDBRANCH  17  22
BRANCH  18  25
ATOM     25  O   UNL     1      57.177 -42.366  45.051  1.00  0.00    -0.385 OA
ATOM     26  H   UNL     1      56.998 -42.288  44.077  1.00  0.00     0.211 HD
ENDBRANCH  18  25
BRANCH  20  27
ATOM     27  O   UNL     1      59.727 -41.993  45.482  1.00  0.00    -0.387 OA
ATOM     28  H   UNL     1      59.650 -42.286  46.427  1.00  0.00     0.211 HD
ENDBRANCH  20  27
BRANCH  21  29
ATOM     29  C   UNL     1      59.389 -38.412  46.150  1.00  0.00     0.191 C 
BRANCH  29  30
ATOM     30  O   UNL     1      58.671 -37.593  47.033  1.00  0.00    -0.394 OA
ATOM     31  H   UNL     1      58.692 -38.032  47.923  1.00  0.00     0.210 HD
ENDBRANCH  29  30
ENDBRANCH  21  29
ENDBRANCH   1  17
TORSDOF 13
ENDMDL
MODEL 5
REMARK VINA RESULT:    -4.583      2.260      5.527
REMARK INTER + INTRA:          -8.338
REMARK INTER:                  -6.868
REMARK INTRA:                  -1.469
REMARK UNBOUND:                -1.343
REMARK SMILES OC[C@@H]1O[C@H](O[C@]2(CO)O[C@H](CO)[C@@H](O)[C@H]2O)[C@@H](O)[C@H](O)[C@H]1O
REMARK SMILES IDX 6 1 5 2 3 3 22 4 4 5 20 6 18 7 2 8 1 9 23 11 21 13 19 15
REMARK SMILES IDX 7 17 16 18 10 19 14 20 11 21 8 22 9 23 17 25 15 27 12 29
REMARK SMILES IDX 13 30
REMARK H PARENT 1 10 23 12 21 14 19 16 9 24 17 26 15 28 13 31
REMARK Flexibility Score: inf
ROOT
ATOM      1  O   UNL     1      59.989 -39.364  47.983  1.00  0.00    -0.313 OA
ENDROOT
BRANCH   1   2
ATOM      2  C   UNL     1      59.208 -39.389  46.797  1.00  0.00     0.285 C 
ATOM      3  C   UNL     1      59.353 -41.668  46.069  1.00  0.00     0.178 C 
ATOM      4  C   UNL     1      57.807 -41.856  45.961  1.00  0.00     0.177 C 
ATOM      5  O   UNL     1      59.759 -40.319  45.867  1.00  0.00    -0.341 OA
ATOM      6  C   UNL     1      57.063 -40.518  46.069  1.00  0.00     0.179 C 
ATOM      7  C   UNL     1      57.725 -39.664  47.160  1.00  0.00     0.202 C 
BRANCH   3   8
ATOM      8  C   UNL     1      59.943 -42.265  47.362  1.00  0.00     0.191 C 
BRANCH   8   9
ATOM      9  O   UNL     1      61.305 -41.945  47.454  1.00  0.00    -0.394 OA
ATOM     10  H   UNL     1      61.679 -42.530  48.163  1.00  0.00     0.210 HD
ENDBRANCH   8   9
ENDBRANCH   3   8
BRANCH   4  11
ATOM     11  O   UNL     1      57.472 -42.459  44.737  1.00  0.00    -0.387 OA
ATOM     12  H   UNL     1      56.579 -42.878  44.858  1.00  0.00     0.211 HD
ENDBRANCH   4  11
BRANCH   6  13
ATOM     13  O   UNL     1      55.716 -40.759  46.389  1.00  0.00    -0.387 OA
ATOM     14  H   UNL     1      55.189 -40.012  46.003  1.00  0.00     0.211 HD
ENDBRANCH   6  13
BRANCH   7  15
ATOM     15  O   UNL     1      57.026 -38.460  47.366  1.00  0.00    -0.385 OA
ATOM     16  H   UNL     1      56.101 -38.689  47.645  1.00  0.00     0.211 HD
ENDBRANCH   7  15
ENDBRANCH   1   2
BRANCH   1  17
ATOM     17  C   UNL     1      61.016 -38.374  47.986  1.00  0.00     0.224 C 
ATOM     18  C   UNL     1      60.954 -37.660  49.350  1.00  0.00     0.208 C 
ATOM     19  O   UNL     1      62.307 -38.955  47.861  1.00  0.00    -0.337 OA
ATOM     20  C   UNL     1      62.396 -37.417  49.713  1.00  0.00     0.180 C 
ATOM     21  C   UNL     1      63.136 -38.489  48.908  1.00  0.00     0.179 C 
BRANCH  17  22
ATOM     22  C   UNL     1      60.781 -37.415  46.791  1.00  0.00     0.225 C 
BRANCH  22  23
ATOM     23  O   UNL     1      61.640 -36.311  46.860  1.00  0.00    -0.391 OA
ATOM     24  H   UNL     1      62.538 -36.642  46.598  1.00  0.00     0.210 HD
ENDBRANCH  22  23
ENDBRANCH  17  22
BRANCH  18  25
ATOM     25  O   UNL     1      60.212 -36.466  49.328  1.00  0.00    -0.385 OA
ATOM     26  H   UNL     1      60.603 -35.880  50.029  1.00  0.00     0.211 HD
ENDBRANCH  18  25
BRANCH  20  27
ATOM     27  O   UNL     1      62.803 -36.134  49.312  1.00  0.00    -0.387 OA
ATOM     28  H   UNL     1      62.366 -35.492  49.931  1.00  0.00     0.211 HD
ENDBRANCH  20  27
BRANCH  21  29
ATOM     29  C   UNL     1      63.555 -39.684  49.777  1.00  0.00     0.191 C 
BRANCH  29  30
ATOM     30  O   UNL     1      62.850 -40.837  49.401  1.00  0.00    -0.394 OA
ATOM     31  H   UNL     1      61.951 -40.779  49.817  1.00  0.00     0.210 HD
ENDBRANCH  29  30
ENDBRANCH  21  29
ENDBRANCH   1  17
TORSDOF 13
ENDMDL
MODEL 6
REMARK VINA RESULT:    -4.420      1.576      5.887
REMARK INTER + INTRA:          -8.089
REMARK INTER:                  -6.511
REMARK INTRA:                  -1.578
REMARK UNBOUND:                -1.343
REMARK SMILES OC[C@@H]1O[C@H](O[C@]2(CO)O[C@H](CO)[C@@H](O)[C@H]2O)[C@@H](O)[C@H](O)[C@H]1O
REMARK SMILES IDX 6 1 5 2 3 3 22 4 4 5 20 6 18 7 2 8 1 9 23 11 21 13 19 15
REMARK SMILES IDX 7 17 16 18 10 19 14 20 11 21 8 22 9 23 17 25 15 27 12 29
REMARK SMILES IDX 13 30
REMARK H PARENT 1 10 23 12 21 14 19 16 9 24 17 26 15 28 13 31
REMARK Flexibility Score: inf
ROOT
ATOM      1  O   UNL     1      56.520 -39.240  46.908  1.00  0.00    -0.313 OA
ENDROOT
BRANCH   1   2
ATOM      2  C   UNL     1      55.450 -39.300  47.839  1.00  0.00     0.285 C 
ATOM      3  C   UNL     1      55.747 -37.333  49.176  1.00  0.00     0.178 C 
ATOM      4  C   UNL     1      54.286 -36.826  48.967  1.00  0.00     0.177 C 
ATOM      5  O   UNL     1      55.856 -38.749  49.090  1.00  0.00    -0.341 OA
ATOM      6  C   UNL     1      53.398 -37.902  48.327  1.00  0.00     0.179 C 
ATOM      7  C   UNL     1      54.195 -38.621  47.230  1.00  0.00     0.202 C 
BRANCH   3   8
ATOM      8  C   UNL     1      56.769 -36.617  48.271  1.00  0.00     0.191 C 
BRANCH   8   9
ATOM      9  O   UNL     1      58.049 -37.141  48.492  1.00  0.00    -0.394 OA
ATOM     10  H   UNL     1      58.362 -36.753  49.350  1.00  0.00     0.210 HD
ENDBRANCH   8   9
ENDBRANCH   3   8
BRANCH   4  11
ATOM     11  O   UNL     1      53.719 -36.449  50.197  1.00  0.00    -0.387 OA
ATOM     12  H   UNL     1      54.305 -36.821  50.908  1.00  0.00     0.211 HD
ENDBRANCH   4  11
BRANCH   6  13
ATOM     13  O   UNL     1      52.254 -37.295  47.780  1.00  0.00    -0.387 OA
ATOM     14  H   UNL     1      51.470 -37.806  48.111  1.00  0.00     0.211 HD
ENDBRANCH   6  13
BRANCH   7  15
ATOM     15  O   UNL     1      53.399 -39.557  46.545  1.00  0.00    -0.385 OA
ATOM     16  H   UNL     1      54.005 -40.222  46.123  1.00  0.00     0.211 HD
ENDBRANCH   7  15
ENDBRANCH   1   2
BRANCH   1  17
ATOM     17  C   UNL     1      57.424 -40.341  46.984  1.00  0.00     0.224 C 
ATOM     18  C   UNL     1      57.944 -40.600  45.557  1.00  0.00     0.208 C 
ATOM     19  O   UNL     1      58.546 -40.045  47.805  1.00  0.00    -0.337 OA
ATOM     20  C   UNL     1      59.395 -40.961  45.745  1.00  0.00     0.180 C 
ATOM     21  C   UNL     1      59.736 -40.311  47.089  1.00  0.00     0.179 C 
BRANCH  17  22
ATOM     22  C   UNL     1      56.673 -41.556  47.583  1.00  0.00     0.225 C 
BRANCH  22  23
ATOM     23  O   UNL     1      57.532 -42.652  47.733  1.00  0.00    -0.391 OA
ATOM     24  H   UNL     1      58.424 -42.350  47.416  1.00  0.00     0.210 HD
ENDBRANCH  22  23
ENDBRANCH  17  22
BRANCH  18  25
ATOM     25  O   UNL     1      57.239 -41.608  44.875  1.00  0.00    -0.385 OA
ATOM     26  H   UNL     1      56.531 -41.924  45.495  1.00  0.00     0.211 HD
ENDBRANCH  18  25
BRANCH  20  27
ATOM     27  O   UNL     1      59.558 -42.354  45.817  1.00  0.00    -0.387 OA
ATOM     28  H   UNL     1      59.637 -42.579  46.781  1.00  0.00     0.211 HD
ENDBRANCH  20  27
BRANCH  21  29
ATOM     29  C   UNL     1      60.518 -39.000  46.921  1.00  0.00     0.191 C 
BRANCH  29  30
ATOM     30  O   UNL     1      60.591 -38.311  48.141  1.00  0.00    -0.394 OA
ATOM     31  H   UNL     1      60.215 -37.405  47.989  1.00  0.00     0.210 HD
ENDBRANCH  29  30
ENDBRANCH  21  29
ENDBRANCH   1  17
TORSDOF 13
ENDMDL
MODEL 7
REMARK VINA RESULT:    -4.414      1.840      3.944
REMARK INTER + INTRA:          -8.080
REMARK INTER:                  -6.884
REMARK INTRA:                  -1.197
REMARK UNBOUND:                -1.343
REMARK SMILES OC[C@@H]1O[C@H](O[C@]2(CO)O[C@H](CO)[C@@H](O)[C@H]2O)[C@@H](O)[C@H](O)[C@H]1O
REMARK SMILES IDX 6 1 5 2 3 3 22 4 4 5 20 6 18 7 2 8 1 9 23 11 21 13 19 15
REMARK SMILES IDX 7 17 16 18 10 19 14 20 11 21 8 22 9 23 17 25 15 27 12 29
REMARK SMILES IDX 13 30
REMARK H PARENT 1 10 23 12 21 14 19 16 9 24 17 26 15 28 13 31
REMARK Flexibility Score: inf
ROOT
ATOM      1  O   UNL     1      55.896 -39.053  48.322  1.00  0.00    -0.313 OA
ENDROOT
BRANCH   1   2
ATOM      2  C   UNL     1      56.232 -40.037  47.355  1.00  0.00     0.285 C 
ATOM      3  C   UNL     1      58.377 -39.335  46.548  1.00  0.00     0.178 C 
ATOM      4  C   UNL     1      59.058 -40.716  46.805  1.00  0.00     0.177 C 
ATOM      5  O   UNL     1      56.981 -39.448  46.294  1.00  0.00    -0.341 OA
ATOM      6  C   UNL     1      58.027 -41.807  47.125  1.00  0.00     0.179 C 
ATOM      7  C   UNL     1      56.951 -41.222  48.051  1.00  0.00     0.202 C 
BRANCH   3   8
ATOM      8  C   UNL     1      58.685 -38.298  47.646  1.00  0.00     0.191 C 
BRANCH   8   9
ATOM      9  O   UNL     1      57.997 -37.106  47.381  1.00  0.00    -0.394 OA
ATOM     10  H   UNL     1      57.568 -37.227  46.494  1.00  0.00     0.210 HD
ENDBRANCH   8   9
ENDBRANCH   3   8
BRANCH   4  11
ATOM     11  O   UNL     1      59.797 -41.112  45.678  1.00  0.00    -0.387 OA
ATOM     12  H   UNL     1      59.257 -40.869  44.880  1.00  0.00     0.211 HD
ENDBRANCH   4  11
BRANCH   6  13
ATOM     13  O   UNL     1      58.673 -42.888  47.748  1.00  0.00    -0.387 OA
ATOM     14  H   UNL     1      58.752 -42.661  48.711  1.00  0.00     0.211 HD
ENDBRANCH   6  13
BRANCH   7  15
ATOM     15  O   UNL     1      56.028 -42.206  48.452  1.00  0.00    -0.385 OA
ATOM     16  H   UNL     1      55.799 -42.752  47.655  1.00  0.00     0.211 HD
ENDBRANCH   7  15
ENDBRANCH   1   2
BRANCH   1  17
ATOM     17  C   UNL     1      54.502 -38.763  48.402  1.00  0.00     0.224 C 
ATOM     18  C   UNL     1      54.337 -37.253  48.146  1.00  0.00     0.208 C 
ATOM     19  O   UNL     1      53.763 -39.454  47.404  1.00  0.00    -0.337 OA
ATOM     20  C   UNL     1      53.077 -37.146  47.327  1.00  0.00     0.180 C 
ATOM     21  C   UNL     1      52.970 -38.532  46.683  1.00  0.00     0.179 C 
BRANCH  17  22
ATOM     22  C   UNL     1      53.987 -39.198  49.797  1.00  0.00     0.225 C 
BRANCH  22  23
ATOM     23  O   UNL     1      54.961 -39.936  50.482  1.00  0.00    -0.391 OA
ATOM     24  H   UNL     1      55.772 -39.363  50.513  1.00  0.00     0.210 HD
ENDBRANCH  22  23
ENDBRANCH  17  22
BRANCH  18  25
ATOM     25  O   UNL     1      54.263 -36.486  49.322  1.00  0.00    -0.385 OA
ATOM     26  H   UNL     1      55.103 -36.659  49.823  1.00  0.00     0.211 HD
ENDBRANCH  18  25
BRANCH  20  27
ATOM     27  O   UNL     1      51.965 -36.900  48.149  1.00  0.00    -0.387 OA
ATOM     28  H   UNL     1      51.306 -36.409  47.593  1.00  0.00     0.211 HD
ENDBRANCH  20  27
BRANCH  21  29
ATOM     29  C   UNL     1      53.424 -38.529  45.216  1.00  0.00     0.191 C 
BRANCH  29  30
ATOM     30  O   UNL     1      52.397 -38.999  44.383  1.00  0.00    -0.394 OA
ATOM     31  H   UNL     1      51.554 -38.573  44.688  1.00  0.00     0.210 HD
ENDBRANCH  29  30
ENDBRANCH  21  29
ENDBRANCH   1  17
TORSDOF 13
ENDMDL
MODEL 8
REMARK VINA RESULT:    -4.345      1.801      5.626
REMARK INTER + INTRA:          -7.974
REMARK INTER:                  -6.884
REMARK INTRA:                  -1.091
REMARK UNBOUND:                -1.343
REMARK SMILES OC[C@@H]1O[C@H](O[C@]2(CO)O[C@H](CO)[C@@H](O)[C@H]2O)[C@@H](O)[C@H](O)[C@H]1O
REMARK SMILES IDX 6 1 5 2 3 3 22 4 4 5 20 6 18 7 2 8 1 9 23 11 21 13 19 15
REMARK SMILES IDX 7 17 16 18 10 19 14 20 11 21 8 22 9 23 17 25 15 27 12 29
REMARK SMILES IDX 13 30
REMARK H PARENT 1 10 23 12 21 14 19 16 9 24 17 26 15 28 13 31
REMARK Flexibility Score: inf
ROOT
ATOM      1  O   UNL     1      58.600 -39.720  47.651  1.00  0.00    -0.313 OA
ENDROOT
BRANCH   1   2
ATOM      2  C   UNL     1      57.513 -39.101  46.978  1.00  0.00     0.285 C 
ATOM      3  C   UNL     1      55.724 -40.678  47.215  1.00  0.00     0.178 C 
ATOM      4  C   UNL     1      54.723 -39.634  47.802  1.00  0.00     0.177 C 
ATOM      5  O   UNL     1      56.694 -40.088  46.357  1.00  0.00    -0.341 OA
ATOM      6  C   UNL     1      55.247 -38.199  47.654  1.00  0.00     0.179 C 
ATOM      7  C   UNL     1      56.750 -38.181  47.967  1.00  0.00     0.202 C 
BRANCH   3   8
ATOM      8  C   UNL     1      56.369 -41.567  48.296  1.00  0.00     0.191 C 
BRANCH   8   9
ATOM      9  O   UNL     1      57.234 -42.492  47.696  1.00  0.00    -0.394 OA
ATOM     10  H   UNL     1      57.843 -42.807  48.413  1.00  0.00     0.210 HD
ENDBRANCH   8   9
ENDBRANCH   3   8
BRANCH   4  11
ATOM     11  O   UNL     1      53.481 -39.728  47.151  1.00  0.00    -0.387 OA
ATOM     12  H   UNL     1      53.513 -39.101  46.381  1.00  0.00     0.211 HD
ENDBRANCH   4  11
BRANCH   6  13
ATOM     13  O   UNL     1      54.553 -37.357  48.540  1.00  0.00    -0.387 OA
ATOM     14  H   UNL     1      54.026 -36.726  47.985  1.00  0.00     0.211 HD
ENDBRANCH   6  13
BRANCH   7  15
ATOM     15  O   UNL     1      57.266 -36.872  47.937  1.00  0.00    -0.385 OA
ATOM     16  H   UNL     1      56.506 -36.248  47.796  1.00  0.00     0.211 HD
ENDBRANCH   7  15
ENDBRANCH   1   2
BRANCH   1  17
ATOM     17  C   UNL     1      59.883 -39.362  47.143  1.00  0.00     0.224 C 
ATOM     18  C   UNL     1      60.531 -38.417  48.173  1.00  0.00     0.208 C 
ATOM     19  O   UNL     1      60.730 -40.495  47.004  1.00  0.00    -0.337 OA
ATOM     20  C   UNL     1      61.986 -38.810  48.181  1.00  0.00     0.180 C 
ATOM     21  C   UNL     1      61.952 -40.255  47.673  1.00  0.00     0.179 C 
BRANCH  17  22
ATOM     22  C   UNL     1      59.697 -38.702  45.753  1.00  0.00     0.225 C 
BRANCH  22  23
ATOM     23  O   UNL     1      59.708 -39.666  44.736  1.00  0.00    -0.391 OA
ATOM     24  H   UNL     1      58.836 -39.587  44.270  1.00  0.00     0.210 HD
ENDBRANCH  22  23
ENDBRANCH  17  22
BRANCH  18  25
ATOM     25  O   UNL     1      60.360 -37.054  47.875  1.00  0.00    -0.385 OA
ATOM     26  H   UNL     1      60.082 -37.008  46.922  1.00  0.00     0.211 HD
ENDBRANCH  18  25
BRANCH  20  27
ATOM     27  O   UNL     1      62.727 -38.000  47.305  1.00  0.00    -0.387 OA
ATOM     28  H   UNL     1      63.532 -38.523  47.049  1.00  0.00     0.211 HD
ENDBRANCH  20  27
BRANCH  21  29
ATOM     29  C   UNL     1      62.104 -41.276  48.809  1.00  0.00     0.191 C 
BRANCH  29  30
ATOM     30  O   UNL     1      61.701 -42.550  48.383  1.00  0.00    -0.394 OA
ATOM     31  H   UNL     1      61.385 -42.460  47.446  1.00  0.00     0.210 HD
ENDBRANCH  29  30
ENDBRANCH  21  29
ENDBRANCH   1  17
TORSDOF 13
ENDMDL
MODEL 9
REMARK VINA RESULT:    -4.296      2.067      4.573
REMARK INTER + INTRA:          -7.900
REMARK INTER:                  -6.633
REMARK INTRA:                  -1.267
REMARK UNBOUND:                -1.343
REMARK SMILES OC[C@@H]1O[C@H](O[C@]2(CO)O[C@H](CO)[C@@H](O)[C@H]2O)[C@@H](O)[C@H](O)[C@H]1O
REMARK SMILES IDX 6 1 5 2 3 3 22 4 4 5 20 6 18 7 2 8 1 9 23 11 21 13 19 15
REMARK SMILES IDX 7 17 16 18 10 19 14 20 11 21 8 22 9 23 17 25 15 27 12 29
REMARK SMILES IDX 13 30
REMARK H PARENT 1 10 23 12 21 14 19 16 9 24 17 26 15 28 13 31
REMARK Flexibility Score: inf
ROOT
ATOM      1  O   UNL     1      59.365 -39.326  47.504  1.00  0.00    -0.313 OA
ENDROOT
BRANCH   1   2
ATOM      2  C   UNL     1      60.753 -39.135  47.273  1.00  0.00     0.285 C 
ATOM      3  C   UNL     1      61.235 -37.067  48.387  1.00  0.00     0.178 C 
ATOM      4  C   UNL     1      62.419 -37.654  49.218  1.00  0.00     0.177 C 
ATOM      5  O   UNL     1      61.043 -37.744  47.149  1.00  0.00    -0.341 OA
ATOM      6  C   UNL     1      62.829 -39.046  48.718  1.00  0.00     0.179 C 
ATOM      7  C   UNL     1      61.565 -39.850  48.385  1.00  0.00     0.202 C 
BRANCH   3   8
ATOM      8  C   UNL     1      59.928 -36.955  49.196  1.00  0.00     0.191 C 
BRANCH   8   9
ATOM      9  O   UNL     1      58.900 -36.475  48.373  1.00  0.00    -0.394 OA
ATOM     10  H   UNL     1      58.062 -36.565  48.897  1.00  0.00     0.210 HD
ENDBRANCH   8   9
ENDBRANCH   3   8
BRANCH   4  11
ATOM     11  O   UNL     1      63.535 -36.803  49.146  1.00  0.00    -0.387 OA
ATOM     12  H   UNL     1      64.331 -37.385  49.025  1.00  0.00     0.211 HD
ENDBRANCH   4  11
BRANCH   6  13
ATOM     13  O   UNL     1      63.574 -39.697  49.716  1.00  0.00    -0.387 OA
ATOM     14  H   UNL     1      64.096 -38.998  50.189  1.00  0.00     0.211 HD
ENDBRANCH   6  13
BRANCH   7  15
ATOM     15  O   UNL     1      61.879 -41.169  48.008  1.00  0.00    -0.385 OA
ATOM     16  H   UNL     1      62.533 -41.527  48.665  1.00  0.00     0.211 HD
ENDBRANCH   7  15
ENDBRANCH   1   2
BRANCH   1  17
ATOM     17  C   UNL     1      58.720 -40.150  46.535  1.00  0.00     0.224 C 
ATOM     18  C   UNL     1      58.367 -41.478  47.233  1.00  0.00     0.208 C 
ATOM     19  O   UNL     1      57.507 -39.570  46.073  1.00  0.00    -0.337 OA
ATOM     20  C   UNL     1      57.020 -41.852  46.671  1.00  0.00     0.180 C 
ATOM     21  C   UNL     1      56.455 -40.504  46.213  1.00  0.00     0.179 C 
BRANCH  17  22
ATOM     22  C   UNL     1      59.676 -40.338  45.331  1.00  0.00     0.225 C 
BRANCH  22  23
ATOM     23  O   UNL     1      59.338 -41.482  44.596  1.00  0.00    -0.391 OA
ATOM     24  H   UNL     1      58.977 -41.158  43.730  1.00  0.00     0.210 HD
ENDBRANCH  22  23
ENDBRANCH  17  22
BRANCH  18  25
ATOM     25  O   UNL     1      59.318 -42.493  47.030  1.00  0.00    -0.385 OA
ATOM     26  H   UNL     1      59.185 -42.820  46.101  1.00  0.00     0.211 HD
ENDBRANCH  18  25
BRANCH  20  27
ATOM     27  O   UNL     1      57.159 -42.723  45.577  1.00  0.00    -0.387 OA
ATOM     28  H   UNL     1      57.752 -43.461  45.877  1.00  0.00     0.211 HD
ENDBRANCH  20  27
BRANCH  21  29
ATOM     29  C   UNL     1      55.420 -39.942  47.197  1.00  0.00     0.191 C 
BRANCH  29  30
ATOM     30  O   UNL     1      54.175 -39.792  46.568  1.00  0.00    -0.394 OA
ATOM     31  H   UNL     1      53.786 -40.700  46.466  1.00  0.00     0.210 HD
ENDBRANCH  29  30
ENDBRANCH  21  29
ENDBRANCH   1  17
TORSDOF 13
ENDMDL
