MODEL 1
REMARK VINA RESULT:     9.666      0.000      0.000
REMARK INTER + INTRA:          15.957
REMARK INTER:                  14.186
REMARK INTRA:                   1.771
REMARK UNBOUND:                 1.771
REMARK SMILES O=c1c(O[C@@H]2O[C@@H](CO)[C@H](O)[C@H](O)[C@@H]2O)c(-c2ccc(O)c(O)c2)oc2cc(O)cc(O)c12
REMARK SMILES IDX 4 1 3 2 16 3 25 4 2 5 26 6 1 7 33 8 27 9 31 10 28 11 30 12
REMARK SMILES IDX 17 13 18 14 19 15 20 16 24 17 22 18 21 19 23 21 32 23 29 25
REMARK SMILES IDX 5 27 14 28 6 29 12 30 7 31 10 32 15 33 13 35 8 37 9 38 11 40
REMARK H PARENT 21 20 23 22 32 24 29 26 15 34 13 36 9 39 11 41
REMARK Flexibility Score: inf
ROOT
ATOM      1  O   UNL     1     -32.577 -20.690 -32.137  1.00  0.00    -0.454 OA
ENDROOT
BRANCH   1   2
ATOM      2  C   UNL     1     -32.374 -21.424 -33.325  1.00  0.00     0.214 A 
ATOM      3  C   UNL     1     -31.812 -22.713 -33.219  1.00  0.00     0.180 A 
ATOM      4  O   UNL     1     -31.671 -23.476 -34.297  1.00  0.00    -0.452 OA
ATOM      5  C   UNL     1     -32.730 -20.958 -34.612  1.00  0.00     0.239 A 
ATOM      6  C   UNL     1     -32.012 -23.085 -35.517  1.00  0.00     0.146 A 
ATOM      7  O   UNL     1     -33.201 -19.799 -34.764  1.00  0.00    -0.285 OA
ATOM      8  C   UNL     1     -32.552 -21.797 -35.733  1.00  0.00     0.111 A 
ATOM      9  C   UNL     1     -31.823 -23.962 -36.589  1.00  0.00     0.094 A 
ATOM     10  C   UNL     1     -32.896 -21.410 -37.053  1.00  0.00     0.134 A 
ATOM     11  C   UNL     1     -32.166 -23.575 -37.887  1.00  0.00     0.123 A 
ATOM     12  C   UNL     1     -32.699 -22.305 -38.116  1.00  0.00     0.093 A 
BRANCH   3  13
ATOM     13  C   UNL     1     -31.381 -23.266 -31.920  1.00  0.00     0.025 A 
ATOM     14  C   UNL     1     -31.713 -24.577 -31.546  1.00  0.00     0.016 A 
ATOM     15  C   UNL     1     -31.312 -25.081 -30.307  1.00  0.00     0.051 A 
ATOM     16  C   UNL     1     -30.586 -24.275 -29.418  1.00  0.00     0.157 A 
ATOM     17  C   UNL     1     -30.675 -22.454 -31.019  1.00  0.00     0.062 A 
ATOM     18  C   UNL     1     -30.269 -22.954 -29.777  1.00  0.00     0.158 A 
BRANCH  16  19
ATOM     19  O   UNL     1     -30.183 -24.781 -28.183  1.00  0.00    -0.504 OA
ATOM     20  H   UNL     1     -30.560 -25.647 -27.816  1.00  0.00     0.293 HD
ENDBRANCH  16  19
BRANCH  18  21
ATOM     21  O   UNL     1     -29.554 -22.124 -28.913  1.00  0.00    -0.504 OA
ATOM     22  H   UNL     1     -29.852 -21.178 -28.707  1.00  0.00     0.293 HD
ENDBRANCH  18  21
ENDBRANCH   3  13
BRANCH  10  23
ATOM     23  O   UNL     1     -33.433 -20.149 -37.317  1.00  0.00    -0.507 OA
ATOM     24  H   UNL     1     -33.024 -19.530 -38.007  1.00  0.00     0.293 HD
ENDBRANCH  10  23
BRANCH  11  25
ATOM     25  O   UNL     1     -31.980 -24.444 -38.960  1.00  0.00    -0.508 OA
ATOM     26  H   UNL     1     -32.661 -24.518 -39.707  1.00  0.00     0.293 HD
ENDBRANCH  11  25
ENDBRANCH   1   2
BRANCH   1  27
ATOM     27  C   UNL     1     -32.387 -19.283 -31.947  1.00  0.00     0.339 C 
ATOM     28  C   UNL     1     -32.637 -18.876 -30.477  1.00  0.00     0.214 C 
ATOM     29  O   UNL     1     -31.095 -18.876 -32.369  1.00  0.00    -0.332 OA
ATOM     30  C   UNL     1     -31.538 -19.414 -29.542  1.00  0.00     0.180 C 
ATOM     31  C   UNL     1     -30.073 -19.498 -31.604  1.00  0.00     0.179 C 
ATOM     32  C   UNL     1     -30.153 -19.063 -30.121  1.00  0.00     0.177 C 
BRANCH  28  33
ATOM     33  O   UNL     1     -33.920 -19.254 -30.039  1.00  0.00    -0.384 OA
ATOM     34  H   UNL     1     -34.406 -18.437 -29.756  1.00  0.00     0.211 HD
ENDBRANCH  28  33
BRANCH  30  35
ATOM     35  O   UNL     1     -31.667 -20.806 -29.391  1.00  0.00    -0.387 OA
ATOM     36  H   UNL     1     -32.148 -20.962 -28.536  1.00  0.00     0.211 HD
ENDBRANCH  30  35
BRANCH  31  37
ATOM     37  C   UNL     1     -28.717 -19.135 -32.222  1.00  0.00     0.191 C 
BRANCH  37  38
ATOM     38  O   UNL     1     -28.525 -19.829 -33.424  1.00  0.00    -0.394 OA
ATOM     39  H   UNL     1     -29.139 -19.413 -34.083  1.00  0.00     0.210 HD
ENDBRANCH  37  38
ENDBRANCH  31  37
BRANCH  32  40
ATOM     40  O   UNL     1     -29.143 -19.695 -29.378  1.00  0.00    -0.387 OA
ATOM     41  H   UNL     1     -28.654 -20.287 -30.008  1.00  0.00     0.211 HD
ENDBRANCH  32  40
ENDBRANCH   1  27
TORSDOF 12
ENDMDL
