MODEL 1
REMARK VINA RESULT:    -3.784      0.000      0.000
REMARK INTER + INTRA:          -7.109
REMARK INTER:                  -6.880
REMARK INTRA:                  -0.229
REMARK UNBOUND:                -0.229
REMARK SMILES CCCCCCCCCCCCCCCC(=O)[O-]
REMARK SMILES IDX 9 1 10 2 11 3 12 4 13 5 14 6 15 7 16 8 17 9 18 10 8 11 7 12
REMARK SMILES IDX 6 13 5 14 4 15 3 16 2 17 1 18
REMARK H PARENT
REMARK Flexibility Score: inf
ROOT
ATOM      1  C   UNL     1       1.528 -37.735  19.742  1.00  0.00     0.000 C 
ENDROOT
BRANCH   1   2
ATOM      2  C   UNL     1       3.051 -37.535  19.814  1.00  0.00     0.000 C 
BRANCH   2   3
ATOM      3  C   UNL     1       3.505 -36.151  20.317  1.00  0.00     0.000 C 
BRANCH   3   4
ATOM      4  C   UNL     1       4.735 -35.591  19.573  1.00  0.00     0.000 C 
BRANCH   4   5
ATOM      5  C   UNL     1       6.051 -35.918  20.300  1.00  0.00     0.000 C 
BRANCH   5   6
ATOM      6  C   UNL     1       6.125 -35.286  21.699  1.00  0.00     0.006 C 
BRANCH   6   7
ATOM      7  C   UNL     1       5.970 -36.324  22.818  1.00  0.00     0.053 C 
BRANCH   7   8
ATOM      8  C   UNL     1       6.052 -35.663  24.157  1.00  0.00     0.041 C 
ATOM      9  O   UNL     1       6.011 -36.355  25.209  1.00  0.00    -0.550 OA
ATOM     10  O   UNL     1       6.125 -34.279  24.248  1.00  0.00    -0.550 OA
ENDBRANCH   7   8
ENDBRANCH   6   7
ENDBRANCH   5   6
ENDBRANCH   4   5
ENDBRANCH   3   4
ENDBRANCH   2   3
ENDBRANCH   1   2
BRANCH   1  11
ATOM     11  C   UNL     1       1.029 -38.006  18.312  1.00  0.00     0.000 C 
BRANCH  11  12
ATOM     12  C   UNL     1       2.044 -37.577  17.238  1.00  0.00    -0.000 C 
BRANCH  12  13
ATOM     13  C   UNL     1       1.690 -36.280  16.481  1.00  0.00    -0.000 C 
BRANCH  13  14
ATOM     14  C   UNL     1       1.671 -36.406  14.948  1.00  0.00    -0.000 C 
BRANCH  14  15
ATOM     15  C   UNL     1       3.059 -36.707  14.359  1.00  0.00    -0.000 C 
BRANCH  15  16
ATOM     16  C   UNL     1       3.622 -38.056  14.832  1.00  0.00    -0.000 C 
BRANCH  16  17
ATOM     17  C   UNL     1       4.717 -38.597  13.902  1.00  0.00    -0.003 C 
ATOM     18  C   UNL     1       4.858 -40.110  14.040  1.00  0.00     0.004 C 
ENDBRANCH  16  17
ENDBRANCH  15  16
ENDBRANCH  14  15
ENDBRANCH  13  14
ENDBRANCH  12  13
ENDBRANCH  11  12
ENDBRANCH   1  11
TORSDOF 14
ENDMDL
MODEL 2
REMARK VINA RESULT:    -3.393      1.321      2.294
REMARK INTER + INTRA:          -6.399
REMARK INTER:                  -5.722
REMARK INTRA:                  -0.677
REMARK UNBOUND:                -0.229
REMARK SMILES CCCCCCCCCCCCCCCC(=O)[O-]
REMARK SMILES IDX 9 1 10 2 11 3 12 4 13 5 14 6 15 7 16 8 17 9 18 10 8 11 7 12
REMARK SMILES IDX 6 13 5 14 4 15 3 16 2 17 1 18
REMARK H PARENT
REMARK Flexibility Score: inf
ROOT
ATOM      1  C   UNL     1       3.820 -37.493  19.877  1.00  0.00     0.000 C 
ENDROOT
BRANCH   1   2
ATOM      2  C   UNL     1       4.083 -36.067  20.391  1.00  0.00     0.000 C 
BRANCH   2   3
ATOM      3  C   UNL     1       5.567 -35.655  20.442  1.00  0.00     0.000 C 
BRANCH   3   4
ATOM      4  C   UNL     1       6.125 -35.516  21.874  1.00  0.00     0.000 C 
BRANCH   4   5
ATOM      5  C   UNL     1       5.046 -35.067  22.875  1.00  0.00     0.000 C 
BRANCH   5   6
ATOM      6  C   UNL     1       5.347 -35.527  24.311  1.00  0.00     0.006 C 
BRANCH   6   7
ATOM      7  C   UNL     1       6.057 -36.886  24.352  1.00  0.00     0.053 C 
BRANCH   7   8
ATOM      8  C   UNL     1       5.246 -37.874  25.129  1.00  0.00     0.041 C 
ATOM      9  O   UNL     1       4.581 -37.499  26.130  1.00  0.00    -0.550 OA
ATOM     10  O   UNL     1       5.262 -39.218  24.779  1.00  0.00    -0.550 OA
ENDBRANCH   7   8
ENDBRANCH   6   7
ENDBRANCH   5   6
ENDBRANCH   4   5
ENDBRANCH   3   4
ENDBRANCH   2   3
ENDBRANCH   1   2
BRANCH   1  11
ATOM     11  C   UNL     1       2.321 -37.824  19.782  1.00  0.00     0.000 C 
BRANCH  11  12
ATOM     12  C   UNL     1       1.802 -37.823  18.333  1.00  0.00    -0.000 C 
BRANCH  12  13
ATOM     13  C   UNL     1       2.854 -37.469  17.261  1.00  0.00    -0.000 C 
BRANCH  13  14
ATOM     14  C   UNL     1       2.492 -36.273  16.364  1.00  0.00    -0.000 C 
BRANCH  14  15
ATOM     15  C   UNL     1       1.913 -36.702  15.005  1.00  0.00    -0.000 C 
BRANCH  15  16
ATOM     16  C   UNL     1       2.982 -36.775  13.904  1.00  0.00    -0.000 C 
BRANCH  16  17
ATOM     17  C   UNL     1       4.286 -37.423  14.390  1.00  0.00    -0.003 C 
ATOM     18  C   UNL     1       4.263 -38.933  14.176  1.00  0.00     0.004 C 
ENDBRANCH  16  17
ENDBRANCH  15  16
ENDBRANCH  14  15
ENDBRANCH  13  14
ENDBRANCH  12  13
ENDBRANCH  11  12
ENDBRANCH   1  11
TORSDOF 14
ENDMDL
MODEL 3
REMARK VINA RESULT:    -3.387      3.905      8.472
REMARK INTER + INTRA:          -6.389
REMARK INTER:                  -5.594
REMARK INTRA:                  -0.795
REMARK UNBOUND:                -0.229
REMARK SMILES CCCCCCCCCCCCCCCC(=O)[O-]
REMARK SMILES IDX 9 1 10 2 11 3 12 4 13 5 14 6 15 7 16 8 17 9 18 10 8 11 7 12
REMARK SMILES IDX 6 13 5 14 4 15 3 16 2 17 1 18
REMARK H PARENT
REMARK Flexibility Score: inf
ROOT
ATOM      1  C   UNL     1       4.889 -37.732  19.891  1.00  0.00     0.000 C 
ENDROOT
BRANCH   1   2
ATOM      2  C   UNL     1       4.480 -36.494  19.074  1.00  0.00     0.000 C 
BRANCH   2   3
ATOM      3  C   UNL     1       3.810 -36.798  17.720  1.00  0.00     0.000 C 
BRANCH   3   4
ATOM      4  C   UNL     1       2.363 -37.321  17.846  1.00  0.00     0.000 C 
BRANCH   4   5
ATOM      5  C   UNL     1       1.538 -37.053  16.575  1.00  0.00     0.000 C 
BRANCH   5   6
ATOM      6  C   UNL     1       2.310 -36.229  15.533  1.00  0.00     0.006 C 
BRANCH   6   7
ATOM      7  C   UNL     1       2.541 -37.005  14.229  1.00  0.00     0.053 C 
BRANCH   7   8
ATOM      8  C   UNL     1       3.850 -37.725  14.277  1.00  0.00     0.041 C 
ATOM      9  O   UNL     1       4.900 -37.158  13.875  1.00  0.00    -0.550 OA
ATOM     10  O   UNL     1       3.906 -39.041  14.720  1.00  0.00    -0.550 OA
ENDBRANCH   7   8
ENDBRANCH   6   7
ENDBRANCH   5   6
ENDBRANCH   4   5
ENDBRANCH   3   4
ENDBRANCH   2   3
ENDBRANCH   1   2
BRANCH   1  11
ATOM     11  C   UNL     1       5.597 -37.369  21.208  1.00  0.00     0.000 C 
BRANCH  11  12
ATOM     12  C   UNL     1       5.840 -35.856  21.354  1.00  0.00    -0.000 C 
BRANCH  12  13
ATOM     13  C   UNL     1       5.013 -35.163  22.457  1.00  0.00    -0.000 C 
BRANCH  13  14
ATOM     14  C   UNL     1       5.821 -34.263  23.408  1.00  0.00    -0.000 C 
BRANCH  14  15
ATOM     15  C   UNL     1       6.121 -34.941  24.756  1.00  0.00    -0.000 C 
BRANCH  15  16
ATOM     16  C   UNL     1       5.943 -36.466  24.703  1.00  0.00    -0.000 C 
BRANCH  16  17
ATOM     17  C   UNL     1       5.588 -37.066  26.071  1.00  0.00    -0.003 C 
ATOM     18  C   UNL     1       4.576 -38.199  25.929  1.00  0.00     0.004 C 
ENDBRANCH  16  17
ENDBRANCH  15  16
ENDBRANCH  14  15
ENDBRANCH  13  14
ENDBRANCH  12  13
ENDBRANCH  11  12
ENDBRANCH   1  11
TORSDOF 14
ENDMDL
MODEL 4
REMARK VINA RESULT:    -3.115      2.909      4.781
REMARK INTER + INTRA:          -5.892
REMARK INTER:                  -5.016
REMARK INTRA:                  -0.876
REMARK UNBOUND:                -0.229
REMARK SMILES CCCCCCCCCCCCCCCC(=O)[O-]
REMARK SMILES IDX 9 1 10 2 11 3 12 4 13 5 14 6 15 7 16 8 17 9 18 10 8 11 7 12
REMARK SMILES IDX 6 13 5 14 4 15 3 16 2 17 1 18
REMARK H PARENT
REMARK Flexibility Score: inf
ROOT
ATOM      1  C   UNL     1       4.804 -35.461  21.879  1.00  0.00     0.000 C 
ENDROOT
BRANCH   1   2
ATOM      2  C   UNL     1       5.432 -35.196  23.259  1.00  0.00     0.000 C 
BRANCH   2   3
ATOM      3  C   UNL     1       6.040 -36.433  23.948  1.00  0.00     0.000 C 
BRANCH   3   4
ATOM      4  C   UNL     1       5.419 -36.746  25.325  1.00  0.00     0.000 C 
BRANCH   4   5
ATOM      5  C   UNL     1       4.998 -38.221  25.450  1.00  0.00     0.000 C 
BRANCH   5   6
ATOM      6  C   UNL     1       5.184 -39.000  24.138  1.00  0.00     0.006 C 
BRANCH   6   7
ATOM      7  C   UNL     1       5.344 -40.508  24.372  1.00  0.00     0.053 C 
BRANCH   7   8
ATOM      8  C   UNL     1       5.616 -41.209  23.079  1.00  0.00     0.041 C 
ATOM      9  O   UNL     1       5.549 -40.579  21.991  1.00  0.00    -0.550 OA
ATOM     10  O   UNL     1       5.898 -42.570  23.070  1.00  0.00    -0.550 OA
ENDBRANCH   7   8
ENDBRANCH   6   7
ENDBRANCH   5   6
ENDBRANCH   4   5
ENDBRANCH   3   4
ENDBRANCH   2   3
ENDBRANCH   1   2
BRANCH   1  11
ATOM     11  C   UNL     1       5.855 -35.714  20.785  1.00  0.00     0.000 C 
BRANCH  11  12
ATOM     12  C   UNL     1       5.320 -36.590  19.638  1.00  0.00    -0.000 C 
BRANCH  12  13
ATOM     13  C   UNL     1       3.864 -37.070  19.804  1.00  0.00    -0.000 C 
BRANCH  13  14
ATOM     14  C   UNL     1       3.144 -37.429  18.493  1.00  0.00    -0.000 C 
BRANCH  14  15
ATOM     15  C   UNL     1       3.513 -36.487  17.334  1.00  0.00    -0.000 C 
BRANCH  15  16
ATOM     16  C   UNL     1       2.747 -36.812  16.042  1.00  0.00    -0.000 C 
BRANCH  16  17
ATOM     17  C   UNL     1       3.362 -37.989  15.273  1.00  0.00    -0.003 C 
ATOM     18  C   UNL     1       3.946 -37.531  13.940  1.00  0.00     0.004 C 
ENDBRANCH  16  17
ENDBRANCH  15  16
ENDBRANCH  14  15
ENDBRANCH  13  14
ENDBRANCH  12  13
ENDBRANCH  11  12
ENDBRANCH   1  11
TORSDOF 14
ENDMDL
MODEL 5
REMARK VINA RESULT:    -2.790      4.450      8.179
REMARK INTER + INTRA:          -5.302
REMARK INTER:                  -4.403
REMARK INTRA:                  -0.899
REMARK UNBOUND:                -0.229
REMARK SMILES CCCCCCCCCCCCCCCC(=O)[O-]
REMARK SMILES IDX 9 1 10 2 11 3 12 4 13 5 14 6 15 7 16 8 17 9 18 10 8 11 7 12
REMARK SMILES IDX 6 13 5 14 4 15 3 16 2 17 1 18
REMARK H PARENT
REMARK Flexibility Score: inf
ROOT
ATOM      1  C   UNL     1       5.320 -35.342  22.078  1.00  0.00     0.000 C 
ENDROOT
BRANCH   1   2
ATOM      2  C   UNL     1       5.312 -36.805  21.601  1.00  0.00     0.000 C 
BRANCH   2   3
ATOM      3  C   UNL     1       4.939 -37.006  20.119  1.00  0.00     0.000 C 
BRANCH   3   4
ATOM      4  C   UNL     1       4.516 -35.707  19.402  1.00  0.00     0.000 C 
BRANCH   4   5
ATOM      5  C   UNL     1       4.156 -35.951  17.926  1.00  0.00     0.000 C 
BRANCH   5   6
ATOM      6  C   UNL     1       3.364 -37.252  17.719  1.00  0.00     0.006 C 
BRANCH   6   7
ATOM      7  C   UNL     1       2.241 -37.094  16.685  1.00  0.00     0.053 C 
BRANCH   7   8
ATOM      8  C   UNL     1       2.783 -37.247  15.300  1.00  0.00     0.041 C 
ATOM      9  O   UNL     1       2.379 -36.493  14.375  1.00  0.00    -0.550 OA
ATOM     10  O   UNL     1       3.699 -38.252  15.017  1.00  0.00    -0.550 OA
ENDBRANCH   7   8
ENDBRANCH   6   7
ENDBRANCH   5   6
ENDBRANCH   4   5
ENDBRANCH   3   4
ENDBRANCH   2   3
ENDBRANCH   1   2
BRANCH   1  11
ATOM     11  C   UNL     1       5.542 -35.211  23.594  1.00  0.00     0.000 C 
BRANCH  11  12
ATOM     12  C   UNL     1       6.084 -36.505  24.229  1.00  0.00    -0.000 C 
BRANCH  12  13
ATOM     13  C   UNL     1       5.350 -36.966  25.505  1.00  0.00    -0.000 C 
BRANCH  13  14
ATOM     14  C   UNL     1       4.830 -38.414  25.469  1.00  0.00    -0.000 C 
BRANCH  14  15
ATOM     15  C   UNL     1       5.332 -39.195  24.242  1.00  0.00    -0.000 C 
BRANCH  15  16
ATOM     16  C   UNL     1       5.326 -40.715  24.468  1.00  0.00    -0.000 C 
BRANCH  16  17
ATOM     17  C   UNL     1       5.652 -41.501  23.190  1.00  0.00    -0.003 C 
ATOM     18  C   UNL     1       6.049 -42.939  23.515  1.00  0.00     0.004 C 
ENDBRANCH  16  17
ENDBRANCH  15  16
ENDBRANCH  14  15
ENDBRANCH  13  14
ENDBRANCH  12  13
ENDBRANCH  11  12
ENDBRANCH   1  11
TORSDOF 14
ENDMDL
MODEL 6
REMARK VINA RESULT:    -2.364      3.149      4.385
REMARK INTER + INTRA:          -4.528
REMARK INTER:                  -3.208
REMARK INTRA:                  -1.320
REMARK UNBOUND:                -0.229
REMARK SMILES CCCCCCCCCCCCCCCC(=O)[O-]
REMARK SMILES IDX 9 1 10 2 11 3 12 4 13 5 14 6 15 7 16 8 17 9 18 10 8 11 7 12
REMARK SMILES IDX 6 13 5 14 4 15 3 16 2 17 1 18
REMARK H PARENT
REMARK Flexibility Score: inf
ROOT
ATOM      1  C   UNL     1       4.531 -35.167  21.776  1.00  0.00     0.000 C 
ENDROOT
BRANCH   1   2
ATOM      2  C   UNL     1       5.793 -36.039  21.653  1.00  0.00     0.000 C 
BRANCH   2   3
ATOM      3  C   UNL     1       5.567 -37.548  21.865  1.00  0.00     0.000 C 
BRANCH   3   4
ATOM      4  C   UNL     1       5.732 -38.389  20.581  1.00  0.00     0.000 C 
BRANCH   4   5
ATOM      5  C   UNL     1       5.630 -39.898  20.859  1.00  0.00     0.000 C 
BRANCH   5   6
ATOM      6  C   UNL     1       5.572 -40.219  22.361  1.00  0.00     0.006 C 
BRANCH   6   7
ATOM      7  C   UNL     1       6.073 -41.635  22.676  1.00  0.00     0.053 C 
BRANCH   7   8
ATOM      8  C   UNL     1       5.873 -41.947  24.125  1.00  0.00     0.041 C 
ATOM      9  O   UNL     1       6.026 -43.125  24.546  1.00  0.00    -0.550 OA
ATOM     10  O   UNL     1       5.471 -40.950  25.005  1.00  0.00    -0.550 OA
ENDBRANCH   7   8
ENDBRANCH   6   7
ENDBRANCH   5   6
ENDBRANCH   4   5
ENDBRANCH   3   4
ENDBRANCH   2   3
ENDBRANCH   1   2
BRANCH   1  11
ATOM     11  C   UNL     1       3.772 -35.027  20.445  1.00  0.00     0.000 C 
BRANCH  11  12
ATOM     12  C   UNL     1       4.714 -34.912  19.233  1.00  0.00    -0.000 C 
BRANCH  12  13
ATOM     13  C   UNL     1       4.497 -35.969  18.131  1.00  0.00    -0.000 C 
BRANCH  13  14
ATOM     14  C   UNL     1       3.353 -36.962  18.398  1.00  0.00    -0.000 C 
BRANCH  14  15
ATOM     15  C   UNL     1       2.653 -37.425  17.109  1.00  0.00    -0.000 C 
BRANCH  15  16
ATOM     16  C   UNL     1       2.496 -36.291  16.083  1.00  0.00    -0.000 C 
BRANCH  16  17
ATOM     17  C   UNL     1       2.659 -36.779  14.636  1.00  0.00    -0.003 C 
ATOM     18  C   UNL     1       3.760 -37.829  14.530  1.00  0.00     0.004 C 
ENDBRANCH  16  17
ENDBRANCH  15  16
ENDBRANCH  14  15
ENDBRANCH  13  14
ENDBRANCH  12  13
ENDBRANCH  11  12
ENDBRANCH   1  11
TORSDOF 14
ENDMDL
MODEL 7
REMARK VINA RESULT:    -2.213      3.038      7.649
REMARK INTER + INTRA:          -4.254
REMARK INTER:                  -2.984
REMARK INTRA:                  -1.270
REMARK UNBOUND:                -0.229
REMARK SMILES CCCCCCCCCCCCCCCC(=O)[O-]
REMARK SMILES IDX 9 1 10 2 11 3 12 4 13 5 14 6 15 7 16 8 17 9 18 10 8 11 7 12
REMARK SMILES IDX 6 13 5 14 4 15 3 16 2 17 1 18
REMARK H PARENT
REMARK Flexibility Score: inf
ROOT
ATOM      1  C   UNL     1       4.177 -35.829  20.001  1.00  0.00     0.000 C 
ENDROOT
BRANCH   1   2
ATOM      2  C   UNL     1       5.070 -35.133  18.960  1.00  0.00     0.000 C 
BRANCH   2   3
ATOM      3  C   UNL     1       4.375 -34.789  17.628  1.00  0.00     0.000 C 
BRANCH   3   4
ATOM      4  C   UNL     1       3.923 -36.026  16.825  1.00  0.00     0.000 C 
BRANCH   4   5
ATOM      5  C   UNL     1       2.494 -35.870  16.276  1.00  0.00     0.000 C 
BRANCH   5   6
ATOM      6  C   UNL     1       1.577 -37.036  16.679  1.00  0.00     0.006 C 
BRANCH   6   7
ATOM      7  C   UNL     1       2.202 -37.923  17.764  1.00  0.00     0.053 C 
BRANCH   7   8
ATOM      8  C   UNL     1       1.325 -37.960  18.975  1.00  0.00     0.041 C 
ATOM      9  O   UNL     1       0.112 -37.634  18.888  1.00  0.00    -0.550 OA
ATOM     10  O   UNL     1       1.857 -38.307  20.210  1.00  0.00    -0.550 OA
ENDBRANCH   7   8
ENDBRANCH   6   7
ENDBRANCH   5   6
ENDBRANCH   4   5
ENDBRANCH   3   4
ENDBRANCH   2   3
ENDBRANCH   1   2
BRANCH   1  11
ATOM     11  C   UNL     1       4.960 -36.790  20.911  1.00  0.00     0.000 C 
BRANCH  11  12
ATOM     12  C   UNL     1       6.111 -36.094  21.660  1.00  0.00    -0.000 C 
BRANCH  12  13
ATOM     13  C   UNL     1       5.699 -34.870  22.504  1.00  0.00    -0.000 C 
BRANCH  13  14
ATOM     14  C   UNL     1       6.027 -34.974  24.003  1.00  0.00    -0.000 C 
BRANCH  14  15
ATOM     15  C   UNL     1       6.118 -36.429  24.493  1.00  0.00    -0.000 C 
BRANCH  15  16
ATOM     16  C   UNL     1       5.299 -36.674  25.770  1.00  0.00    -0.000 C 
BRANCH  16  17
ATOM     17  C   UNL     1       4.767 -38.112  25.862  1.00  0.00    -0.003 C 
ATOM     18  C   UNL     1       5.082 -38.897  24.592  1.00  0.00     0.004 C 
ENDBRANCH  16  17
ENDBRANCH  15  16
ENDBRANCH  14  15
ENDBRANCH  13  14
ENDBRANCH  12  13
ENDBRANCH  11  12
ENDBRANCH   1  11
TORSDOF 14
ENDMDL
MODEL 8
REMARK VINA RESULT:    -2.196      4.094      8.152
REMARK INTER + INTRA:          -4.222
REMARK INTER:                  -3.144
REMARK INTRA:                  -1.078
REMARK UNBOUND:                -0.229
REMARK SMILES CCCCCCCCCCCCCCCC(=O)[O-]
REMARK SMILES IDX 9 1 10 2 11 3 12 4 13 5 14 6 15 7 16 8 17 9 18 10 8 11 7 12
REMARK SMILES IDX 6 13 5 14 4 15 3 16 2 17 1 18
REMARK H PARENT
REMARK Flexibility Score: inf
ROOT
ATOM      1  C   UNL     1       6.029 -39.932  21.526  1.00  0.00     0.000 C 
ENDROOT
BRANCH   1   2
ATOM      2  C   UNL     1       5.327 -38.569  21.405  1.00  0.00     0.000 C 
BRANCH   2   3
ATOM      3  C   UNL     1       5.328 -37.957  19.991  1.00  0.00     0.000 C 
BRANCH   3   4
ATOM      4  C   UNL     1       4.201 -36.929  19.757  1.00  0.00     0.000 C 
BRANCH   4   5
ATOM      5  C   UNL     1       2.816 -37.595  19.675  1.00  0.00     0.000 C 
BRANCH   5   6
ATOM      6  C   UNL     1       2.182 -37.466  18.281  1.00  0.00     0.006 C 
BRANCH   6   7
ATOM      7  C   UNL     1       3.230 -37.261  17.179  1.00  0.00     0.053 C 
BRANCH   7   8
ATOM      8  C   UNL     1       2.569 -36.842  15.904  1.00  0.00     0.041 C 
ATOM      9  O   UNL     1       1.558 -36.091  15.933  1.00  0.00    -0.550 OA
ATOM     10  O   UNL     1       3.039 -37.317  14.687  1.00  0.00    -0.550 OA
ENDBRANCH   7   8
ENDBRANCH   6   7
ENDBRANCH   5   6
ENDBRANCH   4   5
ENDBRANCH   3   4
ENDBRANCH   2   3
ENDBRANCH   1   2
BRANCH   1  11
ATOM     11  C   UNL     1       5.494 -40.776  22.695  1.00  0.00     0.000 C 
BRANCH  11  12
ATOM     12  C   UNL     1       4.628 -39.959  23.671  1.00  0.00    -0.000 C 
BRANCH  12  13
ATOM     13  C   UNL     1       5.403 -39.258  24.806  1.00  0.00    -0.000 C 
BRANCH  13  14
ATOM     14  C   UNL     1       4.710 -38.019  25.398  1.00  0.00    -0.000 C 
BRANCH  14  15
ATOM     15  C   UNL     1       5.614 -36.774  25.394  1.00  0.00    -0.000 C 
BRANCH  15  16
ATOM     16  C   UNL     1       6.121 -36.416  23.988  1.00  0.00    -0.000 C 
BRANCH  16  17
ATOM     17  C   UNL     1       5.285 -35.312  23.324  1.00  0.00    -0.003 C 
ATOM     18  C   UNL     1       5.812 -33.928  23.689  1.00  0.00     0.004 C 
ENDBRANCH  16  17
ENDBRANCH  15  16
ENDBRANCH  14  15
ENDBRANCH  13  14
ENDBRANCH  12  13
ENDBRANCH  11  12
ENDBRANCH   1  11
TORSDOF 14
ENDMDL
