MODEL 1
REMARK VINA RESULT:    -7.201      0.000      0.000
REMARK INTER + INTRA:         -10.878
REMARK INTER:                  -9.938
REMARK INTRA:                  -0.940
REMARK UNBOUND:                -0.940
REMARK SMILES C=C(CC[C@@H](C(=O)[O-])[C@@H]1CC[C@]2(C)C3=C(CC[C@@]12C)[C@]1(C)CC[C@@H](O)C(C)(C)[C@H]1CC3)C(C)C
REMARK SMILES IDX 4 1 5 2 6 3 7 4 8 5 9 6 10 7 18 8 11 9 12 10 17 11 19 12
REMARK SMILES IDX 13 13 14 14 16 15 15 16 31 17 20 18 30 19 29 20 22 21 21 22
REMARK SMILES IDX 26 23 23 24 24 25 27 26 28 27 25 28 3 30 2 31 1 32 32 33
REMARK SMILES IDX 33 34 34 35
REMARK H PARENT 25 29
REMARK Flexibility Score: inf
ROOT
ATOM      1  C   UNL     1       3.788 -14.280 -36.968  1.00  0.00     0.014 C 
ENDROOT
BRANCH   1   2
ATOM      2  C   UNL     1       3.834 -15.454 -37.980  1.00  0.00     0.039 C 
BRANCH   2   3
ATOM      3  C   UNL     1       3.142 -15.037 -39.257  1.00  0.00     0.045 C 
ATOM      4  O   UNL     1       2.363 -15.838 -39.841  1.00  0.00    -0.550 OA
ATOM      5  O   UNL     1       3.317 -13.758 -39.773  1.00  0.00    -0.550 OA
ENDBRANCH   2   3
BRANCH   2   6
ATOM      6  C   UNL     1       5.261 -16.037 -38.274  1.00  0.00     0.004 C 
ATOM      7  C   UNL     1       5.523 -16.163 -39.801  1.00  0.00     0.006 C 
ATOM      8  C   UNL     1       5.621 -17.455 -37.730  1.00  0.00    -0.020 C 
ATOM      9  C   UNL     1       6.330 -17.453 -40.031  1.00  0.00     0.012 C 
ATOM     10  C   UNL     1       6.826 -17.860 -38.635  1.00  0.00    -0.006 C 
ATOM     11  C   UNL     1       6.103 -17.528 -36.268  1.00  0.00     0.012 C 
ATOM     12  C   UNL     1       4.394 -18.419 -37.902  1.00  0.00     0.012 C 
ATOM     13  C   UNL     1       8.151 -17.071 -38.367  1.00  0.00     0.017 C 
ATOM     14  C   UNL     1       7.161 -19.328 -38.410  1.00  0.00    -0.064 C 
ATOM     15  C   UNL     1       6.741 -18.904 -35.935  1.00  0.00     0.032 C 
ATOM     16  C   UNL     1       7.209 -19.791 -37.115  1.00  0.00    -0.064 C 
ATOM     17  C   UNL     1       7.655 -20.144 -39.601  1.00  0.00     0.032 C 
ATOM     18  C   UNL     1       7.572 -21.265 -36.819  1.00  0.00    -0.008 C 
ATOM     19  C   UNL     1       8.016 -21.603 -39.304  1.00  0.00     0.009 C 
ATOM     20  C   UNL     1       8.617 -21.746 -37.892  1.00  0.00     0.007 C 
ATOM     21  C   UNL     1       8.219 -21.391 -35.410  1.00  0.00     0.014 C 
ATOM     22  C   UNL     1       6.227 -22.042 -36.840  1.00  0.00     0.016 C 
ATOM     23  C   UNL     1       9.361 -23.120 -37.621  1.00  0.00    -0.006 C 
ATOM     24  C   UNL     1       8.785 -22.784 -35.131  1.00  0.00     0.033 C 
ATOM     25  C   UNL     1       9.874 -23.151 -36.147  1.00  0.00     0.120 C 
ATOM     26  C   UNL     1      10.616 -23.207 -38.538  1.00  0.00     0.014 C 
ATOM     27  C   UNL     1       8.497 -24.375 -37.929  1.00  0.00     0.014 C 
BRANCH  25  28
ATOM     28  O   UNL     1      10.395 -24.421 -35.834  1.00  0.00    -0.393 OA
ATOM     29  H   UNL     1       9.852 -25.088 -36.331  1.00  0.00     0.210 HD
ENDBRANCH  25  28
ENDBRANCH   2   6
ENDBRANCH   1   2
BRANCH   1  30
ATOM     30  C   UNL     1       4.783 -14.391 -35.799  1.00  0.00     0.031 C 
BRANCH  30  31
ATOM     31  C   UNL     1       4.053 -14.701 -34.512  1.00  0.00    -0.075 C 
ATOM     32  C   UNL     1       2.737 -14.440 -34.412  1.00  0.00     0.008 C 
BRANCH  31  33
ATOM     33  C   UNL     1       4.836 -15.257 -33.331  1.00  0.00     0.008 C 
ATOM     34  C   UNL     1       4.938 -16.786 -33.405  1.00  0.00     0.012 C 
ATOM     35  C   UNL     1       4.234 -14.806 -31.995  1.00  0.00     0.012 C 
ENDBRANCH  31  33
ENDBRANCH  30  31
ENDBRANCH   1  30
TORSDOF 7
ENDMDL
MODEL 2
REMARK VINA RESULT:    -6.918      1.565      2.561
REMARK INTER + INTRA:         -10.487
REMARK INTER:                  -9.310
REMARK INTRA:                  -1.177
REMARK UNBOUND:                -0.940
REMARK SMILES C=C(CC[C@@H](C(=O)[O-])[C@@H]1CC[C@]2(C)C3=C(CC[C@@]12C)[C@]1(C)CC[C@@H](O)C(C)(C)[C@H]1CC3)C(C)C
REMARK SMILES IDX 4 1 5 2 6 3 7 4 8 5 9 6 10 7 18 8 11 9 12 10 17 11 19 12
REMARK SMILES IDX 13 13 14 14 16 15 15 16 31 17 20 18 30 19 29 20 22 21 21 22
REMARK SMILES IDX 26 23 23 24 24 25 27 26 28 27 25 28 3 30 2 31 1 32 32 33
REMARK SMILES IDX 33 34 34 35
REMARK H PARENT 25 29
REMARK Flexibility Score: inf
ROOT
ATOM      1  C   UNL     1       5.159 -15.463 -37.128  1.00  0.00     0.014 C 
ENDROOT
BRANCH   1   2
ATOM      2  C   UNL     1       4.316 -16.764 -37.126  1.00  0.00     0.039 C 
BRANCH   2   3
ATOM      3  C   UNL     1       2.894 -16.435 -37.519  1.00  0.00     0.045 C 
ATOM      4  O   UNL     1       2.646 -15.991 -38.672  1.00  0.00    -0.550 OA
ATOM      5  O   UNL     1       1.844 -16.663 -36.636  1.00  0.00    -0.550 OA
ENDBRANCH   2   3
BRANCH   2   6
ATOM      6  C   UNL     1       4.886 -17.940 -37.995  1.00  0.00     0.004 C 
ATOM      7  C   UNL     1       3.894 -19.135 -38.061  1.00  0.00     0.006 C 
ATOM      8  C   UNL     1       6.228 -18.611 -37.565  1.00  0.00    -0.020 C 
ATOM      9  C   UNL     1       4.722 -20.431 -38.032  1.00  0.00     0.012 C 
ATOM     10  C   UNL     1       6.165 -19.981 -38.308  1.00  0.00    -0.006 C 
ATOM     11  C   UNL     1       7.523 -17.907 -38.013  1.00  0.00     0.012 C 
ATOM     12  C   UNL     1       6.263 -18.779 -36.004  1.00  0.00     0.012 C 
ATOM     13  C   UNL     1       6.334 -19.901 -39.862  1.00  0.00     0.017 C 
ATOM     14  C   UNL     1       7.289 -20.882 -37.812  1.00  0.00    -0.064 C 
ATOM     15  C   UNL     1       8.771 -18.813 -37.827  1.00  0.00     0.032 C 
ATOM     16  C   UNL     1       8.544 -20.337 -37.676  1.00  0.00    -0.064 C 
ATOM     17  C   UNL     1       7.021 -22.381 -37.720  1.00  0.00     0.032 C 
ATOM     18  C   UNL     1       9.732 -21.207 -37.204  1.00  0.00    -0.008 C 
ATOM     19  C   UNL     1       8.201 -23.240 -37.254  1.00  0.00     0.009 C 
ATOM     20  C   UNL     1       9.537 -22.664 -37.762  1.00  0.00     0.007 C 
ATOM     21  C   UNL     1      11.072 -20.642 -37.759  1.00  0.00     0.014 C 
ATOM     22  C   UNL     1       9.736 -21.109 -35.653  1.00  0.00     0.016 C 
ATOM     23  C   UNL     1      10.770 -23.656 -37.663  1.00  0.00    -0.006 C 
ATOM     24  C   UNL     1      12.266 -21.562 -37.500  1.00  0.00     0.033 C 
ATOM     25  C   UNL     1      12.061 -22.931 -38.161  1.00  0.00     0.120 C 
ATOM     26  C   UNL     1      10.532 -24.861 -38.620  1.00  0.00     0.014 C 
ATOM     27  C   UNL     1      10.987 -24.251 -36.243  1.00  0.00     0.014 C 
BRANCH  25  28
ATOM     28  O   UNL     1      13.195 -23.734 -37.932  1.00  0.00    -0.393 OA
ATOM     29  H   UNL     1      13.896 -23.434 -38.569  1.00  0.00     0.210 HD
ENDBRANCH  25  28
ENDBRANCH   2   6
ENDBRANCH   1   2
BRANCH   1  30
ATOM     30  C   UNL     1       5.899 -15.168 -35.811  1.00  0.00     0.031 C 
BRANCH  30  31
ATOM     31  C   UNL     1       4.912 -14.990 -34.679  1.00  0.00    -0.075 C 
ATOM     32  C   UNL     1       3.811 -14.240 -34.866  1.00  0.00     0.008 C 
BRANCH  31  33
ATOM     33  C   UNL     1       5.211 -15.625 -33.328  1.00  0.00     0.008 C 
ATOM     34  C   UNL     1       4.875 -17.121 -33.332  1.00  0.00     0.012 C 
ATOM     35  C   UNL     1       4.484 -14.896 -32.191  1.00  0.00     0.012 C 
ENDBRANCH  31  33
ENDBRANCH  30  31
ENDBRANCH   1  30
TORSDOF 7
ENDMDL
MODEL 3
REMARK VINA RESULT:    -6.672      2.455      8.881
REMARK INTER + INTRA:         -10.147
REMARK INTER:                  -9.830
REMARK INTRA:                  -0.317
REMARK UNBOUND:                -0.940
REMARK SMILES C=C(CC[C@@H](C(=O)[O-])[C@@H]1CC[C@]2(C)C3=C(CC[C@@]12C)[C@]1(C)CC[C@@H](O)C(C)(C)[C@H]1CC3)C(C)C
REMARK SMILES IDX 4 1 5 2 6 3 7 4 8 5 9 6 10 7 18 8 11 9 12 10 17 11 19 12
REMARK SMILES IDX 13 13 14 14 16 15 15 16 31 17 20 18 30 19 29 20 22 21 21 22
REMARK SMILES IDX 26 23 23 24 24 25 27 26 28 27 25 28 3 30 2 31 1 32 32 33
REMARK SMILES IDX 33 34 34 35
REMARK H PARENT 25 29
REMARK Flexibility Score: inf
ROOT
ATOM      1  C   UNL     1       6.451 -20.414 -37.540  1.00  0.00     0.014 C 
ENDROOT
BRANCH   1   2
ATOM      2  C   UNL     1       7.433 -19.287 -37.130  1.00  0.00     0.039 C 
BRANCH   2   3
ATOM      3  C   UNL     1       8.487 -19.132 -38.203  1.00  0.00     0.045 C 
ATOM      4  O   UNL     1       8.469 -19.882 -39.215  1.00  0.00    -0.550 OA
ATOM      5  O   UNL     1       9.451 -18.135 -38.109  1.00  0.00    -0.550 OA
ENDBRANCH   2   3
BRANCH   2   6
ATOM      6  C   UNL     1       6.771 -17.907 -36.783  1.00  0.00     0.004 C 
ATOM      7  C   UNL     1       5.930 -17.989 -35.478  1.00  0.00     0.006 C 
ATOM      8  C   UNL     1       5.780 -17.270 -37.808  1.00  0.00    -0.020 C 
ATOM      9  C   UNL     1       4.682 -17.111 -35.671  1.00  0.00     0.012 C 
ATOM     10  C   UNL     1       4.985 -16.265 -36.918  1.00  0.00    -0.006 C 
ATOM     11  C   UNL     1       6.409 -16.461 -38.959  1.00  0.00     0.012 C 
ATOM     12  C   UNL     1       4.859 -18.383 -38.422  1.00  0.00     0.012 C 
ATOM     13  C   UNL     1       5.798 -15.016 -36.441  1.00  0.00     0.017 C 
ATOM     14  C   UNL     1       3.799 -15.718 -37.701  1.00  0.00    -0.064 C 
ATOM     15  C   UNL     1       5.354 -15.608 -39.714  1.00  0.00     0.032 C 
ATOM     16  C   UNL     1       4.009 -15.322 -39.002  1.00  0.00    -0.064 C 
ATOM     17  C   UNL     1       2.512 -15.419 -36.940  1.00  0.00     0.032 C 
ATOM     18  C   UNL     1       2.852 -14.732 -39.840  1.00  0.00    -0.008 C 
ATOM     19  C   UNL     1       1.368 -14.832 -37.773  1.00  0.00     0.009 C 
ATOM     20  C   UNL     1       1.911 -13.911 -38.884  1.00  0.00     0.007 C 
ATOM     21  C   UNL     1       3.407 -13.770 -40.929  1.00  0.00     0.014 C 
ATOM     22  C   UNL     1       2.167 -15.946 -40.527  1.00  0.00     0.016 C 
ATOM     23  C   UNL     1       0.826 -12.970 -39.557  1.00  0.00    -0.006 C 
ATOM     24  C   UNL     1       2.311 -12.997 -41.665  1.00  0.00     0.033 C 
ATOM     25  C   UNL     1       1.498 -12.133 -40.692  1.00  0.00     0.120 C 
ATOM     26  C   UNL     1       0.305 -11.956 -38.497  1.00  0.00     0.014 C 
ATOM     27  C   UNL     1      -0.418 -13.729 -40.097  1.00  0.00     0.014 C 
BRANCH  25  28
ATOM     28  O   UNL     1       0.526 -11.410 -41.410  1.00  0.00    -0.393 OA
ATOM     29  H   UNL     1       0.606 -10.461 -41.130  1.00  0.00     0.210 HD
ENDBRANCH  25  28
ENDBRANCH   2   6
ENDBRANCH   1   2
BRANCH   1  30
ATOM     30  C   UNL     1       6.350 -21.581 -36.542  1.00  0.00     0.031 C 
BRANCH  30  31
ATOM     31  C   UNL     1       7.628 -22.388 -36.541  1.00  0.00    -0.075 C 
ATOM     32  C   UNL     1       7.980 -23.081 -37.639  1.00  0.00     0.008 C 
BRANCH  31  33
ATOM     33  C   UNL     1       8.470 -22.442 -35.274  1.00  0.00     0.008 C 
ATOM     34  C   UNL     1       9.377 -21.211 -35.158  1.00  0.00     0.012 C 
ATOM     35  C   UNL     1       9.285 -23.739 -35.195  1.00  0.00     0.012 C 
ENDBRANCH  31  33
ENDBRANCH  30  31
ENDBRANCH   1  30
TORSDOF 7
ENDMDL
MODEL 4
REMARK VINA RESULT:    -6.601      2.873      9.293
REMARK INTER + INTRA:         -10.049
REMARK INTER:                  -8.556
REMARK INTRA:                  -1.493
REMARK UNBOUND:                -0.940
REMARK SMILES C=C(CC[C@@H](C(=O)[O-])[C@@H]1CC[C@]2(C)C3=C(CC[C@@]12C)[C@]1(C)CC[C@@H](O)C(C)(C)[C@H]1CC3)C(C)C
REMARK SMILES IDX 4 1 5 2 6 3 7 4 8 5 9 6 10 7 18 8 11 9 12 10 17 11 19 12
REMARK SMILES IDX 13 13 14 14 16 15 15 16 31 17 20 18 30 19 29 20 22 21 21 22
REMARK SMILES IDX 26 23 23 24 24 25 27 26 28 27 25 28 3 30 2 31 1 32 32 33
REMARK SMILES IDX 33 34 34 35
REMARK H PARENT 25 29
REMARK Flexibility Score: inf
ROOT
ATOM      1  C   UNL     1      13.495 -22.791 -40.624  1.00  0.00     0.014 C 
ENDROOT
BRANCH   1   2
ATOM      2  C   UNL     1      12.070 -23.077 -40.084  1.00  0.00     0.039 C 
BRANCH   2   3
ATOM      3  C   UNL     1      11.922 -24.561 -39.835  1.00  0.00     0.045 C 
ATOM      4  O   UNL     1      10.813 -25.125 -40.035  1.00  0.00    -0.550 OA
ATOM      5  O   UNL     1      13.012 -25.323 -39.430  1.00  0.00    -0.550 OA
ENDBRANCH   2   3
BRANCH   2   6
ATOM      6  C   UNL     1      11.646 -22.246 -38.823  1.00  0.00     0.004 C 
ATOM      7  C   UNL     1      11.198 -23.170 -37.654  1.00  0.00     0.006 C 
ATOM      8  C   UNL     1      10.464 -21.234 -38.951  1.00  0.00    -0.020 C 
ATOM      9  C   UNL     1      10.021 -22.482 -36.941  1.00  0.00     0.012 C 
ATOM     10  C   UNL     1      10.033 -21.038 -37.465  1.00  0.00    -0.006 C 
ATOM     11  C   UNL     1      10.812 -19.842 -39.514  1.00  0.00     0.012 C 
ATOM     12  C   UNL     1       9.321 -21.857 -39.828  1.00  0.00     0.012 C 
ATOM     13  C   UNL     1      11.046 -20.235 -36.581  1.00  0.00     0.017 C 
ATOM     14  C   UNL     1       8.725 -20.260 -37.412  1.00  0.00    -0.064 C 
ATOM     15  C   UNL     1       9.661 -18.823 -39.292  1.00  0.00     0.032 C 
ATOM     16  C   UNL     1       8.595 -19.153 -38.219  1.00  0.00    -0.064 C 
ATOM     17  C   UNL     1       7.729 -20.603 -36.309  1.00  0.00     0.032 C 
ATOM     18  C   UNL     1       7.303 -18.306 -38.189  1.00  0.00    -0.008 C 
ATOM     19  C   UNL     1       6.450 -19.760 -36.281  1.00  0.00     0.009 C 
ATOM     20  C   UNL     1       6.736 -18.311 -36.723  1.00  0.00     0.007 C 
ATOM     21  C   UNL     1       7.610 -16.835 -38.593  1.00  0.00     0.014 C 
ATOM     22  C   UNL     1       6.357 -18.943 -39.246  1.00  0.00     0.016 C 
ATOM     23  C   UNL     1       5.587 -17.273 -36.380  1.00  0.00    -0.006 C 
ATOM     24  C   UNL     1       6.419 -15.896 -38.394  1.00  0.00     0.033 C 
ATOM     25  C   UNL     1       5.982 -15.863 -36.924  1.00  0.00     0.120 C 
ATOM     26  C   UNL     1       5.466 -17.141 -34.833  1.00  0.00     0.014 C 
ATOM     27  C   UNL     1       4.184 -17.690 -36.903  1.00  0.00     0.014 C 
BRANCH  25  28
ATOM     28  O   UNL     1       4.911 -14.961 -36.776  1.00  0.00    -0.393 OA
ATOM     29  H   UNL     1       4.227 -15.413 -36.215  1.00  0.00     0.210 HD
ENDBRANCH  25  28
ENDBRANCH   2   6
ENDBRANCH   1   2
BRANCH   1  30
ATOM     30  C   UNL     1      14.075 -21.422 -40.228  1.00  0.00     0.031 C 
BRANCH  30  31
ATOM     31  C   UNL     1      15.360 -21.598 -39.448  1.00  0.00    -0.075 C 
ATOM     32  C   UNL     1      16.530 -21.694 -40.105  1.00  0.00     0.008 C 
BRANCH  31  33
ATOM     33  C   UNL     1      15.297 -21.716 -37.932  1.00  0.00     0.008 C 
ATOM     34  C   UNL     1      14.980 -23.154 -37.501  1.00  0.00     0.012 C 
ATOM     35  C   UNL     1      14.293 -20.724 -37.332  1.00  0.00     0.012 C 
ENDBRANCH  31  33
ENDBRANCH  30  31
ENDBRANCH   1  30
TORSDOF 7
ENDMDL
MODEL 5
REMARK VINA RESULT:    -6.561      2.317      8.256
REMARK INTER + INTRA:          -9.994
REMARK INTER:                  -8.455
REMARK INTRA:                  -1.538
REMARK UNBOUND:                -0.940
REMARK SMILES C=C(CC[C@@H](C(=O)[O-])[C@@H]1CC[C@]2(C)C3=C(CC[C@@]12C)[C@]1(C)CC[C@@H](O)C(C)(C)[C@H]1CC3)C(C)C
REMARK SMILES IDX 4 1 5 2 6 3 7 4 8 5 9 6 10 7 18 8 11 9 12 10 17 11 19 12
REMARK SMILES IDX 13 13 14 14 16 15 15 16 31 17 20 18 30 19 29 20 22 21 21 22
REMARK SMILES IDX 26 23 23 24 24 25 27 26 28 27 25 28 3 30 2 31 1 32 32 33
REMARK SMILES IDX 33 34 34 35
REMARK H PARENT 25 29
REMARK Flexibility Score: inf
ROOT
ATOM      1  C   UNL     1       9.943 -23.462 -37.616  1.00  0.00     0.014 C 
ENDROOT
BRANCH   1   2
ATOM      2  C   UNL     1       9.162 -22.823 -38.793  1.00  0.00     0.039 C 
BRANCH   2   3
ATOM      3  C   UNL     1       9.215 -23.749 -39.986  1.00  0.00     0.045 C 
ATOM      4  O   UNL     1       9.671 -23.335 -41.085  1.00  0.00    -0.550 OA
ATOM      5  O   UNL     1       8.808 -25.074 -39.872  1.00  0.00    -0.550 OA
ENDBRANCH   2   3
BRANCH   2   6
ATOM      6  C   UNL     1       7.687 -22.396 -38.472  1.00  0.00     0.004 C 
ATOM      7  C   UNL     1       6.799 -22.404 -39.749  1.00  0.00     0.006 C 
ATOM      8  C   UNL     1       7.428 -20.982 -37.865  1.00  0.00    -0.020 C 
ATOM      9  C   UNL     1       5.829 -21.214 -39.650  1.00  0.00     0.012 C 
ATOM     10  C   UNL     1       5.918 -20.755 -38.186  1.00  0.00    -0.006 C 
ATOM     11  C   UNL     1       7.595 -20.849 -36.339  1.00  0.00     0.012 C 
ATOM     12  C   UNL     1       8.353 -19.924 -38.564  1.00  0.00     0.012 C 
ATOM     13  C   UNL     1       4.925 -21.641 -37.364  1.00  0.00     0.017 C 
ATOM     14  C   UNL     1       5.543 -19.311 -37.879  1.00  0.00    -0.064 C 
ATOM     15  C   UNL     1       7.002 -19.517 -35.804  1.00  0.00     0.032 C 
ATOM     16  C   UNL     1       5.987 -18.763 -36.698  1.00  0.00    -0.064 C 
ATOM     17  C   UNL     1       4.509 -18.632 -38.771  1.00  0.00     0.032 C 
ATOM     18  C   UNL     1       5.615 -17.312 -36.316  1.00  0.00    -0.008 C 
ATOM     19  C   UNL     1       4.141 -17.195 -38.388  1.00  0.00     0.009 C 
ATOM     20  C   UNL     1       4.172 -17.007 -36.859  1.00  0.00     0.007 C 
ATOM     21  C   UNL     1       5.605 -17.145 -34.769  1.00  0.00     0.014 C 
ATOM     22  C   UNL     1       6.732 -16.418 -36.923  1.00  0.00     0.016 C 
ATOM     23  C   UNL     1       3.457 -15.691 -36.336  1.00  0.00    -0.006 C 
ATOM     24  C   UNL     1       5.054 -15.793 -34.314  1.00  0.00     0.033 C 
ATOM     25  C   UNL     1       3.606 -15.601 -34.784  1.00  0.00     0.120 C 
ATOM     26  C   UNL     1       1.933 -15.786 -36.639  1.00  0.00     0.014 C 
ATOM     27  C   UNL     1       3.965 -14.387 -37.012  1.00  0.00     0.014 C 
BRANCH  25  28
ATOM     28  O   UNL     1       3.122 -14.366 -34.314  1.00  0.00    -0.393 OA
ATOM     29  H   UNL     1       2.298 -14.556 -33.794  1.00  0.00     0.210 HD
ENDBRANCH  25  28
ENDBRANCH   2   6
ENDBRANCH   1   2
BRANCH   1  30
ATOM     30  C   UNL     1      10.736 -22.469 -36.748  1.00  0.00     0.031 C 
BRANCH  30  31
ATOM     31  C   UNL     1      11.908 -21.908 -37.523  1.00  0.00    -0.075 C 
ATOM     32  C   UNL     1      12.722 -22.742 -38.195  1.00  0.00     0.008 C 
BRANCH  31  33
ATOM     33  C   UNL     1      12.175 -20.410 -37.483  1.00  0.00     0.008 C 
ATOM     34  C   UNL     1      13.644 -20.118 -37.153  1.00  0.00     0.012 C 
ATOM     35  C   UNL     1      11.234 -19.697 -36.504  1.00  0.00     0.012 C 
ENDBRANCH  31  33
ENDBRANCH  30  31
ENDBRANCH   1  30
TORSDOF 7
ENDMDL
MODEL 6
REMARK VINA RESULT:    -6.535      9.066     11.328
REMARK INTER + INTRA:          -9.958
REMARK INTER:                  -8.700
REMARK INTRA:                  -1.258
REMARK UNBOUND:                -0.940
REMARK SMILES C=C(CC[C@@H](C(=O)[O-])[C@@H]1CC[C@]2(C)C3=C(CC[C@@]12C)[C@]1(C)CC[C@@H](O)C(C)(C)[C@H]1CC3)C(C)C
REMARK SMILES IDX 4 1 5 2 6 3 7 4 8 5 9 6 10 7 18 8 11 9 12 10 17 11 19 12
REMARK SMILES IDX 13 13 14 14 16 15 15 16 31 17 20 18 30 19 29 20 22 21 21 22
REMARK SMILES IDX 26 23 23 24 24 25 27 26 28 27 25 28 3 30 2 31 1 32 32 33
REMARK SMILES IDX 33 34 34 35
REMARK H PARENT 25 29
REMARK Flexibility Score: inf
ROOT
ATOM      1  C   UNL     1      12.660 -10.937 -43.516  1.00  0.00     0.014 C 
ENDROOT
BRANCH   1   2
ATOM      2  C   UNL     1      13.370 -12.030 -44.356  1.00  0.00     0.039 C 
BRANCH   2   3
ATOM      3  C   UNL     1      14.848 -12.016 -44.041  1.00  0.00     0.045 C 
ATOM      4  O   UNL     1      15.236 -12.001 -42.842  1.00  0.00    -0.550 OA
ATOM      5  O   UNL     1      15.790 -12.067 -45.062  1.00  0.00    -0.550 OA
ENDBRANCH   2   3
BRANCH   2   6
ATOM      6  C   UNL     1      12.776 -13.476 -44.222  1.00  0.00     0.004 C 
ATOM      7  C   UNL     1      13.623 -14.516 -45.009  1.00  0.00     0.006 C 
ATOM      8  C   UNL     1      11.323 -13.742 -44.727  1.00  0.00    -0.020 C 
ATOM      9  C   UNL     1      12.652 -15.537 -45.626  1.00  0.00     0.012 C 
ATOM     10  C   UNL     1      11.315 -15.291 -44.909  1.00  0.00    -0.006 C 
ATOM     11  C   UNL     1      10.183 -13.391 -43.751  1.00  0.00     0.012 C 
ATOM     12  C   UNL     1      11.080 -12.980 -46.077  1.00  0.00     0.012 C 
ATOM     13  C   UNL     1      11.346 -16.116 -43.580  1.00  0.00     0.017 C 
ATOM     14  C   UNL     1      10.043 -15.713 -45.632  1.00  0.00    -0.064 C 
ATOM     15  C   UNL     1       8.825 -13.992 -44.206  1.00  0.00     0.032 C 
ATOM     16  C   UNL     1       8.852 -15.157 -45.226  1.00  0.00    -0.064 C 
ATOM     17  C   UNL     1      10.121 -16.892 -46.597  1.00  0.00     0.032 C 
ATOM     18  C   UNL     1       7.522 -15.565 -45.901  1.00  0.00    -0.008 C 
ATOM     19  C   UNL     1       8.801 -17.295 -47.263  1.00  0.00     0.009 C 
ATOM     20  C   UNL     1       7.613 -17.082 -46.305  1.00  0.00     0.007 C 
ATOM     21  C   UNL     1       6.335 -15.389 -44.911  1.00  0.00     0.014 C 
ATOM     22  C   UNL     1       7.342 -14.592 -47.099  1.00  0.00     0.016 C 
ATOM     23  C   UNL     1       6.269 -17.804 -46.740  1.00  0.00    -0.006 C 
ATOM     24  C   UNL     1       5.019 -15.960 -45.441  1.00  0.00     0.033 C 
ATOM     25  C   UNL     1       5.142 -17.465 -45.714  1.00  0.00     0.120 C 
ATOM     26  C   UNL     1       6.480 -19.345 -46.687  1.00  0.00     0.014 C 
ATOM     27  C   UNL     1       5.814 -17.467 -48.188  1.00  0.00     0.014 C 
BRANCH  25  28
ATOM     28  O   UNL     1       3.903 -17.960 -46.164  1.00  0.00    -0.393 OA
ATOM     29  H   UNL     1       3.280 -17.926 -45.391  1.00  0.00     0.210 HD
ENDBRANCH  25  28
ENDBRANCH   2   6
ENDBRANCH   1   2
BRANCH   1  30
ATOM     30  C   UNL     1      12.309  -9.652 -44.289  1.00  0.00     0.031 C 
BRANCH  30  31
ATOM     31  C   UNL     1      10.888  -9.228 -43.992  1.00  0.00    -0.075 C 
ATOM     32  C   UNL     1       9.868  -9.816 -44.642  1.00  0.00     0.008 C 
BRANCH  31  33
ATOM     33  C   UNL     1      10.643  -8.103 -42.997  1.00  0.00     0.008 C 
ATOM     34  C   UNL     1      10.514  -8.646 -41.568  1.00  0.00     0.012 C 
ATOM     35  C   UNL     1       9.417  -7.267 -43.385  1.00  0.00     0.012 C 
ENDBRANCH  31  33
ENDBRANCH  30  31
ENDBRANCH   1  30
TORSDOF 7
ENDMDL
MODEL 7
REMARK VINA RESULT:    -6.490      2.332      8.807
REMARK INTER + INTRA:          -9.896
REMARK INTER:                  -8.072
REMARK INTRA:                  -1.824
REMARK UNBOUND:                -0.940
REMARK SMILES C=C(CC[C@@H](C(=O)[O-])[C@@H]1CC[C@]2(C)C3=C(CC[C@@]12C)[C@]1(C)CC[C@@H](O)C(C)(C)[C@H]1CC3)C(C)C
REMARK SMILES IDX 4 1 5 2 6 3 7 4 8 5 9 6 10 7 18 8 11 9 12 10 17 11 19 12
REMARK SMILES IDX 13 13 14 14 16 15 15 16 31 17 20 18 30 19 29 20 22 21 21 22
REMARK SMILES IDX 26 23 23 24 24 25 27 26 28 27 25 28 3 30 2 31 1 32 32 33
REMARK SMILES IDX 33 34 34 35
REMARK H PARENT 25 29
REMARK Flexibility Score: inf
ROOT
ATOM      1  C   UNL     1      12.693 -23.306 -37.967  1.00  0.00     0.014 C 
ENDROOT
BRANCH   1   2
ATOM      2  C   UNL     1      11.244 -23.378 -38.514  1.00  0.00     0.039 C 
BRANCH   2   3
ATOM      3  C   UNL     1      10.952 -24.793 -38.960  1.00  0.00     0.045 C 
ATOM      4  O   UNL     1      10.371 -24.998 -40.059  1.00  0.00    -0.550 OA
ATOM      5  O   UNL     1      11.361 -25.877 -38.191  1.00  0.00    -0.550 OA
ENDBRANCH   2   3
BRANCH   2   6
ATOM      6  C   UNL     1      10.129 -22.849 -37.546  1.00  0.00     0.004 C 
ATOM      7  C   UNL     1       8.982 -23.884 -37.376  1.00  0.00     0.006 C 
ATOM      8  C   UNL     1       9.374 -21.534 -37.916  1.00  0.00    -0.020 C 
ATOM      9  C   UNL     1       7.658 -23.103 -37.291  1.00  0.00     0.012 C 
ATOM     10  C   UNL     1       8.077 -21.643 -37.056  1.00  0.00    -0.006 C 
ATOM     11  C   UNL     1      10.067 -20.212 -37.532  1.00  0.00     0.012 C 
ATOM     12  C   UNL     1       9.069 -21.510 -39.456  1.00  0.00     0.012 C 
ATOM     13  C   UNL     1       8.287 -21.466 -35.515  1.00  0.00     0.017 C 
ATOM     14  C   UNL     1       7.096 -20.555 -37.472  1.00  0.00    -0.064 C 
ATOM     15  C   UNL     1       9.103 -18.999 -37.638  1.00  0.00     0.032 C 
ATOM     16  C   UNL     1       7.581 -19.281 -37.655  1.00  0.00    -0.064 C 
ATOM     17  C   UNL     1       5.606 -20.878 -37.432  1.00  0.00     0.032 C 
ATOM     18  C   UNL     1       6.630 -18.127 -38.049  1.00  0.00    -0.008 C 
ATOM     19  C   UNL     1       4.666 -19.731 -37.821  1.00  0.00     0.009 C 
ATOM     20  C   UNL     1       5.236 -18.374 -37.366  1.00  0.00     0.007 C 
ATOM     21  C   UNL     1       7.192 -16.766 -37.546  1.00  0.00     0.014 C 
ATOM     22  C   UNL     1       6.592 -18.125 -39.603  1.00  0.00     0.016 C 
ATOM     23  C   UNL     1       4.194 -17.178 -37.378  1.00  0.00    -0.006 C 
ATOM     24  C   UNL     1       6.210 -15.607 -37.724  1.00  0.00     0.033 C 
ATOM     25  C   UNL     1       4.912 -15.860 -36.946  1.00  0.00     0.120 C 
ATOM     26  C   UNL     1       3.087 -17.457 -36.320  1.00  0.00     0.014 C 
ATOM     27  C   UNL     1       3.470 -16.987 -38.740  1.00  0.00     0.014 C 
BRANCH  25  28
ATOM     28  O   UNL     1       4.051 -14.757 -37.104  1.00  0.00    -0.393 OA
ATOM     29  H   UNL     1       3.272 -14.909 -36.507  1.00  0.00     0.210 HD
ENDBRANCH  25  28
ENDBRANCH   2   6
ENDBRANCH   1   2
BRANCH   1  30
ATOM     30  C   UNL     1      13.674 -22.498 -38.836  1.00  0.00     0.031 C 
BRANCH  30  31
ATOM     31  C   UNL     1      13.672 -21.043 -38.423  1.00  0.00    -0.075 C 
ATOM     32  C   UNL     1      13.819 -20.719 -37.125  1.00  0.00     0.008 C 
BRANCH  31  33
ATOM     33  C   UNL     1      13.452 -19.972 -39.481  1.00  0.00     0.008 C 
ATOM     34  C   UNL     1      13.072 -18.631 -38.840  1.00  0.00     0.012 C 
ATOM     35  C   UNL     1      12.407 -20.408 -40.514  1.00  0.00     0.012 C 
ENDBRANCH  31  33
ENDBRANCH  30  31
ENDBRANCH   1  30
TORSDOF 7
ENDMDL
MODEL 8
REMARK VINA RESULT:    -6.467      2.608      5.379
REMARK INTER + INTRA:          -9.865
REMARK INTER:                  -8.177
REMARK INTRA:                  -1.688
REMARK UNBOUND:                -0.940
REMARK SMILES C=C(CC[C@@H](C(=O)[O-])[C@@H]1CC[C@]2(C)C3=C(CC[C@@]12C)[C@]1(C)CC[C@@H](O)C(C)(C)[C@H]1CC3)C(C)C
REMARK SMILES IDX 4 1 5 2 6 3 7 4 8 5 9 6 10 7 18 8 11 9 12 10 17 11 19 12
REMARK SMILES IDX 13 13 14 14 16 15 15 16 31 17 20 18 30 19 29 20 22 21 21 22
REMARK SMILES IDX 26 23 23 24 24 25 27 26 28 27 25 28 3 30 2 31 1 32 32 33
REMARK SMILES IDX 33 34 34 35
REMARK H PARENT 25 29
REMARK Flexibility Score: inf
ROOT
ATOM      1  C   UNL     1      -0.185 -13.909 -38.264  1.00  0.00     0.014 C 
ENDROOT
BRANCH   1   2
ATOM      2  C   UNL     1       1.197 -13.276 -37.963  1.00  0.00     0.039 C 
BRANCH   2   3
ATOM      3  C   UNL     1       1.002 -11.847 -37.511  1.00  0.00     0.045 C 
ATOM      4  O   UNL     1       1.422 -10.898 -38.224  1.00  0.00    -0.550 OA
ATOM      5  O   UNL     1       0.318 -11.565 -36.333  1.00  0.00    -0.550 OA
ENDBRANCH   2   3
BRANCH   2   6
ATOM      6  C   UNL     1       2.100 -14.071 -36.955  1.00  0.00     0.004 C 
ATOM      7  C   UNL     1       3.314 -13.221 -36.484  1.00  0.00     0.006 C 
ATOM      8  C   UNL     1       2.758 -15.406 -37.426  1.00  0.00    -0.020 C 
ATOM      9  C   UNL     1       4.522 -14.166 -36.354  1.00  0.00     0.012 C 
ATOM     10  C   UNL     1       3.922 -15.580 -36.402  1.00  0.00    -0.006 C 
ATOM     11  C   UNL     1       1.881 -16.670 -37.341  1.00  0.00     0.012 C 
ATOM     12  C   UNL     1       3.276 -15.253 -38.901  1.00  0.00     0.012 C 
ATOM     13  C   UNL     1       3.475 -15.941 -34.946  1.00  0.00     0.017 C 
ATOM     14  C   UNL     1       4.832 -16.714 -36.854  1.00  0.00    -0.064 C 
ATOM     15  C   UNL     1       2.717 -17.968 -37.512  1.00  0.00     0.032 C 
ATOM     16  C   UNL     1       4.248 -17.880 -37.292  1.00  0.00    -0.064 C 
ATOM     17  C   UNL     1       6.327 -16.590 -36.576  1.00  0.00     0.032 C 
ATOM     18  C   UNL     1       5.118 -19.078 -37.736  1.00  0.00    -0.008 C 
ATOM     19  C   UNL     1       7.187 -17.780 -37.016  1.00  0.00     0.009 C 
ATOM     20  C   UNL     1       6.418 -19.105 -36.852  1.00  0.00     0.007 C 
ATOM     21  C   UNL     1       4.350 -20.414 -37.524  1.00  0.00     0.014 C 
ATOM     22  C   UNL     1       5.379 -18.868 -39.254  1.00  0.00     0.016 C 
ATOM     23  C   UNL     1       7.319 -20.409 -36.917  1.00  0.00    -0.006 C 
ATOM     24  C   UNL     1       5.220 -21.651 -37.754  1.00  0.00     0.033 C 
ATOM     25  C   UNL     1       6.412 -21.674 -36.788  1.00  0.00     0.120 C 
ATOM     26  C   UNL     1       8.285 -20.420 -35.697  1.00  0.00     0.014 C 
ATOM     27  C   UNL     1       8.207 -20.498 -38.190  1.00  0.00     0.014 C 
BRANCH  25  28
ATOM     28  O   UNL     1       7.165 -22.843 -37.004  1.00  0.00    -0.393 OA
ATOM     29  H   UNL     1       6.645 -23.411 -37.633  1.00  0.00     0.210 HD
ENDBRANCH  25  28
ENDBRANCH   2   6
ENDBRANCH   1   2
BRANCH   1  30
ATOM     30  C   UNL     1      -0.824 -13.471 -39.594  1.00  0.00     0.031 C 
BRANCH  30  31
ATOM     31  C   UNL     1      -0.059 -14.049 -40.764  1.00  0.00    -0.075 C 
ATOM     32  C   UNL     1       0.131 -15.379 -40.843  1.00  0.00     0.008 C 
BRANCH  31  33
ATOM     33  C   UNL     1       0.528 -13.107 -41.805  1.00  0.00     0.008 C 
ATOM     34  C   UNL     1       1.968 -12.718 -41.450  1.00  0.00     0.012 C 
ATOM     35  C   UNL     1      -0.350 -11.865 -41.998  1.00  0.00     0.012 C 
ENDBRANCH  31  33
ENDBRANCH  30  31
ENDBRANCH   1  30
TORSDOF 7
ENDMDL
MODEL 9
REMARK VINA RESULT:    -6.418      3.379      9.686
REMARK INTER + INTRA:          -9.796
REMARK INTER:                  -8.675
REMARK INTRA:                  -1.122
REMARK UNBOUND:                -0.940
REMARK SMILES C=C(CC[C@@H](C(=O)[O-])[C@@H]1CC[C@]2(C)C3=C(CC[C@@]12C)[C@]1(C)CC[C@@H](O)C(C)(C)[C@H]1CC3)C(C)C
REMARK SMILES IDX 4 1 5 2 6 3 7 4 8 5 9 6 10 7 18 8 11 9 12 10 17 11 19 12
REMARK SMILES IDX 13 13 14 14 16 15 15 16 31 17 20 18 30 19 29 20 22 21 21 22
REMARK SMILES IDX 26 23 23 24 24 25 27 26 28 27 25 28 3 30 2 31 1 32 32 33
REMARK SMILES IDX 33 34 34 35
REMARK H PARENT 25 29
REMARK Flexibility Score: inf
ROOT
ATOM      1  C   UNL     1      13.398 -22.231 -40.984  1.00  0.00     0.014 C 
ENDROOT
BRANCH   1   2
ATOM      2  C   UNL     1      12.331 -22.803 -40.016  1.00  0.00     0.039 C 
BRANCH   2   3
ATOM      3  C   UNL     1      12.788 -24.154 -39.515  1.00  0.00     0.045 C 
ATOM      4  O   UNL     1      13.988 -24.324 -39.169  1.00  0.00    -0.550 OA
ATOM      5  O   UNL     1      11.886 -25.204 -39.385  1.00  0.00    -0.550 OA
ENDBRANCH   2   3
BRANCH   2   6
ATOM      6  C   UNL     1      11.926 -21.865 -38.825  1.00  0.00     0.004 C 
ATOM      7  C   UNL     1      11.666 -22.674 -37.523  1.00  0.00     0.006 C 
ATOM      8  C   UNL     1      10.644 -20.986 -38.963  1.00  0.00    -0.020 C 
ATOM      9  C   UNL     1      10.486 -22.012 -36.790  1.00  0.00     0.012 C 
ATOM     10  C   UNL     1      10.314 -20.648 -37.476  1.00  0.00    -0.006 C 
ATOM     11  C   UNL     1      10.806 -19.648 -39.710  1.00  0.00     0.012 C 
ATOM     12  C   UNL     1       9.503 -21.812 -39.656  1.00  0.00     0.012 C 
ATOM     13  C   UNL     1      11.307 -19.655 -36.785  1.00  0.00     0.017 C 
ATOM     14  C   UNL     1       8.942 -19.990 -37.395  1.00  0.00    -0.064 C 
ATOM     15  C   UNL     1       9.580 -18.717 -39.505  1.00  0.00     0.032 C 
ATOM     16  C   UNL     1       8.640 -19.007 -38.309  1.00  0.00    -0.064 C 
ATOM     17  C   UNL     1       8.075 -20.283 -36.175  1.00  0.00     0.032 C 
ATOM     18  C   UNL     1       7.276 -18.281 -38.261  1.00  0.00    -0.008 C 
ATOM     19  C   UNL     1       6.725 -19.560 -36.130  1.00  0.00     0.009 C 
ATOM     20  C   UNL     1       6.829 -18.157 -36.759  1.00  0.00     0.007 C 
ATOM     21  C   UNL     1       7.402 -16.850 -38.857  1.00  0.00     0.014 C 
ATOM     22  C   UNL     1       6.319 -19.126 -39.148  1.00  0.00     0.016 C 
ATOM     23  C   UNL     1       5.613 -17.191 -36.436  1.00  0.00    -0.006 C 
ATOM     24  C   UNL     1       6.144 -16.003 -38.662  1.00  0.00     0.033 C 
ATOM     25  C   UNL     1       5.822 -15.829 -37.172  1.00  0.00     0.120 C 
ATOM     26  C   UNL     1       5.602 -16.882 -34.910  1.00  0.00     0.014 C 
ATOM     27  C   UNL     1       4.222 -17.793 -36.779  1.00  0.00     0.014 C 
BRANCH  25  28
ATOM     28  O   UNL     1       4.682 -15.015 -37.032  1.00  0.00    -0.393 OA
ATOM     29  H   UNL     1       4.219 -15.012 -37.911  1.00  0.00     0.210 HD
ENDBRANCH  25  28
ENDBRANCH   2   6
ENDBRANCH   1   2
BRANCH   1  30
ATOM     30  C   UNL     1      14.084 -20.940 -40.503  1.00  0.00     0.031 C 
BRANCH  30  31
ATOM     31  C   UNL     1      15.501 -21.229 -40.058  1.00  0.00    -0.075 C 
ATOM     32  C   UNL     1      15.758 -21.449 -38.756  1.00  0.00     0.008 C 
BRANCH  31  33
ATOM     33  C   UNL     1      16.620 -21.213 -41.089  1.00  0.00     0.008 C 
ATOM     34  C   UNL     1      17.902 -20.607 -40.506  1.00  0.00     0.012 C 
ATOM     35  C   UNL     1      16.195 -20.484 -42.369  1.00  0.00     0.012 C 
ENDBRANCH  31  33
ENDBRANCH  30  31
ENDBRANCH   1  30
TORSDOF 7
ENDMDL
