MODEL 1
REMARK VINA RESULT:    -5.105      0.000      0.000
REMARK INTER + INTRA:          -7.008
REMARK INTER:                  -6.598
REMARK INTRA:                  -0.411
REMARK UNBOUND:                -0.411
REMARK SMILES CCO[C@H]1O[C@@H](CO)[C@H](O)[C@H](O)[C@@H]1O
REMARK SMILES IDX 4 1 13 2 11 3 9 4 6 5 5 6 3 7 2 8 1 9 14 10 12 12 7 14 8 15
REMARK SMILES IDX 10 17
REMARK H PARENT 14 11 12 13 8 16 10 18
REMARK Flexibility Score: inf
ROOT
ATOM      1  C   UNL     1      20.350  -4.808  31.869  1.00  0.00     0.281 C 
ATOM      2  C   UNL     1      19.665  -3.430  31.880  1.00  0.00     0.202 C 
ATOM      3  C   UNL     1      18.363  -3.479  32.691  1.00  0.00     0.179 C 
ATOM      4  C   UNL     1      17.468  -4.623  32.192  1.00  0.00     0.177 C 
ATOM      5  C   UNL     1      18.257  -5.954  32.121  1.00  0.00     0.178 C 
ATOM      6  O   UNL     1      19.487  -5.843  31.408  1.00  0.00    -0.341 OA
ENDROOT
BRANCH   1   7
ATOM      7  O   UNL     1      20.860  -5.110  33.161  1.00  0.00    -0.350 OA
BRANCH   7   8
ATOM      8  C   UNL     1      22.265  -5.287  33.156  1.00  0.00     0.160 C 
ATOM      9  C   UNL     1      22.683  -6.451  32.258  1.00  0.00     0.035 C 
ENDBRANCH   7   8
ENDBRANCH   1   7
BRANCH   2  10
ATOM     10  O   UNL     1      19.407  -3.030  30.557  1.00  0.00    -0.385 OA
ATOM     11  H   UNL     1      19.981  -3.583  29.966  1.00  0.00     0.211 HD
ENDBRANCH   2  10
BRANCH   3  12
ATOM     12  O   UNL     1      17.695  -2.249  32.584  1.00  0.00    -0.387 OA
ATOM     13  H   UNL     1      18.320  -1.622  32.133  1.00  0.00     0.211 HD
ENDBRANCH   3  12
BRANCH   5  14
ATOM     14  C   UNL     1      18.423  -6.642  33.490  1.00  0.00     0.191 C 
BRANCH  14  15
ATOM     15  O   UNL     1      19.314  -7.719  33.377  1.00  0.00    -0.394 OA
ATOM     16  H   UNL     1      19.969  -7.464  32.674  1.00  0.00     0.210 HD
ENDBRANCH  14  15
ENDBRANCH   5  14
BRANCH   4  17
ATOM     17  O   UNL     1      16.961  -4.303  30.919  1.00  0.00    -0.387 OA
ATOM     18  H   UNL     1      16.932  -5.148  30.397  1.00  0.00     0.211 HD
ENDBRANCH   4  17
TORSDOF 7
ENDMDL
MODEL 2
REMARK VINA RESULT:    -5.096      7.154      9.494
REMARK INTER + INTRA:          -6.996
REMARK INTER:                  -6.631
REMARK INTRA:                  -0.365
REMARK UNBOUND:                -0.411
REMARK SMILES CCO[C@H]1O[C@@H](CO)[C@H](O)[C@H](O)[C@@H]1O
REMARK SMILES IDX 4 1 13 2 11 3 9 4 6 5 5 6 3 7 2 8 1 9 14 10 12 12 7 14 8 15
REMARK SMILES IDX 10 17
REMARK H PARENT 14 11 12 13 8 16 10 18
REMARK Flexibility Score: inf
ROOT
ATOM      1  C   UNL     1      23.451  -7.472  38.998  1.00  0.00     0.281 C 
ATOM      2  C   UNL     1      24.611  -7.565  40.004  1.00  0.00     0.202 C 
ATOM      3  C   UNL     1      25.059  -6.164  40.443  1.00  0.00     0.179 C 
ATOM      4  C   UNL     1      25.357  -5.291  39.216  1.00  0.00     0.177 C 
ATOM      5  C   UNL     1      24.180  -5.327  38.210  1.00  0.00     0.178 C 
ATOM      6  O   UNL     1      23.763  -6.649  37.878  1.00  0.00    -0.341 OA
ENDROOT
BRANCH   1   7
ATOM      7  O   UNL     1      22.273  -7.016  39.651  1.00  0.00    -0.350 OA
BRANCH   7   8
ATOM      8  C   UNL     1      21.488  -8.085  40.150  1.00  0.00     0.160 C 
ATOM      9  C   UNL     1      20.052  -7.648  40.430  1.00  0.00     0.035 C 
ENDBRANCH   7   8
ENDBRANCH   1   7
BRANCH   2  10
ATOM     10  O   UNL     1      25.681  -8.262  39.415  1.00  0.00    -0.385 OA
ATOM     11  H   UNL     1      25.799  -9.104  39.926  1.00  0.00     0.211 HD
ENDBRANCH   2  10
BRANCH   3  12
ATOM     12  O   UNL     1      26.195  -6.268  41.261  1.00  0.00    -0.387 OA
ATOM     13  H   UNL     1      26.456  -5.341  41.507  1.00  0.00     0.211 HD
ENDBRANCH   3  12
BRANCH   5  14
ATOM     14  C   UNL     1      23.004  -4.414  38.609  1.00  0.00     0.191 C 
BRANCH  14  15
ATOM     15  O   UNL     1      21.892  -4.689  37.801  1.00  0.00    -0.394 OA
ATOM     16  H   UNL     1      21.302  -3.891  37.860  1.00  0.00     0.210 HD
ENDBRANCH  14  15
ENDBRANCH   5  14
BRANCH   4  17
ATOM     17  O   UNL     1      26.532  -5.746  38.588  1.00  0.00    -0.387 OA
ATOM     18  H   UNL     1      27.219  -5.040  38.711  1.00  0.00     0.211 HD
ENDBRANCH   4  17
TORSDOF 7
ENDMDL
MODEL 3
REMARK VINA RESULT:    -5.041      6.817      8.956
REMARK INTER + INTRA:          -6.926
REMARK INTER:                  -6.729
REMARK INTRA:                  -0.197
REMARK UNBOUND:                -0.411
REMARK SMILES CCO[C@H]1O[C@@H](CO)[C@H](O)[C@H](O)[C@@H]1O
REMARK SMILES IDX 4 1 13 2 11 3 9 4 6 5 5 6 3 7 2 8 1 9 14 10 12 12 7 14 8 15
REMARK SMILES IDX 10 17
REMARK H PARENT 14 11 12 13 8 16 10 18
REMARK Flexibility Score: inf
ROOT
ATOM      1  C   UNL     1      23.409  -5.780  37.913  1.00  0.00     0.281 C 
ATOM      2  C   UNL     1      22.492  -6.964  38.265  1.00  0.00     0.202 C 
ATOM      3  C   UNL     1      22.791  -7.478  39.680  1.00  0.00     0.179 C 
ATOM      4  C   UNL     1      24.290  -7.774  39.833  1.00  0.00     0.177 C 
ATOM      5  C   UNL     1      25.144  -6.568  39.370  1.00  0.00     0.178 C 
ATOM      6  O   UNL     1      24.790  -6.091  38.074  1.00  0.00    -0.341 OA
ENDROOT
BRANCH   1   7
ATOM      7  O   UNL     1      23.052  -4.640  38.683  1.00  0.00    -0.350 OA
BRANCH   7   8
ATOM      8  C   UNL     1      22.396  -3.652  37.908  1.00  0.00     0.160 C 
ATOM      9  C   UNL     1      23.227  -3.244  36.693  1.00  0.00     0.035 C 
ENDBRANCH   7   8
ENDBRANCH   1   7
BRANCH   2  10
ATOM     10  O   UNL     1      22.676  -7.989  37.320  1.00  0.00    -0.385 OA
ATOM     11  H   UNL     1      22.394  -7.630  36.439  1.00  0.00     0.211 HD
ENDBRANCH   2  10
BRANCH   3  12
ATOM     12  O   UNL     1      22.033  -8.632  39.932  1.00  0.00    -0.387 OA
ATOM     13  H   UNL     1      21.477  -8.440  40.733  1.00  0.00     0.211 HD
ENDBRANCH   3  12
BRANCH   5  14
ATOM     14  C   UNL     1      25.231  -5.440  40.416  1.00  0.00     0.191 C 
BRANCH  14  15
ATOM     15  O   UNL     1      26.075  -5.828  41.466  1.00  0.00    -0.394 OA
ATOM     16  H   UNL     1      26.634  -5.034  41.681  1.00  0.00     0.210 HD
ENDBRANCH  14  15
ENDBRANCH   5  14
BRANCH   4  17
ATOM     17  O   UNL     1      24.625  -8.912  39.076  1.00  0.00    -0.387 OA
ATOM     18  H   UNL     1      23.772  -9.339  38.800  1.00  0.00     0.211 HD
ENDBRANCH   4  17
TORSDOF 7
ENDMDL
MODEL 4
REMARK VINA RESULT:    -4.942      1.684      2.394
REMARK INTER + INTRA:          -6.797
REMARK INTER:                  -6.358
REMARK INTRA:                  -0.439
REMARK UNBOUND:                -0.411
REMARK SMILES CCO[C@H]1O[C@@H](CO)[C@H](O)[C@H](O)[C@@H]1O
REMARK SMILES IDX 4 1 13 2 11 3 9 4 6 5 5 6 3 7 2 8 1 9 14 10 12 12 7 14 8 15
REMARK SMILES IDX 10 17
REMARK H PARENT 14 11 12 13 8 16 10 18
REMARK Flexibility Score: inf
ROOT
ATOM      1  C   UNL     1      20.353  -3.775  32.753  1.00  0.00     0.281 C 
ATOM      2  C   UNL     1      19.079  -3.412  31.972  1.00  0.00     0.202 C 
ATOM      3  C   UNL     1      18.170  -4.639  31.819  1.00  0.00     0.179 C 
ATOM      4  C   UNL     1      18.959  -5.815  31.225  1.00  0.00     0.177 C 
ATOM      5  C   UNL     1      20.273  -6.054  32.010  1.00  0.00     0.178 C 
ATOM      6  O   UNL     1      21.053  -4.873  32.177  1.00  0.00    -0.341 OA
ENDROOT
BRANCH   1   7
ATOM      7  O   UNL     1      20.035  -4.033  34.114  1.00  0.00    -0.350 OA
BRANCH   7   8
ATOM      8  C   UNL     1      20.966  -3.444  35.005  1.00  0.00     0.160 C 
ATOM      9  C   UNL     1      21.095  -1.940  34.773  1.00  0.00     0.035 C 
ENDBRANCH   7   8
ENDBRANCH   1   7
BRANCH   2  10
ATOM     10  O   UNL     1      19.437  -2.904  30.711  1.00  0.00    -0.385 OA
ATOM     11  H   UNL     1      19.176  -1.947  30.695  1.00  0.00     0.211 HD
ENDBRANCH   2  10
BRANCH   3  12
ATOM     12  O   UNL     1      17.077  -4.317  30.999  1.00  0.00    -0.387 OA
ATOM     13  H   UNL     1      16.404  -3.873  31.580  1.00  0.00     0.211 HD
ENDBRANCH   3  12
BRANCH   5  14
ATOM     14  C   UNL     1      20.066  -6.822  33.331  1.00  0.00     0.191 C 
BRANCH  14  15
ATOM     15  O   UNL     1      21.286  -6.931  34.015  1.00  0.00    -0.394 OA
ATOM     16  H   UNL     1      21.543  -6.006  34.271  1.00  0.00     0.210 HD
ENDBRANCH  14  15
ENDBRANCH   5  14
BRANCH   4  17
ATOM     17  O   UNL     1      19.255  -5.551  29.875  1.00  0.00    -0.387 OA
ATOM     18  H   UNL     1      19.989  -4.881  29.864  1.00  0.00     0.211 HD
ENDBRANCH   4  17
TORSDOF 7
ENDMDL
MODEL 5
REMARK VINA RESULT:    -4.871      2.019      4.556
REMARK INTER + INTRA:          -6.705
REMARK INTER:                  -6.256
REMARK INTRA:                  -0.449
REMARK UNBOUND:                -0.411
REMARK SMILES CCO[C@H]1O[C@@H](CO)[C@H](O)[C@H](O)[C@@H]1O
REMARK SMILES IDX 4 1 13 2 11 3 9 4 6 5 5 6 3 7 2 8 1 9 14 10 12 12 7 14 8 15
REMARK SMILES IDX 10 17
REMARK H PARENT 14 11 12 13 8 16 10 18
REMARK Flexibility Score: inf
ROOT
ATOM      1  C   UNL     1      19.821  -7.148  32.906  1.00  0.00     0.281 C 
ATOM      2  C   UNL     1      20.858  -6.891  34.014  1.00  0.00     0.202 C 
ATOM      3  C   UNL     1      21.541  -5.532  33.812  1.00  0.00     0.179 C 
ATOM      4  C   UNL     1      22.103  -5.426  32.386  1.00  0.00     0.177 C 
ATOM      5  C   UNL     1      21.024  -5.790  31.336  1.00  0.00     0.178 C 
ATOM      6  O   UNL     1      20.378  -7.033  31.600  1.00  0.00    -0.341 OA
ENDROOT
BRANCH   1   7
ATOM      7  O   UNL     1      18.712  -6.273  33.065  1.00  0.00    -0.350 OA
BRANCH   7   8
ATOM      8  C   UNL     1      17.478  -6.917  32.799  1.00  0.00     0.160 C 
ATOM      9  C   UNL     1      17.517  -8.394  33.188  1.00  0.00     0.035 C 
ENDBRANCH   7   8
ENDBRANCH   1   7
BRANCH   2  10
ATOM     10  O   UNL     1      21.809  -7.927  34.006  1.00  0.00    -0.385 OA
ATOM     11  H   UNL     1      22.009  -8.149  34.953  1.00  0.00     0.211 HD
ENDBRANCH   2  10
BRANCH   3  12
ATOM     12  O   UNL     1      22.567  -5.375  34.757  1.00  0.00    -0.387 OA
ATOM     13  H   UNL     1      22.406  -6.050  35.468  1.00  0.00     0.211 HD
ENDBRANCH   3  12
BRANCH   5  14
ATOM     14  C   UNL     1      20.027  -4.647  31.060  1.00  0.00     0.191 C 
BRANCH  14  15
ATOM     15  O   UNL     1      19.047  -5.078  30.154  1.00  0.00    -0.394 OA
ATOM     16  H   UNL     1      18.534  -4.268  29.895  1.00  0.00     0.210 HD
ENDBRANCH  14  15
ENDBRANCH   5  14
BRANCH   4  17
ATOM     17  O   UNL     1      23.208  -6.286  32.249  1.00  0.00    -0.387 OA
ATOM     18  H   UNL     1      24.016  -5.761  32.487  1.00  0.00     0.211 HD
ENDBRANCH   4  17
TORSDOF 7
ENDMDL
MODEL 6
REMARK VINA RESULT:    -4.739     17.157     18.688
REMARK INTER + INTRA:          -6.534
REMARK INTER:                  -6.289
REMARK INTRA:                  -0.246
REMARK UNBOUND:                -0.411
REMARK SMILES CCO[C@H]1O[C@@H](CO)[C@H](O)[C@H](O)[C@@H]1O
REMARK SMILES IDX 4 1 13 2 11 3 9 4 6 5 5 6 3 7 2 8 1 9 14 10 12 12 7 14 8 15
REMARK SMILES IDX 10 17
REMARK H PARENT 14 11 12 13 8 16 10 18
REMARK Flexibility Score: inf
ROOT
ATOM      1  C   UNL     1      27.507   5.788  44.686  1.00  0.00     0.281 C 
ATOM      2  C   UNL     1      27.029   7.202  44.312  1.00  0.00     0.202 C 
ATOM      3  C   UNL     1      27.751   7.702  43.053  1.00  0.00     0.179 C 
ATOM      4  C   UNL     1      29.272   7.576  43.226  1.00  0.00     0.177 C 
ATOM      5  C   UNL     1      29.661   6.152  43.694  1.00  0.00     0.178 C 
ATOM      6  O   UNL     1      28.922   5.710  44.830  1.00  0.00    -0.341 OA
ENDROOT
BRANCH   1   7
ATOM      7  O   UNL     1      27.041   4.846  43.729  1.00  0.00    -0.350 OA
BRANCH   7   8
ATOM      8  C   UNL     1      26.709   3.601  44.318  1.00  0.00     0.160 C 
ATOM      9  C   UNL     1      25.579   3.743  45.336  1.00  0.00     0.035 C 
ENDBRANCH   7   8
ENDBRANCH   1   7
BRANCH   2  10
ATOM     10  O   UNL     1      27.264   8.071  45.392  1.00  0.00    -0.385 OA
ATOM     11  H   UNL     1      27.722   8.873  45.029  1.00  0.00     0.211 HD
ENDBRANCH   2  10
BRANCH   3  12
ATOM     12  O   UNL     1      27.394   9.036  42.803  1.00  0.00    -0.387 OA
ATOM     13  H   UNL     1      28.240   9.555  42.759  1.00  0.00     0.211 HD
ENDBRANCH   3  12
BRANCH   5  14
ATOM     14  C   UNL     1      29.676   5.114  42.554  1.00  0.00     0.191 C 
BRANCH  14  15
ATOM     15  O   UNL     1      30.058   5.731  41.354  1.00  0.00    -0.394 OA
ATOM     16  H   UNL     1      31.051   5.690  41.325  1.00  0.00     0.210 HD
ENDBRANCH  14  15
ENDBRANCH   5  14
BRANCH   4  17
ATOM     17  O   UNL     1      29.719   8.523  44.166  1.00  0.00    -0.387 OA
ATOM     18  H   UNL     1      30.467   9.022  43.742  1.00  0.00     0.211 HD
ENDBRANCH   4  17
TORSDOF 7
ENDMDL
MODEL 7
REMARK VINA RESULT:    -4.576     11.328     12.894
REMARK INTER + INTRA:          -6.324
REMARK INTER:                  -5.909
REMARK INTRA:                  -0.415
REMARK UNBOUND:                -0.411
REMARK SMILES CCO[C@H]1O[C@@H](CO)[C@H](O)[C@H](O)[C@@H]1O
REMARK SMILES IDX 4 1 13 2 11 3 9 4 6 5 5 6 3 7 2 8 1 9 14 10 12 12 7 14 8 15
REMARK SMILES IDX 10 17
REMARK H PARENT 14 11 12 13 8 16 10 18
REMARK Flexibility Score: inf
ROOT
ATOM      1  C   UNL     1      12.373  -2.566  42.154  1.00  0.00     0.281 C 
ATOM      2  C   UNL     1      12.641  -4.080  42.112  1.00  0.00     0.202 C 
ATOM      3  C   UNL     1      11.635  -4.783  41.190  1.00  0.00     0.179 C 
ATOM      4  C   UNL     1      10.199  -4.407  41.585  1.00  0.00     0.177 C 
ATOM      5  C   UNL     1      10.038  -2.871  41.698  1.00  0.00     0.178 C 
ATOM      6  O   UNL     1      11.030  -2.258  42.517  1.00  0.00    -0.341 OA
ENDROOT
BRANCH   1   7
ATOM      7  O   UNL     1      12.710  -1.976  40.905  1.00  0.00    -0.350 OA
BRANCH   7   8
ATOM      8  C   UNL     1      13.858  -1.151  40.994  1.00  0.00     0.160 C 
ATOM      9  C   UNL     1      13.722  -0.112  42.105  1.00  0.00     0.035 C 
ENDBRANCH   7   8
ENDBRANCH   1   7
BRANCH   2  10
ATOM     10  O   UNL     1      12.561  -4.602  43.416  1.00  0.00    -0.385 OA
ATOM     11  H   UNL     1      11.623  -4.892  43.560  1.00  0.00     0.211 HD
ENDBRANCH   2  10
BRANCH   3  12
ATOM     12  O   UNL     1      11.817  -6.173  41.265  1.00  0.00    -0.387 OA
ATOM     13  H   UNL     1      11.605  -6.537  40.365  1.00  0.00     0.211 HD
ENDBRANCH   3  12
BRANCH   5  14
ATOM     14  C   UNL     1       9.876  -2.170  40.334  1.00  0.00     0.191 C 
BRANCH  14  15
ATOM     15  O   UNL     1       9.941  -0.780  40.502  1.00  0.00    -0.394 OA
ATOM     16  H   UNL     1      10.501  -0.437  39.756  1.00  0.00     0.210 HD
ENDBRANCH  14  15
ENDBRANCH   5  14
BRANCH   4  17
ATOM     17  O   UNL     1       9.876  -5.009  42.816  1.00  0.00    -0.387 OA
ATOM     18  H   UNL     1      10.412  -4.550  43.514  1.00  0.00     0.211 HD
ENDBRANCH   4  17
TORSDOF 7
ENDMDL
MODEL 8
REMARK VINA RESULT:    -4.443     17.625     19.015
REMARK INTER + INTRA:          -6.152
REMARK INTER:                  -5.729
REMARK INTRA:                  -0.423
REMARK UNBOUND:                -0.411
REMARK SMILES CCO[C@H]1O[C@@H](CO)[C@H](O)[C@H](O)[C@@H]1O
REMARK SMILES IDX 4 1 13 2 11 3 9 4 6 5 5 6 3 7 2 8 1 9 14 10 12 12 7 14 8 15
REMARK SMILES IDX 10 17
REMARK H PARENT 14 11 12 13 8 16 10 18
REMARK Flexibility Score: inf
ROOT
ATOM      1  C   UNL     1      23.935   8.545  45.619  1.00  0.00     0.281 C 
ATOM      2  C   UNL     1      25.132   9.210  44.919  1.00  0.00     0.202 C 
ATOM      3  C   UNL     1      24.974   9.140  43.394  1.00  0.00     0.179 C 
ATOM      4  C   UNL     1      24.709   7.693  42.952  1.00  0.00     0.177 C 
ATOM      5  C   UNL     1      23.552   7.066  43.769  1.00  0.00     0.178 C 
ATOM      6  O   UNL     1      23.716   7.209  45.178  1.00  0.00    -0.341 OA
ENDROOT
BRANCH   1   7
ATOM      7  O   UNL     1      22.766   9.336  45.443  1.00  0.00    -0.350 OA
BRANCH   7   8
ATOM      8  C   UNL     1      22.382   9.999  46.635  1.00  0.00     0.160 C 
ATOM      9  C   UNL     1      21.436   9.145  47.476  1.00  0.00     0.035 C 
ENDBRANCH   7   8
ENDBRANCH   1   7
BRANCH   2  10
ATOM     10  O   UNL     1      26.318   8.569  45.321  1.00  0.00    -0.385 OA
ATOM     11  H   UNL     1      26.550   7.911  44.616  1.00  0.00     0.211 HD
ENDBRANCH   2  10
BRANCH   3  12
ATOM     12  O   UNL     1      26.133   9.638  42.776  1.00  0.00    -0.387 OA
ATOM     13  H   UNL     1      26.464   8.923  42.171  1.00  0.00     0.211 HD
ENDBRANCH   3  12
BRANCH   5  14
ATOM     14  C   UNL     1      22.155   7.501  43.286  1.00  0.00     0.191 C 
BRANCH  14  15
ATOM     15  O   UNL     1      21.176   7.034  44.175  1.00  0.00    -0.394 OA
ATOM     16  H   UNL     1      20.995   6.091  43.918  1.00  0.00     0.210 HD
ENDBRANCH  14  15
ENDBRANCH   5  14
BRANCH   4  17
ATOM     17  O   UNL     1      25.878   6.927  43.120  1.00  0.00    -0.387 OA
ATOM     18  H   UNL     1      26.236   7.138  44.021  1.00  0.00     0.211 HD
ENDBRANCH   4  17
TORSDOF 7
ENDMDL
MODEL 9
REMARK VINA RESULT:    -4.395     16.850     18.094
REMARK INTER + INTRA:          -6.090
REMARK INTER:                  -5.658
REMARK INTRA:                  -0.432
REMARK UNBOUND:                -0.411
REMARK SMILES CCO[C@H]1O[C@@H](CO)[C@H](O)[C@H](O)[C@@H]1O
REMARK SMILES IDX 4 1 13 2 11 3 9 4 6 5 5 6 3 7 2 8 1 9 14 10 12 12 7 14 8 15
REMARK SMILES IDX 10 17
REMARK H PARENT 14 11 12 13 8 16 10 18
REMARK Flexibility Score: inf
ROOT
ATOM      1  C   UNL     1      27.201   7.475  43.709  1.00  0.00     0.281 C 
ATOM      2  C   UNL     1      26.791   7.770  45.162  1.00  0.00     0.202 C 
ATOM      3  C   UNL     1      26.019   6.585  45.758  1.00  0.00     0.179 C 
ATOM      4  C   UNL     1      24.850   6.195  44.840  1.00  0.00     0.177 C 
ATOM      5  C   UNL     1      25.331   6.010  43.379  1.00  0.00     0.178 C 
ATOM      6  O   UNL     1      26.093   7.111  42.892  1.00  0.00    -0.341 OA
ENDROOT
BRANCH   1   7
ATOM      7  O   UNL     1      28.206   6.470  43.680  1.00  0.00    -0.350 OA
BRANCH   7   8
ATOM      8  C   UNL     1      29.336   6.863  42.921  1.00  0.00     0.160 C 
ATOM      9  C   UNL     1      29.723   5.801  41.894  1.00  0.00     0.035 C 
ENDBRANCH   7   8
ENDBRANCH   1   7
BRANCH   2  10
ATOM     10  O   UNL     1      26.005   8.936  45.195  1.00  0.00    -0.385 OA
ATOM     11  H   UNL     1      25.301   8.835  44.503  1.00  0.00     0.211 HD
ENDBRANCH   2  10
BRANCH   3  12
ATOM     12  O   UNL     1      25.548   6.923  47.036  1.00  0.00    -0.387 OA
ATOM     13  H   UNL     1      24.924   6.200  47.312  1.00  0.00     0.211 HD
ENDBRANCH   3  12
BRANCH   5  14
ATOM     14  C   UNL     1      26.018   4.653  43.128  1.00  0.00     0.191 C 
BRANCH  14  15
ATOM     15  O   UNL     1      26.498   4.599  41.812  1.00  0.00    -0.394 OA
ATOM     16  H   UNL     1      26.556   3.634  41.577  1.00  0.00     0.210 HD
ENDBRANCH  14  15
ENDBRANCH   5  14
BRANCH   4  17
ATOM     17  O   UNL     1      23.859   7.193  44.890  1.00  0.00    -0.387 OA
ATOM     18  H   UNL     1      23.041   6.811  44.476  1.00  0.00     0.211 HD
ENDBRANCH   4  17
TORSDOF 7
ENDMDL
