MODEL 1
REMARK VINA RESULT:    -3.699      0.000      0.000
REMARK INTER + INTRA:          -4.051
REMARK INTER:                  -4.023
REMARK INTRA:                  -0.028
REMARK UNBOUND:                -0.028
REMARK SMILES O=C([O-])c1ccc(O)cc1
REMARK SMILES IDX 4 1 5 2 10 3 6 4 9 5 7 6 2 7 1 8 3 9 8 10
REMARK H PARENT 8 11
REMARK Flexibility Score: inf
ROOT
ATOM      1  C   UNL     1      34.130 -44.164  -3.947  1.00  0.00    -0.003 A 
ATOM      2  C   UNL     1      32.746 -43.919  -3.963  1.00  0.00     0.014 A 
ATOM      3  C   UNL     1      35.018 -43.077  -4.034  1.00  0.00     0.014 A 
ATOM      4  C   UNL     1      32.261 -42.611  -4.066  1.00  0.00     0.047 A 
ATOM      5  C   UNL     1      34.529 -41.770  -4.138  1.00  0.00     0.047 A 
ATOM      6  C   UNL     1      33.148 -41.535  -4.153  1.00  0.00     0.115 A 
ENDROOT
BRANCH   1   7
ATOM      7  C   UNL     1      34.642 -45.548  -3.837  1.00  0.00     0.071 C 
ATOM      8  O   UNL     1      35.172 -46.116  -4.829  1.00  0.00    -0.545 OA
ATOM      9  O   UNL     1      34.546 -46.242  -2.636  1.00  0.00    -0.545 OA
ENDBRANCH   1   7
BRANCH   6  10
ATOM     10  O   UNL     1      32.650 -40.238  -4.256  1.00  0.00    -0.508 OA
ATOM     11  H   UNL     1      31.675 -40.028  -4.075  1.00  0.00     0.293 HD
ENDBRANCH   6  10
TORSDOF 2
ENDMDL
MODEL 2
REMARK VINA RESULT:    -3.684      0.182      1.847
REMARK INTER + INTRA:          -4.034
REMARK INTER:                  -4.007
REMARK INTRA:                  -0.027
REMARK UNBOUND:                -0.028
REMARK SMILES O=C([O-])c1ccc(O)cc1
REMARK SMILES IDX 4 1 5 2 10 3 6 4 9 5 7 6 2 7 1 8 3 9 8 10
REMARK H PARENT 8 11
REMARK Flexibility Score: inf
ROOT
ATOM      1  C   UNL     1      34.187 -44.251  -3.981  1.00  0.00    -0.003 A 
ATOM      2  C   UNL     1      35.021 -43.119  -3.991  1.00  0.00     0.014 A 
ATOM      3  C   UNL     1      32.795 -44.073  -4.067  1.00  0.00     0.014 A 
ATOM      4  C   UNL     1      34.472 -41.836  -4.085  1.00  0.00     0.047 A 
ATOM      5  C   UNL     1      32.249 -42.789  -4.160  1.00  0.00     0.047 A 
ATOM      6  C   UNL     1      33.088 -41.667  -4.169  1.00  0.00     0.115 A 
ENDROOT
BRANCH   1   7
ATOM      7  C   UNL     1      34.769 -45.607  -3.883  1.00  0.00     0.071 C 
ATOM      8  O   UNL     1      34.816 -46.206  -2.776  1.00  0.00    -0.545 OA
ATOM      9  O   UNL     1      35.274 -46.241  -5.013  1.00  0.00    -0.545 OA
ENDBRANCH   1   7
BRANCH   6  10
ATOM     10  O   UNL     1      32.555 -40.383  -4.262  1.00  0.00    -0.508 OA
ATOM     11  H   UNL     1      32.122 -40.049  -5.115  1.00  0.00     0.293 HD
ENDBRANCH   6  10
TORSDOF 2
ENDMDL
MODEL 3
REMARK VINA RESULT:    -3.500     20.339     20.709
REMARK INTER + INTRA:          -3.835
REMARK INTER:                  -3.799
REMARK INTRA:                  -0.036
REMARK UNBOUND:                -0.028
REMARK SMILES O=C([O-])c1ccc(O)cc1
REMARK SMILES IDX 4 1 5 2 10 3 6 4 9 5 7 6 2 7 1 8 3 9 8 10
REMARK H PARENT 8 11
REMARK Flexibility Score: inf
ROOT
ATOM      1  C   UNL     1      43.357 -40.461  14.311  1.00  0.00    -0.003 A 
ATOM      2  C   UNL     1      41.988 -40.153  14.408  1.00  0.00     0.014 A 
ATOM      3  C   UNL     1      44.251 -39.466  13.875  1.00  0.00     0.014 A 
ATOM      4  C   UNL     1      41.525 -38.877  14.074  1.00  0.00     0.047 A 
ATOM      5  C   UNL     1      43.784 -38.191  13.542  1.00  0.00     0.047 A 
ATOM      6  C   UNL     1      42.419 -37.893  13.641  1.00  0.00     0.115 A 
ENDROOT
BRANCH   1   7
ATOM      7  C   UNL     1      43.846 -41.811  14.665  1.00  0.00     0.071 C 
ATOM      8  O   UNL     1      43.057 -42.679  15.124  1.00  0.00    -0.545 OA
ATOM      9  O   UNL     1      45.186 -42.142  14.495  1.00  0.00    -0.545 OA
ENDBRANCH   1   7
BRANCH   6  10
ATOM     10  O   UNL     1      41.942 -36.626  13.312  1.00  0.00    -0.508 OA
ATOM     11  H   UNL     1      41.878 -36.318  12.349  1.00  0.00     0.293 HD
ENDBRANCH   6  10
TORSDOF 2
ENDMDL
MODEL 4
REMARK VINA RESULT:    -3.465      2.941      4.252
REMARK INTER + INTRA:          -3.797
REMARK INTER:                  -3.766
REMARK INTRA:                  -0.031
REMARK UNBOUND:                -0.028
REMARK SMILES O=C([O-])c1ccc(O)cc1
REMARK SMILES IDX 4 1 5 2 10 3 6 4 9 5 7 6 2 7 1 8 3 9 8 10
REMARK H PARENT 8 11
REMARK Flexibility Score: inf
ROOT
ATOM      1  C   UNL     1      35.004 -41.269  -4.212  1.00  0.00    -0.003 A 
ATOM      2  C   UNL     1      35.176 -40.243  -3.266  1.00  0.00     0.014 A 
ATOM      3  C   UNL     1      36.040 -41.537  -5.124  1.00  0.00     0.014 A 
ATOM      4  C   UNL     1      36.361 -39.501  -3.234  1.00  0.00     0.047 A 
ATOM      5  C   UNL     1      37.224 -40.793  -5.091  1.00  0.00     0.047 A 
ATOM      6  C   UNL     1      37.387 -39.773  -4.144  1.00  0.00     0.115 A 
ENDROOT
BRANCH   1   7
ATOM      7  C   UNL     1      33.750 -42.053  -4.244  1.00  0.00     0.071 C 
ATOM      8  O   UNL     1      33.781 -43.311  -4.294  1.00  0.00    -0.545 OA
ATOM      9  O   UNL     1      32.516 -41.411  -4.219  1.00  0.00    -0.545 OA
ENDBRANCH   1   7
BRANCH   6  10
ATOM     10  O   UNL     1      38.561 -39.026  -4.101  1.00  0.00    -0.508 OA
ATOM     11  H   UNL     1      39.466 -39.449  -4.273  1.00  0.00     0.293 HD
ENDBRANCH   6  10
TORSDOF 2
ENDMDL
MODEL 5
REMARK VINA RESULT:    -3.452     16.326     16.793
REMARK INTER + INTRA:          -3.782
REMARK INTER:                  -3.751
REMARK INTRA:                  -0.031
REMARK UNBOUND:                -0.028
REMARK SMILES O=C([O-])c1ccc(O)cc1
REMARK SMILES IDX 4 1 5 2 10 3 6 4 9 5 7 6 2 7 1 8 3 9 8 10
REMARK H PARENT 8 11
REMARK Flexibility Score: inf
ROOT
ATOM      1  C   UNL     1      34.422 -38.642  11.050  1.00  0.00    -0.003 A 
ATOM      2  C   UNL     1      34.282 -37.309  11.477  1.00  0.00     0.014 A 
ATOM      3  C   UNL     1      34.812 -39.620  11.983  1.00  0.00     0.014 A 
ATOM      4  C   UNL     1      34.528 -36.964  12.809  1.00  0.00     0.047 A 
ATOM      5  C   UNL     1      35.058 -39.270  13.314  1.00  0.00     0.047 A 
ATOM      6  C   UNL     1      34.916 -37.940  13.731  1.00  0.00     0.115 A 
ENDROOT
BRANCH   1   7
ATOM      7  C   UNL     1      34.161 -39.007   9.640  1.00  0.00     0.071 C 
ATOM      8  O   UNL     1      33.441 -40.001   9.358  1.00  0.00    -0.545 OA
ATOM      9  O   UNL     1      34.708 -38.255   8.605  1.00  0.00    -0.545 OA
ENDBRANCH   1   7
BRANCH   6  10
ATOM     10  O   UNL     1      35.157 -37.581  15.054  1.00  0.00    -0.508 OA
ATOM     11  H   UNL     1      35.669 -36.738  15.291  1.00  0.00     0.293 HD
ENDBRANCH   6  10
TORSDOF 2
ENDMDL
MODEL 6
REMARK VINA RESULT:    -3.449     16.353     16.801
REMARK INTER + INTRA:          -3.779
REMARK INTER:                  -3.751
REMARK INTRA:                  -0.028
REMARK UNBOUND:                -0.028
REMARK SMILES O=C([O-])c1ccc(O)cc1
REMARK SMILES IDX 4 1 5 2 10 3 6 4 9 5 7 6 2 7 1 8 3 9 8 10
REMARK H PARENT 8 11
REMARK Flexibility Score: inf
ROOT
ATOM      1  C   UNL     1      34.438 -38.643  11.069  1.00  0.00    -0.003 A 
ATOM      2  C   UNL     1      34.824 -39.622  12.002  1.00  0.00     0.014 A 
ATOM      3  C   UNL     1      34.292 -37.311  11.498  1.00  0.00     0.014 A 
ATOM      4  C   UNL     1      35.057 -39.274  13.336  1.00  0.00     0.047 A 
ATOM      5  C   UNL     1      34.526 -36.968  12.833  1.00  0.00     0.047 A 
ATOM      6  C   UNL     1      34.910 -37.949  13.755  1.00  0.00     0.115 A 
ENDROOT
BRANCH   1   7
ATOM      7  C   UNL     1      34.192 -39.011   9.657  1.00  0.00     0.071 C 
ATOM      8  O   UNL     1      33.224 -39.756   9.349  1.00  0.00    -0.545 OA
ATOM      9  O   UNL     1      35.027 -38.539   8.650  1.00  0.00    -0.545 OA
ENDBRANCH   1   7
BRANCH   6  10
ATOM     10  O   UNL     1      35.146 -37.618  15.088  1.00  0.00    -0.508 OA
ATOM     11  H   UNL     1      34.385 -37.496  15.747  1.00  0.00     0.293 HD
ENDBRANCH   6  10
TORSDOF 2
ENDMDL
MODEL 7
REMARK VINA RESULT:    -3.346     21.497     22.213
REMARK INTER + INTRA:          -3.667
REMARK INTER:                  -3.635
REMARK INTRA:                  -0.032
REMARK UNBOUND:                -0.028
REMARK SMILES O=C([O-])c1ccc(O)cc1
REMARK SMILES IDX 4 1 5 2 10 3 6 4 9 5 7 6 2 7 1 8 3 9 8 10
REMARK H PARENT 8 11
REMARK Flexibility Score: inf
ROOT
ATOM      1  C   UNL     1      39.445 -53.837  14.309  1.00  0.00    -0.003 A 
ATOM      2  C   UNL     1      40.550 -53.140  14.830  1.00  0.00     0.014 A 
ATOM      3  C   UNL     1      39.669 -54.933  13.456  1.00  0.00     0.014 A 
ATOM      4  C   UNL     1      41.851 -53.533  14.503  1.00  0.00     0.047 A 
ATOM      5  C   UNL     1      40.972 -55.322  13.131  1.00  0.00     0.047 A 
ATOM      6  C   UNL     1      42.067 -54.622  13.655  1.00  0.00     0.115 A 
ENDROOT
BRANCH   1   7
ATOM      7  C   UNL     1      38.068 -53.421  14.656  1.00  0.00     0.071 C 
ATOM      8  O   UNL     1      37.777 -52.201  14.776  1.00  0.00    -0.545 OA
ATOM      9  O   UNL     1      37.074 -54.373  14.854  1.00  0.00    -0.545 OA
ENDBRANCH   1   7
BRANCH   6  10
ATOM     10  O   UNL     1      43.369 -55.001  13.338  1.00  0.00    -0.508 OA
ATOM     11  H   UNL     1      44.118 -54.322  13.269  1.00  0.00     0.293 HD
ENDBRANCH   6  10
TORSDOF 2
ENDMDL
MODEL 8
REMARK VINA RESULT:    -3.335     16.553     16.866
REMARK INTER + INTRA:          -3.655
REMARK INTER:                  -3.619
REMARK INTRA:                  -0.036
REMARK UNBOUND:                -0.028
REMARK SMILES O=C([O-])c1ccc(O)cc1
REMARK SMILES IDX 4 1 5 2 10 3 6 4 9 5 7 6 2 7 1 8 3 9 8 10
REMARK H PARENT 8 11
REMARK Flexibility Score: inf
ROOT
ATOM      1  C   UNL     1      34.461 -40.102  11.799  1.00  0.00    -0.003 A 
ATOM      2  C   UNL     1      34.124 -38.769  11.506  1.00  0.00     0.014 A 
ATOM      3  C   UNL     1      35.106 -40.393  13.015  1.00  0.00     0.014 A 
ATOM      4  C   UNL     1      34.426 -37.748  12.413  1.00  0.00     0.047 A 
ATOM      5  C   UNL     1      35.407 -39.369  13.918  1.00  0.00     0.047 A 
ATOM      6  C   UNL     1      35.067 -38.043  13.619  1.00  0.00     0.115 A 
ENDROOT
BRANCH   1   7
ATOM      7  C   UNL     1      34.140 -41.182  10.839  1.00  0.00     0.071 C 
ATOM      8  O   UNL     1      33.480 -40.937   9.795  1.00  0.00    -0.545 OA
ATOM      9  O   UNL     1      34.564 -42.485  11.078  1.00  0.00    -0.545 OA
ENDBRANCH   1   7
BRANCH   6  10
ATOM     10  O   UNL     1      35.362 -37.016  14.512  1.00  0.00    -0.508 OA
ATOM     11  H   UNL     1      36.260 -36.546  14.502  1.00  0.00     0.293 HD
ENDBRANCH   6  10
TORSDOF 2
ENDMDL
MODEL 9
REMARK VINA RESULT:    -3.320     16.814     17.118
REMARK INTER + INTRA:          -3.639
REMARK INTER:                  -3.604
REMARK INTRA:                  -0.035
REMARK UNBOUND:                -0.028
REMARK SMILES O=C([O-])c1ccc(O)cc1
REMARK SMILES IDX 4 1 5 2 10 3 6 4 9 5 7 6 2 7 1 8 3 9 8 10
REMARK H PARENT 8 11
REMARK Flexibility Score: inf
ROOT
ATOM      1  C   UNL     1      34.670 -40.606  12.267  1.00  0.00    -0.003 A 
ATOM      2  C   UNL     1      35.302 -40.624  13.524  1.00  0.00     0.014 A 
ATOM      3  C   UNL     1      34.271 -39.372  11.722  1.00  0.00     0.014 A 
ATOM      4  C   UNL     1      35.527 -39.433  14.220  1.00  0.00     0.047 A 
ATOM      5  C   UNL     1      34.498 -38.183  12.421  1.00  0.00     0.047 A 
ATOM      6  C   UNL     1      35.128 -38.210  13.672  1.00  0.00     0.115 A 
ENDROOT
BRANCH   1   7
ATOM      7  C   UNL     1      34.433 -41.868  11.532  1.00  0.00     0.071 C 
ATOM      8  O   UNL     1      33.581 -41.919  10.605  1.00  0.00    -0.545 OA
ATOM      9  O   UNL     1      35.147 -43.016  11.854  1.00  0.00    -0.545 OA
ENDBRANCH   1   7
BRANCH   6  10
ATOM     10  O   UNL     1      35.359 -37.031  14.377  1.00  0.00    -0.508 OA
ATOM     11  H   UNL     1      34.742 -36.729  15.122  1.00  0.00     0.293 HD
ENDBRANCH   6  10
TORSDOF 2
ENDMDL
