MODEL 1
REMARK VINA RESULT:    -6.061      0.000      0.000
REMARK INTER + INTRA:         -10.053
REMARK INTER:                  -8.896
REMARK INTRA:                  -1.157
REMARK UNBOUND:                -1.157
REMARK SMILES O=c1c(O[C@@H]2O[C@@H](CO)[C@H](O)[C@@H](O)[C@H]2O)c(-c2ccc(O)c(O)c2)oc2cc(O)cc(O)c12
REMARK SMILES IDX 4 1 3 2 16 3 25 4 2 5 26 6 1 7 33 8 27 9 31 10 28 11 30 12
REMARK SMILES IDX 17 13 18 14 19 15 20 16 24 17 22 18 21 19 23 21 32 23 29 25
REMARK SMILES IDX 5 27 14 28 6 29 12 30 7 31 10 32 15 33 13 35 8 37 9 38 11 40
REMARK H PARENT 21 20 23 22 32 24 29 26 15 34 13 36 9 39 11 41
REMARK Flexibility Score: inf
ROOT
ATOM      1  O   UNL     1      13.292   3.208   1.494  1.00  0.00    -0.454 OA
ENDROOT
BRANCH   1   2
ATOM      2  C   UNL     1      12.445   3.745   0.518  1.00  0.00     0.214 A 
ATOM      3  C   UNL     1      12.622   3.461  -0.853  1.00  0.00     0.180 A 
ATOM      4  O   UNL     1      11.839   4.048  -1.753  1.00  0.00    -0.452 OA
ATOM      5  C   UNL     1      11.401   4.590   0.906  1.00  0.00     0.239 A 
ATOM      6  C   UNL     1      10.852   4.878  -1.430  1.00  0.00     0.146 A 
ATOM      7  O   UNL     1      11.221   4.820   2.133  1.00  0.00    -0.285 OA
ATOM      8  C   UNL     1      10.580   5.181  -0.075  1.00  0.00     0.111 A 
ATOM      9  C   UNL     1      10.079   5.444  -2.448  1.00  0.00     0.094 A 
ATOM     10  C   UNL     1       9.515   6.061   0.234  1.00  0.00     0.134 A 
ATOM     11  C   UNL     1       9.027   6.312  -2.136  1.00  0.00     0.123 A 
ATOM     12  C   UNL     1       8.750   6.617  -0.801  1.00  0.00     0.093 A 
BRANCH   3  13
ATOM     13  C   UNL     1      13.653   2.515  -1.335  1.00  0.00     0.025 A 
ATOM     14  C   UNL     1      13.263   1.287  -1.888  1.00  0.00     0.016 A 
ATOM     15  C   UNL     1      14.223   0.385  -2.353  1.00  0.00     0.051 A 
ATOM     16  C   UNL     1      15.584   0.691  -2.259  1.00  0.00     0.157 A 
ATOM     17  C   UNL     1      15.023   2.810  -1.217  1.00  0.00     0.062 A 
ATOM     18  C   UNL     1      15.988   1.907  -1.685  1.00  0.00     0.158 A 
BRANCH  16  19
ATOM     19  O   UNL     1      16.520  -0.227  -2.738  1.00  0.00    -0.504 OA
ATOM     20  H   UNL     1      16.684  -0.360  -3.729  1.00  0.00     0.293 HD
ENDBRANCH  16  19
BRANCH  18  21
ATOM     21  O   UNL     1      17.344   2.215  -1.580  1.00  0.00    -0.504 OA
ATOM     22  H   UNL     1      17.859   2.060  -0.721  1.00  0.00     0.293 HD
ENDBRANCH  18  21
ENDBRANCH   3  13
BRANCH  10  23
ATOM     23  O   UNL     1       9.213   6.386   1.557  1.00  0.00    -0.507 OA
ATOM     24  H   UNL     1       9.014   5.671   2.249  1.00  0.00     0.293 HD
ENDBRANCH  10  23
BRANCH  11  25
ATOM     25  O   UNL     1       8.251   6.877  -3.145  1.00  0.00    -0.508 OA
ATOM     26  H   UNL     1       8.668   7.412  -3.898  1.00  0.00     0.293 HD
ENDBRANCH  11  25
ENDBRANCH   1   2
BRANCH   1  27
ATOM     27  C   UNL     1      12.829   2.324   2.521  1.00  0.00     0.339 C 
ATOM     28  C   UNL     1      12.305   1.009   1.908  1.00  0.00     0.214 C 
ATOM     29  O   UNL     1      13.850   2.078   3.472  1.00  0.00    -0.332 OA
ATOM     30  C   UNL     1      13.468   0.182   1.322  1.00  0.00     0.180 C 
ATOM     31  C   UNL     1      14.989   1.472   2.881  1.00  0.00     0.179 C 
ATOM     32  C   UNL     1      14.635   0.070   2.321  1.00  0.00     0.177 C 
BRANCH  28  33
ATOM     33  O   UNL     1      11.568   0.268   2.850  1.00  0.00    -0.384 OA
ATOM     34  H   UNL     1      11.830   0.573   3.756  1.00  0.00     0.211 HD
ENDBRANCH  28  33
BRANCH  30  35
ATOM     35  O   UNL     1      13.022  -1.102   0.972  1.00  0.00    -0.387 OA
ATOM     36  H   UNL     1      13.757  -1.530   0.458  1.00  0.00     0.211 HD
ENDBRANCH  30  35
BRANCH  31  37
ATOM     37  C   UNL     1      16.081   1.387   3.959  1.00  0.00     0.191 C 
BRANCH  37  38
ATOM     38  O   UNL     1      16.196   0.078   4.452  1.00  0.00    -0.394 OA
ATOM     39  H   UNL     1      16.775  -0.423   3.820  1.00  0.00     0.210 HD
ENDBRANCH  37  38
ENDBRANCH  31  37
BRANCH  32  40
ATOM     40  O   UNL     1      15.753  -0.476   1.668  1.00  0.00    -0.387 OA
ATOM     41  H   UNL     1      15.738  -1.454   1.838  1.00  0.00     0.211 HD
ENDBRANCH  32  40
ENDBRANCH   1  27
TORSDOF 12
ENDMDL
MODEL 2
REMARK VINA RESULT:    -5.962      2.608      7.087
REMARK INTER + INTRA:          -9.907
REMARK INTER:                  -8.722
REMARK INTRA:                  -1.185
REMARK UNBOUND:                -1.157
REMARK SMILES O=c1c(O[C@@H]2O[C@@H](CO)[C@H](O)[C@@H](O)[C@H]2O)c(-c2ccc(O)c(O)c2)oc2cc(O)cc(O)c12
REMARK SMILES IDX 4 1 3 2 16 3 25 4 2 5 26 6 1 7 33 8 27 9 31 10 28 11 30 12
REMARK SMILES IDX 17 13 18 14 19 15 20 16 24 17 22 18 21 19 23 21 32 23 29 25
REMARK SMILES IDX 5 27 14 28 6 29 12 30 7 31 10 32 15 33 13 35 8 37 9 38 11 40
REMARK H PARENT 21 20 23 22 32 24 29 26 15 34 13 36 9 39 11 41
REMARK Flexibility Score: inf
ROOT
ATOM      1  O   UNL     1      11.928   1.136  -0.697  1.00  0.00    -0.454 OA
ENDROOT
BRANCH   1   2
ATOM      2  C   UNL     1      13.297   1.420  -0.744  1.00  0.00     0.214 A 
ATOM      3  C   UNL     1      13.858   2.489  -0.013  1.00  0.00     0.180 A 
ATOM      4  O   UNL     1      15.151   2.768  -0.142  1.00  0.00    -0.452 OA
ATOM      5  C   UNL     1      14.133   0.631  -1.539  1.00  0.00     0.239 A 
ATOM      6  C   UNL     1      15.977   2.061  -0.907  1.00  0.00     0.146 A 
ATOM      7  O   UNL     1      13.641  -0.345  -2.169  1.00  0.00    -0.285 OA
ATOM      8  C   UNL     1      15.504   0.946  -1.637  1.00  0.00     0.111 A 
ATOM      9  C   UNL     1      17.324   2.428  -0.974  1.00  0.00     0.094 A 
ATOM     10  C   UNL     1      16.412   0.209  -2.435  1.00  0.00     0.134 A 
ATOM     11  C   UNL     1      18.216   1.695  -1.763  1.00  0.00     0.123 A 
ATOM     12  C   UNL     1      17.760   0.592  -2.489  1.00  0.00     0.093 A 
BRANCH   3  13
ATOM     13  C   UNL     1      13.052   3.319   0.911  1.00  0.00     0.025 A 
ATOM     14  C   UNL     1      13.261   3.217   2.294  1.00  0.00     0.016 A 
ATOM     15  C   UNL     1      12.514   3.998   3.180  1.00  0.00     0.051 A 
ATOM     16  C   UNL     1      11.540   4.878   2.699  1.00  0.00     0.157 A 
ATOM     17  C   UNL     1      12.055   4.185   0.429  1.00  0.00     0.062 A 
ATOM     18  C   UNL     1      11.305   4.970   1.317  1.00  0.00     0.158 A 
BRANCH  16  19
ATOM     19  O   UNL     1      10.814   5.649   3.607  1.00  0.00    -0.504 OA
ATOM     20  H   UNL     1      11.075   5.717   4.583  1.00  0.00     0.293 HD
ENDBRANCH  16  19
BRANCH  18  21
ATOM     21  O   UNL     1      10.329   5.839   0.830  1.00  0.00    -0.504 OA
ATOM     22  H   UNL     1      10.459   6.351  -0.036  1.00  0.00     0.293 HD
ENDBRANCH  18  21
ENDBRANCH   3  13
BRANCH  10  23
ATOM     23  O   UNL     1      15.987  -0.898  -3.172  1.00  0.00    -0.507 OA
ATOM     24  H   UNL     1      16.378  -1.114  -4.082  1.00  0.00     0.293 HD
ENDBRANCH  10  23
BRANCH  11  25
ATOM     25  O   UNL     1      19.561   2.054  -1.832  1.00  0.00    -0.508 OA
ATOM     26  H   UNL     1      20.294   1.357  -1.885  1.00  0.00     0.293 HD
ENDBRANCH  11  25
ENDBRANCH   1   2
BRANCH   1  27
ATOM     27  C   UNL     1      11.390   0.025   0.029  1.00  0.00     0.339 C 
ATOM     28  C   UNL     1      11.191   0.394   1.513  1.00  0.00     0.214 C 
ATOM     29  O   UNL     1      10.181  -0.422  -0.558  1.00  0.00    -0.332 OA
ATOM     30  C   UNL     1      10.047   1.417   1.670  1.00  0.00     0.180 C 
ATOM     31  C   UNL     1       9.189   0.592  -0.564  1.00  0.00     0.179 C 
ATOM     32  C   UNL     1       8.796   0.982   0.884  1.00  0.00     0.177 C 
BRANCH  28  33
ATOM     33  O   UNL     1      10.967  -0.755   2.295  1.00  0.00    -0.384 OA
ATOM     34  H   UNL     1      11.845  -1.178   2.481  1.00  0.00     0.211 HD
ENDBRANCH  28  33
BRANCH  30  35
ATOM     35  O   UNL     1       9.721   1.576   3.026  1.00  0.00    -0.387 OA
ATOM     36  H   UNL     1       8.767   1.850   3.060  1.00  0.00     0.211 HD
ENDBRANCH  30  35
BRANCH  31  37
ATOM     37  C   UNL     1       7.981   0.055  -1.348  1.00  0.00     0.191 C 
BRANCH  37  38
ATOM     38  O   UNL     1       8.396  -0.609  -2.513  1.00  0.00    -0.394 OA
ATOM     39  H   UNL     1       8.861   0.060  -3.081  1.00  0.00     0.210 HD
ENDBRANCH  37  38
ENDBRANCH  31  37
BRANCH  32  40
ATOM     40  O   UNL     1       7.875   2.043   0.856  1.00  0.00    -0.387 OA
ATOM     41  H   UNL     1       7.007   1.665   0.555  1.00  0.00     0.211 HD
ENDBRANCH  32  40
ENDBRANCH   1  27
TORSDOF 12
ENDMDL
MODEL 3
REMARK VINA RESULT:    -5.958      1.537      2.129
REMARK INTER + INTRA:          -9.902
REMARK INTER:                  -9.416
REMARK INTRA:                  -0.486
REMARK UNBOUND:                -1.157
REMARK SMILES O=c1c(O[C@@H]2O[C@@H](CO)[C@H](O)[C@@H](O)[C@H]2O)c(-c2ccc(O)c(O)c2)oc2cc(O)cc(O)c12
REMARK SMILES IDX 4 1 3 2 16 3 25 4 2 5 26 6 1 7 33 8 27 9 31 10 28 11 30 12
REMARK SMILES IDX 17 13 18 14 19 15 20 16 24 17 22 18 21 19 23 21 32 23 29 25
REMARK SMILES IDX 5 27 14 28 6 29 12 30 7 31 10 32 15 33 13 35 8 37 9 38 11 40
REMARK H PARENT 21 20 23 22 32 24 29 26 15 34 13 36 9 39 11 41
REMARK Flexibility Score: inf
ROOT
ATOM      1  O   UNL     1      12.213   0.804   0.545  1.00  0.00    -0.454 OA
ENDROOT
BRANCH   1   2
ATOM      2  C   UNL     1      11.751   1.891  -0.206  1.00  0.00     0.214 A 
ATOM      3  C   UNL     1      12.537   2.477  -1.222  1.00  0.00     0.180 A 
ATOM      4  O   UNL     1      12.089   3.552  -1.862  1.00  0.00    -0.452 OA
ATOM      5  C   UNL     1      10.483   2.417   0.059  1.00  0.00     0.239 A 
ATOM      6  C   UNL     1      10.902   4.101  -1.625  1.00  0.00     0.146 A 
ATOM      7  O   UNL     1       9.766   1.876   0.944  1.00  0.00    -0.285 OA
ATOM      8  C   UNL     1      10.034   3.548  -0.653  1.00  0.00     0.111 A 
ATOM      9  C   UNL     1      10.516   5.229  -2.354  1.00  0.00     0.094 A 
ATOM     10  C   UNL     1       8.773   4.151  -0.432  1.00  0.00     0.134 A 
ATOM     11  C   UNL     1       9.267   5.820  -2.131  1.00  0.00     0.123 A 
ATOM     12  C   UNL     1       8.404   5.282  -1.175  1.00  0.00     0.093 A 
BRANCH   3  13
ATOM     13  C   UNL     1      13.854   1.927  -1.613  1.00  0.00     0.025 A 
ATOM     14  C   UNL     1      13.917   0.724  -2.331  1.00  0.00     0.016 A 
ATOM     15  C   UNL     1      15.152   0.195  -2.714  1.00  0.00     0.051 A 
ATOM     16  C   UNL     1      16.339   0.852  -2.375  1.00  0.00     0.157 A 
ATOM     17  C   UNL     1      15.049   2.573  -1.250  1.00  0.00     0.062 A 
ATOM     18  C   UNL     1      16.289   2.045  -1.636  1.00  0.00     0.158 A 
BRANCH  16  19
ATOM     19  O   UNL     1      17.557   0.303  -2.777  1.00  0.00    -0.504 OA
ATOM     20  H   UNL     1      17.998  -0.456  -2.271  1.00  0.00     0.293 HD
ENDBRANCH  16  19
BRANCH  18  21
ATOM     21  O   UNL     1      17.469   2.701  -1.286  1.00  0.00    -0.504 OA
ATOM     22  H   UNL     1      17.496   3.379  -0.532  1.00  0.00     0.293 HD
ENDBRANCH  18  21
ENDBRANCH   3  13
BRANCH  10  23
ATOM     23  O   UNL     1       7.888   3.638   0.517  1.00  0.00    -0.507 OA
ATOM     24  H   UNL     1       7.386   4.241   1.159  1.00  0.00     0.293 HD
ENDBRANCH  10  23
BRANCH  11  25
ATOM     25  O   UNL     1       8.876   6.943  -2.857  1.00  0.00    -0.508 OA
ATOM     26  H   UNL     1       9.446   7.780  -2.888  1.00  0.00     0.293 HD
ENDBRANCH  11  25
ENDBRANCH   1   2
BRANCH   1  27
ATOM     27  C   UNL     1      12.283   0.824   1.975  1.00  0.00     0.339 C 
ATOM     28  C   UNL     1      13.362  -0.156   2.478  1.00  0.00     0.214 C 
ATOM     29  O   UNL     1      12.518   2.139   2.449  1.00  0.00    -0.332 OA
ATOM     30  C   UNL     1      14.771   0.356   2.116  1.00  0.00     0.180 C 
ATOM     31  C   UNL     1      13.744   2.664   1.964  1.00  0.00     0.179 C 
ATOM     32  C   UNL     1      14.943   1.839   2.497  1.00  0.00     0.177 C 
BRANCH  28  33
ATOM     33  O   UNL     1      13.234  -0.384   3.861  1.00  0.00    -0.384 OA
ATOM     34  H   UNL     1      13.569   0.418   4.339  1.00  0.00     0.211 HD
ENDBRANCH  28  33
BRANCH  30  35
ATOM     35  O   UNL     1      15.749  -0.414   2.767  1.00  0.00    -0.387 OA
ATOM     36  H   UNL     1      15.888  -1.227   2.212  1.00  0.00     0.211 HD
ENDBRANCH  30  35
BRANCH  31  37
ATOM     37  C   UNL     1      13.829   4.132   2.412  1.00  0.00     0.191 C 
BRANCH  37  38
ATOM     38  O   UNL     1      14.625   4.879   1.530  1.00  0.00    -0.394 OA
ATOM     39  H   UNL     1      15.547   4.516   1.589  1.00  0.00     0.210 HD
ENDBRANCH  37  38
ENDBRANCH  31  37
BRANCH  32  40
ATOM     40  O   UNL     1      16.137   2.324   1.938  1.00  0.00    -0.387 OA
ATOM     41  H   UNL     1      16.614   2.817   2.657  1.00  0.00     0.211 HD
ENDBRANCH  32  40
ENDBRANCH   1  27
TORSDOF 12
ENDMDL
MODEL 4
REMARK VINA RESULT:    -5.889      1.414      2.397
REMARK INTER + INTRA:          -9.800
REMARK INTER:                  -8.667
REMARK INTRA:                  -1.133
REMARK UNBOUND:                -1.157
REMARK SMILES O=c1c(O[C@@H]2O[C@@H](CO)[C@H](O)[C@@H](O)[C@H]2O)c(-c2ccc(O)c(O)c2)oc2cc(O)cc(O)c12
REMARK SMILES IDX 4 1 3 2 16 3 25 4 2 5 26 6 1 7 33 8 27 9 31 10 28 11 30 12
REMARK SMILES IDX 17 13 18 14 19 15 20 16 24 17 22 18 21 19 23 21 32 23 29 25
REMARK SMILES IDX 5 27 14 28 6 29 12 30 7 31 10 32 15 33 13 35 8 37 9 38 11 40
REMARK H PARENT 21 20 23 22 32 24 29 26 15 34 13 36 9 39 11 41
REMARK Flexibility Score: inf
ROOT
ATOM      1  O   UNL     1      12.470   1.832   1.200  1.00  0.00    -0.454 OA
ENDROOT
BRANCH   1   2
ATOM      2  C   UNL     1      11.866   2.701   0.284  1.00  0.00     0.214 A 
ATOM      3  C   UNL     1      12.492   3.046  -0.933  1.00  0.00     0.180 A 
ATOM      4  O   UNL     1      11.916   3.929  -1.742  1.00  0.00    -0.452 OA
ATOM      5  C   UNL     1      10.615   3.249   0.582  1.00  0.00     0.239 A 
ATOM      6  C   UNL     1      10.740   4.495  -1.486  1.00  0.00     0.146 A 
ATOM      7  O   UNL     1      10.039   2.918   1.654  1.00  0.00    -0.285 OA
ATOM      8  C   UNL     1      10.026   4.169  -0.309  1.00  0.00     0.111 A 
ATOM      9  C   UNL     1      10.211   5.411  -2.400  1.00  0.00     0.094 A 
ATOM     10  C   UNL     1       8.772   4.783  -0.071  1.00  0.00     0.134 A 
ATOM     11  C   UNL     1       8.971   6.012  -2.160  1.00  0.00     0.123 A 
ATOM     12  C   UNL     1       8.259   5.697  -1.001  1.00  0.00     0.093 A 
BRANCH   3  13
ATOM     13  C   UNL     1      13.777   2.447  -1.355  1.00  0.00     0.025 A 
ATOM     14  C   UNL     1      13.776   1.304  -2.168  1.00  0.00     0.016 A 
ATOM     15  C   UNL     1      14.981   0.729  -2.581  1.00  0.00     0.051 A 
ATOM     16  C   UNL     1      16.201   1.279  -2.176  1.00  0.00     0.157 A 
ATOM     17  C   UNL     1      15.005   2.983  -0.927  1.00  0.00     0.062 A 
ATOM     18  C   UNL     1      16.216   2.408  -1.342  1.00  0.00     0.158 A 
BRANCH  16  19
ATOM     19  O   UNL     1      17.389   0.687  -2.609  1.00  0.00    -0.504 OA
ATOM     20  H   UNL     1      18.250   1.213  -2.699  1.00  0.00     0.293 HD
ENDBRANCH  16  19
BRANCH  18  21
ATOM     21  O   UNL     1      17.428   2.957  -0.927  1.00  0.00    -0.504 OA
ATOM     22  H   UNL     1      17.958   3.584  -1.521  1.00  0.00     0.293 HD
ENDBRANCH  18  21
ENDBRANCH   3  13
BRANCH  10  23
ATOM     23  O   UNL     1       8.036   4.490   1.078  1.00  0.00    -0.507 OA
ATOM     24  H   UNL     1       8.450   4.006   1.867  1.00  0.00     0.293 HD
ENDBRANCH  10  23
BRANCH  11  25
ATOM     25  O   UNL     1       8.438   6.923  -3.069  1.00  0.00    -0.508 OA
ATOM     26  H   UNL     1       8.068   7.817  -2.768  1.00  0.00     0.293 HD
ENDBRANCH  11  25
ENDBRANCH   1   2
BRANCH   1  27
ATOM     27  C   UNL     1      12.755   0.462   0.897  1.00  0.00     0.339 C 
ATOM     28  C   UNL     1      14.192   0.101   1.323  1.00  0.00     0.214 C 
ATOM     29  O   UNL     1      11.805  -0.396   1.506  1.00  0.00    -0.332 OA
ATOM     30  C   UNL     1      14.315   0.085   2.861  1.00  0.00     0.180 C 
ATOM     31  C   UNL     1      11.810  -0.271   2.919  1.00  0.00     0.179 C 
ATOM     32  C   UNL     1      13.172  -0.723   3.505  1.00  0.00     0.177 C 
BRANCH  28  33
ATOM     33  O   UNL     1      14.595  -1.124   0.760  1.00  0.00    -0.384 OA
ATOM     34  H   UNL     1      14.287  -1.855   1.356  1.00  0.00     0.211 HD
ENDBRANCH  28  33
BRANCH  30  35
ATOM     35  O   UNL     1      15.551  -0.461   3.242  1.00  0.00    -0.387 OA
ATOM     36  H   UNL     1      16.210  -0.185   2.552  1.00  0.00     0.211 HD
ENDBRANCH  30  35
BRANCH  31  37
ATOM     37  C   UNL     1      10.653  -1.125   3.463  1.00  0.00     0.191 C 
BRANCH  37  38
ATOM     38  O   UNL     1      10.221  -0.647   4.710  1.00  0.00    -0.394 OA
ATOM     39  H   UNL     1       9.296  -0.979   4.846  1.00  0.00     0.210 HD
ENDBRANCH  37  38
ENDBRANCH  31  37
BRANCH  32  40
ATOM     40  O   UNL     1      13.183  -0.513   4.894  1.00  0.00    -0.387 OA
ATOM     41  H   UNL     1      14.129  -0.577   5.189  1.00  0.00     0.211 HD
ENDBRANCH  32  40
ENDBRANCH   1  27
TORSDOF 12
ENDMDL
MODEL 5
REMARK VINA RESULT:    -5.877      2.272      6.360
REMARK INTER + INTRA:          -9.782
REMARK INTER:                  -8.618
REMARK INTRA:                  -1.164
REMARK UNBOUND:                -1.157
REMARK SMILES O=c1c(O[C@@H]2O[C@@H](CO)[C@H](O)[C@@H](O)[C@H]2O)c(-c2ccc(O)c(O)c2)oc2cc(O)cc(O)c12
REMARK SMILES IDX 4 1 3 2 16 3 25 4 2 5 26 6 1 7 33 8 27 9 31 10 28 11 30 12
REMARK SMILES IDX 17 13 18 14 19 15 20 16 24 17 22 18 21 19 23 21 32 23 29 25
REMARK SMILES IDX 5 27 14 28 6 29 12 30 7 31 10 32 15 33 13 35 8 37 9 38 11 40
REMARK H PARENT 21 20 23 22 32 24 29 26 15 34 13 36 9 39 11 41
REMARK Flexibility Score: inf
ROOT
ATOM      1  O   UNL     1      12.686   2.641   0.109  1.00  0.00    -0.454 OA
ENDROOT
BRANCH   1   2
ATOM      2  C   UNL     1      11.676   2.149   0.942  1.00  0.00     0.214 A 
ATOM      3  C   UNL     1      10.382   2.713   0.951  1.00  0.00     0.180 A 
ATOM      4  O   UNL     1       9.473   2.261   1.809  1.00  0.00    -0.452 OA
ATOM      5  C   UNL     1      11.953   1.075   1.794  1.00  0.00     0.239 A 
ATOM      6  C   UNL     1       9.702   1.261   2.654  1.00  0.00     0.146 A 
ATOM      7  O   UNL     1      13.099   0.549   1.765  1.00  0.00    -0.285 OA
ATOM      8  C   UNL     1      10.958   0.611   2.678  1.00  0.00     0.111 A 
ATOM      9  C   UNL     1       8.680   0.851   3.517  1.00  0.00     0.094 A 
ATOM     10  C   UNL     1      11.165  -0.457   3.584  1.00  0.00     0.134 A 
ATOM     11  C   UNL     1       8.891  -0.206   4.408  1.00  0.00     0.123 A 
ATOM     12  C   UNL     1      10.127  -0.854   4.439  1.00  0.00     0.093 A 
BRANCH   3  13
ATOM     13  C   UNL     1       9.990   3.797   0.024  1.00  0.00     0.025 A 
ATOM     14  C   UNL     1       9.519   3.477  -1.258  1.00  0.00     0.016 A 
ATOM     15  C   UNL     1       9.138   4.488  -2.143  1.00  0.00     0.051 A 
ATOM     16  C   UNL     1       9.236   5.831  -1.767  1.00  0.00     0.157 A 
ATOM     17  C   UNL     1      10.112   5.149   0.392  1.00  0.00     0.062 A 
ATOM     18  C   UNL     1       9.729   6.166  -0.496  1.00  0.00     0.158 A 
BRANCH  16  19
ATOM     19  O   UNL     1       8.842   6.819  -2.671  1.00  0.00    -0.504 OA
ATOM     20  H   UNL     1       7.876   7.111  -2.761  1.00  0.00     0.293 HD
ENDBRANCH  16  19
BRANCH  18  21
ATOM     21  O   UNL     1       9.838   7.503  -0.116  1.00  0.00    -0.504 OA
ATOM     22  H   UNL     1       9.551   7.819   0.803  1.00  0.00     0.293 HD
ENDBRANCH  18  21
ENDBRANCH   3  13
BRANCH  10  23
ATOM     23  O   UNL     1      12.390  -1.125   3.639  1.00  0.00    -0.507 OA
ATOM     24  H   UNL     1      13.118  -0.849   4.289  1.00  0.00     0.293 HD
ENDBRANCH  10  23
BRANCH  11  25
ATOM     25  O   UNL     1       7.876  -0.620   5.268  1.00  0.00    -0.508 OA
ATOM     26  H   UNL     1       6.907  -0.372   5.103  1.00  0.00     0.293 HD
ENDBRANCH  11  25
ENDBRANCH   1   2
BRANCH   1  27
ATOM     27  C   UNL     1      13.025   2.033  -1.142  1.00  0.00     0.339 C 
ATOM     28  C   UNL     1      13.401   3.107  -2.182  1.00  0.00     0.214 C 
ATOM     29  O   UNL     1      14.067   1.088  -0.976  1.00  0.00    -0.332 OA
ATOM     30  C   UNL     1      14.744   3.771  -1.816  1.00  0.00     0.180 C 
ATOM     31  C   UNL     1      15.250   1.688  -0.470  1.00  0.00     0.179 C 
ATOM     32  C   UNL     1      15.817   2.717  -1.481  1.00  0.00     0.177 C 
BRANCH  28  33
ATOM     33  O   UNL     1      13.430   2.567  -3.482  1.00  0.00    -0.384 OA
ATOM     34  H   UNL     1      12.634   2.898  -3.972  1.00  0.00     0.211 HD
ENDBRANCH  28  33
BRANCH  30  35
ATOM     35  O   UNL     1      15.191   4.579  -2.874  1.00  0.00    -0.387 OA
ATOM     36  H   UNL     1      14.398   4.769  -3.442  1.00  0.00     0.211 HD
ENDBRANCH  30  35
BRANCH  31  37
ATOM     37  C   UNL     1      16.258   0.562  -0.191  1.00  0.00     0.191 C 
BRANCH  37  38
ATOM     38  O   UNL     1      17.381   0.677  -1.024  1.00  0.00    -0.394 OA
ATOM     39  H   UNL     1      18.144   0.952  -0.450  1.00  0.00     0.210 HD
ENDBRANCH  37  38
ENDBRANCH  31  37
BRANCH  32  40
ATOM     40  O   UNL     1      16.937   3.358  -0.926  1.00  0.00    -0.387 OA
ATOM     41  H   UNL     1      17.610   2.653  -0.737  1.00  0.00     0.211 HD
ENDBRANCH  32  40
ENDBRANCH   1  27
TORSDOF 12
ENDMDL
MODEL 6
REMARK VINA RESULT:    -5.591      1.556      4.636
REMARK INTER + INTRA:          -9.363
REMARK INTER:                  -8.396
REMARK INTRA:                  -0.967
REMARK UNBOUND:                -1.157
REMARK SMILES O=c1c(O[C@@H]2O[C@@H](CO)[C@H](O)[C@@H](O)[C@H]2O)c(-c2ccc(O)c(O)c2)oc2cc(O)cc(O)c12
REMARK SMILES IDX 4 1 3 2 16 3 25 4 2 5 26 6 1 7 33 8 27 9 31 10 28 11 30 12
REMARK SMILES IDX 17 13 18 14 19 15 20 16 24 17 22 18 21 19 23 21 32 23 29 25
REMARK SMILES IDX 5 27 14 28 6 29 12 30 7 31 10 32 15 33 13 35 8 37 9 38 11 40
REMARK H PARENT 21 20 23 22 32 24 29 26 15 34 13 36 9 39 11 41
REMARK Flexibility Score: inf
ROOT
ATOM      1  O   UNL     1      12.984   2.232  -1.203  1.00  0.00    -0.454 OA
ENDROOT
BRANCH   1   2
ATOM      2  C   UNL     1      12.158   3.158  -0.556  1.00  0.00     0.214 A 
ATOM      3  C   UNL     1      12.042   3.192   0.851  1.00  0.00     0.180 A 
ATOM      4  O   UNL     1      11.192   4.040   1.421  1.00  0.00    -0.452 OA
ATOM      5  C   UNL     1      11.422   4.069  -1.318  1.00  0.00     0.239 A 
ATOM      6  C   UNL     1      10.453   4.905   0.733  1.00  0.00     0.146 A 
ATOM      7  O   UNL     1      11.547   4.063  -2.573  1.00  0.00    -0.285 OA
ATOM      8  C   UNL     1      10.543   4.967  -0.678  1.00  0.00     0.111 A 
ATOM      9  C   UNL     1       9.590   5.762   1.423  1.00  0.00     0.094 A 
ATOM     10  C   UNL     1       9.749   5.906  -1.379  1.00  0.00     0.134 A 
ATOM     11  C   UNL     1       8.809   6.689   0.724  1.00  0.00     0.123 A 
ATOM     12  C   UNL     1       8.890   6.757  -0.668  1.00  0.00     0.093 A 
BRANCH   3  13
ATOM     13  C   UNL     1      12.848   2.314   1.728  1.00  0.00     0.025 A 
ATOM     14  C   UNL     1      12.331   1.075   2.133  1.00  0.00     0.016 A 
ATOM     15  C   UNL     1      13.081   0.232   2.956  1.00  0.00     0.051 A 
ATOM     16  C   UNL     1      14.351   0.619   3.396  1.00  0.00     0.157 A 
ATOM     17  C   UNL     1      14.114   2.714   2.192  1.00  0.00     0.062 A 
ATOM     18  C   UNL     1      14.870   1.868   3.016  1.00  0.00     0.158 A 
BRANCH  16  19
ATOM     19  O   UNL     1      15.080  -0.247   4.212  1.00  0.00    -0.504 OA
ATOM     20  H   UNL     1      15.254  -0.046   5.189  1.00  0.00     0.293 HD
ENDBRANCH  16  19
BRANCH  18  21
ATOM     21  O   UNL     1      16.131   2.265   3.458  1.00  0.00    -0.504 OA
ATOM     22  H   UNL     1      16.919   1.627   3.458  1.00  0.00     0.293 HD
ENDBRANCH  18  21
ENDBRANCH   3  13
BRANCH  10  23
ATOM     23  O   UNL     1       9.807   5.999  -2.770  1.00  0.00    -0.507 OA
ATOM     24  H   UNL     1      10.301   5.312  -3.329  1.00  0.00     0.293 HD
ENDBRANCH  10  23
BRANCH  11  25
ATOM     25  O   UNL     1       7.950   7.547   1.406  1.00  0.00    -0.508 OA
ATOM     26  H   UNL     1       7.670   7.368   2.363  1.00  0.00     0.293 HD
ENDBRANCH  11  25
ENDBRANCH   1   2
BRANCH   1  27
ATOM     27  C   UNL     1      13.861   2.593  -2.276  1.00  0.00     0.339 C 
ATOM     28  C   UNL     1      15.047   3.426  -1.749  1.00  0.00     0.214 C 
ATOM     29  O   UNL     1      14.307   1.441  -2.970  1.00  0.00    -0.332 OA
ATOM     30  C   UNL     1      15.987   2.552  -0.894  1.00  0.00     0.180 C 
ATOM     31  C   UNL     1      15.026   0.558  -2.122  1.00  0.00     0.179 C 
ATOM     32  C   UNL     1      16.325   1.229  -1.608  1.00  0.00     0.177 C 
BRANCH  28  33
ATOM     33  O   UNL     1      15.739   4.048  -2.806  1.00  0.00    -0.384 OA
ATOM     34  H   UNL     1      16.083   3.340  -3.409  1.00  0.00     0.211 HD
ENDBRANCH  28  33
BRANCH  30  35
ATOM     35  O   UNL     1      17.172   3.250  -0.609  1.00  0.00    -0.387 OA
ATOM     36  H   UNL     1      17.281   3.931  -1.324  1.00  0.00     0.211 HD
ENDBRANCH  30  35
BRANCH  31  37
ATOM     37  C   UNL     1      15.332  -0.713  -2.930  1.00  0.00     0.191 C 
BRANCH  37  38
ATOM     38  O   UNL     1      16.605  -0.640  -3.516  1.00  0.00    -0.394 OA
ATOM     39  H   UNL     1      16.831   0.323  -3.605  1.00  0.00     0.210 HD
ENDBRANCH  37  38
ENDBRANCH  31  37
BRANCH  32  40
ATOM     40  O   UNL     1      16.977   0.371  -0.707  1.00  0.00    -0.387 OA
ATOM     41  H   UNL     1      16.905   0.786   0.192  1.00  0.00     0.211 HD
ENDBRANCH  32  40
ENDBRANCH   1  27
TORSDOF 12
ENDMDL
MODEL 7
REMARK VINA RESULT:    -5.394     16.076     19.577
REMARK INTER + INTRA:          -9.074
REMARK INTER:                  -7.973
REMARK INTRA:                  -1.101
REMARK UNBOUND:                -1.157
REMARK SMILES O=c1c(O[C@@H]2O[C@@H](CO)[C@H](O)[C@@H](O)[C@H]2O)c(-c2ccc(O)c(O)c2)oc2cc(O)cc(O)c12
REMARK SMILES IDX 4 1 3 2 16 3 25 4 2 5 26 6 1 7 33 8 27 9 31 10 28 11 30 12
REMARK SMILES IDX 17 13 18 14 19 15 20 16 24 17 22 18 21 19 23 21 32 23 29 25
REMARK SMILES IDX 5 27 14 28 6 29 12 30 7 31 10 32 15 33 13 35 8 37 9 38 11 40
REMARK H PARENT 21 20 23 22 32 24 29 26 15 34 13 36 9 39 11 41
REMARK Flexibility Score: inf
ROOT
ATOM      1  O   UNL     1      25.528  12.540   7.393  1.00  0.00    -0.454 OA
ENDROOT
BRANCH   1   2
ATOM      2  C   UNL     1      26.000  11.288   7.805  1.00  0.00     0.214 A 
ATOM      3  C   UNL     1      26.697  11.122   9.021  1.00  0.00     0.180 A 
ATOM      4  O   UNL     1      27.189   9.930   9.339  1.00  0.00    -0.452 OA
ATOM      5  C   UNL     1      25.784  10.173   6.990  1.00  0.00     0.239 A 
ATOM      6  C   UNL     1      27.030   8.849   8.582  1.00  0.00     0.146 A 
ATOM      7  O   UNL     1      25.134  10.312   5.917  1.00  0.00    -0.285 OA
ATOM      8  C   UNL     1      26.306   8.920   7.369  1.00  0.00     0.111 A 
ATOM      9  C   UNL     1      27.581   7.635   9.004  1.00  0.00     0.094 A 
ATOM     10  C   UNL     1      26.147   7.747   6.591  1.00  0.00     0.134 A 
ATOM     11  C   UNL     1      27.420   6.480   8.231  1.00  0.00     0.123 A 
ATOM     12  C   UNL     1      26.707   6.540   7.032  1.00  0.00     0.093 A 
BRANCH   3  13
ATOM     13  C   UNL     1      26.895  12.238   9.973  1.00  0.00     0.025 A 
ATOM     14  C   UNL     1      27.914  13.173   9.742  1.00  0.00     0.016 A 
ATOM     15  C   UNL     1      28.111  14.236  10.627  1.00  0.00     0.051 A 
ATOM     16  C   UNL     1      27.302  14.371  11.760  1.00  0.00     0.157 A 
ATOM     17  C   UNL     1      26.100  12.360  11.126  1.00  0.00     0.062 A 
ATOM     18  C   UNL     1      26.294  13.427  12.015  1.00  0.00     0.158 A 
BRANCH  16  19
ATOM     19  O   UNL     1      27.518  15.446  12.623  1.00  0.00    -0.504 OA
ATOM     20  H   UNL     1      27.154  16.372  12.430  1.00  0.00     0.293 HD
ENDBRANCH  16  19
BRANCH  18  21
ATOM     21  O   UNL     1      25.490  13.550  13.147  1.00  0.00    -0.504 OA
ATOM     22  H   UNL     1      25.338  12.771  13.777  1.00  0.00     0.293 HD
ENDBRANCH  18  21
ENDBRANCH   3  13
BRANCH  10  23
ATOM     23  O   UNL     1      25.440   7.774   5.388  1.00  0.00    -0.507 OA
ATOM     24  H   UNL     1      25.622   7.105   4.648  1.00  0.00     0.293 HD
ENDBRANCH  10  23
BRANCH  11  25
ATOM     25  O   UNL     1      27.964   5.267   8.648  1.00  0.00    -0.508 OA
ATOM     26  H   UNL     1      27.573   4.381   8.352  1.00  0.00     0.293 HD
ENDBRANCH  11  25
ENDBRANCH   1   2
BRANCH   1  27
ATOM     27  C   UNL     1      25.806  13.085   6.098  1.00  0.00     0.339 C 
ATOM     28  C   UNL     1      24.516  13.625   5.450  1.00  0.00     0.214 C 
ATOM     29  O   UNL     1      26.802  14.090   6.179  1.00  0.00    -0.332 OA
ATOM     30  C   UNL     1      24.021  14.885   6.190  1.00  0.00     0.180 C 
ATOM     31  C   UNL     1      26.399  15.168   7.009  1.00  0.00     0.179 C 
ATOM     32  C   UNL     1      25.167  15.891   6.408  1.00  0.00     0.177 C 
BRANCH  28  33
ATOM     33  O   UNL     1      24.702  13.873   4.077  1.00  0.00    -0.384 OA
ATOM     34  H   UNL     1      24.470  13.047   3.580  1.00  0.00     0.211 HD
ENDBRANCH  28  33
BRANCH  30  35
ATOM     35  O   UNL     1      22.986  15.498   5.467  1.00  0.00    -0.387 OA
ATOM     36  H   UNL     1      22.243  15.653   6.108  1.00  0.00     0.211 HD
ENDBRANCH  30  35
BRANCH  31  37
ATOM     37  C   UNL     1      27.598  16.121   7.145  1.00  0.00     0.191 C 
BRANCH  37  38
ATOM     38  O   UNL     1      27.497  16.889   8.315  1.00  0.00    -0.394 OA
ATOM     39  H   UNL     1      27.204  17.798   8.045  1.00  0.00     0.210 HD
ENDBRANCH  37  38
ENDBRANCH  31  37
BRANCH  32  40
ATOM     40  O   UNL     1      24.735  16.900   7.285  1.00  0.00    -0.387 OA
ATOM     41  H   UNL     1      23.810  16.668   7.561  1.00  0.00     0.211 HD
ENDBRANCH  32  40
ENDBRANCH   1  27
TORSDOF 12
ENDMDL
MODEL 8
REMARK VINA RESULT:    -5.302      2.798      6.970
REMARK INTER + INTRA:          -8.939
REMARK INTER:                  -8.051
REMARK INTRA:                  -0.888
REMARK UNBOUND:                -1.157
REMARK SMILES O=c1c(O[C@@H]2O[C@@H](CO)[C@H](O)[C@@H](O)[C@H]2O)c(-c2ccc(O)c(O)c2)oc2cc(O)cc(O)c12
REMARK SMILES IDX 4 1 3 2 16 3 25 4 2 5 26 6 1 7 33 8 27 9 31 10 28 11 30 12
REMARK SMILES IDX 17 13 18 14 19 15 20 16 24 17 22 18 21 19 23 21 32 23 29 25
REMARK SMILES IDX 5 27 14 28 6 29 12 30 7 31 10 32 15 33 13 35 8 37 9 38 11 40
REMARK H PARENT 21 20 23 22 32 24 29 26 15 34 13 36 9 39 11 41
REMARK Flexibility Score: inf
ROOT
ATOM      1  O   UNL     1      14.282   2.817   0.337  1.00  0.00    -0.454 OA
ENDROOT
BRANCH   1   2
ATOM      2  C   UNL     1      14.278   1.973   1.454  1.00  0.00     0.214 A 
ATOM      3  C   UNL     1      13.342   0.925   1.587  1.00  0.00     0.180 A 
ATOM      4  O   UNL     1      13.327   0.192   2.695  1.00  0.00    -0.452 OA
ATOM      5  C   UNL     1      15.218   2.175   2.468  1.00  0.00     0.239 A 
ATOM      6  C   UNL     1      14.185   0.367   3.696  1.00  0.00     0.146 A 
ATOM      7  O   UNL     1      16.075   3.090   2.338  1.00  0.00    -0.285 OA
ATOM      8  C   UNL     1      15.183   1.366   3.623  1.00  0.00     0.111 A 
ATOM      9  C   UNL     1      14.094  -0.458   4.822  1.00  0.00     0.094 A 
ATOM     10  C   UNL     1      16.087   1.519   4.702  1.00  0.00     0.134 A 
ATOM     11  C   UNL     1      14.991  -0.303   5.884  1.00  0.00     0.123 A 
ATOM     12  C   UNL     1      15.980   0.681   5.821  1.00  0.00     0.093 A 
BRANCH   3  13
ATOM     13  C   UNL     1      12.368   0.599   0.521  1.00  0.00     0.025 A 
ATOM     14  C   UNL     1      12.209  -0.732   0.110  1.00  0.00     0.016 A 
ATOM     15  C   UNL     1      11.290  -1.058  -0.890  1.00  0.00     0.051 A 
ATOM     16  C   UNL     1      10.528  -0.058  -1.503  1.00  0.00     0.157 A 
ATOM     17  C   UNL     1      11.620   1.607  -0.114  1.00  0.00     0.062 A 
ATOM     18  C   UNL     1      10.696   1.282  -1.118  1.00  0.00     0.158 A 
BRANCH  16  19
ATOM     19  O   UNL     1       9.614  -0.414  -2.495  1.00  0.00    -0.504 OA
ATOM     20  H   UNL     1       9.250   0.260  -3.157  1.00  0.00     0.293 HD
ENDBRANCH  16  19
BRANCH  18  21
ATOM     21  O   UNL     1       9.946   2.285  -1.730  1.00  0.00    -0.504 OA
ATOM     22  H   UNL     1      10.177   2.631  -2.654  1.00  0.00     0.293 HD
ENDBRANCH  18  21
ENDBRANCH   3  13
BRANCH  10  23
ATOM     23  O   UNL     1      17.086   2.493   4.670  1.00  0.00    -0.507 OA
ATOM     24  H   UNL     1      17.540   2.819   5.516  1.00  0.00     0.293 HD
ENDBRANCH  10  23
BRANCH  11  25
ATOM     25  O   UNL     1      14.907  -1.123   7.007  1.00  0.00    -0.508 OA
ATOM     26  H   UNL     1      15.447  -1.978   7.081  1.00  0.00     0.293 HD
ENDBRANCH  11  25
ENDBRANCH   1   2
BRANCH   1  27
ATOM     27  C   UNL     1      15.375   2.875  -0.586  1.00  0.00     0.339 C 
ATOM     28  C   UNL     1      15.725   1.464  -1.100  1.00  0.00     0.214 C 
ATOM     29  O   UNL     1      15.082   3.756  -1.657  1.00  0.00    -0.332 OA
ATOM     30  C   UNL     1      14.606   0.926  -2.015  1.00  0.00     0.180 C 
ATOM     31  C   UNL     1      13.939   3.339  -2.388  1.00  0.00     0.179 C 
ATOM     32  C   UNL     1      14.195   1.971  -3.070  1.00  0.00     0.177 C 
BRANCH  28  33
ATOM     33  O   UNL     1      16.973   1.456  -1.751  1.00  0.00    -0.384 OA
ATOM     34  H   UNL     1      17.472   0.653  -1.453  1.00  0.00     0.211 HD
ENDBRANCH  28  33
BRANCH  30  35
ATOM     35  O   UNL     1      15.027  -0.251  -2.656  1.00  0.00    -0.387 OA
ATOM     36  H   UNL     1      14.239  -0.608  -3.144  1.00  0.00     0.211 HD
ENDBRANCH  30  35
BRANCH  31  37
ATOM     37  C   UNL     1      13.626   4.432  -3.422  1.00  0.00     0.191 C 
BRANCH  37  38
ATOM     38  O   UNL     1      12.399   5.053  -3.138  1.00  0.00    -0.394 OA
ATOM     39  H   UNL     1      11.788   4.850  -3.893  1.00  0.00     0.210 HD
ENDBRANCH  37  38
ENDBRANCH  31  37
BRANCH  32  40
ATOM     40  O   UNL     1      13.025   1.538  -3.717  1.00  0.00    -0.387 OA
ATOM     41  H   UNL     1      13.301   0.871  -4.398  1.00  0.00     0.211 HD
ENDBRANCH  32  40
ENDBRANCH   1  27
TORSDOF 12
ENDMDL
MODEL 9
REMARK VINA RESULT:    -5.046      2.646      6.858
REMARK INTER + INTRA:          -8.563
REMARK INTER:                  -7.919
REMARK INTRA:                  -0.644
REMARK UNBOUND:                -1.157
REMARK SMILES O=c1c(O[C@@H]2O[C@@H](CO)[C@H](O)[C@@H](O)[C@H]2O)c(-c2ccc(O)c(O)c2)oc2cc(O)cc(O)c12
REMARK SMILES IDX 4 1 3 2 16 3 25 4 2 5 26 6 1 7 33 8 27 9 31 10 28 11 30 12
REMARK SMILES IDX 17 13 18 14 19 15 20 16 24 17 22 18 21 19 23 21 32 23 29 25
REMARK SMILES IDX 5 27 14 28 6 29 12 30 7 31 10 32 15 33 13 35 8 37 9 38 11 40
REMARK H PARENT 21 20 23 22 32 24 29 26 15 34 13 36 9 39 11 41
REMARK Flexibility Score: inf
ROOT
ATOM      1  O   UNL     1      12.308   0.280   0.814  1.00  0.00    -0.454 OA
ENDROOT
BRANCH   1   2
ATOM      2  C   UNL     1      13.357   0.725   1.626  1.00  0.00     0.214 A 
ATOM      3  C   UNL     1      14.202   1.784   1.231  1.00  0.00     0.180 A 
ATOM      4  O   UNL     1      15.229   2.128   2.001  1.00  0.00    -0.452 OA
ATOM      5  C   UNL     1      13.581   0.102   2.857  1.00  0.00     0.239 A 
ATOM      6  C   UNL     1      15.495   1.546   3.166  1.00  0.00     0.146 A 
ATOM      7  O   UNL     1      12.809  -0.824   3.227  1.00  0.00    -0.285 OA
ATOM      8  C   UNL     1      14.671   0.506   3.656  1.00  0.00     0.111 A 
ATOM      9  C   UNL     1      16.598   1.981   3.908  1.00  0.00     0.094 A 
ATOM     10  C   UNL     1      14.977  -0.087   4.904  1.00  0.00     0.134 A 
ATOM     11  C   UNL     1      16.894   1.392   5.142  1.00  0.00     0.123 A 
ATOM     12  C   UNL     1      16.086   0.364   5.634  1.00  0.00     0.093 A 
BRANCH   3  13
ATOM     13  C   UNL     1      13.979   2.544  -0.019  1.00  0.00     0.025 A 
ATOM     14  C   UNL     1      15.061   2.806  -0.873  1.00  0.00     0.016 A 
ATOM     15  C   UNL     1      14.867   3.516  -2.060  1.00  0.00     0.051 A 
ATOM     16  C   UNL     1      13.596   3.986  -2.404  1.00  0.00     0.157 A 
ATOM     17  C   UNL     1      12.706   3.040  -0.353  1.00  0.00     0.062 A 
ATOM     18  C   UNL     1      12.510   3.751  -1.545  1.00  0.00     0.158 A 
BRANCH  16  19
ATOM     19  O   UNL     1      13.431   4.687  -3.599  1.00  0.00    -0.504 OA
ATOM     20  H   UNL     1      12.835   4.346  -4.344  1.00  0.00     0.293 HD
ENDBRANCH  16  19
BRANCH  18  21
ATOM     21  O   UNL     1      11.240   4.224  -1.877  1.00  0.00    -0.504 OA
ATOM     22  H   UNL     1      11.076   5.202  -2.087  1.00  0.00     0.293 HD
ENDBRANCH  18  21
ENDBRANCH   3  13
BRANCH  10  23
ATOM     23  O   UNL     1      14.190  -1.116   5.423  1.00  0.00    -0.507 OA
ATOM     24  H   UNL     1      13.831  -1.860   4.836  1.00  0.00     0.293 HD
ENDBRANCH  10  23
BRANCH  11  25
ATOM     25  O   UNL     1      17.989   1.823   5.887  1.00  0.00    -0.508 OA
ATOM     26  H   UNL     1      18.723   1.183   6.169  1.00  0.00     0.293 HD
ENDBRANCH  11  25
ENDBRANCH   1   2
BRANCH   1  27
ATOM     27  C   UNL     1      11.027  -0.090   1.335  1.00  0.00     0.339 C 
ATOM     28  C   UNL     1      10.341   1.121   1.997  1.00  0.00     0.214 C 
ATOM     29  O   UNL     1      10.213  -0.652   0.319  1.00  0.00    -0.332 OA
ATOM     30  C   UNL     1       9.927   2.160   0.935  1.00  0.00     0.180 C 
ATOM     31  C   UNL     1       9.984   0.264  -0.741  1.00  0.00     0.179 C 
ATOM     32  C   UNL     1       9.185   1.493  -0.239  1.00  0.00     0.177 C 
BRANCH  28  33
ATOM     33  O   UNL     1       9.243   0.717   2.780  1.00  0.00    -0.384 OA
ATOM     34  H   UNL     1       9.563   0.566   3.707  1.00  0.00     0.211 HD
ENDBRANCH  28  33
BRANCH  30  35
ATOM     35  O   UNL     1       9.110   3.145   1.512  1.00  0.00    -0.387 OA
ATOM     36  H   UNL     1       9.517   3.377   2.388  1.00  0.00     0.211 HD
ENDBRANCH  30  35
BRANCH  31  37
ATOM     37  C   UNL     1       9.224  -0.488  -1.845  1.00  0.00     0.191 C 
BRANCH  37  38
ATOM     38  O   UNL     1       7.884  -0.075  -1.900  1.00  0.00    -0.394 OA
ATOM     39  H   UNL     1       7.877   0.849  -2.264  1.00  0.00     0.210 HD
ENDBRANCH  37  38
ENDBRANCH  31  37
BRANCH  32  40
ATOM     40  O   UNL     1       9.042   2.423  -1.283  1.00  0.00    -0.387 OA
ATOM     41  H   UNL     1       8.395   3.109  -0.973  1.00  0.00     0.211 HD
ENDBRANCH  32  40
ENDBRANCH   1  27
TORSDOF 12
ENDMDL
