MODEL 1
REMARK VINA RESULT:    -5.821      0.000      0.000
REMARK INTER + INTRA:          -8.007
REMARK INTER:                  -7.182
REMARK INTRA:                  -0.825
REMARK UNBOUND:                -0.825
REMARK SMILES CC(C)=CCC[C@@H](C)c1ccc(C)cc1
REMARK SMILES IDX 6 1 7 2 8 3 9 4 13 5 12 6 11 7 14 8 10 9 15 10 5 11 4 12
REMARK SMILES IDX 2 13 1 14 3 15
REMARK H PARENT
REMARK Flexibility Score: inf
ROOT
ATOM      1  C   UNL     1      -6.555   1.663  -6.026  1.00  0.00     0.012 C 
ENDROOT
BRANCH   1   2
ATOM      2  C   UNL     1      -5.231   1.115  -5.442  1.00  0.00     0.016 C 
ATOM      3  C   UNL     1      -5.189  -0.420  -5.412  1.00  0.00     0.013 C 
BRANCH   2   4
ATOM      4  C   UNL     1      -4.049   1.660  -6.224  1.00  0.00    -0.045 A 
ATOM      5  C   UNL     1      -0.701   3.241  -8.450  1.00  0.00     0.044 C 
ATOM      6  C   UNL     1      -1.876   2.681  -7.704  1.00  0.00    -0.051 A 
ATOM      7  C   UNL     1      -3.007   3.476  -7.468  1.00  0.00     0.004 A 
ATOM      8  C   UNL     1      -1.825   1.382  -7.179  1.00  0.00     0.004 A 
ATOM      9  C   UNL     1      -4.088   2.967  -6.741  1.00  0.00     0.004 A 
ATOM     10  C   UNL     1      -2.905   0.872  -6.452  1.00  0.00     0.004 A 
ENDBRANCH   2   4
ENDBRANCH   1   2
BRANCH   1  11
ATOM     11  C   UNL     1      -7.344   2.560  -5.049  1.00  0.00     0.028 C 
BRANCH  11  12
ATOM     12  C   UNL     1      -8.118   1.758  -4.031  1.00  0.00    -0.028 C 
ATOM     13  C   UNL     1      -7.760   1.620  -2.734  1.00  0.00    -0.080 C 
ATOM     14  C   UNL     1      -8.645   0.799  -1.831  1.00  0.00     0.039 C 
ATOM     15  C   UNL     1      -6.495   2.233  -2.180  1.00  0.00     0.039 C 
ENDBRANCH  11  12
ENDBRANCH   1  11
TORSDOF 4
ENDMDL
MODEL 2
REMARK VINA RESULT:    -5.815      0.190      1.263
REMARK INTER + INTRA:          -8.000
REMARK INTER:                  -7.171
REMARK INTRA:                  -0.829
REMARK UNBOUND:                -0.825
REMARK SMILES CC(C)=CCC[C@@H](C)c1ccc(C)cc1
REMARK SMILES IDX 6 1 7 2 8 3 9 4 13 5 12 6 11 7 14 8 10 9 15 10 5 11 4 12
REMARK SMILES IDX 2 13 1 14 3 15
REMARK H PARENT
REMARK Flexibility Score: inf
ROOT
ATOM      1  C   UNL     1      -6.620   1.885  -6.007  1.00  0.00     0.012 C 
ENDROOT
BRANCH   1   2
ATOM      2  C   UNL     1      -5.287   1.331  -5.450  1.00  0.00     0.016 C 
ATOM      3  C   UNL     1      -5.252  -0.204  -5.419  1.00  0.00     0.013 C 
BRANCH   2   4
ATOM      4  C   UNL     1      -4.119   1.869  -6.257  1.00  0.00    -0.045 A 
ATOM      5  C   UNL     1      -0.778   3.369  -8.549  1.00  0.00     0.044 C 
ATOM      6  C   UNL     1      -1.926   2.862  -7.728  1.00  0.00    -0.051 A 
ATOM      7  C   UNL     1      -1.866   1.591  -7.138  1.00  0.00     0.004 A 
ATOM      8  C   UNL     1      -3.095   3.626  -7.599  1.00  0.00     0.004 A 
ATOM      9  C   UNL     1      -2.949   1.101  -6.402  1.00  0.00     0.004 A 
ATOM     10  C   UNL     1      -4.179   3.138  -6.864  1.00  0.00     0.004 A 
ENDBRANCH   2   4
ENDBRANCH   1   2
BRANCH   1  11
ATOM     11  C   UNL     1      -7.422   2.722  -4.990  1.00  0.00     0.028 C 
BRANCH  11  12
ATOM     12  C   UNL     1      -8.189   1.861  -4.015  1.00  0.00    -0.028 C 
ATOM     13  C   UNL     1      -7.819   1.641  -2.734  1.00  0.00    -0.080 C 
ATOM     14  C   UNL     1      -8.698   0.769  -1.874  1.00  0.00     0.039 C 
ATOM     15  C   UNL     1      -6.544   2.211  -2.157  1.00  0.00     0.039 C 
ENDBRANCH  11  12
ENDBRANCH   1  11
TORSDOF 4
ENDMDL
MODEL 3
REMARK VINA RESULT:    -5.387      1.018      6.694
REMARK INTER + INTRA:          -7.471
REMARK INTER:                  -6.943
REMARK INTRA:                  -0.528
REMARK UNBOUND:                -0.825
REMARK SMILES CC(C)=CCC[C@@H](C)c1ccc(C)cc1
REMARK SMILES IDX 6 1 7 2 8 3 9 4 13 5 12 6 11 7 14 8 10 9 15 10 5 11 4 12
REMARK SMILES IDX 2 13 1 14 3 15
REMARK H PARENT
REMARK Flexibility Score: inf
ROOT
ATOM      1  C   UNL     1      -4.582   1.796  -6.031  1.00  0.00     0.012 C 
ENDROOT
BRANCH   1   2
ATOM      2  C   UNL     1      -5.595   0.655  -5.773  1.00  0.00     0.016 C 
ATOM      3  C   UNL     1      -4.912  -0.702  -5.549  1.00  0.00     0.013 C 
BRANCH   2   4
ATOM      4  C   UNL     1      -6.484   1.001  -4.591  1.00  0.00    -0.045 A 
ATOM      5  C   UNL     1      -8.985   1.979  -1.208  1.00  0.00     0.044 C 
ATOM      6  C   UNL     1      -8.127   1.610  -2.381  1.00  0.00    -0.051 A 
ATOM      7  C   UNL     1      -6.801   1.197  -2.185  1.00  0.00     0.004 A 
ATOM      8  C   UNL     1      -8.622   1.738  -3.686  1.00  0.00     0.004 A 
ATOM      9  C   UNL     1      -5.989   0.888  -3.280  1.00  0.00     0.004 A 
ATOM     10  C   UNL     1      -7.811   1.430  -4.783  1.00  0.00     0.004 A 
ENDBRANCH   2   4
ENDBRANCH   1   2
BRANCH   1  11
ATOM     11  C   UNL     1      -3.124   1.315  -6.177  1.00  0.00     0.028 C 
BRANCH  11  12
ATOM     12  C   UNL     1      -2.261   2.314  -6.909  1.00  0.00    -0.028 C 
ATOM     13  C   UNL     1      -1.489   2.020  -7.979  1.00  0.00    -0.080 C 
ATOM     14  C   UNL     1      -0.693   3.130  -8.615  1.00  0.00     0.039 C 
ATOM     15  C   UNL     1      -1.380   0.616  -8.529  1.00  0.00     0.039 C 
ENDBRANCH  11  12
ENDBRANCH   1  11
TORSDOF 4
ENDMDL
MODEL 4
REMARK VINA RESULT:    -5.265      1.109      6.221
REMARK INTER + INTRA:          -7.321
REMARK INTER:                  -6.575
REMARK INTRA:                  -0.746
REMARK UNBOUND:                -0.825
REMARK SMILES CC(C)=CCC[C@@H](C)c1ccc(C)cc1
REMARK SMILES IDX 6 1 7 2 8 3 9 4 13 5 12 6 11 7 14 8 10 9 15 10 5 11 4 12
REMARK SMILES IDX 2 13 1 14 3 15
REMARK H PARENT
REMARK Flexibility Score: inf
ROOT
ATOM      1  C   UNL     1      -4.678  -0.012  -5.704  1.00  0.00     0.012 C 
ENDROOT
BRANCH   1   2
ATOM      2  C   UNL     1      -6.018   0.684  -6.041  1.00  0.00     0.016 C 
ATOM      3  C   UNL     1      -6.898  -0.152  -6.982  1.00  0.00     0.013 C 
BRANCH   2   4
ATOM      4  C   UNL     1      -6.773   1.013  -4.765  1.00  0.00    -0.045 A 
ATOM      5  C   UNL     1      -8.951   1.947  -1.153  1.00  0.00     0.044 C 
ATOM      6  C   UNL     1      -8.189   1.653  -2.411  1.00  0.00    -0.051 A 
ATOM      7  C   UNL     1      -8.857   1.585  -3.643  1.00  0.00     0.004 A 
ATOM      8  C   UNL     1      -6.815   1.379  -2.357  1.00  0.00     0.004 A 
ATOM      9  C   UNL     1      -8.154   1.275  -4.811  1.00  0.00     0.004 A 
ATOM     10  C   UNL     1      -6.111   1.068  -3.525  1.00  0.00     0.004 A 
ENDBRANCH   2   4
ENDBRANCH   1   2
BRANCH   1  11
ATOM     11  C   UNL     1      -3.434   0.763  -6.183  1.00  0.00     0.028 C 
BRANCH  11  12
ATOM     12  C   UNL     1      -3.788   2.103  -6.784  1.00  0.00    -0.028 C 
ATOM     13  C   UNL     1      -2.898   2.940  -7.362  1.00  0.00    -0.080 C 
ATOM     14  C   UNL     1      -3.405   4.239  -7.934  1.00  0.00     0.039 C 
ATOM     15  C   UNL     1      -1.421   2.627  -7.422  1.00  0.00     0.039 C 
ENDBRANCH  11  12
ENDBRANCH   1  11
TORSDOF 4
ENDMDL
MODEL 5
REMARK VINA RESULT:    -5.183      1.219      1.917
REMARK INTER + INTRA:          -7.220
REMARK INTER:                  -6.402
REMARK INTRA:                  -0.818
REMARK UNBOUND:                -0.825
REMARK SMILES CC(C)=CCC[C@@H](C)c1ccc(C)cc1
REMARK SMILES IDX 6 1 7 2 8 3 9 4 13 5 12 6 11 7 14 8 10 9 15 10 5 11 4 12
REMARK SMILES IDX 2 13 1 14 3 15
REMARK H PARENT
REMARK Flexibility Score: inf
ROOT
ATOM      1  C   UNL     1      -4.916  -0.308  -5.576  1.00  0.00     0.012 C 
ENDROOT
BRANCH   1   2
ATOM      2  C   UNL     1      -4.836   0.029  -7.083  1.00  0.00     0.016 C 
ATOM      3  C   UNL     1      -6.102   0.728  -7.601  1.00  0.00     0.013 C 
BRANCH   2   4
ATOM      4  C   UNL     1      -3.610   0.882  -7.365  1.00  0.00    -0.045 A 
ATOM      5  C   UNL     1      -0.136   3.329  -8.141  1.00  0.00     0.044 C 
ATOM      6  C   UNL     1      -1.357   2.493  -7.896  1.00  0.00    -0.051 A 
ATOM      7  C   UNL     1      -2.353   2.937  -7.014  1.00  0.00     0.004 A 
ATOM      8  C   UNL     1      -1.481   1.231  -8.494  1.00  0.00     0.004 A 
ATOM      9  C   UNL     1      -3.474   2.142  -6.756  1.00  0.00     0.004 A 
ATOM     10  C   UNL     1      -2.601   0.435  -8.237  1.00  0.00     0.004 A 
ENDBRANCH   2   4
ENDBRANCH   1   2
BRANCH   1  11
ATOM     11  C   UNL     1      -6.348  -0.274  -5.004  1.00  0.00     0.028 C 
BRANCH  11  12
ATOM     12  C   UNL     1      -6.418   0.433  -3.671  1.00  0.00    -0.028 C 
ATOM     13  C   UNL     1      -6.911   1.679  -3.492  1.00  0.00    -0.080 C 
ATOM     14  C   UNL     1      -6.930   2.248  -2.096  1.00  0.00     0.039 C 
ATOM     15  C   UNL     1      -7.408   2.521  -4.644  1.00  0.00     0.039 C 
ENDBRANCH  11  12
ENDBRANCH   1  11
TORSDOF 4
ENDMDL
MODEL 6
REMARK VINA RESULT:    -5.139      1.634      2.445
REMARK INTER + INTRA:          -7.165
REMARK INTER:                  -5.927
REMARK INTRA:                  -1.238
REMARK UNBOUND:                -0.825
REMARK SMILES CC(C)=CCC[C@@H](C)c1ccc(C)cc1
REMARK SMILES IDX 6 1 7 2 8 3 9 4 13 5 12 6 11 7 14 8 10 9 15 10 5 11 4 12
REMARK SMILES IDX 2 13 1 14 3 15
REMARK H PARENT
REMARK Flexibility Score: inf
ROOT
ATOM      1  C   UNL     1      -6.435  -1.384  -5.289  1.00  0.00     0.012 C 
ENDROOT
BRANCH   1   2
ATOM      2  C   UNL     1      -6.300  -0.967  -6.773  1.00  0.00     0.016 C 
ATOM      3  C   UNL     1      -7.587  -0.342  -7.331  1.00  0.00     0.013 C 
BRANCH   2   4
ATOM      4  C   UNL     1      -5.132  -0.011  -6.944  1.00  0.00    -0.045 A 
ATOM      5  C   UNL     1      -1.804   2.707  -7.396  1.00  0.00     0.044 C 
ATOM      6  C   UNL     1      -2.979   1.788  -7.238  1.00  0.00    -0.051 A 
ATOM      7  C   UNL     1      -3.368   1.351  -5.963  1.00  0.00     0.004 A 
ATOM      8  C   UNL     1      -3.656   1.306  -8.367  1.00  0.00     0.004 A 
ATOM      9  C   UNL     1      -4.440   0.465  -5.816  1.00  0.00     0.004 A 
ATOM     10  C   UNL     1      -4.728   0.419  -8.222  1.00  0.00     0.004 A 
ENDBRANCH   2   4
ENDBRANCH   1   2
BRANCH   1  11
ATOM     11  C   UNL     1      -7.644  -0.751  -4.571  1.00  0.00     0.028 C 
BRANCH  11  12
ATOM     12  C   UNL     1      -7.234   0.072  -3.373  1.00  0.00    -0.028 C 
ATOM     13  C   UNL     1      -7.148   1.421  -3.366  1.00  0.00    -0.080 C 
ATOM     14  C   UNL     1      -6.739   2.106  -2.086  1.00  0.00     0.039 C 
ATOM     15  C   UNL     1      -7.415   2.251  -4.600  1.00  0.00     0.039 C 
ENDBRANCH  11  12
ENDBRANCH   1  11
TORSDOF 4
ENDMDL
MODEL 7
REMARK VINA RESULT:    -4.971      1.600      2.914
REMARK INTER + INTRA:          -6.958
REMARK INTER:                  -5.888
REMARK INTRA:                  -1.071
REMARK UNBOUND:                -0.825
REMARK SMILES CC(C)=CCC[C@@H](C)c1ccc(C)cc1
REMARK SMILES IDX 6 1 7 2 8 3 9 4 13 5 12 6 11 7 14 8 10 9 15 10 5 11 4 12
REMARK SMILES IDX 2 13 1 14 3 15
REMARK H PARENT
REMARK Flexibility Score: inf
ROOT
ATOM      1  C   UNL     1      -5.206   0.367  -6.828  1.00  0.00     0.012 C 
ENDROOT
BRANCH   1   2
ATOM      2  C   UNL     1      -4.154   1.339  -6.243  1.00  0.00     0.016 C 
ATOM      3  C   UNL     1      -2.719   0.809  -6.380  1.00  0.00     0.013 C 
BRANCH   2   4
ATOM      4  C   UNL     1      -4.277   2.702  -6.902  1.00  0.00    -0.045 A 
ATOM      5  C   UNL     1      -4.596   6.575  -8.789  1.00  0.00     0.044 C 
ATOM      6  C   UNL     1      -4.477   5.245  -8.107  1.00  0.00    -0.051 A 
ATOM      7  C   UNL     1      -3.271   4.531  -8.156  1.00  0.00     0.004 A 
ATOM      8  C   UNL     1      -5.589   4.674  -7.473  1.00  0.00     0.004 A 
ATOM      9  C   UNL     1      -3.169   3.274  -7.553  1.00  0.00     0.004 A 
ATOM     10  C   UNL     1      -5.490   3.417  -6.869  1.00  0.00     0.004 A 
ENDBRANCH   2   4
ENDBRANCH   1   2
BRANCH   1  11
ATOM     11  C   UNL     1      -6.345   0.017  -5.848  1.00  0.00     0.028 C 
BRANCH  11  12
ATOM     12  C   UNL     1      -6.046   0.465  -4.437  1.00  0.00    -0.028 C 
ATOM     13  C   UNL     1      -6.764   1.389  -3.761  1.00  0.00    -0.080 C 
ATOM     14  C   UNL     1      -6.354   1.722  -2.349  1.00  0.00     0.039 C 
ATOM     15  C   UNL     1      -7.935   2.113  -4.386  1.00  0.00     0.039 C 
ENDBRANCH  11  12
ENDBRANCH   1  11
TORSDOF 4
ENDMDL
MODEL 8
REMARK VINA RESULT:    -4.958      2.516      5.343
REMARK INTER + INTRA:          -6.942
REMARK INTER:                  -5.596
REMARK INTRA:                  -1.347
REMARK UNBOUND:                -0.825
REMARK SMILES CC(C)=CCC[C@@H](C)c1ccc(C)cc1
REMARK SMILES IDX 6 1 7 2 8 3 9 4 13 5 12 6 11 7 14 8 10 9 15 10 5 11 4 12
REMARK SMILES IDX 2 13 1 14 3 15
REMARK H PARENT
REMARK Flexibility Score: inf
ROOT
ATOM      1  C   UNL     1      -1.755   2.527  -7.769  1.00  0.00     0.012 C 
ENDROOT
BRANCH   1   2
ATOM      2  C   UNL     1      -2.243   1.239  -8.472  1.00  0.00     0.016 C 
ATOM      3  C   UNL     1      -1.130   0.193  -8.628  1.00  0.00     0.013 C 
BRANCH   2   4
ATOM      4  C   UNL     1      -3.423   0.647  -7.720  1.00  0.00    -0.045 A 
ATOM      5  C   UNL     1      -6.761  -1.031  -5.552  1.00  0.00     0.044 C 
ATOM      6  C   UNL     1      -5.590  -0.477  -6.308  1.00  0.00    -0.051 A 
ATOM      7  C   UNL     1      -4.445  -0.046  -5.622  1.00  0.00     0.004 A 
ATOM      8  C   UNL     1      -5.657  -0.324  -7.700  1.00  0.00     0.004 A 
ATOM      9  C   UNL     1      -3.368   0.504  -6.322  1.00  0.00     0.004 A 
ATOM     10  C   UNL     1      -4.580   0.226  -8.402  1.00  0.00     0.004 A 
ENDBRANCH   2   4
ENDBRANCH   1   2
BRANCH   1  11
ATOM     11  C   UNL     1      -2.494   3.804  -8.219  1.00  0.00     0.028 C 
BRANCH  11  12
ATOM     12  C   UNL     1      -3.783   4.018  -7.463  1.00  0.00    -0.028 C 
ATOM     13  C   UNL     1      -5.015   3.936  -8.013  1.00  0.00    -0.080 C 
ATOM     14  C   UNL     1      -6.212   4.160  -7.124  1.00  0.00     0.039 C 
ATOM     15  C   UNL     1      -5.222   3.663  -9.485  1.00  0.00     0.039 C 
ENDBRANCH  11  12
ENDBRANCH   1  11
TORSDOF 4
ENDMDL
MODEL 9
REMARK VINA RESULT:    -4.882      1.909      3.298
REMARK INTER + INTRA:          -6.848
REMARK INTER:                  -5.370
REMARK INTRA:                  -1.478
REMARK UNBOUND:                -0.825
REMARK SMILES CC(C)=CCC[C@@H](C)c1ccc(C)cc1
REMARK SMILES IDX 6 1 7 2 8 3 9 4 13 5 12 6 11 7 14 8 10 9 15 10 5 11 4 12
REMARK SMILES IDX 2 13 1 14 3 15
REMARK H PARENT
REMARK Flexibility Score: inf
ROOT
ATOM      1  C   UNL     1      -6.007   1.215  -5.167  1.00  0.00     0.012 C 
ENDROOT
BRANCH   1   2
ATOM      2  C   UNL     1      -5.200   0.130  -5.918  1.00  0.00     0.016 C 
ATOM      3  C   UNL     1      -6.093  -0.794  -6.759  1.00  0.00     0.013 C 
BRANCH   2   4
ATOM      4  C   UNL     1      -4.139   0.777  -6.792  1.00  0.00    -0.045 A 
ATOM      5  C   UNL     1      -1.134   2.599  -9.303  1.00  0.00     0.044 C 
ATOM      6  C   UNL     1      -2.156   1.945  -8.422  1.00  0.00    -0.051 A 
ATOM      7  C   UNL     1      -3.003   0.953  -8.938  1.00  0.00     0.004 A 
ATOM      8  C   UNL     1      -2.318   2.366  -7.095  1.00  0.00     0.004 A 
ATOM      9  C   UNL     1      -3.981   0.369  -8.128  1.00  0.00     0.004 A 
ATOM     10  C   UNL     1      -3.296   1.783  -6.283  1.00  0.00     0.004 A 
ENDBRANCH   2   4
ENDBRANCH   1   2
BRANCH   1  11
ATOM     11  C   UNL     1      -7.074   1.912  -6.035  1.00  0.00     0.028 C 
BRANCH  11  12
ATOM     12  C   UNL     1      -6.871   3.407  -6.104  1.00  0.00    -0.028 C 
ATOM     13  C   UNL     1      -6.430   4.069  -7.197  1.00  0.00    -0.080 C 
ATOM     14  C   UNL     1      -6.293   5.568  -7.120  1.00  0.00     0.039 C 
ATOM     15  C   UNL     1      -6.043   3.351  -8.469  1.00  0.00     0.039 C 
ENDBRANCH  11  12
ENDBRANCH   1  11
TORSDOF 4
ENDMDL
