MODEL 1
REMARK VINA RESULT:    -5.061      0.000      0.000
REMARK INTER + INTRA:          -5.794
REMARK INTER:                  -5.653
REMARK INTRA:                  -0.141
REMARK UNBOUND:                -0.141
REMARK SMILES COc1cc2ccc(=O)oc2cc1OC
REMARK SMILES IDX 3 1 13 2 12 3 11 4 5 5 4 6 6 7 7 8 8 9 9 10 10 11 2 12 1 13
REMARK SMILES IDX 14 14 15 15
REMARK H PARENT
REMARK Flexibility Score: inf
ROOT
ATOM      1  C   UNL     1      -1.366 -23.524  -8.799  1.00  0.00     0.161 A 
ATOM      2  C   UNL     1      -0.458 -24.144  -9.675  1.00  0.00     0.164 A 
ATOM      3  C   UNL     1      -0.116 -25.497  -9.485  1.00  0.00     0.098 A 
ATOM      4  C   UNL     1      -0.673 -26.226  -8.432  1.00  0.00     0.142 A 
ATOM      5  C   UNL     1      -1.583 -25.606  -7.554  1.00  0.00     0.022 A 
ATOM      6  C   UNL     1      -1.927 -24.261  -7.737  1.00  0.00     0.062 A 
ATOM      7  C   UNL     1      -2.123 -26.363  -6.508  1.00  0.00     0.019 A 
ATOM      8  C   UNL     1      -1.750 -27.699  -6.368  1.00  0.00     0.094 A 
ATOM      9  C   UNL     1      -0.842 -28.249  -7.278  1.00  0.00     0.336 A 
ATOM     10  O   UNL     1      -0.491 -29.453  -7.167  1.00  0.00    -0.246 OA
ATOM     11  O   UNL     1      -0.343 -27.506  -8.262  1.00  0.00    -0.423 OA
ENDROOT
BRANCH   1  12
ATOM     12  O   UNL     1      -1.683 -22.175  -9.018  1.00  0.00    -0.493 OA
ATOM     13  C   UNL     1      -1.165 -21.089  -8.257  1.00  0.00     0.278 C 
ENDBRANCH   1  12
BRANCH   2  14
ATOM     14  O   UNL     1       0.082 -23.381 -10.722  1.00  0.00    -0.493 OA
ATOM     15  C   UNL     1       1.299 -22.645 -10.642  1.00  0.00     0.278 C 
ENDBRANCH   2  14
TORSDOF 2
ENDMDL
MODEL 2
REMARK VINA RESULT:    -5.020      1.306      2.810
REMARK INTER + INTRA:          -5.748
REMARK INTER:                  -5.618
REMARK INTRA:                  -0.129
REMARK UNBOUND:                -0.141
REMARK SMILES COc1cc2ccc(=O)oc2cc1OC
REMARK SMILES IDX 3 1 13 2 12 3 11 4 5 5 4 6 6 7 7 8 8 9 9 10 10 11 2 12 1 13
REMARK SMILES IDX 14 14 15 15
REMARK H PARENT
REMARK Flexibility Score: inf
ROOT
ATOM      1  C   UNL     1       0.141 -24.551  -9.566  1.00  0.00     0.161 A 
ATOM      2  C   UNL     1      -0.965 -24.489  -8.701  1.00  0.00     0.164 A 
ATOM      3  C   UNL     1      -1.389 -25.651  -8.026  1.00  0.00     0.098 A 
ATOM      4  C   UNL     1      -0.719 -26.862  -8.211  1.00  0.00     0.142 A 
ATOM      5  C   UNL     1       0.390 -26.924  -9.078  1.00  0.00     0.022 A 
ATOM      6  C   UNL     1       0.817 -25.774  -9.752  1.00  0.00     0.062 A 
ATOM      7  C   UNL     1       1.041 -28.152  -9.242  1.00  0.00     0.019 A 
ATOM      8  C   UNL     1       0.578 -29.270  -8.548  1.00  0.00     0.094 A 
ATOM      9  C   UNL     1      -0.528 -29.133  -7.703  1.00  0.00     0.336 A 
ATOM     10  O   UNL     1      -0.962 -30.130  -7.069  1.00  0.00    -0.246 OA
ATOM     11  O   UNL     1      -1.128 -27.954  -7.567  1.00  0.00    -0.423 OA
ENDROOT
BRANCH   1  12
ATOM     12  O   UNL     1       0.537 -23.375 -10.223  1.00  0.00    -0.493 OA
ATOM     13  C   UNL     1       1.663 -22.585  -9.856  1.00  0.00     0.278 C 
ENDBRANCH   1  12
BRANCH   2  14
ATOM     14  O   UNL     1      -1.614 -23.256  -8.539  1.00  0.00    -0.493 OA
ATOM     15  C   UNL     1      -2.051 -22.731  -7.289  1.00  0.00     0.278 C 
ENDBRANCH   2  14
TORSDOF 2
ENDMDL
MODEL 3
REMARK VINA RESULT:    -4.890      1.570      5.703
REMARK INTER + INTRA:          -5.603
REMARK INTER:                  -5.445
REMARK INTRA:                  -0.158
REMARK UNBOUND:                -0.141
REMARK SMILES COc1cc2ccc(=O)oc2cc1OC
REMARK SMILES IDX 3 1 13 2 12 3 11 4 5 5 4 6 6 7 7 8 8 9 9 10 10 11 2 12 1 13
REMARK SMILES IDX 14 14 15 15
REMARK H PARENT
REMARK Flexibility Score: inf
ROOT
ATOM      1  C   UNL     1       0.397 -27.898  -8.607  1.00  0.00     0.161 A 
ATOM      2  C   UNL     1      -0.697 -27.782  -7.732  1.00  0.00     0.164 A 
ATOM      3  C   UNL     1      -1.396 -26.561  -7.645  1.00  0.00     0.098 A 
ATOM      4  C   UNL     1      -1.008 -25.467  -8.422  1.00  0.00     0.142 A 
ATOM      5  C   UNL     1       0.088 -25.583  -9.299  1.00  0.00     0.022 A 
ATOM      6  C   UNL     1       0.787 -26.793  -9.390  1.00  0.00     0.062 A 
ATOM      7  C   UNL     1       0.452 -24.469 -10.064  1.00  0.00     0.019 A 
ATOM      8  C   UNL     1      -0.276 -23.287  -9.939  1.00  0.00     0.094 A 
ATOM      9  C   UNL     1      -1.353 -23.245  -9.048  1.00  0.00     0.336 A 
ATOM     10  O   UNL     1      -2.021 -22.186  -8.919  1.00  0.00    -0.246 OA
ATOM     11  O   UNL     1      -1.676 -24.318  -8.332  1.00  0.00    -0.423 OA
ENDROOT
BRANCH   1  12
ATOM     12  O   UNL     1       1.070 -29.128  -8.668  1.00  0.00    -0.493 OA
ATOM     13  C   UNL     1       0.861 -30.114  -9.673  1.00  0.00     0.278 C 
ENDBRANCH   1  12
BRANCH   2  14
ATOM     14  O   UNL     1      -1.058 -28.901  -6.967  1.00  0.00    -0.493 OA
ATOM     15  C   UNL     1      -2.095 -29.815  -7.312  1.00  0.00     0.278 C 
ENDBRANCH   2  14
TORSDOF 2
ENDMDL
MODEL 4
REMARK VINA RESULT:    -4.880      1.472      5.107
REMARK INTER + INTRA:          -5.591
REMARK INTER:                  -5.456
REMARK INTRA:                  -0.135
REMARK UNBOUND:                -0.141
REMARK SMILES COc1cc2ccc(=O)oc2cc1OC
REMARK SMILES IDX 3 1 13 2 12 3 11 4 5 5 4 6 6 7 7 8 8 9 9 10 10 11 2 12 1 13
REMARK SMILES IDX 14 14 15 15
REMARK H PARENT
REMARK Flexibility Score: inf
ROOT
ATOM      1  C   UNL     1      -1.214 -26.163  -8.198  1.00  0.00     0.161 A 
ATOM      2  C   UNL     1      -0.135 -26.701  -8.920  1.00  0.00     0.164 A 
ATOM      3  C   UNL     1       0.700 -25.848  -9.668  1.00  0.00     0.098 A 
ATOM      4  C   UNL     1       0.463 -24.472  -9.697  1.00  0.00     0.142 A 
ATOM      5  C   UNL     1      -0.619 -23.932  -8.974  1.00  0.00     0.022 A 
ATOM      6  C   UNL     1      -1.453 -24.774  -8.228  1.00  0.00     0.062 A 
ATOM      7  C   UNL     1      -0.831 -22.549  -9.023  1.00  0.00     0.019 A 
ATOM      8  C   UNL     1       0.028 -21.752  -9.779  1.00  0.00     0.094 A 
ATOM      9  C   UNL     1       1.081 -22.358 -10.471  1.00  0.00     0.336 A 
ATOM     10  O   UNL     1       1.867 -21.656 -11.160  1.00  0.00    -0.246 OA
ATOM     11  O   UNL     1       1.259 -23.675 -10.407  1.00  0.00    -0.423 OA
ENDROOT
BRANCH   1  12
ATOM     12  O   UNL     1      -2.026 -27.042  -7.465  1.00  0.00    -0.493 OA
ATOM     13  C   UNL     1      -2.125 -27.054  -6.044  1.00  0.00     0.278 C 
ENDBRANCH   1  12
BRANCH   2  14
ATOM     14  O   UNL     1       0.074 -28.088  -8.868  1.00  0.00    -0.493 OA
ATOM     15  C   UNL     1       0.907 -28.744  -7.918  1.00  0.00     0.278 C 
ENDBRANCH   2  14
TORSDOF 2
ENDMDL
MODEL 5
REMARK VINA RESULT:    -4.712      1.229      2.773
REMARK INTER + INTRA:          -5.403
REMARK INTER:                  -5.278
REMARK INTRA:                  -0.126
REMARK UNBOUND:                -0.141
REMARK SMILES COc1cc2ccc(=O)oc2cc1OC
REMARK SMILES IDX 3 1 13 2 12 3 11 4 5 5 4 6 6 7 7 8 8 9 9 10 10 11 2 12 1 13
REMARK SMILES IDX 14 14 15 15
REMARK H PARENT
REMARK Flexibility Score: inf
ROOT
ATOM      1  C   UNL     1       0.074 -23.150 -10.164  1.00  0.00     0.161 A 
ATOM      2  C   UNL     1      -1.007 -22.860  -9.313  1.00  0.00     0.164 A 
ATOM      3  C   UNL     1      -1.529 -23.868  -8.478  1.00  0.00     0.098 A 
ATOM      4  C   UNL     1      -0.980 -25.153  -8.492  1.00  0.00     0.142 A 
ATOM      5  C   UNL     1       0.103 -25.443  -9.344  1.00  0.00     0.022 A 
ATOM      6  C   UNL     1       0.627 -24.446 -10.176  1.00  0.00     0.062 A 
ATOM      7  C   UNL     1       0.631 -26.739  -9.335  1.00  0.00     0.019 A 
ATOM      8  C   UNL     1       0.076 -27.698  -8.488  1.00  0.00     0.094 A 
ATOM      9  C   UNL     1      -0.998 -27.337  -7.668  1.00  0.00     0.336 A 
ATOM     10  O   UNL     1      -1.514 -28.188  -6.898  1.00  0.00    -0.246 OA
ATOM     11  O   UNL     1      -1.481 -26.098  -7.698  1.00  0.00    -0.423 OA
ENDROOT
BRANCH   1  12
ATOM     12  O   UNL     1       0.568 -22.122 -10.982  1.00  0.00    -0.493 OA
ATOM     13  C   UNL     1       1.950 -21.880 -11.229  1.00  0.00     0.278 C 
ENDBRANCH   1  12
BRANCH   2  14
ATOM     14  O   UNL     1      -1.533 -21.559  -9.325  1.00  0.00    -0.493 OA
ATOM     15  C   UNL     1      -1.371 -20.612  -8.273  1.00  0.00     0.278 C 
ENDBRANCH   2  14
TORSDOF 2
ENDMDL
MODEL 6
REMARK VINA RESULT:    -4.570      2.549      5.895
REMARK INTER + INTRA:          -5.245
REMARK INTER:                  -5.087
REMARK INTRA:                  -0.158
REMARK UNBOUND:                -0.141
REMARK SMILES COc1cc2ccc(=O)oc2cc1OC
REMARK SMILES IDX 3 1 13 2 12 3 11 4 5 5 4 6 6 7 7 8 8 9 9 10 10 11 2 12 1 13
REMARK SMILES IDX 14 14 15 15
REMARK H PARENT
REMARK Flexibility Score: inf
ROOT
ATOM      1  C   UNL     1       0.178 -25.983  -9.547  1.00  0.00     0.161 A 
ATOM      2  C   UNL     1      -1.012 -25.729 -10.250  1.00  0.00     0.164 A 
ATOM      3  C   UNL     1      -1.208 -24.475 -10.862  1.00  0.00     0.098 A 
ATOM      4  C   UNL     1      -0.227 -23.485 -10.776  1.00  0.00     0.142 A 
ATOM      5  C   UNL     1       0.967 -23.740 -10.072  1.00  0.00     0.022 A 
ATOM      6  C   UNL     1       1.167 -24.983  -9.460  1.00  0.00     0.062 A 
ATOM      7  C   UNL     1       1.931 -22.727 -10.003  1.00  0.00     0.019 A 
ATOM      8  C   UNL     1       1.685 -21.506 -10.629  1.00  0.00     0.094 A 
ATOM      9  C   UNL     1       0.477 -21.324 -11.311  1.00  0.00     0.336 A 
ATOM     10  O   UNL     1       0.236 -20.228 -11.882  1.00  0.00    -0.246 OA
ATOM     11  O   UNL     1      -0.421 -22.304 -11.360  1.00  0.00    -0.423 OA
ENDROOT
BRANCH   1  12
ATOM     12  O   UNL     1       0.339 -27.243  -8.948  1.00  0.00    -0.493 OA
ATOM     13  C   UNL     1       1.094 -28.313  -9.508  1.00  0.00     0.278 C 
ENDBRANCH   1  12
BRANCH   2  14
ATOM     14  O   UNL     1      -1.976 -26.747 -10.316  1.00  0.00    -0.493 OA
ATOM     15  C   UNL     1      -2.125 -27.648 -11.409  1.00  0.00     0.278 C 
ENDBRANCH   2  14
TORSDOF 2
ENDMDL
MODEL 7
REMARK VINA RESULT:    -4.370      2.439      5.440
REMARK INTER + INTRA:          -5.022
REMARK INTER:                  -4.887
REMARK INTRA:                  -0.135
REMARK UNBOUND:                -0.141
REMARK SMILES COc1cc2ccc(=O)oc2cc1OC
REMARK SMILES IDX 3 1 13 2 12 3 11 4 5 5 4 6 6 7 7 8 8 9 9 10 10 11 2 12 1 13
REMARK SMILES IDX 14 14 15 15
REMARK H PARENT
REMARK Flexibility Score: inf
ROOT
ATOM      1  C   UNL     1      -0.928 -26.405 -10.164  1.00  0.00     0.161 A 
ATOM      2  C   UNL     1       0.395 -26.630  -9.745  1.00  0.00     0.164 A 
ATOM      3  C   UNL     1       1.262 -25.538  -9.550  1.00  0.00     0.098 A 
ATOM      4  C   UNL     1       0.816 -24.232  -9.771  1.00  0.00     0.142 A 
ATOM      5  C   UNL     1      -0.509 -24.006 -10.190  1.00  0.00     0.022 A 
ATOM      6  C   UNL     1      -1.376 -25.088 -10.386  1.00  0.00     0.062 A 
ATOM      7  C   UNL     1      -0.926 -22.687 -10.403  1.00  0.00     0.019 A 
ATOM      8  C   UNL     1      -0.025 -21.643 -10.194  1.00  0.00     0.094 A 
ATOM      9  C   UNL     1       1.275 -21.943  -9.777  1.00  0.00     0.336 A 
ATOM     10  O   UNL     1       2.104 -21.015  -9.584  1.00  0.00    -0.246 OA
ATOM     11  O   UNL     1       1.645 -23.206  -9.583  1.00  0.00    -0.423 OA
ENDROOT
BRANCH   1  12
ATOM     12  O   UNL     1      -1.764 -27.517 -10.348  1.00  0.00    -0.493 OA
ATOM     13  C   UNL     1      -2.107 -28.068 -11.615  1.00  0.00     0.278 C 
ENDBRANCH   1  12
BRANCH   2  14
ATOM     14  O   UNL     1       0.808 -27.955  -9.532  1.00  0.00    -0.493 OA
ATOM     15  C   UNL     1       0.873 -28.586  -8.257  1.00  0.00     0.278 C 
ENDBRANCH   2  14
TORSDOF 2
ENDMDL
MODEL 8
REMARK VINA RESULT:    -4.345      2.717      6.127
REMARK INTER + INTRA:          -4.993
REMARK INTER:                  -4.878
REMARK INTRA:                  -0.116
REMARK UNBOUND:                -0.141
REMARK SMILES COc1cc2ccc(=O)oc2cc1OC
REMARK SMILES IDX 3 1 13 2 12 3 11 4 5 5 4 6 6 7 7 8 8 9 9 10 10 11 2 12 1 13
REMARK SMILES IDX 14 14 15 15
REMARK H PARENT
REMARK Flexibility Score: inf
ROOT
ATOM      1  C   UNL     1      -0.105 -24.674 -10.346  1.00  0.00     0.161 A 
ATOM      2  C   UNL     1      -1.013 -24.057 -11.224  1.00  0.00     0.164 A 
ATOM      3  C   UNL     1      -0.920 -22.672 -11.466  1.00  0.00     0.098 A 
ATOM      4  C   UNL     1       0.068 -21.909 -10.838  1.00  0.00     0.142 A 
ATOM      5  C   UNL     1       0.978 -22.528  -9.958  1.00  0.00     0.022 A 
ATOM      6  C   UNL     1       0.891 -23.904  -9.714  1.00  0.00     0.062 A 
ATOM      7  C   UNL     1       1.956 -21.736  -9.345  1.00  0.00     0.019 A 
ATOM      8  C   UNL     1       2.002 -20.370  -9.621  1.00  0.00     0.094 A 
ATOM      9  C   UNL     1       1.066 -19.825 -10.506  1.00  0.00     0.336 A 
ATOM     10  O   UNL     1       1.091 -18.594 -10.767  1.00  0.00    -0.246 OA
ATOM     11  O   UNL     1       0.147 -20.601 -11.074  1.00  0.00    -0.423 OA
ENDROOT
BRANCH   1  12
ATOM     12  O   UNL     1      -0.227 -26.055 -10.129  1.00  0.00    -0.493 OA
ATOM     13  C   UNL     1       0.317 -26.748  -9.010  1.00  0.00     0.278 C 
ENDBRANCH   1  12
BRANCH   2  14
ATOM     14  O   UNL     1      -1.992 -24.854 -11.837  1.00  0.00    -0.493 OA
ATOM     15  C   UNL     1      -2.125 -25.030 -13.244  1.00  0.00     0.278 C 
ENDBRANCH   2  14
TORSDOF 2
ENDMDL
