MODEL 1
REMARK VINA RESULT:     7.074      0.000      0.000
REMARK INTER + INTRA:          12.267
REMARK INTER:                  12.864
REMARK INTRA:                  -0.597
REMARK UNBOUND:                -0.597
REMARK SMILES CCCCCCCCCCCCCCCC(=O)[O-]
REMARK SMILES IDX 9 1 10 2 11 3 12 4 13 5 14 6 15 7 16 8 17 9 18 10 8 11 7 12
REMARK SMILES IDX 6 13 5 14 4 15 3 16 2 17 1 18
REMARK H PARENT
REMARK Flexibility Score: inf
ROOT
ATOM      1  C   UNL     1     -30.134  16.411 -11.162  1.00  0.00     0.000 C 
ENDROOT
BRANCH   1   2
ATOM      2  C   UNL     1     -28.973  17.375 -11.447  1.00  0.00     0.000 C 
BRANCH   2   3
ATOM      3  C   UNL     1     -28.820  17.624 -12.952  1.00  0.00     0.000 C 
BRANCH   3   4
ATOM      4  C   UNL     1     -28.828  16.301 -13.732  1.00  0.00     0.000 C 
BRANCH   4   5
ATOM      5  C   UNL     1     -29.621  16.384 -15.049  1.00  0.00     0.000 C 
BRANCH   5   6
ATOM      6  C   UNL     1     -29.656  17.780 -15.702  1.00  0.00     0.006 C 
BRANCH   6   7
ATOM      7  C   UNL     1     -30.271  17.811 -17.111  1.00  0.00     0.053 C 
BRANCH   7   8
ATOM      8  C   UNL     1     -30.505  19.209 -17.591  1.00  0.00     0.041 C 
ATOM      9  O   UNL     1     -31.678  19.657 -17.692  1.00  0.00    -0.550 OA
ATOM     10  O   UNL     1     -29.430  20.008 -17.959  1.00  0.00    -0.550 OA
ENDBRANCH   7   8
ENDBRANCH   6   7
ENDBRANCH   5   6
ENDBRANCH   4   5
ENDBRANCH   3   4
ENDBRANCH   2   3
ENDBRANCH   1   2
BRANCH   1  11
ATOM     11  C   UNL     1     -31.302  17.091 -10.431  1.00  0.00     0.000 C 
BRANCH  11  12
ATOM     12  C   UNL     1     -31.169  18.624 -10.404  1.00  0.00    -0.000 C 
BRANCH  12  13
ATOM     13  C   UNL     1     -32.527  19.336 -10.522  1.00  0.00    -0.000 C 
BRANCH  13  14
ATOM     14  C   UNL     1     -32.519  20.734  -9.885  1.00  0.00    -0.000 C 
BRANCH  14  15
ATOM     15  C   UNL     1     -31.895  21.766 -10.836  1.00  0.00    -0.000 C 
BRANCH  15  16
ATOM     16  C   UNL     1     -31.151  22.892 -10.096  1.00  0.00    -0.000 C 
BRANCH  16  17
ATOM     17  C   UNL     1     -32.019  24.110  -9.733  1.00  0.00    -0.003 C 
ATOM     18  C   UNL     1     -33.512  23.866  -9.949  1.00  0.00     0.004 C 
ENDBRANCH  16  17
ENDBRANCH  15  16
ENDBRANCH  14  15
ENDBRANCH  13  14
ENDBRANCH  12  13
ENDBRANCH  11  12
ENDBRANCH   1  11
TORSDOF 14
ENDMDL
MODEL 2
REMARK VINA RESULT:     7.371      3.146      6.957
REMARK INTER + INTRA:          12.806
REMARK INTER:                  13.657
REMARK INTRA:                  -0.851
REMARK UNBOUND:                -0.597
REMARK SMILES CCCCCCCCCCCCCCCC(=O)[O-]
REMARK SMILES IDX 9 1 10 2 11 3 12 4 13 5 14 6 15 7 16 8 17 9 18 10 8 11 7 12
REMARK SMILES IDX 6 13 5 14 4 15 3 16 2 17 1 18
REMARK H PARENT
REMARK Flexibility Score: inf
ROOT
ATOM      1  C   UNL     1     -29.819  16.302 -11.114  1.00  0.00     0.000 C 
ENDROOT
BRANCH   1   2
ATOM      2  C   UNL     1     -31.173  16.782 -10.569  1.00  0.00     0.000 C 
BRANCH   2   3
ATOM      3  C   UNL     1     -31.207  18.310 -10.446  1.00  0.00     0.000 C 
BRANCH   3   4
ATOM      4  C   UNL     1     -32.650  18.821 -10.320  1.00  0.00     0.000 C 
BRANCH   4   5
ATOM      5  C   UNL     1     -32.733  20.347 -10.138  1.00  0.00     0.000 C 
BRANCH   5   6
ATOM      6  C   UNL     1     -31.410  21.105 -10.368  1.00  0.00     0.006 C 
BRANCH   6   7
ATOM      7  C   UNL     1     -31.574  22.506 -10.977  1.00  0.00     0.053 C 
BRANCH   7   8
ATOM      8  C   UNL     1     -32.258  23.450 -10.037  1.00  0.00     0.041 C 
ATOM      9  O   UNL     1     -33.457  23.782 -10.234  1.00  0.00    -0.550 OA
ATOM     10  O   UNL     1     -31.562  23.990  -8.964  1.00  0.00    -0.550 OA
ENDBRANCH   7   8
ENDBRANCH   6   7
ENDBRANCH   5   6
ENDBRANCH   4   5
ENDBRANCH   3   4
ENDBRANCH   2   3
ENDBRANCH   1   2
BRANCH   1  11
ATOM     11  C   UNL     1     -28.875  17.465 -11.457  1.00  0.00     0.000 C 
BRANCH  11  12
ATOM     12  C   UNL     1     -28.802  17.740 -12.969  1.00  0.00    -0.000 C 
BRANCH  12  13
ATOM     13  C   UNL     1     -29.155  16.502 -13.810  1.00  0.00    -0.000 C 
BRANCH  13  14
ATOM     14  C   UNL     1     -28.993  16.747 -15.318  1.00  0.00    -0.000 C 
BRANCH  14  15
ATOM     15  C   UNL     1     -30.165  17.571 -15.869  1.00  0.00    -0.000 C 
BRANCH  15  16
ATOM     16  C   UNL     1     -29.972  17.981 -17.340  1.00  0.00    -0.000 C 
BRANCH  16  17
ATOM     17  C   UNL     1     -30.448  19.405 -17.682  1.00  0.00    -0.003 C 
ATOM     18  C   UNL     1     -29.300  20.404 -17.816  1.00  0.00     0.004 C 
ENDBRANCH  16  17
ENDBRANCH  15  16
ENDBRANCH  14  15
ENDBRANCH  13  14
ENDBRANCH  12  13
ENDBRANCH  11  12
ENDBRANCH   1  11
TORSDOF 14
ENDMDL
MODEL 3
REMARK VINA RESULT:     7.722      3.134      3.663
REMARK INTER + INTRA:          13.445
REMARK INTER:                  14.058
REMARK INTRA:                  -0.613
REMARK UNBOUND:                -0.597
REMARK SMILES CCCCCCCCCCCCCCCC(=O)[O-]
REMARK SMILES IDX 9 1 10 2 11 3 12 4 13 5 14 6 15 7 16 8 17 9 18 10 8 11 7 12
REMARK SMILES IDX 6 13 5 14 4 15 3 16 2 17 1 18
REMARK H PARENT
REMARK Flexibility Score: inf
ROOT
ATOM      1  C   UNL     1     -31.198  16.529 -10.653  1.00  0.00     0.000 C 
ENDROOT
BRANCH   1   2
ATOM      2  C   UNL     1     -29.846  15.989 -11.144  1.00  0.00     0.000 C 
BRANCH   2   3
ATOM      3  C   UNL     1     -28.831  17.124 -11.321  1.00  0.00     0.000 C 
BRANCH   3   4
ATOM      4  C   UNL     1     -28.902  17.709 -12.740  1.00  0.00     0.000 C 
BRANCH   4   5
ATOM      5  C   UNL     1     -29.151  16.640 -13.818  1.00  0.00     0.000 C 
BRANCH   5   6
ATOM      6  C   UNL     1     -28.129  15.485 -13.841  1.00  0.00     0.006 C 
BRANCH   6   7
ATOM      7  C   UNL     1     -28.391  14.422 -14.920  1.00  0.00     0.053 C 
BRANCH   7   8
ATOM      8  C   UNL     1     -27.263  13.443 -15.028  1.00  0.00     0.041 C 
ATOM      9  O   UNL     1     -27.469  12.216 -14.834  1.00  0.00    -0.550 OA
ATOM     10  O   UNL     1     -25.979  13.889 -15.311  1.00  0.00    -0.550 OA
ENDBRANCH   7   8
ENDBRANCH   6   7
ENDBRANCH   5   6
ENDBRANCH   4   5
ENDBRANCH   3   4
ENDBRANCH   2   3
ENDBRANCH   1   2
BRANCH   1  11
ATOM     11  C   UNL     1     -31.140  18.020 -10.283  1.00  0.00     0.000 C 
BRANCH  11  12
ATOM     12  C   UNL     1     -32.516  18.703 -10.364  1.00  0.00    -0.000 C 
BRANCH  12  13
ATOM     13  C   UNL     1     -32.408  20.219 -10.596  1.00  0.00    -0.000 C 
BRANCH  13  14
ATOM     14  C   UNL     1     -30.962  20.730 -10.499  1.00  0.00    -0.000 C 
BRANCH  14  15
ATOM     15  C   UNL     1     -30.930  22.253 -10.314  1.00  0.00    -0.000 C 
BRANCH  15  16
ATOM     16  C   UNL     1     -32.306  22.913 -10.514  1.00  0.00    -0.000 C 
BRANCH  16  17
ATOM     17  C   UNL     1     -32.584  24.119  -9.598  1.00  0.00    -0.003 C 
ATOM     18  C   UNL     1     -34.002  24.125  -9.030  1.00  0.00     0.004 C 
ENDBRANCH  16  17
ENDBRANCH  15  16
ENDBRANCH  14  15
ENDBRANCH  13  14
ENDBRANCH  12  13
ENDBRANCH  11  12
ENDBRANCH   1  11
TORSDOF 14
ENDMDL
MODEL 4
REMARK VINA RESULT:     8.129      3.570      7.788
REMARK INTER + INTRA:          14.185
REMARK INTER:                  13.812
REMARK INTRA:                   0.372
REMARK UNBOUND:                -0.597
REMARK SMILES CCCCCCCCCCCCCCCC(=O)[O-]
REMARK SMILES IDX 9 1 10 2 11 3 12 4 13 5 14 6 15 7 16 8 17 9 18 10 8 11 7 12
REMARK SMILES IDX 6 13 5 14 4 15 3 16 2 17 1 18
REMARK H PARENT
REMARK Flexibility Score: inf
ROOT
ATOM      1  C   UNL     1     -31.384  16.806 -10.384  1.00  0.00     0.000 C 
ENDROOT
BRANCH   1   2
ATOM      2  C   UNL     1     -31.127  18.320 -10.375  1.00  0.00     0.000 C 
BRANCH   2   3
ATOM      3  C   UNL     1     -32.445  19.103 -10.396  1.00  0.00     0.000 C 
BRANCH   3   4
ATOM      4  C   UNL     1     -32.210  20.587 -10.081  1.00  0.00     0.000 C 
BRANCH   4   5
ATOM      5  C   UNL     1     -30.872  21.113 -10.633  1.00  0.00     0.000 C 
BRANCH   5   6
ATOM      6  C   UNL     1     -30.621  22.619 -10.411  1.00  0.00     0.006 C 
BRANCH   6   7
ATOM      7  C   UNL     1     -31.768  23.532 -10.874  1.00  0.00     0.053 C 
BRANCH   7   8
ATOM      8  C   UNL     1     -32.738  23.819  -9.771  1.00  0.00     0.041 C 
ATOM      9  O   UNL     1     -32.319  24.122  -8.622  1.00  0.00    -0.550 OA
ATOM     10  O   UNL     1     -34.104  23.718 -10.000  1.00  0.00    -0.550 OA
ENDBRANCH   7   8
ENDBRANCH   6   7
ENDBRANCH   5   6
ENDBRANCH   4   5
ENDBRANCH   3   4
ENDBRANCH   2   3
ENDBRANCH   1   2
BRANCH   1  11
ATOM     11  C   UNL     1     -30.285  16.023 -11.119  1.00  0.00     0.000 C 
BRANCH  11  12
ATOM     12  C   UNL     1     -28.957  16.797 -11.191  1.00  0.00    -0.000 C 
BRANCH  12  13
ATOM     13  C   UNL     1     -28.915  17.787 -12.366  1.00  0.00    -0.000 C 
BRANCH  13  14
ATOM     14  C   UNL     1     -28.876  17.082 -13.731  1.00  0.00    -0.000 C 
BRANCH  14  15
ATOM     15  C   UNL     1     -28.815  15.558 -13.560  1.00  0.00    -0.000 C 
BRANCH  15  16
ATOM     16  C   UNL     1     -28.484  14.819 -14.869  1.00  0.00    -0.000 C 
BRANCH  16  17
ATOM     17  C   UNL     1     -27.553  13.603 -14.707  1.00  0.00    -0.003 C 
ATOM     18  C   UNL     1     -26.131  13.870 -15.198  1.00  0.00     0.004 C 
ENDBRANCH  16  17
ENDBRANCH  15  16
ENDBRANCH  14  15
ENDBRANCH  13  14
ENDBRANCH  12  13
ENDBRANCH  11  12
ENDBRANCH   1  11
TORSDOF 14
ENDMDL
MODEL 5
REMARK VINA RESULT:     8.751      2.607      3.382
REMARK INTER + INTRA:          15.317
REMARK INTER:                  16.699
REMARK INTRA:                  -1.382
REMARK UNBOUND:                -0.597
REMARK SMILES CCCCCCCCCCCCCCCC(=O)[O-]
REMARK SMILES IDX 9 1 10 2 11 3 12 4 13 5 14 6 15 7 16 8 17 9 18 10 8 11 7 12
REMARK SMILES IDX 6 13 5 14 4 15 3 16 2 17 1 18
REMARK H PARENT
REMARK Flexibility Score: inf
ROOT
ATOM      1  C   UNL     1     -31.455  16.755 -10.111  1.00  0.00     0.000 C 
ENDROOT
BRANCH   1   2
ATOM      2  C   UNL     1     -30.451  15.961 -10.960  1.00  0.00     0.000 C 
BRANCH   2   3
ATOM      3  C   UNL     1     -29.146  16.744 -11.146  1.00  0.00     0.000 C 
BRANCH   3   4
ATOM      4  C   UNL     1     -28.863  16.998 -12.634  1.00  0.00     0.000 C 
BRANCH   4   5
ATOM      5  C   UNL     1     -28.905  18.491 -13.007  1.00  0.00     0.000 C 
BRANCH   5   6
ATOM      6  C   UNL     1     -28.373  19.450 -11.923  1.00  0.00     0.006 C 
BRANCH   6   7
ATOM      7  C   UNL     1     -28.499  20.941 -12.273  1.00  0.00     0.053 C 
BRANCH   7   8
ATOM      8  C   UNL     1     -27.277  21.462 -12.963  1.00  0.00     0.041 C 
ATOM      9  O   UNL     1     -26.994  21.075 -14.127  1.00  0.00    -0.550 OA
ATOM     10  O   UNL     1     -26.431  22.347 -12.307  1.00  0.00    -0.550 OA
ENDBRANCH   7   8
ENDBRANCH   6   7
ENDBRANCH   5   6
ENDBRANCH   4   5
ENDBRANCH   3   4
ENDBRANCH   2   3
ENDBRANCH   1   2
BRANCH   1  11
ATOM     11  C   UNL     1     -31.437  18.259 -10.427  1.00  0.00     0.000 C 
BRANCH  11  12
ATOM     12  C   UNL     1     -32.844  18.883 -10.409  1.00  0.00    -0.000 C 
BRANCH  12  13
ATOM     13  C   UNL     1     -32.821  20.375 -10.037  1.00  0.00    -0.000 C 
BRANCH  13  14
ATOM     14  C   UNL     1     -31.439  21.013 -10.238  1.00  0.00    -0.000 C 
BRANCH  14  15
ATOM     15  C   UNL     1     -31.559  22.369 -10.949  1.00  0.00    -0.000 C 
BRANCH  15  16
ATOM     16  C   UNL     1     -31.238  23.560 -10.028  1.00  0.00    -0.000 C 
BRANCH  16  17
ATOM     17  C   UNL     1     -32.446  24.125  -9.258  1.00  0.00    -0.003 C 
ATOM     18  C   UNL     1     -33.735  24.117 -10.079  1.00  0.00     0.004 C 
ENDBRANCH  16  17
ENDBRANCH  15  16
ENDBRANCH  14  15
ENDBRANCH  13  14
ENDBRANCH  12  13
ENDBRANCH  11  12
ENDBRANCH   1  11
TORSDOF 14
ENDMDL
MODEL 6
REMARK VINA RESULT:     8.847      4.096      6.259
REMARK INTER + INTRA:          15.490
REMARK INTER:                  15.504
REMARK INTRA:                  -0.013
REMARK UNBOUND:                -0.597
REMARK SMILES CCCCCCCCCCCCCCCC(=O)[O-]
REMARK SMILES IDX 9 1 10 2 11 3 12 4 13 5 14 6 15 7 16 8 17 9 18 10 8 11 7 12
REMARK SMILES IDX 6 13 5 14 4 15 3 16 2 17 1 18
REMARK H PARENT
REMARK Flexibility Score: inf
ROOT
ATOM      1  C   UNL     1     -29.941  16.364 -11.120  1.00  0.00     0.000 C 
ENDROOT
BRANCH   1   2
ATOM      2  C   UNL     1     -31.170  16.895 -10.367  1.00  0.00     0.000 C 
BRANCH   2   3
ATOM      3  C   UNL     1     -31.463  18.351 -10.749  1.00  0.00     0.000 C 
BRANCH   3   4
ATOM      4  C   UNL     1     -32.823  18.803 -10.197  1.00  0.00     0.000 C 
BRANCH   4   5
ATOM      5  C   UNL     1     -32.899  20.321  -9.955  1.00  0.00     0.000 C 
BRANCH   5   6
ATOM      6  C   UNL     1     -31.590  21.091 -10.226  1.00  0.00     0.006 C 
BRANCH   6   7
ATOM      7  C   UNL     1     -31.780  22.440 -10.938  1.00  0.00     0.053 C 
BRANCH   7   8
ATOM      8  C   UNL     1     -32.306  23.494 -10.014  1.00  0.00     0.041 C 
ATOM      9  O   UNL     1     -31.551  24.013  -9.150  1.00  0.00    -0.550 OA
ATOM     10  O   UNL     1     -33.639  23.878 -10.082  1.00  0.00    -0.550 OA
ENDBRANCH   7   8
ENDBRANCH   6   7
ENDBRANCH   5   6
ENDBRANCH   4   5
ENDBRANCH   3   4
ENDBRANCH   2   3
ENDBRANCH   1   2
BRANCH   1  11
ATOM     11  C   UNL     1     -29.222  17.458 -11.924  1.00  0.00     0.000 C 
BRANCH  11  12
ATOM     12  C   UNL     1     -28.748  18.625 -11.040  1.00  0.00    -0.000 C 
BRANCH  12  13
ATOM     13  C   UNL     1     -28.773  19.973 -11.780  1.00  0.00    -0.000 C 
BRANCH  13  14
ATOM     14  C   UNL     1     -27.784  20.020 -12.955  1.00  0.00    -0.000 C 
BRANCH  14  15
ATOM     15  C   UNL     1     -27.401  21.468 -13.292  1.00  0.00    -0.000 C 
BRANCH  15  16
ATOM     16  C   UNL     1     -26.840  22.238 -12.084  1.00  0.00    -0.000 C 
BRANCH  16  17
ATOM     17  C   UNL     1     -25.908  23.410 -12.441  1.00  0.00    -0.003 C 
ATOM     18  C   UNL     1     -25.156  23.966 -11.232  1.00  0.00     0.004 C 
ENDBRANCH  16  17
ENDBRANCH  15  16
ENDBRANCH  14  15
ENDBRANCH  13  14
ENDBRANCH  12  13
ENDBRANCH  11  12
ENDBRANCH   1  11
TORSDOF 14
ENDMDL
MODEL 7
REMARK VINA RESULT:     9.229      4.957      6.223
REMARK INTER + INTRA:          16.186
REMARK INTER:                  15.139
REMARK INTRA:                   1.047
REMARK UNBOUND:                -0.597
REMARK SMILES CCCCCCCCCCCCCCCC(=O)[O-]
REMARK SMILES IDX 9 1 10 2 11 3 12 4 13 5 14 6 15 7 16 8 17 9 18 10 8 11 7 12
REMARK SMILES IDX 6 13 5 14 4 15 3 16 2 17 1 18
REMARK H PARENT
REMARK Flexibility Score: inf
ROOT
ATOM      1  C   UNL     1     -28.964  18.385 -10.764  1.00  0.00     0.000 C 
ENDROOT
BRANCH   1   2
ATOM      2  C   UNL     1     -29.252  17.249 -11.757  1.00  0.00     0.000 C 
BRANCH   2   3
ATOM      3  C   UNL     1     -29.536  15.934 -11.021  1.00  0.00     0.000 C 
BRANCH   3   4
ATOM      4  C   UNL     1     -31.035  15.599 -11.052  1.00  0.00     0.000 C 
BRANCH   4   5
ATOM      5  C   UNL     1     -31.850  16.398 -10.020  1.00  0.00     0.000 C 
BRANCH   5   6
ATOM      6  C   UNL     1     -32.758  15.550  -9.106  1.00  0.00     0.006 C 
BRANCH   6   7
ATOM      7  C   UNL     1     -33.438  16.337  -7.974  1.00  0.00     0.053 C 
BRANCH   7   8
ATOM      8  C   UNL     1     -33.307  15.645  -6.653  1.00  0.00     0.041 C 
ATOM      9  O   UNL     1     -32.927  16.286  -5.638  1.00  0.00    -0.550 OA
ATOM     10  O   UNL     1     -33.572  14.286  -6.549  1.00  0.00    -0.550 OA
ENDBRANCH   7   8
ENDBRANCH   6   7
ENDBRANCH   5   6
ENDBRANCH   4   5
ENDBRANCH   3   4
ENDBRANCH   2   3
ENDBRANCH   1   2
BRANCH   1  11
ATOM     11  C   UNL     1     -30.070  19.453 -10.752  1.00  0.00     0.000 C 
BRANCH  11  12
ATOM     12  C   UNL     1     -31.445  18.875 -10.371  1.00  0.00    -0.000 C 
BRANCH  12  13
ATOM     13  C   UNL     1     -32.575  19.909 -10.504  1.00  0.00    -0.000 C 
BRANCH  13  14
ATOM     14  C   UNL     1     -32.240  21.242  -9.818  1.00  0.00    -0.000 C 
BRANCH  14  15
ATOM     15  C   UNL     1     -31.489  22.179 -10.775  1.00  0.00    -0.000 C 
BRANCH  15  16
ATOM     16  C   UNL     1     -31.239  23.574 -10.178  1.00  0.00    -0.000 C 
BRANCH  16  17
ATOM     17  C   UNL     1     -32.390  24.124  -9.315  1.00  0.00    -0.003 C 
ATOM     18  C   UNL     1     -33.744  24.076 -10.023  1.00  0.00     0.004 C 
ENDBRANCH  16  17
ENDBRANCH  15  16
ENDBRANCH  14  15
ENDBRANCH  13  14
ENDBRANCH  12  13
ENDBRANCH  11  12
ENDBRANCH   1  11
TORSDOF 14
ENDMDL
MODEL 8
REMARK VINA RESULT:     9.386      2.721      5.232
REMARK INTER + INTRA:          16.471
REMARK INTER:                  15.777
REMARK INTRA:                   0.694
REMARK UNBOUND:                -0.597
REMARK SMILES CCCCCCCCCCCCCCCC(=O)[O-]
REMARK SMILES IDX 9 1 10 2 11 3 12 4 13 5 14 6 15 7 16 8 17 9 18 10 8 11 7 12
REMARK SMILES IDX 6 13 5 14 4 15 3 16 2 17 1 18
REMARK H PARENT
REMARK Flexibility Score: inf
ROOT
ATOM      1  C   UNL     1     -32.662  21.500  -9.631  1.00  0.00     0.000 C 
ENDROOT
BRANCH   1   2
ATOM      2  C   UNL     1     -32.464  20.471 -10.754  1.00  0.00     0.000 C 
BRANCH   2   3
ATOM      3  C   UNL     1     -32.616  19.040 -10.223  1.00  0.00     0.000 C 
BRANCH   3   4
ATOM      4  C   UNL     1     -31.293  18.268 -10.336  1.00  0.00     0.000 C 
BRANCH   4   5
ATOM      5  C   UNL     1     -31.488  16.741 -10.340  1.00  0.00     0.000 C 
BRANCH   5   6
ATOM      6  C   UNL     1     -30.349  15.939 -11.000  1.00  0.00     0.006 C 
BRANCH   6   7
ATOM      7  C   UNL     1     -29.081  16.757 -11.296  1.00  0.00     0.053 C 
BRANCH   7   8
ATOM      8  C   UNL     1     -28.881  16.971 -12.764  1.00  0.00     0.041 C 
ATOM      9  O   UNL     1     -28.686  18.131 -13.214  1.00  0.00    -0.550 OA
ATOM     10  O   UNL     1     -28.944  15.895 -13.640  1.00  0.00    -0.550 OA
ENDBRANCH   7   8
ENDBRANCH   6   7
ENDBRANCH   5   6
ENDBRANCH   4   5
ENDBRANCH   3   4
ENDBRANCH   2   3
ENDBRANCH   1   2
BRANCH   1  11
ATOM     11  C   UNL     1     -33.218  22.837 -10.146  1.00  0.00     0.000 C 
BRANCH  11  12
ATOM     12  C   UNL     1     -32.325  24.033  -9.769  1.00  0.00    -0.000 C 
BRANCH  12  13
ATOM     13  C   UNL     1     -30.832  23.667  -9.742  1.00  0.00    -0.000 C 
BRANCH  13  14
ATOM     14  C   UNL     1     -30.433  22.726 -10.889  1.00  0.00    -0.000 C 
BRANCH  14  15
ATOM     15  C   UNL     1     -29.585  21.556 -10.370  1.00  0.00    -0.000 C 
BRANCH  15  16
ATOM     16  C   UNL     1     -28.774  20.864 -11.479  1.00  0.00    -0.000 C 
BRANCH  16  17
ATOM     17  C   UNL     1     -27.819  21.790 -12.255  1.00  0.00    -0.003 C 
ATOM     18  C   UNL     1     -27.348  21.188 -13.579  1.00  0.00     0.004 C 
ENDBRANCH  16  17
ENDBRANCH  15  16
ENDBRANCH  14  15
ENDBRANCH  13  14
ENDBRANCH  12  13
ENDBRANCH  11  12
ENDBRANCH   1  11
TORSDOF 14
ENDMDL
MODEL 9
REMARK VINA RESULT:     9.723      5.378      7.213
REMARK INTER + INTRA:          17.085
REMARK INTER:                  17.334
REMARK INTRA:                  -0.249
REMARK UNBOUND:                -0.597
REMARK SMILES CCCCCCCCCCCCCCCC(=O)[O-]
REMARK SMILES IDX 9 1 10 2 11 3 12 4 13 5 14 6 15 7 16 8 17 9 18 10 8 11 7 12
REMARK SMILES IDX 6 13 5 14 4 15 3 16 2 17 1 18
REMARK H PARENT
REMARK Flexibility Score: inf
ROOT
ATOM      1  C   UNL     1     -29.582  21.160 -10.611  1.00  0.00     0.000 C 
ENDROOT
BRANCH   1   2
ATOM      2  C   UNL     1     -30.641  22.262 -10.449  1.00  0.00     0.000 C 
BRANCH   2   3
ATOM      3  C   UNL     1     -32.051  21.711 -10.694  1.00  0.00     0.000 C 
BRANCH   3   4
ATOM      4  C   UNL     1     -32.270  20.398  -9.929  1.00  0.00     0.000 C 
BRANCH   4   5
ATOM      5  C   UNL     1     -32.256  19.160 -10.843  1.00  0.00     0.000 C 
BRANCH   5   6
ATOM      6  C   UNL     1     -31.405  17.980 -10.332  1.00  0.00     0.006 C 
BRANCH   6   7
ATOM      7  C   UNL     1     -29.901  18.106 -10.619  1.00  0.00     0.053 C 
BRANCH   7   8
ATOM      8  C   UNL     1     -29.409  17.019 -11.523  1.00  0.00     0.041 C 
ATOM      9  O   UNL     1     -28.973  17.298 -12.671  1.00  0.00    -0.550 OA
ATOM     10  O   UNL     1     -29.464  15.693 -11.112  1.00  0.00    -0.550 OA
ENDBRANCH   7   8
ENDBRANCH   6   7
ENDBRANCH   5   6
ENDBRANCH   4   5
ENDBRANCH   3   4
ENDBRANCH   2   3
ENDBRANCH   1   2
BRANCH   1  11
ATOM     11  C   UNL     1     -28.150  21.685 -10.424  1.00  0.00     0.000 C 
BRANCH  11  12
ATOM     12  C   UNL     1     -27.730  21.741  -8.944  1.00  0.00    -0.000 C 
BRANCH  12  13
ATOM     13  C   UNL     1     -26.223  21.990  -8.769  1.00  0.00    -0.000 C 
BRANCH  13  14
ATOM     14  C   UNL     1     -25.609  21.132  -7.652  1.00  0.00    -0.000 C 
BRANCH  14  15
ATOM     15  C   UNL     1     -24.076  21.215  -7.677  1.00  0.00    -0.000 C 
BRANCH  15  16
ATOM     16  C   UNL     1     -23.481  21.752  -6.363  1.00  0.00    -0.000 C 
BRANCH  16  17
ATOM     17  C   UNL     1     -22.227  22.629  -6.533  1.00  0.00    -0.003 C 
ATOM     18  C   UNL     1     -22.227  23.855  -5.620  1.00  0.00     0.004 C 
ENDBRANCH  16  17
ENDBRANCH  15  16
ENDBRANCH  14  15
ENDBRANCH  13  14
ENDBRANCH  12  13
ENDBRANCH  11  12
ENDBRANCH   1  11
TORSDOF 14
ENDMDL
