MODEL 1
REMARK VINA RESULT:    -4.876      0.000      0.000
REMARK INTER + INTRA:         -10.878
REMARK INTER:                  -9.151
REMARK INTRA:                  -1.727
REMARK UNBOUND:                -1.727
REMARK SMILES CCCCCCCCC=CCCCCCCCC(=O)[O-]
REMARK SMILES IDX 10 1 9 2 11 3 12 4 13 5 14 6 15 7 16 8 17 9 18 10 19 11
REMARK SMILES IDX 20 12 8 13 7 14 6 15 5 16 4 17 3 18 2 19 1 20
REMARK H PARENT
REMARK Flexibility Score: inf
ROOT
ATOM      1  C   UNL     1       1.993 -13.358 -15.866  1.00  0.00    -0.031 C 
ATOM      2  C   UNL     1       2.532 -13.738 -17.035  1.00  0.00    -0.031 C 
ENDROOT
BRANCH   1   3
ATOM      3  C   UNL     1       2.849 -13.010 -14.678  1.00  0.00     0.027 C 
BRANCH   3   4
ATOM      4  C   UNL     1       4.202 -12.408 -15.090  1.00  0.00     0.004 C 
BRANCH   4   5
ATOM      5  C   UNL     1       4.187 -10.871 -15.038  1.00  0.00     0.000 C 
BRANCH   5   6
ATOM      6  C   UNL     1       4.476 -10.230 -16.405  1.00  0.00     0.000 C 
BRANCH   6   7
ATOM      7  C   UNL     1       3.204  -9.732 -17.107  1.00  0.00     0.000 C 
BRANCH   7   8
ATOM      8  C   UNL     1       3.009 -10.438 -18.454  1.00  0.00     0.006 C 
BRANCH   8   9
ATOM      9  C   UNL     1       4.259 -11.234 -18.843  1.00  0.00     0.053 C 
BRANCH   9  10
ATOM     10  C   UNL     1       4.973 -10.570 -19.977  1.00  0.00     0.041 C 
ATOM     11  O   UNL     1       6.204 -10.764 -20.151  1.00  0.00    -0.550 OA
ATOM     12  O   UNL     1       4.269  -9.776 -20.873  1.00  0.00    -0.550 OA
ENDBRANCH   9  10
ENDBRANCH   8   9
ENDBRANCH   7   8
ENDBRANCH   6   7
ENDBRANCH   5   6
ENDBRANCH   4   5
ENDBRANCH   3   4
ENDBRANCH   1   3
BRANCH   2  13
ATOM     13  C   UNL     1       1.679 -14.073 -18.226  1.00  0.00     0.027 C 
BRANCH  13  14
ATOM     14  C   UNL     1       0.836 -15.332 -17.968  1.00  0.00     0.004 C 
BRANCH  14  15
ATOM     15  C   UNL     1      -0.508 -15.305 -18.713  1.00  0.00     0.000 C 
BRANCH  15  16
ATOM     16  C   UNL     1      -1.237 -16.658 -18.662  1.00  0.00     0.000 C 
BRANCH  16  17
ATOM     17  C   UNL     1      -0.707 -17.654 -19.705  1.00  0.00    -0.000 C 
BRANCH  17  18
ATOM     18  C   UNL     1      -0.280 -18.995 -19.082  1.00  0.00    -0.000 C 
BRANCH  18  19
ATOM     19  C   UNL     1       1.034 -18.887 -18.292  1.00  0.00    -0.003 C 
ATOM     20  C   UNL     1       1.001 -19.674 -16.983  1.00  0.00     0.004 C 
ENDBRANCH  18  19
ENDBRANCH  17  18
ENDBRANCH  16  17
ENDBRANCH  15  16
ENDBRANCH  14  15
ENDBRANCH  13  14
ENDBRANCH   2  13
TORSDOF 15
ENDMDL
MODEL 2
REMARK VINA RESULT:    -4.820      3.610      8.281
REMARK INTER + INTRA:         -10.773
REMARK INTER:                  -9.456
REMARK INTRA:                  -1.317
REMARK UNBOUND:                -1.727
REMARK SMILES CCCCCCCCC=CCCCCCCCC(=O)[O-]
REMARK SMILES IDX 10 1 9 2 11 3 12 4 13 5 14 6 15 7 16 8 17 9 18 10 19 11
REMARK SMILES IDX 20 12 8 13 7 14 6 15 5 16 4 17 3 18 2 19 1 20
REMARK H PARENT
REMARK Flexibility Score: inf
ROOT
ATOM      1  C   UNL     1       1.787 -14.140 -16.763  1.00  0.00    -0.031 C 
ATOM      2  C   UNL     1       2.715 -13.232 -16.424  1.00  0.00    -0.031 C 
ENDROOT
BRANCH   1   3
ATOM      3  C   UNL     1       1.525 -14.501 -18.200  1.00  0.00     0.027 C 
BRANCH   3   4
ATOM      4  C   UNL     1       0.721 -15.803 -18.338  1.00  0.00     0.004 C 
BRANCH   4   5
ATOM      5  C   UNL     1      -0.754 -15.535 -18.682  1.00  0.00     0.000 C 
BRANCH   5   6
ATOM      6  C   UNL     1      -1.594 -16.822 -18.729  1.00  0.00     0.000 C 
BRANCH   6   7
ATOM      7  C   UNL     1      -1.265 -17.700 -19.946  1.00  0.00     0.000 C 
BRANCH   7   8
ATOM      8  C   UNL     1      -0.986 -19.146 -19.519  1.00  0.00     0.006 C 
BRANCH   8   9
ATOM      9  C   UNL     1       0.447 -19.299 -19.000  1.00  0.00     0.053 C 
BRANCH   9  10
ATOM     10  C   UNL     1       0.443 -19.642 -17.544  1.00  0.00     0.041 C 
ATOM     11  O   UNL     1      -0.639 -19.901 -16.957  1.00  0.00    -0.550 OA
ATOM     12  O   UNL     1       1.641 -19.724 -16.846  1.00  0.00    -0.550 OA
ENDBRANCH   9  10
ENDBRANCH   8   9
ENDBRANCH   7   8
ENDBRANCH   6   7
ENDBRANCH   5   6
ENDBRANCH   4   5
ENDBRANCH   3   4
ENDBRANCH   1   3
BRANCH   2  13
ATOM     13  C   UNL     1       2.987 -12.879 -14.988  1.00  0.00     0.027 C 
BRANCH  13  14
ATOM     14  C   UNL     1       4.259 -12.027 -14.857  1.00  0.00     0.004 C 
BRANCH  14  15
ATOM     15  C   UNL     1       4.629 -11.313 -16.167  1.00  0.00     0.000 C 
BRANCH  15  16
ATOM     16  C   UNL     1       4.139  -9.856 -16.201  1.00  0.00     0.000 C 
BRANCH  16  17
ATOM     17  C   UNL     1       3.044  -9.626 -17.255  1.00  0.00    -0.000 C 
BRANCH  17  18
ATOM     18  C   UNL     1       3.189 -10.554 -18.474  1.00  0.00    -0.000 C 
BRANCH  18  19
ATOM     19  C   UNL     1       4.130  -9.978 -19.544  1.00  0.00    -0.003 C 
ATOM     20  C   UNL     1       5.294 -10.913 -19.871  1.00  0.00     0.004 C 
ENDBRANCH  18  19
ENDBRANCH  17  18
ENDBRANCH  16  17
ENDBRANCH  15  16
ENDBRANCH  14  15
ENDBRANCH  13  14
ENDBRANCH   2  13
TORSDOF 15
ENDMDL
MODEL 3
REMARK VINA RESULT:    -4.767      3.458      8.114
REMARK INTER + INTRA:         -10.675
REMARK INTER:                  -9.187
REMARK INTRA:                  -1.487
REMARK UNBOUND:                -1.727
REMARK SMILES CCCCCCCCC=CCCCCCCCC(=O)[O-]
REMARK SMILES IDX 10 1 9 2 11 3 12 4 13 5 14 6 15 7 16 8 17 9 18 10 19 11
REMARK SMILES IDX 20 12 8 13 7 14 6 15 5 16 4 17 3 18 2 19 1 20
REMARK H PARENT
REMARK Flexibility Score: inf
ROOT
ATOM      1  C   UNL     1       2.109 -13.690 -18.716  1.00  0.00    -0.031 C 
ATOM      2  C   UNL     1       2.696 -12.564 -18.281  1.00  0.00    -0.031 C 
ENDROOT
BRANCH   1   3
ATOM      3  C   UNL     1       1.235 -14.522 -17.817  1.00  0.00     0.027 C 
BRANCH   3   4
ATOM      4  C   UNL     1       0.561 -15.681 -18.567  1.00  0.00     0.004 C 
BRANCH   4   5
ATOM      5  C   UNL     1      -0.973 -15.602 -18.490  1.00  0.00     0.000 C 
BRANCH   5   6
ATOM      6  C   UNL     1      -1.651 -16.945 -18.804  1.00  0.00     0.000 C 
BRANCH   6   7
ATOM      7  C   UNL     1      -0.960 -17.706 -19.946  1.00  0.00     0.000 C 
BRANCH   7   8
ATOM      8  C   UNL     1      -0.611 -19.137 -19.519  1.00  0.00     0.006 C 
BRANCH   8   9
ATOM      9  C   UNL     1      -0.761 -19.310 -18.004  1.00  0.00     0.053 C 
BRANCH   9  10
ATOM     10  C   UNL     1       0.581 -19.450 -17.357  1.00  0.00     0.041 C 
ATOM     11  O   UNL     1       1.604 -18.973 -17.912  1.00  0.00    -0.550 OA
ATOM     12  O   UNL     1       0.694 -20.064 -16.116  1.00  0.00    -0.550 OA
ENDBRANCH   9  10
ENDBRANCH   8   9
ENDBRANCH   7   8
ENDBRANCH   6   7
ENDBRANCH   5   6
ENDBRANCH   4   5
ENDBRANCH   3   4
ENDBRANCH   1   3
BRANCH   2  13
ATOM     13  C   UNL     1       3.558 -11.725 -19.182  1.00  0.00     0.027 C 
BRANCH  13  14
ATOM     14  C   UNL     1       3.566 -10.255 -18.732  1.00  0.00     0.004 C 
BRANCH  14  15
ATOM     15  C   UNL     1       2.885 -10.052 -17.370  1.00  0.00     0.000 C 
BRANCH  15  16
ATOM     16  C   UNL     1       3.684  -9.117 -16.446  1.00  0.00     0.000 C 
BRANCH  16  17
ATOM     17  C   UNL     1       4.389  -9.874 -15.309  1.00  0.00    -0.000 C 
BRANCH  17  18
ATOM     18  C   UNL     1       4.649 -11.352 -15.650  1.00  0.00    -0.000 C 
BRANCH  18  19
ATOM     19  C   UNL     1       4.180 -12.304 -14.538  1.00  0.00    -0.003 C 
ATOM     20  C   UNL     1       2.705 -12.685 -14.671  1.00  0.00     0.004 C 
ENDBRANCH  18  19
ENDBRANCH  17  18
ENDBRANCH  16  17
ENDBRANCH  15  16
ENDBRANCH  14  15
ENDBRANCH  13  14
ENDBRANCH   2  13
TORSDOF 15
ENDMDL
MODEL 4
REMARK VINA RESULT:    -4.525      3.669      8.139
REMARK INTER + INTRA:         -10.220
REMARK INTER:                  -8.686
REMARK INTRA:                  -1.534
REMARK UNBOUND:                -1.727
REMARK SMILES CCCCCCCCC=CCCCCCCCC(=O)[O-]
REMARK SMILES IDX 10 1 9 2 11 3 12 4 13 5 14 6 15 7 16 8 17 9 18 10 19 11
REMARK SMILES IDX 20 12 8 13 7 14 6 15 5 16 4 17 3 18 2 19 1 20
REMARK H PARENT
REMARK Flexibility Score: inf
ROOT
ATOM      1  C   UNL     1       2.839 -13.450 -16.612  1.00  0.00    -0.031 C 
ATOM      2  C   UNL     1       3.126 -13.015 -15.376  1.00  0.00    -0.031 C 
ENDROOT
BRANCH   1   3
ATOM      3  C   UNL     1       1.528 -14.119 -16.929  1.00  0.00     0.027 C 
BRANCH   3   4
ATOM      4  C   UNL     1       1.490 -14.680 -18.359  1.00  0.00     0.004 C 
BRANCH   4   5
ATOM      5  C   UNL     1       0.600 -15.930 -18.463  1.00  0.00     0.000 C 
BRANCH   5   6
ATOM      6  C   UNL     1      -0.895 -15.584 -18.563  1.00  0.00     0.000 C 
BRANCH   6   7
ATOM      7  C   UNL     1      -1.742 -16.758 -19.077  1.00  0.00     0.000 C 
BRANCH   7   8
ATOM      8  C   UNL     1      -0.871 -17.775 -19.825  1.00  0.00     0.006 C 
BRANCH   8   9
ATOM      9  C   UNL     1      -1.200 -19.206 -19.388  1.00  0.00     0.053 C 
BRANCH   9  10
ATOM     10  C   UNL     1      -0.793 -19.428 -17.966  1.00  0.00     0.041 C 
ATOM     11  O   UNL     1      -1.654 -19.739 -17.102  1.00  0.00    -0.550 OA
ATOM     12  O   UNL     1       0.544 -19.338 -17.603  1.00  0.00    -0.550 OA
ENDBRANCH   9  10
ENDBRANCH   8   9
ENDBRANCH   7   8
ENDBRANCH   6   7
ENDBRANCH   5   6
ENDBRANCH   4   5
ENDBRANCH   3   4
ENDBRANCH   1   3
BRANCH   2  13
ATOM     13  C   UNL     1       4.429 -12.335 -15.061  1.00  0.00     0.027 C 
BRANCH  13  14
ATOM     14  C   UNL     1       4.261 -10.807 -15.011  1.00  0.00     0.004 C 
BRANCH  14  15
ATOM     15  C   UNL     1       4.434 -10.151 -16.390  1.00  0.00     0.000 C 
BRANCH  15  16
ATOM     16  C   UNL     1       3.109  -9.613 -16.956  1.00  0.00     0.000 C 
BRANCH  16  17
ATOM     17  C   UNL     1       2.781 -10.194 -18.341  1.00  0.00    -0.000 C 
BRANCH  17  18
ATOM     18  C   UNL     1       3.959 -10.973 -18.953  1.00  0.00    -0.000 C 
BRANCH  18  19
ATOM     19  C   UNL     1       4.585 -10.246 -20.154  1.00  0.00    -0.003 C 
ATOM     20  C   UNL     1       6.049 -10.627 -20.375  1.00  0.00     0.004 C 
ENDBRANCH  18  19
ENDBRANCH  17  18
ENDBRANCH  16  17
ENDBRANCH  15  16
ENDBRANCH  14  15
ENDBRANCH  13  14
ENDBRANCH   2  13
TORSDOF 15
ENDMDL
MODEL 5
REMARK VINA RESULT:    -4.496      1.097      1.705
REMARK INTER + INTRA:         -10.166
REMARK INTER:                  -8.668
REMARK INTRA:                  -1.498
REMARK UNBOUND:                -1.727
REMARK SMILES CCCCCCCCC=CCCCCCCCC(=O)[O-]
REMARK SMILES IDX 10 1 9 2 11 3 12 4 13 5 14 6 15 7 16 8 17 9 18 10 19 11
REMARK SMILES IDX 20 12 8 13 7 14 6 15 5 16 4 17 3 18 2 19 1 20
REMARK H PARENT
REMARK Flexibility Score: inf
ROOT
ATOM      1  C   UNL     1       3.033 -12.786 -14.905  1.00  0.00    -0.031 C 
ATOM      2  C   UNL     1       2.839 -13.207 -16.164  1.00  0.00    -0.031 C 
ENDROOT
BRANCH   1   3
ATOM      3  C   UNL     1       4.183 -11.885 -14.543  1.00  0.00     0.027 C 
BRANCH   3   4
ATOM      4  C   UNL     1       4.695 -11.079 -15.747  1.00  0.00     0.004 C 
BRANCH   4   5
ATOM      5  C   UNL     1       4.129  -9.649 -15.764  1.00  0.00     0.000 C 
BRANCH   5   6
ATOM      6  C   UNL     1       3.595  -9.241 -17.147  1.00  0.00     0.000 C 
BRANCH   6   7
ATOM      7  C   UNL     1       2.553 -10.227 -17.694  1.00  0.00     0.000 C 
BRANCH   7   8
ATOM      8  C   UNL     1       3.014 -10.827 -19.028  1.00  0.00     0.006 C 
BRANCH   8   9
ATOM      9  C   UNL     1       4.166 -10.015 -19.628  1.00  0.00     0.053 C 
BRANCH   9  10
ATOM     10  C   UNL     1       5.388 -10.865 -19.772  1.00  0.00     0.041 C 
ATOM     11  O   UNL     1       5.587 -11.827 -18.986  1.00  0.00    -0.550 OA
ATOM     12  O   UNL     1       6.284 -10.625 -20.806  1.00  0.00    -0.550 OA
ENDBRANCH   9  10
ENDBRANCH   8   9
ENDBRANCH   7   8
ENDBRANCH   6   7
ENDBRANCH   5   6
ENDBRANCH   4   5
ENDBRANCH   3   4
ENDBRANCH   1   3
BRANCH   2  13
ATOM     13  C   UNL     1       1.684 -14.097 -16.530  1.00  0.00     0.027 C 
BRANCH  13  14
ATOM     14  C   UNL     1       1.641 -14.358 -18.044  1.00  0.00     0.004 C 
BRANCH  14  15
ATOM     15  C   UNL     1       0.786 -15.581 -18.408  1.00  0.00     0.000 C 
BRANCH  15  16
ATOM     16  C   UNL     1      -0.669 -15.206 -18.737  1.00  0.00     0.000 C 
BRANCH  16  17
ATOM     17  C   UNL     1      -1.609 -16.421 -18.721  1.00  0.00    -0.000 C 
BRANCH  17  18
ATOM     18  C   UNL     1      -1.708 -17.114 -20.092  1.00  0.00    -0.000 C 
BRANCH  18  19
ATOM     19  C   UNL     1      -1.247 -18.580 -20.045  1.00  0.00    -0.003 C 
ATOM     20  C   UNL     1      -0.693 -18.981 -18.677  1.00  0.00     0.004 C 
ENDBRANCH  18  19
ENDBRANCH  17  18
ENDBRANCH  16  17
ENDBRANCH  15  16
ENDBRANCH  14  15
ENDBRANCH  13  14
ENDBRANCH   2  13
TORSDOF 15
ENDMDL
MODEL 6
REMARK VINA RESULT:    -4.493      0.746      1.247
REMARK INTER + INTRA:         -10.161
REMARK INTER:                  -9.085
REMARK INTRA:                  -1.075
REMARK UNBOUND:                -1.727
REMARK SMILES CCCCCCCCC=CCCCCCCCC(=O)[O-]
REMARK SMILES IDX 10 1 9 2 11 3 12 4 13 5 14 6 15 7 16 8 17 9 18 10 19 11
REMARK SMILES IDX 20 12 8 13 7 14 6 15 5 16 4 17 3 18 2 19 1 20
REMARK H PARENT
REMARK Flexibility Score: inf
ROOT
ATOM      1  C   UNL     1       1.892 -14.239 -16.875  1.00  0.00    -0.031 C 
ATOM      2  C   UNL     1       1.383 -14.563 -18.073  1.00  0.00    -0.031 C 
ENDROOT
BRANCH   1   3
ATOM      3  C   UNL     1       2.738 -13.008 -16.685  1.00  0.00     0.027 C 
BRANCH   3   4
ATOM      4  C   UNL     1       3.455 -12.997 -15.325  1.00  0.00     0.004 C 
BRANCH   4   5
ATOM      5  C   UNL     1       3.969 -11.595 -14.958  1.00  0.00     0.000 C 
BRANCH   5   6
ATOM      6  C   UNL     1       4.642 -10.882 -16.142  1.00  0.00     0.000 C 
BRANCH   6   7
ATOM      7  C   UNL     1       3.810  -9.707 -16.677  1.00  0.00     0.000 C 
BRANCH   7   8
ATOM      8  C   UNL     1       3.525  -9.873 -18.174  1.00  0.00     0.006 C 
BRANCH   8   9
ATOM      9  C   UNL     1       4.402 -10.973 -18.782  1.00  0.00     0.053 C 
BRANCH   9  10
ATOM     10  C   UNL     1       5.044 -10.494 -20.045  1.00  0.00     0.041 C 
ATOM     11  O   UNL     1       6.251 -10.758 -20.281  1.00  0.00    -0.550 OA
ATOM     12  O   UNL     1       4.295  -9.799 -20.986  1.00  0.00    -0.550 OA
ENDBRANCH   9  10
ENDBRANCH   8   9
ENDBRANCH   7   8
ENDBRANCH   6   7
ENDBRANCH   5   6
ENDBRANCH   4   5
ENDBRANCH   3   4
ENDBRANCH   1   3
BRANCH   2  13
ATOM     13  C   UNL     1       0.528 -15.785 -18.262  1.00  0.00     0.027 C 
BRANCH  13  14
ATOM     14  C   UNL     1      -0.903 -15.403 -18.674  1.00  0.00     0.004 C 
BRANCH  14  15
ATOM     15  C   UNL     1      -1.830 -16.624 -18.787  1.00  0.00     0.000 C 
BRANCH  15  16
ATOM     16  C   UNL     1      -1.571 -17.443 -20.063  1.00  0.00     0.000 C 
BRANCH  16  17
ATOM     17  C   UNL     1      -1.425 -18.947 -19.779  1.00  0.00    -0.000 C 
BRANCH  17  18
ATOM     18  C   UNL     1       0.020 -19.348 -19.433  1.00  0.00    -0.000 C 
BRANCH  18  19
ATOM     19  C   UNL     1       0.145 -19.936 -18.018  1.00  0.00    -0.003 C 
ATOM     20  C   UNL     1       1.373 -19.415 -17.270  1.00  0.00     0.004 C 
ENDBRANCH  18  19
ENDBRANCH  17  18
ENDBRANCH  16  17
ENDBRANCH  15  16
ENDBRANCH  14  15
ENDBRANCH  13  14
ENDBRANCH   2  13
TORSDOF 15
ENDMDL
MODEL 7
REMARK VINA RESULT:    -4.305      2.110      3.334
REMARK INTER + INTRA:          -9.808
REMARK INTER:                  -8.442
REMARK INTRA:                  -1.366
REMARK UNBOUND:                -1.727
REMARK SMILES CCCCCCCCC=CCCCCCCCC(=O)[O-]
REMARK SMILES IDX 10 1 9 2 11 3 12 4 13 5 14 6 15 7 16 8 17 9 18 10 19 11
REMARK SMILES IDX 20 12 8 13 7 14 6 15 5 16 4 17 3 18 2 19 1 20
REMARK H PARENT
REMARK Flexibility Score: inf
ROOT
ATOM      1  C   UNL     1       1.981 -13.783 -18.609  1.00  0.00    -0.031 C 
ATOM      2  C   UNL     1       1.222 -14.563 -17.824  1.00  0.00    -0.031 C 
ENDROOT
BRANCH   1   3
ATOM      3  C   UNL     1       2.732 -12.601 -18.057  1.00  0.00     0.027 C 
BRANCH   3   4
ATOM      4  C   UNL     1       3.535 -11.862 -19.139  1.00  0.00     0.004 C 
BRANCH   4   5
ATOM      5  C   UNL     1       3.967 -10.460 -18.677  1.00  0.00     0.000 C 
BRANCH   5   6
ATOM      6  C   UNL     1       2.891  -9.758 -17.834  1.00  0.00     0.000 C 
BRANCH   6   7
ATOM      7  C   UNL     1       3.432  -9.242 -16.492  1.00  0.00     0.000 C 
BRANCH   7   8
ATOM      8  C   UNL     1       4.580 -10.126 -15.988  1.00  0.00     0.006 C 
BRANCH   8   9
ATOM      9  C   UNL     1       4.220 -10.784 -14.652  1.00  0.00     0.053 C 
BRANCH   9  10
ATOM     10  C   UNL     1       4.133 -12.270 -14.806  1.00  0.00     0.041 C 
ATOM     11  O   UNL     1       3.188 -12.907 -14.273  1.00  0.00    -0.550 OA
ATOM     12  O   UNL     1       5.069 -12.945 -15.578  1.00  0.00    -0.550 OA
ENDBRANCH   9  10
ENDBRANCH   8   9
ENDBRANCH   7   8
ENDBRANCH   6   7
ENDBRANCH   5   6
ENDBRANCH   4   5
ENDBRANCH   3   4
ENDBRANCH   1   3
BRANCH   2  13
ATOM     13  C   UNL     1       0.481 -15.751 -18.372  1.00  0.00     0.027 C 
BRANCH  13  14
ATOM     14  C   UNL     1      -0.964 -15.382 -18.742  1.00  0.00     0.004 C 
BRANCH  14  15
ATOM     15  C   UNL     1      -1.858 -16.618 -18.930  1.00  0.00     0.000 C 
BRANCH  15  16
ATOM     16  C   UNL     1      -1.278 -17.615 -19.946  1.00  0.00     0.000 C 
BRANCH  16  17
ATOM     17  C   UNL     1      -1.840 -19.034 -19.768  1.00  0.00    -0.000 C 
BRANCH  17  18
ATOM     18  C   UNL     1      -0.779 -20.036 -19.279  1.00  0.00    -0.000 C 
BRANCH  18  19
ATOM     19  C   UNL     1       0.588 -19.377 -19.040  1.00  0.00    -0.003 C 
ATOM     20  C   UNL     1       1.002 -19.393 -17.568  1.00  0.00     0.004 C 
ENDBRANCH  18  19
ENDBRANCH  17  18
ENDBRANCH  16  17
ENDBRANCH  15  16
ENDBRANCH  14  15
ENDBRANCH  13  14
ENDBRANCH   2  13
TORSDOF 15
ENDMDL
MODEL 8
REMARK VINA RESULT:    -3.835      2.636      7.015
REMARK INTER + INTRA:          -8.924
REMARK INTER:                  -7.194
REMARK INTRA:                  -1.731
REMARK UNBOUND:                -1.727
REMARK SMILES CCCCCCCCC=CCCCCCCCC(=O)[O-]
REMARK SMILES IDX 10 1 9 2 11 3 12 4 13 5 14 6 15 7 16 8 17 9 18 10 19 11
REMARK SMILES IDX 20 12 8 13 7 14 6 15 5 16 4 17 3 18 2 19 1 20
REMARK H PARENT
REMARK Flexibility Score: inf
ROOT
ATOM      1  C   UNL     1       2.575 -13.683 -16.172  1.00  0.00    -0.031 C 
ATOM      2  C   UNL     1       2.182 -13.081 -15.039  1.00  0.00    -0.031 C 
ENDROOT
BRANCH   1   3
ATOM      3  C   UNL     1       1.602 -14.427 -17.047  1.00  0.00     0.027 C 
BRANCH   3   4
ATOM      4  C   UNL     1       1.635 -13.938 -18.503  1.00  0.00     0.004 C 
BRANCH   4   5
ATOM      5  C   UNL     1       2.803 -12.971 -18.759  1.00  0.00     0.000 C 
BRANCH   5   6
ATOM      6  C   UNL     1       2.329 -11.546 -19.092  1.00  0.00     0.000 C 
BRANCH   6   7
ATOM      7  C   UNL     1       2.729 -10.522 -18.019  1.00  0.00     0.000 C 
BRANCH   7   8
ATOM      8  C   UNL     1       3.911  -9.667 -18.492  1.00  0.00     0.006 C 
BRANCH   8   9
ATOM      9  C   UNL     1       4.366 -10.086 -19.894  1.00  0.00     0.053 C 
BRANCH   9  10
ATOM     10  C   UNL     1       5.659 -10.834 -19.824  1.00  0.00     0.041 C 
ATOM     11  O   UNL     1       6.467 -10.792 -20.788  1.00  0.00    -0.550 OA
ATOM     12  O   UNL     1       5.995 -11.537 -18.675  1.00  0.00    -0.550 OA
ENDBRANCH   9  10
ENDBRANCH   8   9
ENDBRANCH   7   8
ENDBRANCH   6   7
ENDBRANCH   5   6
ENDBRANCH   4   5
ENDBRANCH   3   4
ENDBRANCH   1   3
BRANCH   2  13
ATOM     13  C   UNL     1       3.150 -12.325 -14.170  1.00  0.00     0.027 C 
BRANCH  13  14
ATOM     14  C   UNL     1       4.413 -11.935 -14.955  1.00  0.00     0.004 C 
BRANCH  14  15
ATOM     15  C   UNL     1       4.562 -10.414 -15.112  1.00  0.00     0.000 C 
BRANCH  15  16
ATOM     16  C   UNL     1       4.956  -9.722 -13.796  1.00  0.00     0.000 C 
BRANCH  16  17
ATOM     17  C   UNL     1       4.356  -8.314 -13.668  1.00  0.00    -0.000 C 
BRANCH  17  18
ATOM     18  C   UNL     1       3.780  -7.790 -14.995  1.00  0.00    -0.000 C 
BRANCH  18  19
ATOM     19  C   UNL     1       2.877  -6.562 -14.802  1.00  0.00    -0.003 C 
ATOM     20  C   UNL     1       2.553  -6.293 -13.332  1.00  0.00     0.004 C 
ENDBRANCH  18  19
ENDBRANCH  17  18
ENDBRANCH  16  17
ENDBRANCH  15  16
ENDBRANCH  14  15
ENDBRANCH  13  14
ENDBRANCH   2  13
TORSDOF 15
ENDMDL
MODEL 9
REMARK VINA RESULT:    -3.727      3.462      7.420
REMARK INTER + INTRA:          -8.722
REMARK INTER:                  -7.232
REMARK INTRA:                  -1.490
REMARK UNBOUND:                -1.727
REMARK SMILES CCCCCCCCC=CCCCCCCCC(=O)[O-]
REMARK SMILES IDX 10 1 9 2 11 3 12 4 13 5 14 6 15 7 16 8 17 9 18 10 19 11
REMARK SMILES IDX 20 12 8 13 7 14 6 15 5 16 4 17 3 18 2 19 1 20
REMARK H PARENT
REMARK Flexibility Score: inf
ROOT
ATOM      1  C   UNL     1       3.917 -12.063 -14.620  1.00  0.00    -0.031 C 
ATOM      2  C   UNL     1       3.543 -11.096 -15.472  1.00  0.00    -0.031 C 
ENDROOT
BRANCH   1   3
ATOM      3  C   UNL     1       3.133 -13.341 -14.484  1.00  0.00     0.027 C 
BRANCH   3   4
ATOM      4  C   UNL     1       2.004 -13.445 -15.520  1.00  0.00     0.004 C 
BRANCH   4   5
ATOM      5  C   UNL     1       2.394 -14.340 -16.709  1.00  0.00     0.000 C 
BRANCH   5   6
ATOM      6  C   UNL     1       1.530 -14.080 -17.954  1.00  0.00     0.000 C 
BRANCH   6   7
ATOM      7  C   UNL     1       0.478 -15.175 -18.185  1.00  0.00     0.000 C 
BRANCH   7   8
ATOM      8  C   UNL     1       1.145 -16.543 -18.376  1.00  0.00     0.006 C 
BRANCH   8   9
ATOM      9  C   UNL     1       0.135 -17.581 -18.875  1.00  0.00     0.053 C 
BRANCH   9  10
ATOM     10  C   UNL     1       0.664 -18.966 -18.675  1.00  0.00     0.041 C 
ATOM     11  O   UNL     1       1.373 -19.235 -17.671  1.00  0.00    -0.550 OA
ATOM     12  O   UNL     1       0.334 -19.973 -19.573  1.00  0.00    -0.550 OA
ENDBRANCH   9  10
ENDBRANCH   8   9
ENDBRANCH   7   8
ENDBRANCH   6   7
ENDBRANCH   5   6
ENDBRANCH   4   5
ENDBRANCH   3   4
ENDBRANCH   1   3
BRANCH   2  13
ATOM     13  C   UNL     1       4.332  -9.825 -15.618  1.00  0.00     0.027 C 
BRANCH  13  14
ATOM     14  C   UNL     1       3.712  -8.906 -16.683  1.00  0.00     0.004 C 
BRANCH  14  15
ATOM     15  C   UNL     1       2.814  -9.668 -17.669  1.00  0.00     0.000 C 
BRANCH  15  16
ATOM     16  C   UNL     1       3.519  -9.957 -19.005  1.00  0.00     0.000 C 
BRANCH  16  17
ATOM     17  C   UNL     1       4.023 -11.405 -19.105  1.00  0.00    -0.000 C 
BRANCH  17  18
ATOM     18  C   UNL     1       5.549 -11.493 -19.278  1.00  0.00    -0.000 C 
BRANCH  18  19
ATOM     19  C   UNL     1       6.045 -10.738 -20.521  1.00  0.00    -0.003 C 
ATOM     20  C   UNL     1       7.529 -10.378 -20.440  1.00  0.00     0.004 C 
ENDBRANCH  18  19
ENDBRANCH  17  18
ENDBRANCH  16  17
ENDBRANCH  15  16
ENDBRANCH  14  15
ENDBRANCH  13  14
ENDBRANCH   2  13
TORSDOF 15
ENDMDL
