MODEL 1
REMARK VINA RESULT:    -3.750      0.000      0.000
REMARK INTER + INTRA:          -5.797
REMARK INTER:                  -5.395
REMARK INTRA:                  -0.402
REMARK UNBOUND:                -0.402
REMARK SMILES CCCCCCCCCO
REMARK SMILES IDX 6 1 5 2 4 3 3 4 2 5 1 6 7 7 8 8 9 9 10 10
REMARK H PARENT 10 11
REMARK Flexibility Score: inf
ROOT
ATOM      1  C   UNL     1     177.195 174.018 170.055  1.00  0.00     0.000 C 
ENDROOT
BRANCH   1   2
ATOM      2  C   UNL     1     178.280 175.042 170.436  1.00  0.00     0.000 C 
BRANCH   2   3
ATOM      3  C   UNL     1     177.819 176.511 170.457  1.00  0.00    -0.000 C 
BRANCH   3   4
ATOM      4  C   UNL     1     176.289 176.660 170.504  1.00  0.00    -0.000 C 
BRANCH   4   5
ATOM      5  C   UNL     1     175.848 178.096 170.829  1.00  0.00    -0.003 C 
ATOM      6  C   UNL     1     176.329 178.568 172.202  1.00  0.00     0.004 C 
ENDBRANCH   4   5
ENDBRANCH   3   4
ENDBRANCH   2   3
ENDBRANCH   1   2
BRANCH   1   7
ATOM      7  C   UNL     1     177.424 173.389 168.670  1.00  0.00     0.002 C 
BRANCH   7   8
ATOM      8  C   UNL     1     176.545 174.027 167.581  1.00  0.00     0.028 C 
BRANCH   8   9
ATOM      9  C   UNL     1     175.048 173.944 167.900  1.00  0.00     0.156 C 
BRANCH   9  10
ATOM     10  O   UNL     1     174.310 173.807 166.718  1.00  0.00    -0.396 OA
ATOM     11  H   UNL     1     174.368 172.851 166.455  1.00  0.00     0.210 HD
ENDBRANCH   9  10
ENDBRANCH   8   9
ENDBRANCH   7   8
ENDBRANCH   1   7
TORSDOF 8
ENDMDL
MODEL 2
REMARK VINA RESULT:    -3.524     12.377     13.796
REMARK INTER + INTRA:          -5.472
REMARK INTER:                  -5.179
REMARK INTRA:                  -0.292
REMARK UNBOUND:                -0.402
REMARK SMILES CCCCCCCCCO
REMARK SMILES IDX 6 1 5 2 4 3 3 4 2 5 1 6 7 7 8 8 9 9 10 10
REMARK H PARENT 10 11
REMARK Flexibility Score: inf
ROOT
ATOM      1  C   UNL     1     164.437 177.699 168.269  1.00  0.00     0.000 C 
ENDROOT
BRANCH   1   2
ATOM      2  C   UNL     1     163.112 178.326 168.741  1.00  0.00     0.000 C 
BRANCH   2   3
ATOM      3  C   UNL     1     162.513 177.713 170.021  1.00  0.00    -0.000 C 
BRANCH   3   4
ATOM      4  C   UNL     1     160.981 177.588 169.967  1.00  0.00    -0.000 C 
BRANCH   4   5
ATOM      5  C   UNL     1     160.427 177.761 168.544  1.00  0.00    -0.003 C 
ATOM      6  C   UNL     1     159.565 176.580 168.095  1.00  0.00     0.004 C 
ENDBRANCH   4   5
ENDBRANCH   3   4
ENDBRANCH   2   3
ENDBRANCH   1   2
BRANCH   1   7
ATOM      7  C   UNL     1     165.106 178.495 167.136  1.00  0.00     0.002 C 
BRANCH   7   8
ATOM      8  C   UNL     1     166.043 177.626 166.281  1.00  0.00     0.028 C 
BRANCH   8   9
ATOM      9  C   UNL     1     165.592 176.163 166.201  1.00  0.00     0.156 C 
BRANCH   9  10
ATOM     10  O   UNL     1     166.619 175.316 166.637  1.00  0.00    -0.396 OA
ATOM     11  H   UNL     1     167.141 175.063 165.831  1.00  0.00     0.210 HD
ENDBRANCH   9  10
ENDBRANCH   8   9
ENDBRANCH   7   8
ENDBRANCH   1   7
TORSDOF 8
ENDMDL
MODEL 3
REMARK VINA RESULT:    -3.485      1.921      4.637
REMARK INTER + INTRA:          -5.415
REMARK INTER:                  -4.953
REMARK INTRA:                  -0.462
REMARK UNBOUND:                -0.402
REMARK SMILES CCCCCCCCCO
REMARK SMILES IDX 6 1 5 2 4 3 3 4 2 5 1 6 7 7 8 8 9 9 10 10
REMARK H PARENT 10 11
REMARK Flexibility Score: inf
ROOT
ATOM      1  C   UNL     1     177.500 176.866 169.830  1.00  0.00     0.000 C 
ENDROOT
BRANCH   1   2
ATOM      2  C   UNL     1     178.193 175.499 169.679  1.00  0.00     0.000 C 
BRANCH   2   3
ATOM      3  C   UNL     1     177.338 174.281 170.077  1.00  0.00    -0.000 C 
BRANCH   3   4
ATOM      4  C   UNL     1     177.029 173.352 168.891  1.00  0.00    -0.000 C 
BRANCH   4   5
ATOM      5  C   UNL     1     176.423 174.105 167.696  1.00  0.00    -0.003 C 
ATOM      6  C   UNL     1     174.916 173.882 167.557  1.00  0.00     0.004 C 
ENDBRANCH   4   5
ENDBRANCH   3   4
ENDBRANCH   2   3
ENDBRANCH   1   2
BRANCH   1   7
ATOM      7  C   UNL     1     176.113 176.765 170.485  1.00  0.00     0.002 C 
BRANCH   7   8
ATOM      8  C   UNL     1     175.786 177.986 171.360  1.00  0.00     0.028 C 
BRANCH   8   9
ATOM      9  C   UNL     1     175.386 179.218 170.539  1.00  0.00     0.156 C 
BRANCH   9  10
ATOM     10  O   UNL     1     174.535 178.843 169.491  1.00  0.00    -0.396 OA
ATOM     11  H   UNL     1     173.709 179.385 169.586  1.00  0.00     0.210 HD
ENDBRANCH   9  10
ENDBRANCH   8   9
ENDBRANCH   7   8
ENDBRANCH   1   7
TORSDOF 8
ENDMDL
MODEL 4
REMARK VINA RESULT:    -3.421     19.140     20.383
REMARK INTER + INTRA:          -5.323
REMARK INTER:                  -5.003
REMARK INTRA:                  -0.320
REMARK UNBOUND:                -0.402
REMARK SMILES CCCCCCCCCO
REMARK SMILES IDX 6 1 5 2 4 3 3 4 2 5 1 6 7 7 8 8 9 9 10 10
REMARK H PARENT 10 11
REMARK Flexibility Score: inf
ROOT
ATOM      1  C   UNL     1     160.997 165.031 165.984  1.00  0.00     0.000 C 
ENDROOT
BRANCH   1   2
ATOM      2  C   UNL     1     160.847 163.499 165.951  1.00  0.00     0.000 C 
BRANCH   2   3
ATOM      3  C   UNL     1     159.848 162.915 166.968  1.00  0.00    -0.000 C 
BRANCH   3   4
ATOM      4  C   UNL     1     160.338 163.023 168.422  1.00  0.00    -0.000 C 
BRANCH   4   5
ATOM      5  C   UNL     1     161.016 161.734 168.911  1.00  0.00    -0.003 C 
ATOM      6  C   UNL     1     160.342 161.145 170.152  1.00  0.00     0.004 C 
ENDBRANCH   4   5
ENDBRANCH   3   4
ENDBRANCH   2   3
ENDBRANCH   1   2
BRANCH   1   7
ATOM      7  C   UNL     1     159.672 165.757 166.272  1.00  0.00     0.002 C 
BRANCH   7   8
ATOM      8  C   UNL     1     159.768 166.697 167.486  1.00  0.00     0.028 C 
BRANCH   8   9
ATOM      9  C   UNL     1     158.886 166.249 168.657  1.00  0.00     0.156 C 
BRANCH   9  10
ATOM     10  O   UNL     1     159.637 166.208 169.839  1.00  0.00    -0.396 OA
ATOM     11  H   UNL     1     159.528 167.093 170.276  1.00  0.00     0.210 HD
ENDBRANCH   9  10
ENDBRANCH   8   9
ENDBRANCH   7   8
ENDBRANCH   1   7
TORSDOF 8
ENDMDL
MODEL 5
REMARK VINA RESULT:    -3.410      1.003      1.231
REMARK INTER + INTRA:          -5.307
REMARK INTER:                  -5.026
REMARK INTRA:                  -0.281
REMARK UNBOUND:                -0.402
REMARK SMILES CCCCCCCCCO
REMARK SMILES IDX 6 1 5 2 4 3 3 4 2 5 1 6 7 7 8 8 9 9 10 10
REMARK H PARENT 10 11
REMARK Flexibility Score: inf
ROOT
ATOM      1  C   UNL     1     178.221 175.299 168.769  1.00  0.00     0.000 C 
ENDROOT
BRANCH   1   2
ATOM      2  C   UNL     1     177.459 175.770 170.021  1.00  0.00     0.000 C 
BRANCH   2   3
ATOM      3  C   UNL     1     176.881 177.196 169.942  1.00  0.00    -0.000 C 
BRANCH   3   4
ATOM      4  C   UNL     1     175.804 177.467 171.006  1.00  0.00    -0.000 C 
BRANCH   4   5
ATOM      5  C   UNL     1     176.228 178.554 172.008  1.00  0.00    -0.003 C 
ATOM      6  C   UNL     1     177.734 178.557 172.277  1.00  0.00     0.004 C 
ENDBRANCH   4   5
ENDBRANCH   3   4
ENDBRANCH   2   3
ENDBRANCH   1   2
BRANCH   1   7
ATOM      7  C   UNL     1     177.744 173.930 168.256  1.00  0.00     0.002 C 
BRANCH   7   8
ATOM      8  C   UNL     1     176.269 173.658 168.592  1.00  0.00     0.028 C 
BRANCH   8   9
ATOM      9  C   UNL     1     175.312 174.101 167.479  1.00  0.00     0.156 C 
BRANCH   9  10
ATOM     10  O   UNL     1     174.163 173.300 167.484  1.00  0.00    -0.396 OA
ATOM     11  H   UNL     1     174.455 172.379 167.255  1.00  0.00     0.210 HD
ENDBRANCH   9  10
ENDBRANCH   8   9
ENDBRANCH   7   8
ENDBRANCH   1   7
TORSDOF 8
ENDMDL
MODEL 6
REMARK VINA RESULT:    -3.370     13.148     14.106
REMARK INTER + INTRA:          -5.249
REMARK INTER:                  -4.687
REMARK INTRA:                  -0.562
REMARK UNBOUND:                -0.402
REMARK SMILES CCCCCCCCCO
REMARK SMILES IDX 6 1 5 2 4 3 3 4 2 5 1 6 7 7 8 8 9 9 10 10
REMARK H PARENT 10 11
REMARK Flexibility Score: inf
ROOT
ATOM      1  C   UNL     1     174.062 162.396 168.995  1.00  0.00     0.000 C 
ENDROOT
BRANCH   1   2
ATOM      2  C   UNL     1     172.795 161.522 168.949  1.00  0.00     0.000 C 
BRANCH   2   3
ATOM      3  C   UNL     1     172.003 161.580 167.630  1.00  0.00    -0.000 C 
BRANCH   3   4
ATOM      4  C   UNL     1     172.357 162.806 166.771  1.00  0.00    -0.000 C 
BRANCH   4   5
ATOM      5  C   UNL     1     172.867 162.417 165.374  1.00  0.00    -0.003 C 
ATOM      6  C   UNL     1     174.387 162.537 165.243  1.00  0.00     0.004 C 
ENDBRANCH   4   5
ENDBRANCH   3   4
ENDBRANCH   2   3
ENDBRANCH   1   2
BRANCH   1   7
ATOM      7  C   UNL     1     175.319 161.608 169.399  1.00  0.00     0.002 C 
BRANCH   7   8
ATOM      8  C   UNL     1     176.380 161.581 168.286  1.00  0.00     0.028 C 
BRANCH   8   9
ATOM      9  C   UNL     1     177.588 162.475 168.593  1.00  0.00     0.156 C 
BRANCH   9  10
ATOM     10  O   UNL     1     177.249 163.822 168.413  1.00  0.00    -0.396 OA
ATOM     11  H   UNL     1     176.258 163.863 168.363  1.00  0.00     0.210 HD
ENDBRANCH   9  10
ENDBRANCH   8   9
ENDBRANCH   7   8
ENDBRANCH   1   7
TORSDOF 8
ENDMDL
MODEL 7
REMARK VINA RESULT:    -3.343     11.645     13.087
REMARK INTER + INTRA:          -5.211
REMARK INTER:                  -4.503
REMARK INTRA:                  -0.708
REMARK UNBOUND:                -0.402
REMARK SMILES CCCCCCCCCO
REMARK SMILES IDX 6 1 5 2 4 3 3 4 2 5 1 6 7 7 8 8 9 9 10 10
REMARK H PARENT 10 11
REMARK Flexibility Score: inf
ROOT
ATOM      1  C   UNL     1     165.489 178.737 167.432  1.00  0.00     0.000 C 
ENDROOT
BRANCH   1   2
ATOM      2  C   UNL     1     164.513 177.919 168.298  1.00  0.00     0.000 C 
BRANCH   2   3
ATOM      3  C   UNL     1     163.215 178.648 168.693  1.00  0.00    -0.000 C 
BRANCH   3   4
ATOM      4  C   UNL     1     162.003 178.217 167.850  1.00  0.00    -0.000 C 
BRANCH   4   5
ATOM      5  C   UNL     1     161.592 179.284 166.823  1.00  0.00    -0.003 C 
ATOM      6  C   UNL     1     162.218 179.054 165.447  1.00  0.00     0.004 C 
ENDBRANCH   4   5
ENDBRANCH   3   4
ENDBRANCH   2   3
ENDBRANCH   1   2
BRANCH   1   7
ATOM      7  C   UNL     1     165.761 178.092 166.063  1.00  0.00     0.002 C 
BRANCH   7   8
ATOM      8  C   UNL     1     165.226 176.653 165.974  1.00  0.00     0.028 C 
BRANCH   8   9
ATOM      9  C   UNL     1     166.301 175.642 165.560  1.00  0.00     0.156 C 
BRANCH   9  10
ATOM     10  O   UNL     1     166.898 175.079 166.696  1.00  0.00    -0.396 OA
ATOM     11  H   UNL     1     166.843 175.763 167.415  1.00  0.00     0.210 HD
ENDBRANCH   9  10
ENDBRANCH   8   9
ENDBRANCH   7   8
ENDBRANCH   1   7
TORSDOF 8
ENDMDL
MODEL 8
REMARK VINA RESULT:    -3.307      1.504      2.196
REMARK INTER + INTRA:          -5.159
REMARK INTER:                  -4.858
REMARK INTRA:                  -0.301
REMARK UNBOUND:                -0.402
REMARK SMILES CCCCCCCCCO
REMARK SMILES IDX 6 1 5 2 4 3 3 4 2 5 1 6 7 7 8 8 9 9 10 10
REMARK H PARENT 10 11
REMARK Flexibility Score: inf
ROOT
ATOM      1  C   UNL     1     177.409 175.805 169.213  1.00  0.00     0.000 C 
ENDROOT
BRANCH   1   2
ATOM      2  C   UNL     1     176.656 177.138 169.381  1.00  0.00     0.000 C 
BRANCH   2   3
ATOM      3  C   UNL     1     176.091 177.401 170.790  1.00  0.00    -0.000 C 
BRANCH   3   4
ATOM      4  C   UNL     1     175.274 178.701 170.876  1.00  0.00    -0.000 C 
BRANCH   4   5
ATOM      5  C   UNL     1     175.071 179.360 169.502  1.00  0.00    -0.003 C 
ATOM      6  C   UNL     1     173.645 179.873 169.297  1.00  0.00     0.004 C 
ENDBRANCH   4   5
ENDBRANCH   3   4
ENDBRANCH   2   3
ENDBRANCH   1   2
BRANCH   1   7
ATOM      7  C   UNL     1     176.598 174.593 169.699  1.00  0.00     0.002 C 
BRANCH   7   8
ATOM      8  C   UNL     1     176.325 173.579 168.576  1.00  0.00     0.028 C 
BRANCH   8   9
ATOM      9  C   UNL     1     175.329 174.098 167.533  1.00  0.00     0.156 C 
BRANCH   9  10
ATOM     10  O   UNL     1     174.175 173.303 167.531  1.00  0.00    -0.396 OA
ATOM     11  H   UNL     1     173.995 173.065 166.584  1.00  0.00     0.210 HD
ENDBRANCH   9  10
ENDBRANCH   8   9
ENDBRANCH   7   8
ENDBRANCH   1   7
TORSDOF 8
ENDMDL
