MODEL 1
REMARK VINA RESULT:    -4.291      0.000      0.000
REMARK INTER + INTRA:          -5.585
REMARK INTER:                  -5.168
REMARK INTRA:                  -0.416
REMARK UNBOUND:                -0.416
REMARK SMILES NC(=O)C[C@H]([NH3+])C(=O)[O-]
REMARK SMILES IDX 4 1 5 2 6 3 7 7 8 8 9 9 2 10 3 11 1 12
REMARK H PARENT 6 4 6 5 6 6 1 13 1 14
REMARK Flexibility Score: inf
ROOT
ATOM      1  C   UNL     1       9.016  -1.199  -3.651  1.00  0.00     0.171 C 
ENDROOT
BRANCH   1   2
ATOM      2  C   UNL     1       8.133  -1.841  -2.562  1.00  0.00     0.237 C 
BRANCH   2   3
ATOM      3  N   UNL     1       6.753  -1.987  -3.040  1.00  0.00    -0.350 N 
ATOM      4  H   UNL     1       6.175  -1.160  -2.762  1.00  0.00     0.345 HD
ATOM      5  H   UNL     1       6.746  -2.073  -4.083  1.00  0.00     0.345 HD
ATOM      6  H   UNL     1       6.328  -2.855  -2.639  1.00  0.00     0.345 HD
ENDBRANCH   2   3
BRANCH   2   7
ATOM      7  C   UNL     1       8.162  -1.031  -1.292  1.00  0.00     0.100 C 
ATOM      8  O   UNL     1       7.189  -1.060  -0.492  1.00  0.00    -0.544 OA
ATOM      9  O   UNL     1       9.261  -0.231  -1.004  1.00  0.00    -0.544 OA
ENDBRANCH   2   7
ENDBRANCH   1   2
BRANCH   1  10
ATOM     10  C   UNL     1       8.412   0.075  -4.171  1.00  0.00     0.223 C 
ATOM     11  O   UNL     1       7.413   0.027  -4.936  1.00  0.00    -0.275 OA
ATOM     12  N   UNL     1       8.944   1.339  -3.777  1.00  0.00    -0.369 N 
ATOM     13  H   UNL     1       8.515   2.224  -4.129  1.00  0.00     0.159 HD
ATOM     14  H   UNL     1       9.762   1.394  -3.131  1.00  0.00     0.159 HD
ENDBRANCH   1  10
TORSDOF 4
ENDMDL
MODEL 2
REMARK VINA RESULT:    -4.026     12.978     14.419
REMARK INTER + INTRA:          -5.266
REMARK INTER:                  -4.778
REMARK INTRA:                  -0.488
REMARK UNBOUND:                -0.416
REMARK SMILES NC(=O)C[C@H]([NH3+])C(=O)[O-]
REMARK SMILES IDX 4 1 5 2 6 3 7 7 8 8 9 9 2 10 3 11 1 12
REMARK H PARENT 6 4 6 5 6 6 1 13 1 14
REMARK Flexibility Score: inf
ROOT
ATOM      1  C   UNL     1       0.388  -4.690   8.222  1.00  0.00     0.171 C 
ENDROOT
BRANCH   1   2
ATOM      2  C   UNL     1      -1.043  -5.261   8.148  1.00  0.00     0.237 C 
BRANCH   2   3
ATOM      3  N   UNL     1      -1.512  -5.292   6.757  1.00  0.00    -0.350 N 
ATOM      4  H   UNL     1      -2.511  -4.988   6.697  1.00  0.00     0.345 HD
ATOM      5  H   UNL     1      -0.925  -4.654   6.171  1.00  0.00     0.345 HD
ATOM      6  H   UNL     1      -1.423  -6.261   6.373  1.00  0.00     0.345 HD
ENDBRANCH   2   3
BRANCH   2   7
ATOM      7  C   UNL     1      -1.992  -4.460   9.000  1.00  0.00     0.100 C 
ATOM      8  O   UNL     1      -3.093  -4.951   9.367  1.00  0.00    -0.544 OA
ATOM      9  O   UNL     1      -1.662  -3.163   9.376  1.00  0.00    -0.544 OA
ENDBRANCH   2   7
ENDBRANCH   1   2
BRANCH   1  10
ATOM     10  C   UNL     1       0.688  -3.800   7.050  1.00  0.00     0.223 C 
ATOM     11  O   UNL     1       1.139  -4.297   5.984  1.00  0.00    -0.275 OA
ATOM     12  N   UNL     1       0.434  -2.397   7.125  1.00  0.00    -0.369 N 
ATOM     13  H   UNL     1       0.632  -1.781   6.305  1.00  0.00     0.159 HD
ATOM     14  H   UNL     1       0.046  -1.972   7.997  1.00  0.00     0.159 HD
ENDBRANCH   1  10
TORSDOF 4
ENDMDL
MODEL 3
REMARK VINA RESULT:    -4.007      4.695      6.626
REMARK INTER + INTRA:          -5.243
REMARK INTER:                  -4.796
REMARK INTRA:                  -0.447
REMARK UNBOUND:                -0.416
REMARK SMILES NC(=O)C[C@H]([NH3+])C(=O)[O-]
REMARK SMILES IDX 4 1 5 2 6 3 7 7 8 8 9 9 2 10 3 11 1 12
REMARK H PARENT 6 4 6 5 6 6 1 13 1 14
REMARK Flexibility Score: inf
ROOT
ATOM      1  C   UNL     1       7.083  -2.507   3.298  1.00  0.00     0.171 C 
ENDROOT
BRANCH   1   2
ATOM      2  C   UNL     1       7.107  -1.242   2.417  1.00  0.00     0.237 C 
BRANCH   2   3
ATOM      3  N   UNL     1       5.947  -0.391   2.707  1.00  0.00    -0.350 N 
ATOM      4  H   UNL     1       6.076   0.116   3.613  1.00  0.00     0.345 HD
ATOM      5  H   UNL     1       5.819   0.308   1.939  1.00  0.00     0.345 HD
ATOM      6  H   UNL     1       5.081  -0.977   2.761  1.00  0.00     0.345 HD
ENDBRANCH   2   3
BRANCH   2   7
ATOM      7  C   UNL     1       7.137  -1.601   0.954  1.00  0.00     0.100 C 
ATOM      8  O   UNL     1       7.016  -0.708   0.073  1.00  0.00    -0.544 OA
ATOM      9  O   UNL     1       7.284  -2.928   0.567  1.00  0.00    -0.544 OA
ENDBRANCH   2   7
ENDBRANCH   1   2
BRANCH   1  10
ATOM     10  C   UNL     1       5.687  -3.037   3.466  1.00  0.00     0.223 C 
ATOM     11  O   UNL     1       4.920  -2.523   4.323  1.00  0.00    -0.275 OA
ATOM     12  N   UNL     1       5.213  -4.097   2.636  1.00  0.00    -0.369 N 
ATOM     13  H   UNL     1       4.239  -4.455   2.744  1.00  0.00     0.159 HD
ATOM     14  H   UNL     1       5.832  -4.522   1.911  1.00  0.00     0.159 HD
ENDBRANCH   1  10
TORSDOF 4
ENDMDL
MODEL 4
REMARK VINA RESULT:    -3.990      1.295      4.021
REMARK INTER + INTRA:          -5.223
REMARK INTER:                  -4.820
REMARK INTRA:                  -0.403
REMARK UNBOUND:                -0.416
REMARK SMILES NC(=O)C[C@H]([NH3+])C(=O)[O-]
REMARK SMILES IDX 4 1 5 2 6 3 7 7 8 8 9 9 2 10 3 11 1 12
REMARK H PARENT 6 4 6 5 6 6 1 13 1 14
REMARK Flexibility Score: inf
ROOT
ATOM      1  C   UNL     1       9.153  -1.106  -3.581  1.00  0.00     0.171 C 
ENDROOT
BRANCH   1   2
ATOM      2  C   UNL     1       9.364   0.132  -4.474  1.00  0.00     0.237 C 
BRANCH   2   3
ATOM      3  N   UNL     1       8.978   1.354  -3.758  1.00  0.00    -0.350 N 
ATOM      4  H   UNL     1       9.350   2.202  -4.245  1.00  0.00     0.345 HD
ATOM      5  H   UNL     1       7.935   1.421  -3.707  1.00  0.00     0.345 HD
ATOM      6  H   UNL     1       9.351   1.326  -2.781  1.00  0.00     0.345 HD
ENDBRANCH   2   3
BRANCH   2   7
ATOM      7  C   UNL     1       8.585   0.014  -5.759  1.00  0.00     0.100 C 
ATOM      8  O   UNL     1       8.396   1.024  -6.488  1.00  0.00    -0.544 OA
ATOM      9  O   UNL     1       8.056  -1.213  -6.139  1.00  0.00    -0.544 OA
ENDBRANCH   2   7
ENDBRANCH   1   2
BRANCH   1  10
ATOM     10  C   UNL     1       7.822  -1.064  -2.884  1.00  0.00     0.223 C 
ATOM     11  O   UNL     1       7.647  -0.281  -1.914  1.00  0.00    -0.275 OA
ATOM     12  N   UNL     1       6.745  -1.884  -3.337  1.00  0.00    -0.369 N 
ATOM     13  H   UNL     1       5.817  -1.844  -2.859  1.00  0.00     0.159 HD
ATOM     14  H   UNL     1       6.870  -2.528  -4.149  1.00  0.00     0.159 HD
ENDBRANCH   1  10
TORSDOF 4
ENDMDL
MODEL 5
REMARK VINA RESULT:    -3.929      9.981     10.499
REMARK INTER + INTRA:          -5.149
REMARK INTER:                  -4.868
REMARK INTRA:                  -0.281
REMARK UNBOUND:                -0.416
REMARK SMILES NC(=O)C[C@H]([NH3+])C(=O)[O-]
REMARK SMILES IDX 4 1 5 2 6 3 7 7 8 8 9 9 2 10 3 11 1 12
REMARK H PARENT 6 4 6 5 6 6 1 13 1 14
REMARK Flexibility Score: inf
ROOT
ATOM      1  C   UNL     1       4.962   9.796  -1.167  1.00  0.00     0.171 C 
ENDROOT
BRANCH   1   2
ATOM      2  C   UNL     1       4.423   8.485  -0.561  1.00  0.00     0.237 C 
BRANCH   2   3
ATOM      3  N   UNL     1       5.380   7.391  -0.766  1.00  0.00    -0.350 N 
ATOM      4  H   UNL     1       5.301   7.007  -1.735  1.00  0.00     0.345 HD
ATOM      5  H   UNL     1       6.355   7.742  -0.617  1.00  0.00     0.345 HD
ATOM      6  H   UNL     1       5.200   6.626  -0.075  1.00  0.00     0.345 HD
ENDBRANCH   2   3
BRANCH   2   7
ATOM      7  C   UNL     1       3.085   8.123  -1.153  1.00  0.00     0.100 C 
ATOM      8  O   UNL     1       2.385   7.209  -0.643  1.00  0.00    -0.544 OA
ATOM      9  O   UNL     1       2.622   8.791  -2.281  1.00  0.00    -0.544 OA
ENDBRANCH   2   7
ENDBRANCH   1   2
BRANCH   1  10
ATOM     10  C   UNL     1       6.463   9.797  -1.232  1.00  0.00     0.223 C 
ATOM     11  O   UNL     1       7.137   9.704  -0.172  1.00  0.00    -0.275 OA
ATOM     12  N   UNL     1       7.130   9.869  -2.492  1.00  0.00    -0.369 N 
ATOM     13  H   UNL     1       8.173   9.858  -2.537  1.00  0.00     0.159 HD
ATOM     14  H   UNL     1       6.585   9.932  -3.380  1.00  0.00     0.159 HD
ENDBRANCH   1  10
TORSDOF 4
ENDMDL
MODEL 6
REMARK VINA RESULT:    -3.928      5.178      6.385
REMARK INTER + INTRA:          -5.148
REMARK INTER:                  -4.721
REMARK INTRA:                  -0.427
REMARK UNBOUND:                -0.416
REMARK SMILES NC(=O)C[C@H]([NH3+])C(=O)[O-]
REMARK SMILES IDX 4 1 5 2 6 3 7 7 8 8 9 9 2 10 3 11 1 12
REMARK H PARENT 6 4 6 5 6 6 1 13 1 14
REMARK Flexibility Score: inf
ROOT
ATOM      1  C   UNL     1       7.252  -2.354   2.554  1.00  0.00     0.171 C 
ENDROOT
BRANCH   1   2
ATOM      2  C   UNL     1       6.283  -3.271   3.327  1.00  0.00     0.237 C 
BRANCH   2   3
ATOM      3  N   UNL     1       5.322  -3.893   2.409  1.00  0.00    -0.350 N 
ATOM      4  H   UNL     1       4.762  -4.627   2.901  1.00  0.00     0.345 HD
ATOM      5  H   UNL     1       4.671  -3.166   2.030  1.00  0.00     0.345 HD
ATOM      6  H   UNL     1       5.829  -4.327   1.604  1.00  0.00     0.345 HD
ENDBRANCH   2   3
BRANCH   2   7
ATOM      7  C   UNL     1       5.555  -2.507   4.404  1.00  0.00     0.100 C 
ATOM      8  O   UNL     1       4.359  -2.783   4.687  1.00  0.00    -0.544 OA
ATOM      9  O   UNL     1       6.200  -1.479   5.082  1.00  0.00    -0.544 OA
ENDBRANCH   2   7
ENDBRANCH   1   2
BRANCH   1  10
ATOM     10  C   UNL     1       6.513  -1.320   1.753  1.00  0.00     0.223 C 
ATOM     11  O   UNL     1       5.965  -1.644   0.665  1.00  0.00    -0.275 OA
ATOM     12  N   UNL     1       6.398   0.019   2.232  1.00  0.00    -0.369 N 
ATOM     13  H   UNL     1       5.874   0.733   1.680  1.00  0.00     0.159 HD
ATOM     14  H   UNL     1       6.834   0.299   3.139  1.00  0.00     0.159 HD
ENDBRANCH   1  10
TORSDOF 4
ENDMDL
MODEL 7
REMARK VINA RESULT:    -3.921     10.937     12.634
REMARK INTER + INTRA:          -5.140
REMARK INTER:                  -4.661
REMARK INTRA:                  -0.479
REMARK UNBOUND:                -0.416
REMARK SMILES NC(=O)C[C@H]([NH3+])C(=O)[O-]
REMARK SMILES IDX 4 1 5 2 6 3 7 7 8 8 9 9 2 10 3 11 1 12
REMARK H PARENT 6 4 6 5 6 6 1 13 1 14
REMARK Flexibility Score: inf
ROOT
ATOM      1  C   UNL     1       1.465  -4.299   7.815  1.00  0.00     0.171 C 
ENDROOT
BRANCH   1   2
ATOM      2  C   UNL     1       1.992  -2.932   7.334  1.00  0.00     0.237 C 
BRANCH   2   3
ATOM      3  N   UNL     1       0.916  -1.935   7.344  1.00  0.00    -0.350 N 
ATOM      4  H   UNL     1       1.035  -1.254   6.558  1.00  0.00     0.345 HD
ATOM      5  H   UNL     1      -0.010  -2.412   7.244  1.00  0.00     0.345 HD
ATOM      6  H   UNL     1       0.919  -1.416   8.253  1.00  0.00     0.345 HD
ENDBRANCH   2   3
BRANCH   2   7
ATOM      7  C   UNL     1       2.593  -3.037   5.956  1.00  0.00     0.100 C 
ATOM      8  O   UNL     1       2.097  -3.816   5.099  1.00  0.00    -0.544 OA
ATOM      9  O   UNL     1       3.713  -2.281   5.628  1.00  0.00    -0.544 OA
ENDBRANCH   2   7
ENDBRANCH   1   2
BRANCH   1  10
ATOM     10  C   UNL     1      -0.019  -4.419   7.619  1.00  0.00     0.223 C 
ATOM     11  O   UNL     1      -0.804  -4.022   8.520  1.00  0.00    -0.275 OA
ATOM     12  N   UNL     1      -0.546  -4.949   6.403  1.00  0.00    -0.369 N 
ATOM     13  H   UNL     1      -1.578  -5.020   6.262  1.00  0.00     0.159 HD
ATOM     14  H   UNL     1       0.093  -5.268   5.641  1.00  0.00     0.159 HD
ENDBRANCH   1  10
TORSDOF 4
ENDMDL
MODEL 8
REMARK VINA RESULT:    -3.884     11.816     13.568
REMARK INTER + INTRA:          -5.095
REMARK INTER:                  -4.633
REMARK INTRA:                  -0.462
REMARK UNBOUND:                -0.416
REMARK SMILES NC(=O)C[C@H]([NH3+])C(=O)[O-]
REMARK SMILES IDX 4 1 5 2 6 3 7 7 8 8 9 9 2 10 3 11 1 12
REMARK H PARENT 6 4 6 5 6 6 1 13 1 14
REMARK Flexibility Score: inf
ROOT
ATOM      1  C   UNL     1       0.031  -3.918   8.245  1.00  0.00     0.171 C 
ENDROOT
BRANCH   1   2
ATOM      2  C   UNL     1       0.358  -3.784   6.744  1.00  0.00     0.237 C 
BRANCH   2   3
ATOM      3  N   UNL     1      -0.178  -4.929   5.998  1.00  0.00    -0.350 N 
ATOM      4  H   UNL     1       0.096  -5.830   6.454  1.00  0.00     0.345 HD
ATOM      5  H   UNL     1      -1.222  -4.869   5.959  1.00  0.00     0.345 HD
ATOM      6  H   UNL     1       0.186  -4.915   5.017  1.00  0.00     0.345 HD
ENDBRANCH   2   3
BRANCH   2   7
ATOM      7  C   UNL     1       1.844  -3.666   6.521  1.00  0.00     0.100 C 
ATOM      8  O   UNL     1       2.635  -3.606   7.499  1.00  0.00    -0.544 OA
ATOM      9  O   UNL     1       2.349  -3.608   5.227  1.00  0.00    -0.544 OA
ENDBRANCH   2   7
ENDBRANCH   1   2
BRANCH   1  10
ATOM     10  C   UNL     1      -0.068  -5.358   8.663  1.00  0.00     0.223 C 
ATOM     11  O   UNL     1      -1.176  -5.952   8.604  1.00  0.00    -0.275 OA
ATOM     12  N   UNL     1       1.095  -6.066   9.093  1.00  0.00    -0.369 N 
ATOM     13  H   UNL     1       1.027  -7.070   9.371  1.00  0.00     0.159 HD
ATOM     14  H   UNL     1       2.023  -5.590   9.132  1.00  0.00     0.159 HD
ENDBRANCH   1  10
TORSDOF 4
ENDMDL
MODEL 9
REMARK VINA RESULT:    -3.823      3.370      4.606
REMARK INTER + INTRA:          -5.021
REMARK INTER:                  -4.788
REMARK INTRA:                  -0.233
REMARK UNBOUND:                -0.416
REMARK SMILES NC(=O)C[C@H]([NH3+])C(=O)[O-]
REMARK SMILES IDX 4 1 5 2 6 3 7 7 8 8 9 9 2 10 3 11 1 12
REMARK H PARENT 6 4 6 5 6 6 1 13 1 14
REMARK Flexibility Score: inf
ROOT
ATOM      1  C   UNL     1       7.895  -1.222   0.648  1.00  0.00     0.171 C 
ENDROOT
BRANCH   1   2
ATOM      2  C   UNL     1       6.541  -1.116   1.378  1.00  0.00     0.237 C 
BRANCH   2   3
ATOM      3  N   UNL     1       6.514   0.070   2.241  1.00  0.00    -0.350 N 
ATOM      4  H   UNL     1       7.060   0.853   1.813  1.00  0.00     0.345 HD
ATOM      5  H   UNL     1       5.526   0.382   2.384  1.00  0.00     0.345 HD
ATOM      6  H   UNL     1       6.921  -0.162   3.177  1.00  0.00     0.345 HD
ENDBRANCH   2   3
BRANCH   2   7
ATOM      7  C   UNL     1       6.264  -2.357   2.187  1.00  0.00     0.100 C 
ATOM      8  O   UNL     1       6.766  -3.463   1.856  1.00  0.00    -0.544 OA
ATOM      9  O   UNL     1       5.435  -2.287   3.302  1.00  0.00    -0.544 OA
ENDBRANCH   2   7
ENDBRANCH   1   2
BRANCH   1  10
ATOM     10  C   UNL     1       7.722  -1.675  -0.774  1.00  0.00     0.223 C 
ATOM     11  O   UNL     1       7.508  -0.826  -1.680  1.00  0.00    -0.275 OA
ATOM     12  N   UNL     1       7.833  -3.057  -1.110  1.00  0.00    -0.369 N 
ATOM     13  H   UNL     1       7.725  -3.370  -2.100  1.00  0.00     0.159 HD
ATOM     14  H   UNL     1       8.025  -3.770  -0.371  1.00  0.00     0.159 HD
ENDBRANCH   1  10
TORSDOF 4
ENDMDL
