MODEL 1
REMARK VINA RESULT:    -3.950      0.000      0.000
REMARK INTER + INTRA:          -4.551
REMARK INTER:                  -4.296
REMARK INTRA:                  -0.255
REMARK UNBOUND:                -0.255
REMARK SMILES O=C([O-])c1ccccc1O
REMARK SMILES IDX 4 1 9 2 5 3 8 4 6 5 7 6 2 7 1 8 3 9 10 10
REMARK H PARENT 10 11
REMARK Flexibility Score: inf
ROOT
ATOM      1  C   UNL     1     109.889 116.164 132.751  1.00  0.00     0.039 A 
ATOM      2  C   UNL     1     109.508 115.988 131.400  1.00  0.00     0.124 A 
ATOM      3  C   UNL     1     110.424 115.066 133.454  1.00  0.00     0.014 A 
ATOM      4  C   UNL     1     109.666 114.736 130.786  1.00  0.00     0.047 A 
ATOM      5  C   UNL     1     110.576 113.826 132.831  1.00  0.00     0.001 A 
ATOM      6  C   UNL     1     110.198 113.660 131.499  1.00  0.00     0.004 A 
ENDROOT
BRANCH   1   7
ATOM      7  C   UNL     1     109.739 117.472 133.440  1.00  0.00     0.075 C 
ATOM      8  O   UNL     1     110.687 117.943 134.125  1.00  0.00    -0.545 OA
ATOM      9  O   UNL     1     108.561 118.202 133.347  1.00  0.00    -0.545 OA
ENDBRANCH   1   7
BRANCH   2  10
ATOM     10  O   UNL     1     108.975 117.046 130.663  1.00  0.00    -0.507 OA
ATOM     11  H   UNL     1     109.549 117.613 130.051  1.00  0.00     0.293 HD
ENDBRANCH   2  10
TORSDOF 2
ENDMDL
MODEL 2
REMARK VINA RESULT:    -3.870      1.817      3.736
REMARK INTER + INTRA:          -4.464
REMARK INTER:                  -4.214
REMARK INTRA:                  -0.250
REMARK UNBOUND:                -0.255
REMARK SMILES O=C([O-])c1ccccc1O
REMARK SMILES IDX 4 1 9 2 5 3 8 4 6 5 7 6 2 7 1 8 3 9 10 10
REMARK H PARENT 10 11
REMARK Flexibility Score: inf
ROOT
ATOM      1  C   UNL     1     110.112 114.672 130.616  1.00  0.00     0.039 A 
ATOM      2  C   UNL     1     109.616 115.857 131.207  1.00  0.00     0.124 A 
ATOM      3  C   UNL     1     110.695 113.692 131.447  1.00  0.00     0.014 A 
ATOM      4  C   UNL     1     109.711 116.041 132.596  1.00  0.00     0.047 A 
ATOM      5  C   UNL     1     110.782 113.888 132.827  1.00  0.00     0.001 A 
ATOM      6  C   UNL     1     110.291 115.060 133.401  1.00  0.00     0.004 A 
ENDROOT
BRANCH   1   7
ATOM      7  C   UNL     1     110.033 114.436 129.152  1.00  0.00     0.075 C 
ATOM      8  O   UNL     1     110.378 115.338 128.342  1.00  0.00    -0.545 OA
ATOM      9  O   UNL     1     109.579 113.226 128.643  1.00  0.00    -0.545 OA
ENDBRANCH   1   7
BRANCH   2  10
ATOM     10  O   UNL     1     109.031 116.854 130.426  1.00  0.00    -0.507 OA
ATOM     11  H   UNL     1     109.168 116.895 129.423  1.00  0.00     0.293 HD
ENDBRANCH   2  10
TORSDOF 2
ENDMDL
MODEL 3
REMARK VINA RESULT:    -3.845      6.210      7.774
REMARK INTER + INTRA:          -4.437
REMARK INTER:                  -4.191
REMARK INTRA:                  -0.245
REMARK UNBOUND:                -0.255
REMARK SMILES O=C([O-])c1ccccc1O
REMARK SMILES IDX 4 1 9 2 5 3 8 4 6 5 7 6 2 7 1 8 3 9 10 10
REMARK H PARENT 10 11
REMARK Flexibility Score: inf
ROOT
ATOM      1  C   UNL     1     108.210 111.189 127.167  1.00  0.00     0.039 A 
ATOM      2  C   UNL     1     109.286 110.942 126.284  1.00  0.00     0.124 A 
ATOM      3  C   UNL     1     107.111 110.306 127.163  1.00  0.00     0.014 A 
ATOM      4  C   UNL     1     109.246 109.833 125.424  1.00  0.00     0.047 A 
ATOM      5  C   UNL     1     107.084 109.206 126.302  1.00  0.00     0.001 A 
ATOM      6  C   UNL     1     108.150 108.969 125.434  1.00  0.00     0.004 A 
ENDROOT
BRANCH   1   7
ATOM      7  C   UNL     1     108.211 112.351 128.094  1.00  0.00     0.075 C 
ATOM      8  O   UNL     1     107.140 112.966 128.344  1.00  0.00    -0.545 OA
ATOM      9  O   UNL     1     109.383 112.783 128.702  1.00  0.00    -0.545 OA
ENDBRANCH   1   7
BRANCH   2  10
ATOM     10  O   UNL     1     110.395 111.788 126.253  1.00  0.00    -0.507 OA
ATOM     11  H   UNL     1     110.493 112.514 125.553  1.00  0.00     0.293 HD
ENDBRANCH   2  10
TORSDOF 2
ENDMDL
MODEL 4
REMARK VINA RESULT:    -3.821      6.349      8.001
REMARK INTER + INTRA:          -4.411
REMARK INTER:                  -4.156
REMARK INTRA:                  -0.255
REMARK UNBOUND:                -0.255
REMARK SMILES O=C([O-])c1ccccc1O
REMARK SMILES IDX 4 1 9 2 5 3 8 4 6 5 7 6 2 7 1 8 3 9 10 10
REMARK H PARENT 10 11
REMARK Flexibility Score: inf
ROOT
ATOM      1  C   UNL     1     108.680 111.257 126.632  1.00  0.00     0.039 A 
ATOM      2  C   UNL     1     107.564 110.609 127.210  1.00  0.00     0.124 A 
ATOM      3  C   UNL     1     109.320 110.653 125.530  1.00  0.00     0.014 A 
ATOM      4  C   UNL     1     107.113 109.387 126.685  1.00  0.00     0.047 A 
ATOM      5  C   UNL     1     108.861 109.438 125.017  1.00  0.00     0.001 A 
ATOM      6  C   UNL     1     107.760 108.806 125.593  1.00  0.00     0.004 A 
ENDROOT
BRANCH   1   7
ATOM      7  C   UNL     1     109.191 112.550 127.156  1.00  0.00     0.075 C 
ATOM      8  O   UNL     1     109.444 113.500 126.368  1.00  0.00    -0.545 OA
ATOM      9  O   UNL     1     109.399 112.742 128.516  1.00  0.00    -0.545 OA
ENDBRANCH   1   7
BRANCH   2  10
ATOM     10  O   UNL     1     106.899 111.168 128.302  1.00  0.00    -0.507 OA
ATOM     11  H   UNL     1     106.225 111.917 128.190  1.00  0.00     0.293 HD
ENDBRANCH   2  10
TORSDOF 2
ENDMDL
MODEL 5
REMARK VINA RESULT:    -3.734      2.762      3.901
REMARK INTER + INTRA:          -4.317
REMARK INTER:                  -4.062
REMARK INTRA:                  -0.255
REMARK UNBOUND:                -0.255
REMARK SMILES O=C([O-])c1ccccc1O
REMARK SMILES IDX 4 1 9 2 5 3 8 4 6 5 7 6 2 7 1 8 3 9 10 10
REMARK H PARENT 10 11
REMARK Flexibility Score: inf
ROOT
ATOM      1  C   UNL     1     109.852 115.166 130.607  1.00  0.00     0.039 A 
ATOM      2  C   UNL     1     110.678 114.104 131.044  1.00  0.00     0.124 A 
ATOM      3  C   UNL     1     109.322 116.053 131.567  1.00  0.00     0.014 A 
ATOM      4  C   UNL     1     110.956 113.950 132.412  1.00  0.00     0.047 A 
ATOM      5  C   UNL     1     109.607 115.887 132.924  1.00  0.00     0.001 A 
ATOM      6  C   UNL     1     110.422 114.838 133.346  1.00  0.00     0.004 A 
ENDROOT
BRANCH   1   7
ATOM      7  C   UNL     1     109.532 115.366 129.170  1.00  0.00     0.075 C 
ATOM      8  O   UNL     1     108.351 115.614 128.810  1.00  0.00    -0.545 OA
ATOM      9  O   UNL     1     110.521 115.287 128.197  1.00  0.00    -0.545 OA
ENDBRANCH   1   7
BRANCH   2  10
ATOM     10  O   UNL     1     111.226 113.202 130.131  1.00  0.00    -0.507 OA
ATOM     11  H   UNL     1     111.237 112.204 130.308  1.00  0.00     0.293 HD
ENDBRANCH   2  10
TORSDOF 2
ENDMDL
MODEL 6
REMARK VINA RESULT:    -3.725      1.206      2.459
REMARK INTER + INTRA:          -4.307
REMARK INTER:                  -4.053
REMARK INTRA:                  -0.254
REMARK UNBOUND:                -0.255
REMARK SMILES O=C([O-])c1ccccc1O
REMARK SMILES IDX 4 1 9 2 5 3 8 4 6 5 7 6 2 7 1 8 3 9 10 10
REMARK H PARENT 10 11
REMARK Flexibility Score: inf
ROOT
ATOM      1  C   UNL     1     109.392 116.112 131.779  1.00  0.00     0.039 A 
ATOM      2  C   UNL     1     109.996 115.375 132.824  1.00  0.00     0.124 A 
ATOM      3  C   UNL     1     109.374 115.559 130.482  1.00  0.00     0.014 A 
ATOM      4  C   UNL     1     110.563 114.118 132.558  1.00  0.00     0.047 A 
ATOM      5  C   UNL     1     109.941 114.309 130.232  1.00  0.00     0.001 A 
ATOM      6  C   UNL     1     110.535 113.589 131.268  1.00  0.00     0.004 A 
ENDROOT
BRANCH   1   7
ATOM      7  C   UNL     1     108.780 117.445 132.015  1.00  0.00     0.075 C 
ATOM      8  O   UNL     1     107.626 117.702 131.579  1.00  0.00    -0.545 OA
ATOM      9  O   UNL     1     109.459 118.433 132.716  1.00  0.00    -0.545 OA
ENDBRANCH   1   7
BRANCH   2  10
ATOM     10  O   UNL     1     110.037 115.881 134.124  1.00  0.00    -0.507 OA
ATOM     11  H   UNL     1     109.805 115.308 134.927  1.00  0.00     0.293 HD
ENDBRANCH   2  10
TORSDOF 2
ENDMDL
MODEL 7
REMARK VINA RESULT:    -3.690      3.531      4.545
REMARK INTER + INTRA:          -4.268
REMARK INTER:                  -4.018
REMARK INTRA:                  -0.250
REMARK UNBOUND:                -0.255
REMARK SMILES O=C([O-])c1ccccc1O
REMARK SMILES IDX 4 1 9 2 5 3 8 4 6 5 7 6 2 7 1 8 3 9 10 10
REMARK H PARENT 10 11
REMARK Flexibility Score: inf
ROOT
ATOM      1  C   UNL     1     110.253 114.792 129.113  1.00  0.00     0.039 A 
ATOM      2  C   UNL     1     111.443 114.565 129.844  1.00  0.00     0.124 A 
ATOM      3  C   UNL     1     109.022 114.412 129.685  1.00  0.00     0.014 A 
ATOM      4  C   UNL     1     111.381 113.969 131.114  1.00  0.00     0.047 A 
ATOM      5  C   UNL     1     108.976 113.820 130.949  1.00  0.00     0.001 A 
ATOM      6  C   UNL     1     110.153 113.599 131.663  1.00  0.00     0.004 A 
ENDROOT
BRANCH   1   7
ATOM      7  C   UNL     1     110.272 115.419 127.767  1.00  0.00     0.075 C 
ATOM      8  O   UNL     1     111.007 114.951 126.857  1.00  0.00    -0.545 OA
ATOM      9  O   UNL     1     109.486 116.528 127.480  1.00  0.00    -0.545 OA
ENDBRANCH   1   7
BRANCH   2  10
ATOM     10  O   UNL     1     112.684 114.925 129.320  1.00  0.00    -0.507 OA
ATOM     11  H   UNL     1     113.451 115.215 129.915  1.00  0.00     0.293 HD
ENDBRANCH   2  10
TORSDOF 2
ENDMDL
MODEL 8
REMARK VINA RESULT:    -3.675      1.977      2.872
REMARK INTER + INTRA:          -4.252
REMARK INTER:                  -4.036
REMARK INTRA:                  -0.216
REMARK UNBOUND:                -0.255
REMARK SMILES O=C([O-])c1ccccc1O
REMARK SMILES IDX 4 1 9 2 5 3 8 4 6 5 7 6 2 7 1 8 3 9 10 10
REMARK H PARENT 10 11
REMARK Flexibility Score: inf
ROOT
ATOM      1  C   UNL     1     109.998 114.656 131.451  1.00  0.00     0.039 A 
ATOM      2  C   UNL     1     109.472 115.788 130.787  1.00  0.00     0.124 A 
ATOM      3  C   UNL     1     110.215 113.475 130.711  1.00  0.00     0.014 A 
ATOM      4  C   UNL     1     109.176 115.721 129.416  1.00  0.00     0.047 A 
ATOM      5  C   UNL     1     109.915 113.423 129.348  1.00  0.00     0.001 A 
ATOM      6  C   UNL     1     109.397 114.543 128.701  1.00  0.00     0.004 A 
ENDROOT
BRANCH   1   7
ATOM      7  C   UNL     1     110.326 114.682 132.900  1.00  0.00     0.075 C 
ATOM      8  O   UNL     1     109.699 115.448 133.680  1.00  0.00    -0.545 OA
ATOM      9  O   UNL     1     111.323 113.871 133.425  1.00  0.00    -0.545 OA
ENDBRANCH   1   7
BRANCH   2  10
ATOM     10  O   UNL     1     109.241 116.979 131.476  1.00  0.00    -0.507 OA
ATOM     11  H   UNL     1     109.865 117.301 132.207  1.00  0.00     0.293 HD
ENDBRANCH   2  10
TORSDOF 2
ENDMDL
MODEL 9
REMARK VINA RESULT:    -3.655      6.860      8.042
REMARK INTER + INTRA:          -4.230
REMARK INTER:                  -3.987
REMARK INTRA:                  -0.244
REMARK UNBOUND:                -0.255
REMARK SMILES O=C([O-])c1ccccc1O
REMARK SMILES IDX 4 1 9 2 5 3 8 4 6 5 7 6 2 7 1 8 3 9 10 10
REMARK H PARENT 10 11
REMARK Flexibility Score: inf
ROOT
ATOM      1  C   UNL     1     108.007 111.213 127.203  1.00  0.00     0.039 A 
ATOM      2  C   UNL     1     109.147 111.958 126.822  1.00  0.00     0.124 A 
ATOM      3  C   UNL     1     106.919 111.890 127.791  1.00  0.00     0.014 A 
ATOM      4  C   UNL     1     109.180 113.346 127.033  1.00  0.00     0.047 A 
ATOM      5  C   UNL     1     106.965 113.270 127.995  1.00  0.00     0.001 A 
ATOM      6  C   UNL     1     108.093 113.998 127.617  1.00  0.00     0.004 A 
ENDROOT
BRANCH   1   7
ATOM      7  C   UNL     1     107.930 109.743 126.997  1.00  0.00     0.075 C 
ATOM      8  O   UNL     1     108.365 109.226 125.934  1.00  0.00    -0.545 OA
ATOM      9  O   UNL     1     107.382 108.911 127.965  1.00  0.00    -0.545 OA
ENDBRANCH   1   7
BRANCH   2  10
ATOM     10  O   UNL     1     110.248 111.332 126.236  1.00  0.00    -0.507 OA
ATOM     11  H   UNL     1     110.140 110.631 125.512  1.00  0.00     0.293 HD
ENDBRANCH   2  10
TORSDOF 2
ENDMDL
