MODEL 1
REMARK VINA RESULT:    25.739      0.000      0.000
REMARK INTER + INTRA:          41.728
REMARK INTER:                  39.281
REMARK INTRA:                   2.448
REMARK UNBOUND:                 2.448
REMARK SMILES COc1cc(C=CC(=O)CC(=O)C=Cc2ccc(O)c(OC)c2)ccc1O
REMARK SMILES IDX 10 1 8 2 9 3 7 4 6 5 5 6 3 7 26 8 4 9 25 10 24 11 2 12 1 13
REMARK SMILES IDX 27 14 11 16 12 17 13 18 14 19 15 20 23 21 16 22 20 23 17 24
REMARK SMILES IDX 18 25 21 26 22 27 19 28
REMARK H PARENT 27 15 19 29
REMARK Flexibility Score: inf
ROOT
ATOM      1  C   UNL     1     -38.938  23.657   7.371  1.00  0.00     0.160 C 
ENDROOT
BRANCH   1   2
ATOM      2  C   UNL     1     -38.097  24.886   7.620  1.00  0.00     0.163 C 
ATOM      3  O   UNL     1     -38.647  26.018   7.713  1.00  0.00    -0.294 OA
BRANCH   2   4
ATOM      4  C   UNL     1     -36.628  24.813   7.771  1.00  0.00     0.048 C 
ATOM      5  C   UNL     1     -35.786  25.709   7.234  1.00  0.00     0.012 C 
BRANCH   5   6
ATOM      6  C   UNL     1     -34.310  25.634   7.374  1.00  0.00    -0.022 A 
ATOM      7  C   UNL     1     -32.113  26.525   6.762  1.00  0.00     0.161 A 
ATOM      8  C   UNL     1     -31.503  25.582   7.607  1.00  0.00     0.157 A 
ATOM      9  C   UNL     1     -33.518  26.547   6.657  1.00  0.00     0.058 A 
ATOM     10  C   UNL     1     -32.288  24.684   8.334  1.00  0.00     0.051 A 
ATOM     11  C   UNL     1     -33.679  24.709   8.226  1.00  0.00     0.012 A 
BRANCH   7  12
ATOM     12  O   UNL     1     -31.300  27.420   6.048  1.00  0.00    -0.493 OA
ATOM     13  C   UNL     1     -30.012  27.858   6.473  1.00  0.00     0.278 C 
ENDBRANCH   7  12
BRANCH   8  14
ATOM     14  O   UNL     1     -30.115  25.524   7.741  1.00  0.00    -0.504 OA
ATOM     15  H   UNL     1     -29.630  24.660   7.954  1.00  0.00     0.293 HD
ENDBRANCH   8  14
ENDBRANCH   5   6
ENDBRANCH   2   4
ENDBRANCH   1   2
BRANCH   1  16
ATOM     16  C   UNL     1     -39.039  22.774   8.582  1.00  0.00     0.163 C 
ATOM     17  O   UNL     1     -37.987  22.273   9.065  1.00  0.00    -0.294 OA
BRANCH  16  18
ATOM     18  C   UNL     1     -40.368  22.418   9.124  1.00  0.00     0.048 C 
ATOM     19  C   UNL     1     -41.546  22.863   8.659  1.00  0.00     0.012 C 
BRANCH  19  20
ATOM     20  C   UNL     1     -41.734  23.639   7.414  1.00  0.00    -0.022 A 
ATOM     21  C   UNL     1     -41.841  25.040   7.438  1.00  0.00     0.058 A 
ATOM     22  C   UNL     1     -41.707  22.972   6.182  1.00  0.00     0.012 A 
ATOM     23  C   UNL     1     -41.981  25.768   6.239  1.00  0.00     0.161 A 
ATOM     24  C   UNL     1     -41.841  23.688   4.991  1.00  0.00     0.051 A 
ATOM     25  C   UNL     1     -41.982  25.082   5.017  1.00  0.00     0.157 A 
BRANCH  23  26
ATOM     26  O   UNL     1     -42.114  27.165   6.224  1.00  0.00    -0.493 OA
ATOM     27  C   UNL     1     -42.115  27.960   5.043  1.00  0.00     0.278 C 
ENDBRANCH  23  26
BRANCH  25  28
ATOM     28  O   UNL     1     -42.120  25.796   3.827  1.00  0.00    -0.504 OA
ATOM     29  H   UNL     1     -43.032  25.999   3.433  1.00  0.00     0.293 HD
ENDBRANCH  25  28
ENDBRANCH  19  20
ENDBRANCH  16  18
ENDBRANCH   1  16
TORSDOF 10
ENDMDL
MODEL 2
REMARK VINA RESULT:    25.834      0.946      1.603
REMARK INTER + INTRA:          41.874
REMARK INTER:                  39.796
REMARK INTRA:                   2.078
REMARK UNBOUND:                 2.448
REMARK SMILES COc1cc(C=CC(=O)CC(=O)C=Cc2ccc(O)c(OC)c2)ccc1O
REMARK SMILES IDX 10 1 8 2 9 3 7 4 6 5 5 6 3 7 26 8 4 9 25 10 24 11 2 12 1 13
REMARK SMILES IDX 27 14 11 16 12 17 13 18 14 19 15 20 23 21 16 22 20 23 17 24
REMARK SMILES IDX 18 25 21 26 22 27 19 28
REMARK H PARENT 27 15 19 29
REMARK Flexibility Score: inf
ROOT
ATOM      1  C   UNL     1     -39.309  23.307   7.205  1.00  0.00     0.160 C 
ENDROOT
BRANCH   1   2
ATOM      2  C   UNL     1     -38.737  24.645   7.610  1.00  0.00     0.163 C 
ATOM      3  O   UNL     1     -39.384  25.396   8.391  1.00  0.00    -0.294 OA
BRANCH   2   4
ATOM      4  C   UNL     1     -37.421  25.114   7.127  1.00  0.00     0.048 C 
ATOM      5  C   UNL     1     -36.479  25.626   7.933  1.00  0.00     0.012 C 
BRANCH   5   6
ATOM      6  C   UNL     1     -35.160  26.108   7.451  1.00  0.00    -0.022 A 
ATOM      7  C   UNL     1     -32.719  25.969   7.578  1.00  0.00     0.161 A 
ATOM      8  C   UNL     1     -32.618  26.944   6.570  1.00  0.00     0.157 A 
ATOM      9  C   UNL     1     -33.996  25.553   8.008  1.00  0.00     0.058 A 
ATOM     10  C   UNL     1     -33.775  27.485   6.003  1.00  0.00     0.051 A 
ATOM     11  C   UNL     1     -35.036  27.071   6.433  1.00  0.00     0.012 A 
BRANCH   7  12
ATOM     12  O   UNL     1     -31.541  25.437   8.125  1.00  0.00    -0.493 OA
ATOM     13  C   UNL     1     -30.438  24.958   7.361  1.00  0.00     0.278 C 
ENDBRANCH   7  12
BRANCH   8  14
ATOM     14  O   UNL     1     -31.376  27.385   6.115  1.00  0.00    -0.504 OA
ATOM     15  H   UNL     1     -31.167  28.368   5.986  1.00  0.00     0.293 HD
ENDBRANCH   8  14
ENDBRANCH   5   6
ENDBRANCH   2   4
ENDBRANCH   1   2
BRANCH   1  16
ATOM     16  C   UNL     1     -39.565  22.410   8.382  1.00  0.00     0.163 C 
ATOM     17  O   UNL     1     -38.588  21.999   9.064  1.00  0.00    -0.294 OA
BRANCH  16  18
ATOM     18  C   UNL     1     -40.939  21.937   8.661  1.00  0.00     0.048 C 
ATOM     19  C   UNL     1     -42.061  22.440   8.124  1.00  0.00     0.012 C 
BRANCH  19  20
ATOM     20  C   UNL     1     -42.115  23.429   7.026  1.00  0.00    -0.022 A 
ATOM     21  C   UNL     1     -42.102  24.809   7.287  1.00  0.00     0.058 A 
ATOM     22  C   UNL     1     -42.079  22.979   5.699  1.00  0.00     0.012 A 
ATOM     23  C   UNL     1     -42.113  25.738   6.227  1.00  0.00     0.161 A 
ATOM     24  C   UNL     1     -42.086  23.895   4.645  1.00  0.00     0.051 A 
ATOM     25  C   UNL     1     -42.107  25.272   4.905  1.00  0.00     0.157 A 
BRANCH  23  26
ATOM     26  O   UNL     1     -42.124  27.124   6.448  1.00  0.00    -0.493 OA
ATOM     27  C   UNL     1     -41.782  28.098   5.468  1.00  0.00     0.278 C 
ENDBRANCH  23  26
BRANCH  25  28
ATOM     28  O   UNL     1     -42.119  26.185   3.852  1.00  0.00    -0.504 OA
ATOM     29  H   UNL     1     -41.428  26.924   3.782  1.00  0.00     0.293 HD
ENDBRANCH  25  28
ENDBRANCH  19  20
ENDBRANCH  16  18
ENDBRANCH   1  16
TORSDOF 10
ENDMDL
MODEL 3
REMARK VINA RESULT:    26.111      1.052      1.753
REMARK INTER + INTRA:          42.296
REMARK INTER:                  42.427
REMARK INTRA:                  -0.131
REMARK UNBOUND:                 2.448
REMARK SMILES COc1cc(C=CC(=O)CC(=O)C=Cc2ccc(O)c(OC)c2)ccc1O
REMARK SMILES IDX 10 1 8 2 9 3 7 4 6 5 5 6 3 7 26 8 4 9 25 10 24 11 2 12 1 13
REMARK SMILES IDX 27 14 11 16 12 17 13 18 14 19 15 20 23 21 16 22 20 23 17 24
REMARK SMILES IDX 18 25 21 26 22 27 19 28
REMARK H PARENT 27 15 19 29
REMARK Flexibility Score: inf
ROOT
ATOM      1  C   UNL     1     -38.294  23.803   9.111  1.00  0.00     0.160 C 
ENDROOT
BRANCH   1   2
ATOM      2  C   UNL     1     -37.478  24.405   7.991  1.00  0.00     0.163 C 
ATOM      3  O   UNL     1     -38.055  24.868   6.969  1.00  0.00    -0.294 OA
BRANCH   2   4
ATOM      4  C   UNL     1     -36.003  24.485   8.051  1.00  0.00     0.048 C 
ATOM      5  C   UNL     1     -35.281  25.359   7.333  1.00  0.00     0.012 C 
BRANCH   5   6
ATOM      6  C   UNL     1     -33.800  25.434   7.381  1.00  0.00    -0.022 A 
ATOM      7  C   UNL     1     -31.763  26.706   6.899  1.00  0.00     0.161 A 
ATOM      8  C   UNL     1     -30.994  25.674   7.463  1.00  0.00     0.157 A 
ATOM      9  C   UNL     1     -33.167  26.579   6.868  1.00  0.00     0.058 A 
ATOM     10  C   UNL     1     -31.621  24.542   7.990  1.00  0.00     0.051 A 
ATOM     11  C   UNL     1     -33.011  24.421   7.956  1.00  0.00     0.012 A 
BRANCH   7  12
ATOM     12  O   UNL     1     -31.107  27.835   6.383  1.00  0.00    -0.493 OA
ATOM     13  C   UNL     1     -29.823  27.813   5.768  1.00  0.00     0.278 C 
ENDBRANCH   7  12
BRANCH   8  14
ATOM     14  O   UNL     1     -29.602  25.757   7.515  1.00  0.00    -0.504 OA
ATOM     15  H   UNL     1     -29.009  24.944   7.399  1.00  0.00     0.293 HD
ENDBRANCH   8  14
ENDBRANCH   5   6
ENDBRANCH   2   4
ENDBRANCH   1   2
BRANCH   1  16
ATOM     16  C   UNL     1     -38.975  22.528   8.705  1.00  0.00     0.163 C 
ATOM     17  O   UNL     1     -38.376  21.732   7.933  1.00  0.00    -0.294 OA
BRANCH  16  18
ATOM     18  C   UNL     1     -40.371  22.274   9.125  1.00  0.00     0.048 C 
ATOM     19  C   UNL     1     -41.451  22.936   8.682  1.00  0.00     0.012 C 
BRANCH  19  20
ATOM     20  C   UNL     1     -41.462  23.906   7.567  1.00  0.00    -0.022 A 
ATOM     21  C   UNL     1     -40.974  23.560   6.296  1.00  0.00     0.058 A 
ATOM     22  C   UNL     1     -42.058  25.160   7.756  1.00  0.00     0.012 A 
ATOM     23  C   UNL     1     -41.028  24.483   5.232  1.00  0.00     0.161 A 
ATOM     24  C   UNL     1     -42.117  26.078   6.705  1.00  0.00     0.051 A 
ATOM     25  C   UNL     1     -41.601  25.744   5.446  1.00  0.00     0.157 A 
BRANCH  23  26
ATOM     26  O   UNL     1     -40.529  24.182   3.954  1.00  0.00    -0.493 OA
ATOM     27  C   UNL     1     -39.182  23.812   3.682  1.00  0.00     0.278 C 
ENDBRANCH  23  26
BRANCH  25  28
ATOM     28  O   UNL     1     -41.656  26.663   4.399  1.00  0.00    -0.504 OA
ATOM     29  H   UNL     1     -42.307  26.552   3.629  1.00  0.00     0.293 HD
ENDBRANCH  25  28
ENDBRANCH  19  20
ENDBRANCH  16  18
ENDBRANCH   1  16
TORSDOF 10
ENDMDL
MODEL 4
REMARK VINA RESULT:    26.143      5.919      8.131
REMARK INTER + INTRA:          42.346
REMARK INTER:                  41.792
REMARK INTRA:                   0.554
REMARK UNBOUND:                 2.448
REMARK SMILES COc1cc(C=CC(=O)CC(=O)C=Cc2ccc(O)c(OC)c2)ccc1O
REMARK SMILES IDX 10 1 8 2 9 3 7 4 6 5 5 6 3 7 26 8 4 9 25 10 24 11 2 12 1 13
REMARK SMILES IDX 27 14 11 16 12 17 13 18 14 19 15 20 23 21 16 22 20 23 17 24
REMARK SMILES IDX 18 25 21 26 22 27 19 28
REMARK H PARENT 27 15 19 29
REMARK Flexibility Score: inf
ROOT
ATOM      1  C   UNL     1     -38.433  24.805   2.181  1.00  0.00     0.160 C 
ENDROOT
BRANCH   1   2
ATOM      2  C   UNL     1     -39.181  25.398   1.009  1.00  0.00     0.163 C 
ATOM      3  O   UNL     1     -40.216  24.827   0.569  1.00  0.00    -0.294 OA
BRANCH   2   4
ATOM      4  C   UNL     1     -38.745  26.649   0.354  1.00  0.00     0.048 C 
ATOM      5  C   UNL     1     -38.829  26.857  -0.969  1.00  0.00     0.012 C 
BRANCH   5   6
ATOM      6  C   UNL     1     -38.383  28.107  -1.634  1.00  0.00    -0.022 A 
ATOM      7  C   UNL     1     -36.634  29.794  -1.935  1.00  0.00     0.161 A 
ATOM      8  C   UNL     1     -37.445  30.456  -2.874  1.00  0.00     0.157 A 
ATOM      9  C   UNL     1     -37.110  28.616  -1.324  1.00  0.00     0.058 A 
ATOM     10  C   UNL     1     -38.704  29.942  -3.196  1.00  0.00     0.051 A 
ATOM     11  C   UNL     1     -39.170  28.776  -2.588  1.00  0.00     0.012 A 
BRANCH   7  12
ATOM     12  O   UNL     1     -35.371  30.329  -1.636  1.00  0.00    -0.493 OA
ATOM     13  C   UNL     1     -34.372  30.634  -2.605  1.00  0.00     0.278 C 
ENDBRANCH   7  12
BRANCH   8  14
ATOM     14  O   UNL     1     -37.014  31.625  -3.502  1.00  0.00    -0.504 OA
ATOM     15  H   UNL     1     -37.519  32.499  -3.418  1.00  0.00     0.293 HD
ENDBRANCH   8  14
ENDBRANCH   5   6
ENDBRANCH   2   4
ENDBRANCH   1   2
BRANCH   1  16
ATOM     16  C   UNL     1     -39.345  24.415   3.308  1.00  0.00     0.163 C 
ATOM     17  O   UNL     1     -39.120  23.346   3.937  1.00  0.00    -0.294 OA
BRANCH  16  18
ATOM     18  C   UNL     1     -40.549  25.226   3.594  1.00  0.00     0.048 C 
ATOM     19  C   UNL     1     -41.438  24.986   4.570  1.00  0.00     0.012 C 
BRANCH  19  20
ATOM     20  C   UNL     1     -41.276  23.983   5.645  1.00  0.00    -0.022 A 
ATOM     21  C   UNL     1     -40.357  24.177   6.690  1.00  0.00     0.058 A 
ATOM     22  C   UNL     1     -42.124  22.868   5.674  1.00  0.00     0.012 A 
ATOM     23  C   UNL     1     -40.243  23.231   7.729  1.00  0.00     0.161 A 
ATOM     24  C   UNL     1     -42.018  21.929   6.702  1.00  0.00     0.051 A 
ATOM     25  C   UNL     1     -41.078  22.106   7.726  1.00  0.00     0.157 A 
BRANCH  23  26
ATOM     26  O   UNL     1     -39.320  23.378   8.776  1.00  0.00    -0.493 OA
ATOM     27  C   UNL     1     -37.937  23.661   8.597  1.00  0.00     0.278 C 
ENDBRANCH  23  26
BRANCH  25  28
ATOM     28  O   UNL     1     -40.971  21.165   8.750  1.00  0.00    -0.504 OA
ATOM     29  H   UNL     1     -41.783  20.849   9.267  1.00  0.00     0.293 HD
ENDBRANCH  25  28
ENDBRANCH  19  20
ENDBRANCH  16  18
ENDBRANCH   1  16
TORSDOF 10
ENDMDL
