MODEL 1
REMARK VINA RESULT:    -4.400      0.000      0.000
REMARK INTER + INTRA:          -6.017
REMARK INTER:                  -5.943
REMARK INTRA:                  -0.073
REMARK UNBOUND:                -0.073
REMARK SMILES [NH3+]CCCC[C@H]([NH3+])C(=O)[O-]
REMARK SMILES IDX 4 1 3 2 2 3 1 4 5 8 6 9 7 10 8 14 9 15 10 16
REMARK H PARENT 1 5 1 6 1 7 7 11 7 12 7 13
REMARK Flexibility Score: inf
ROOT
ATOM      1  C   UNL     1     -15.660  13.667  -9.352  1.00  0.00     0.012 C 
ENDROOT
BRANCH   1   2
ATOM      2  C   UNL     1     -15.138  12.774 -10.487  1.00  0.00     0.061 C 
BRANCH   2   3
ATOM      3  C   UNL     1     -15.502  11.292 -10.290  1.00  0.00     0.258 C 
BRANCH   3   4
ATOM      4  N   UNL     1     -14.346  10.487  -9.893  1.00  0.00    -0.358 N 
ATOM      5  H   UNL     1     -13.485  11.076  -9.956  1.00  0.00     0.344 HD
ATOM      6  H   UNL     1     -14.232   9.671 -10.536  1.00  0.00     0.344 HD
ATOM      7  H   UNL     1     -14.454  10.154  -8.908  1.00  0.00     0.344 HD
ENDBRANCH   3   4
ENDBRANCH   2   3
ENDBRANCH   1   2
BRANCH   1   8
ATOM      8  C   UNL     1     -14.845  14.965  -9.256  1.00  0.00     0.072 C 
BRANCH   8   9
ATOM      9  C   UNL     1     -14.769  15.517  -7.816  1.00  0.00     0.227 C 
BRANCH   9  10
ATOM     10  N   UNL     1     -15.993  16.239  -7.443  1.00  0.00    -0.350 N 
ATOM     11  H   UNL     1     -16.389  15.863  -6.550  1.00  0.00     0.345 HD
ATOM     12  H   UNL     1     -15.791  17.258  -7.333  1.00  0.00     0.345 HD
ATOM     13  H   UNL     1     -16.709  16.141  -8.200  1.00  0.00     0.345 HD
ENDBRANCH   9  10
BRANCH   9  14
ATOM     14  C   UNL     1     -13.575  16.427  -7.689  1.00  0.00     0.099 C 
ATOM     15  O   UNL     1     -12.869  16.689  -8.697  1.00  0.00    -0.544 OA
ATOM     16  O   UNL     1     -13.260  16.999  -6.462  1.00  0.00    -0.544 OA
ENDBRANCH   9  14
ENDBRANCH   8   9
ENDBRANCH   1   8
TORSDOF 7
ENDMDL
MODEL 2
REMARK VINA RESULT:    -4.392      3.487      5.043
REMARK INTER + INTRA:          -6.005
REMARK INTER:                  -5.493
REMARK INTRA:                  -0.512
REMARK UNBOUND:                -0.073
REMARK SMILES [NH3+]CCCC[C@H]([NH3+])C(=O)[O-]
REMARK SMILES IDX 4 1 3 2 2 3 1 4 5 8 6 9 7 10 8 14 9 15 10 16
REMARK H PARENT 1 5 1 6 1 7 7 11 7 12 7 13
REMARK Flexibility Score: inf
ROOT
ATOM      1  C   UNL     1     -18.828  11.751 -11.613  1.00  0.00     0.012 C 
ENDROOT
BRANCH   1   2
ATOM      2  C   UNL     1     -19.150  13.249 -11.718  1.00  0.00     0.061 C 
BRANCH   2   3
ATOM      3  C   UNL     1     -19.951  13.768 -10.512  1.00  0.00     0.258 C 
BRANCH   3   4
ATOM      4  N   UNL     1     -19.208  14.770  -9.746  1.00  0.00    -0.358 N 
ATOM      5  H   UNL     1     -19.286  15.693 -10.229  1.00  0.00     0.344 HD
ATOM      6  H   UNL     1     -18.197  14.512  -9.693  1.00  0.00     0.344 HD
ATOM      7  H   UNL     1     -19.605  14.861  -8.783  1.00  0.00     0.344 HD
ENDBRANCH   3   4
ENDBRANCH   2   3
ENDBRANCH   1   2
BRANCH   1   8
ATOM      8  C   UNL     1     -17.631  11.511 -10.680  1.00  0.00     0.072 C 
BRANCH   8   9
ATOM      9  C   UNL     1     -16.413  12.391 -11.036  1.00  0.00     0.227 C 
BRANCH   9  10
ATOM     10  N   UNL     1     -15.275  11.584 -11.500  1.00  0.00    -0.350 N 
ATOM     11  H   UNL     1     -15.439  10.568 -11.310  1.00  0.00     0.345 HD
ATOM     12  H   UNL     1     -15.126  11.727 -12.524  1.00  0.00     0.345 HD
ATOM     13  H   UNL     1     -14.401  11.885 -11.009  1.00  0.00     0.345 HD
ENDBRANCH   9  10
BRANCH   9  14
ATOM     14  C   UNL     1     -16.011  13.203  -9.832  1.00  0.00     0.099 C 
ATOM     15  O   UNL     1     -14.902  13.798  -9.811  1.00  0.00    -0.544 OA
ATOM     16  O   UNL     1     -16.871  13.317  -8.747  1.00  0.00    -0.544 OA
ENDBRANCH   9  14
ENDBRANCH   8   9
ENDBRANCH   1   8
TORSDOF 7
ENDMDL
MODEL 3
REMARK VINA RESULT:    -4.337      3.600      5.484
REMARK INTER + INTRA:          -5.931
REMARK INTER:                  -5.859
REMARK INTRA:                  -0.072
REMARK UNBOUND:                -0.073
REMARK SMILES [NH3+]CCCC[C@H]([NH3+])C(=O)[O-]
REMARK SMILES IDX 4 1 3 2 2 3 1 4 5 8 6 9 7 10 8 14 9 15 10 16
REMARK H PARENT 1 5 1 6 1 7 7 11 7 12 7 13
REMARK Flexibility Score: inf
ROOT
ATOM      1  C   UNL     1     -15.169  14.961  -8.918  1.00  0.00     0.012 C 
ENDROOT
BRANCH   1   2
ATOM      2  C   UNL     1     -13.955  15.826  -9.291  1.00  0.00     0.061 C 
BRANCH   2   3
ATOM      3  C   UNL     1     -13.996  17.216  -8.634  1.00  0.00     0.258 C 
BRANCH   3   4
ATOM      4  N   UNL     1     -14.555  18.233  -9.527  1.00  0.00    -0.358 N 
ATOM      5  H   UNL     1     -15.266  18.791  -9.004  1.00  0.00     0.344 HD
ATOM      6  H   UNL     1     -15.028  17.782 -10.343  1.00  0.00     0.344 HD
ATOM      7  H   UNL     1     -13.802  18.878  -9.862  1.00  0.00     0.344 HD
ENDBRANCH   3   4
ENDBRANCH   2   3
ENDBRANCH   1   2
BRANCH   1   8
ATOM      8  C   UNL     1     -15.148  13.629  -9.682  1.00  0.00     0.072 C 
BRANCH   8   9
ATOM      9  C   UNL     1     -16.561  13.042  -9.896  1.00  0.00     0.227 C 
BRANCH   9  10
ATOM     10  N   UNL     1     -17.129  12.520  -8.645  1.00  0.00    -0.350 N 
ATOM     11  H   UNL     1     -17.680  11.648  -8.823  1.00  0.00     0.345 HD
ATOM     12  H   UNL     1     -16.367  12.315  -7.961  1.00  0.00     0.345 HD
ATOM     13  H   UNL     1     -17.756  13.237  -8.213  1.00  0.00     0.345 HD
ENDBRANCH   9  10
BRANCH   9  14
ATOM     14  C   UNL     1     -16.499  11.948 -10.930  1.00  0.00     0.099 C 
ATOM     15  O   UNL     1     -15.420  11.705 -11.530  1.00  0.00    -0.544 OA
ATOM     16  O   UNL     1     -17.627  11.188 -11.211  1.00  0.00    -0.544 OA
ENDBRANCH   9  14
ENDBRANCH   8   9
ENDBRANCH   1   8
TORSDOF 7
ENDMDL
MODEL 4
REMARK VINA RESULT:    -4.293      3.808      4.537
REMARK INTER + INTRA:          -5.872
REMARK INTER:                  -5.367
REMARK INTRA:                  -0.505
REMARK UNBOUND:                -0.073
REMARK SMILES [NH3+]CCCC[C@H]([NH3+])C(=O)[O-]
REMARK SMILES IDX 4 1 3 2 2 3 1 4 5 8 6 9 7 10 8 14 9 15 10 16
REMARK H PARENT 1 5 1 6 1 7 7 11 7 12 7 13
REMARK Flexibility Score: inf
ROOT
ATOM      1  C   UNL     1     -13.398  14.939  -5.386  1.00  0.00     0.012 C 
ENDROOT
BRANCH   1   2
ATOM      2  C   UNL     1     -14.113  15.173  -4.047  1.00  0.00     0.061 C 
BRANCH   2   3
ATOM      3  C   UNL     1     -15.407  14.353  -3.916  1.00  0.00     0.258 C 
BRANCH   3   4
ATOM      4  N   UNL     1     -15.893  13.876  -5.212  1.00  0.00    -0.358 N 
ATOM      5  H   UNL     1     -15.888  12.831  -5.212  1.00  0.00     0.344 HD
ATOM      6  H   UNL     1     -15.266  14.207  -5.980  1.00  0.00     0.344 HD
ATOM      7  H   UNL     1     -16.870  14.207  -5.380  1.00  0.00     0.344 HD
ENDBRANCH   3   4
ENDBRANCH   2   3
ENDBRANCH   1   2
BRANCH   1   8
ATOM      8  C   UNL     1     -13.137  16.269  -6.109  1.00  0.00     0.072 C 
BRANCH   8   9
ATOM      9  C   UNL     1     -13.877  16.368  -7.461  1.00  0.00     0.227 C 
BRANCH   9  10
ATOM     10  N   UNL     1     -13.078  17.079  -8.469  1.00  0.00    -0.350 N 
ATOM     11  H   UNL     1     -12.219  16.533  -8.715  1.00  0.00     0.345 HD
ATOM     12  H   UNL     1     -13.645  17.241  -9.331  1.00  0.00     0.345 HD
ATOM     13  H   UNL     1     -12.791  18.015  -8.100  1.00  0.00     0.345 HD
ENDBRANCH   9  10
BRANCH   9  14
ATOM     14  C   UNL     1     -15.196  17.068  -7.262  1.00  0.00     0.099 C 
ATOM     15  O   UNL     1     -15.310  18.293  -7.532  1.00  0.00    -0.544 OA
ATOM     16  O   UNL     1     -16.299  16.362  -6.799  1.00  0.00    -0.544 OA
ENDBRANCH   9  14
ENDBRANCH   8   9
ENDBRANCH   1   8
TORSDOF 7
ENDMDL
MODEL 5
REMARK VINA RESULT:    -4.276      3.756      5.752
REMARK INTER + INTRA:          -5.849
REMARK INTER:                  -5.769
REMARK INTRA:                  -0.080
REMARK UNBOUND:                -0.073
REMARK SMILES [NH3+]CCCC[C@H]([NH3+])C(=O)[O-]
REMARK SMILES IDX 4 1 3 2 2 3 1 4 5 8 6 9 7 10 8 14 9 15 10 16
REMARK H PARENT 1 5 1 6 1 7 7 11 7 12 7 13
REMARK Flexibility Score: inf
ROOT
ATOM      1  C   UNL     1     -15.257  14.067  -8.862  1.00  0.00     0.012 C 
ENDROOT
BRANCH   1   2
ATOM      2  C   UNL     1     -14.467  15.326  -9.249  1.00  0.00     0.061 C 
BRANCH   2   3
ATOM      3  C   UNL     1     -13.755  15.970  -8.048  1.00  0.00     0.258 C 
BRANCH   3   4
ATOM      4  N   UNL     1     -13.093  17.225  -8.406  1.00  0.00    -0.358 N 
ATOM      5  H   UNL     1     -13.213  17.908  -7.624  1.00  0.00     0.344 HD
ATOM      6  H   UNL     1     -13.524  17.633  -9.266  1.00  0.00     0.344 HD
ATOM      7  H   UNL     1     -12.070  17.068  -8.558  1.00  0.00     0.344 HD
ENDBRANCH   3   4
ENDBRANCH   2   3
ENDBRANCH   1   2
BRANCH   1   8
ATOM      8  C   UNL     1     -15.992  13.484 -10.078  1.00  0.00     0.072 C 
BRANCH   8   9
ATOM      9  C   UNL     1     -15.692  11.985 -10.294  1.00  0.00     0.227 C 
BRANCH   9  10
ATOM     10  N   UNL     1     -15.025  11.742 -11.580  1.00  0.00    -0.350 N 
ATOM     11  H   UNL     1     -13.984  11.782 -11.472  1.00  0.00     0.345 HD
ATOM     12  H   UNL     1     -15.299  10.807 -11.958  1.00  0.00     0.345 HD
ATOM     13  H   UNL     1     -15.322  12.463 -12.278  1.00  0.00     0.345 HD
ENDBRANCH   9  10
BRANCH   9  14
ATOM     14  C   UNL     1     -16.977  11.201 -10.224  1.00  0.00     0.099 C 
ATOM     15  O   UNL     1     -17.280  10.574  -9.176  1.00  0.00    -0.544 OA
ATOM     16  O   UNL     1     -17.844  11.182 -11.310  1.00  0.00    -0.544 OA
ENDBRANCH   9  14
ENDBRANCH   8   9
ENDBRANCH   1   8
TORSDOF 7
ENDMDL
MODEL 6
REMARK VINA RESULT:    -4.132      4.563      5.367
REMARK INTER + INTRA:          -5.654
REMARK INTER:                  -5.123
REMARK INTRA:                  -0.532
REMARK UNBOUND:                -0.073
REMARK SMILES [NH3+]CCCC[C@H]([NH3+])C(=O)[O-]
REMARK SMILES IDX 4 1 3 2 2 3 1 4 5 8 6 9 7 10 8 14 9 15 10 16
REMARK H PARENT 1 5 1 6 1 7 7 11 7 12 7 13
REMARK Flexibility Score: inf
ROOT
ATOM      1  C   UNL     1     -19.242  12.130 -11.671  1.00  0.00     0.012 C 
ENDROOT
BRANCH   1   2
ATOM      2  C   UNL     1     -20.125  12.100 -10.415  1.00  0.00     0.061 C 
BRANCH   2   3
ATOM      3  C   UNL     1     -20.402  10.671  -9.920  1.00  0.00     0.258 C 
BRANCH   3   4
ATOM      4  N   UNL     1     -19.429  10.235  -8.917  1.00  0.00    -0.358 N 
ATOM      5  H   UNL     1     -19.920  10.097  -8.005  1.00  0.00     0.344 HD
ATOM      6  H   UNL     1     -18.690  10.962  -8.785  1.00  0.00     0.344 HD
ATOM      7  H   UNL     1     -18.992   9.328  -9.203  1.00  0.00     0.344 HD
ENDBRANCH   3   4
ENDBRANCH   2   3
ENDBRANCH   1   2
BRANCH   1   8
ATOM      8  C   UNL     1     -18.067  13.103 -11.494  1.00  0.00     0.072 C 
BRANCH   8   9
ATOM      9  C   UNL     1     -17.238  12.812 -10.224  1.00  0.00     0.227 C 
BRANCH   9  10
ATOM     10  N   UNL     1     -16.404  13.960  -9.842  1.00  0.00    -0.350 N 
ATOM     11  H   UNL     1     -15.421  13.658  -9.651  1.00  0.00     0.345 HD
ATOM     12  H   UNL     1     -16.406  14.676 -10.603  1.00  0.00     0.345 HD
ATOM     13  H   UNL     1     -16.794  14.413  -8.983  1.00  0.00     0.345 HD
ENDBRANCH   9  10
BRANCH   9  14
ATOM     14  C   UNL     1     -16.371  11.602 -10.457  1.00  0.00     0.099 C 
ATOM     15  O   UNL     1     -15.550  11.585 -11.411  1.00  0.00    -0.544 OA
ATOM     16  O   UNL     1     -16.458  10.506  -9.607  1.00  0.00    -0.544 OA
ENDBRANCH   9  14
ENDBRANCH   8   9
ENDBRANCH   1   8
TORSDOF 7
ENDMDL
MODEL 7
REMARK VINA RESULT:    -4.123     16.257     17.283
REMARK INTER + INTRA:          -5.643
REMARK INTER:                  -5.078
REMARK INTRA:                  -0.565
REMARK UNBOUND:                -0.073
REMARK SMILES [NH3+]CCCC[C@H]([NH3+])C(=O)[O-]
REMARK SMILES IDX 4 1 3 2 2 3 1 4 5 8 6 9 7 10 8 14 9 15 10 16
REMARK H PARENT 1 5 1 6 1 7 7 11 7 12 7 13
REMARK Flexibility Score: inf
ROOT
ATOM      1  C   UNL     1      -2.095  11.762 -22.621  1.00  0.00     0.012 C 
ENDROOT
BRANCH   1   2
ATOM      2  C   UNL     1      -3.378  11.084 -23.125  1.00  0.00     0.061 C 
BRANCH   2   3
ATOM      3  C   UNL     1      -3.921  10.038 -22.137  1.00  0.00     0.258 C 
BRANCH   3   4
ATOM      4  N   UNL     1      -4.424  10.650 -20.906  1.00  0.00    -0.358 N 
ATOM      5  H   UNL     1      -5.144  11.366 -21.152  1.00  0.00     0.344 HD
ATOM      6  H   UNL     1      -3.649  11.128 -20.393  1.00  0.00     0.344 HD
ATOM      7  H   UNL     1      -4.866   9.927 -20.293  1.00  0.00     0.344 HD
ENDBRANCH   3   4
ENDBRANCH   2   3
ENDBRANCH   1   2
BRANCH   1   8
ATOM      8  C   UNL     1      -2.300  13.276 -22.465  1.00  0.00     0.072 C 
BRANCH   8   9
ATOM      9  C   UNL     1      -2.146  13.751 -21.003  1.00  0.00     0.227 C 
BRANCH   9  10
ATOM     10  N   UNL     1      -1.650  12.677 -20.131  1.00  0.00    -0.350 N 
ATOM     11  H   UNL     1      -1.949  11.740 -20.488  1.00  0.00     0.345 HD
ATOM     12  H   UNL     1      -0.607  12.712 -20.074  1.00  0.00     0.345 HD
ATOM     13  H   UNL     1      -2.022  12.806 -19.161  1.00  0.00     0.345 HD
ENDBRANCH   9  10
BRANCH   9  14
ATOM     14  C   UNL     1      -3.473  14.254 -20.497  1.00  0.00     0.099 C 
ATOM     15  O   UNL     1      -3.515  15.140 -19.603  1.00  0.00    -0.544 OA
ATOM     16  O   UNL     1      -4.657  13.758 -21.027  1.00  0.00    -0.544 OA
ENDBRANCH   9  14
ENDBRANCH   8   9
ENDBRANCH   1   8
TORSDOF 7
ENDMDL
MODEL 8
REMARK VINA RESULT:    -4.096     16.672     17.574
REMARK INTER + INTRA:          -5.606
REMARK INTER:                  -5.027
REMARK INTRA:                  -0.579
REMARK UNBOUND:                -0.073
REMARK SMILES [NH3+]CCCC[C@H]([NH3+])C(=O)[O-]
REMARK SMILES IDX 4 1 3 2 2 3 1 4 5 8 6 9 7 10 8 14 9 15 10 16
REMARK H PARENT 1 5 1 6 1 7 7 11 7 12 7 13
REMARK Flexibility Score: inf
ROOT
ATOM      1  C   UNL     1      -1.584  17.350 -21.846  1.00  0.00     0.012 C 
ENDROOT
BRANCH   1   2
ATOM      2  C   UNL     1      -1.287  18.059 -20.516  1.00  0.00     0.061 C 
BRANCH   2   3
ATOM      3  C   UNL     1      -2.445  18.959 -20.054  1.00  0.00     0.258 C 
BRANCH   3   4
ATOM      4  N   UNL     1      -3.554  18.187 -19.492  1.00  0.00    -0.358 N 
ATOM      5  H   UNL     1      -3.383  18.041 -18.471  1.00  0.00     0.344 HD
ATOM      6  H   UNL     1      -3.617  17.251 -19.952  1.00  0.00     0.344 HD
ATOM      7  H   UNL     1      -4.456  18.705 -19.610  1.00  0.00     0.344 HD
ENDBRANCH   3   4
ENDBRANCH   2   3
ENDBRANCH   1   2
BRANCH   1   8
ATOM      8  C   UNL     1      -1.646  15.828 -21.655  1.00  0.00     0.072 C 
BRANCH   8   9
ATOM      9  C   UNL     1      -3.041  15.243 -21.968  1.00  0.00     0.227 C 
BRANCH   9  10
ATOM     10  N   UNL     1      -3.927  16.244 -22.579  1.00  0.00    -0.350 N 
ATOM     11  H   UNL     1      -4.010  16.087 -23.611  1.00  0.00     0.345 HD
ATOM     12  H   UNL     1      -4.875  16.200 -22.143  1.00  0.00     0.345 HD
ATOM     13  H   UNL     1      -3.548  17.205 -22.411  1.00  0.00     0.345 HD
ENDBRANCH   9  10
BRANCH   9  14
ATOM     14  C   UNL     1      -3.660  14.714 -20.701  1.00  0.00     0.099 C 
ATOM     15  O   UNL     1      -4.606  13.885 -20.757  1.00  0.00    -0.544 OA
ATOM     16  O   UNL     1      -3.176  15.121 -19.464  1.00  0.00    -0.544 OA
ENDBRANCH   9  14
ENDBRANCH   8   9
ENDBRANCH   1   8
TORSDOF 7
ENDMDL
MODEL 9
REMARK VINA RESULT:    -4.080      5.047      6.128
REMARK INTER + INTRA:          -5.584
REMARK INTER:                  -5.083
REMARK INTRA:                  -0.500
REMARK UNBOUND:                -0.073
REMARK SMILES [NH3+]CCCC[C@H]([NH3+])C(=O)[O-]
REMARK SMILES IDX 4 1 3 2 2 3 1 4 5 8 6 9 7 10 8 14 9 15 10 16
REMARK H PARENT 1 5 1 6 1 7 7 11 7 12 7 13
REMARK Flexibility Score: inf
ROOT
ATOM      1  C   UNL     1     -19.182  11.859 -11.621  1.00  0.00     0.012 C 
ENDROOT
BRANCH   1   2
ATOM      2  C   UNL     1     -18.612  13.261 -11.885  1.00  0.00     0.061 C 
BRANCH   2   3
ATOM      3  C   UNL     1     -18.803  14.212 -10.692  1.00  0.00     0.258 C 
BRANCH   3   4
ATOM      4  N   UNL     1     -17.558  14.427  -9.952  1.00  0.00    -0.358 N 
ATOM      5  H   UNL     1     -17.744  14.303  -8.932  1.00  0.00     0.344 HD
ATOM      6  H   UNL     1     -17.207  15.400 -10.106  1.00  0.00     0.344 HD
ATOM      7  H   UNL     1     -16.834  13.734 -10.248  1.00  0.00     0.344 HD
ENDBRANCH   3   4
ENDBRANCH   2   3
ENDBRANCH   1   2
BRANCH   1   8
ATOM      8  C   UNL     1     -19.980  11.830 -10.308  1.00  0.00     0.072 C 
BRANCH   8   9
ATOM      9  C   UNL     1     -19.505  10.718  -9.347  1.00  0.00     0.227 C 
BRANCH   9  10
ATOM     10  N   UNL     1     -20.427  10.545  -8.216  1.00  0.00    -0.350 N 
ATOM     11  H   UNL     1     -19.981  10.857  -7.322  1.00  0.00     0.345 HD
ATOM     12  H   UNL     1     -21.301  11.094  -8.377  1.00  0.00     0.345 HD
ATOM     13  H   UNL     1     -20.698   9.539  -8.128  1.00  0.00     0.345 HD
ENDBRANCH   9  10
BRANCH   9  14
ATOM     14  C   UNL     1     -18.125  11.048  -8.841  1.00  0.00     0.099 C 
ATOM     15  O   UNL     1     -17.127  10.400  -9.254  1.00  0.00    -0.544 OA
ATOM     16  O   UNL     1     -17.942  12.081  -7.930  1.00  0.00    -0.544 OA
ENDBRANCH   9  14
ENDBRANCH   8   9
ENDBRANCH   1   8
TORSDOF 7
ENDMDL
