MODEL 1
REMARK VINA RESULT:    22.644      0.000      0.000
REMARK INTER + INTRA:          25.663
REMARK INTER:                  25.953
REMARK INTRA:                  -0.290
REMARK UNBOUND:                -0.290
REMARK SMILES O=C1C[C@H](c2ccc(O)cc2)Oc2cc(O)cc(O)c21
REMARK SMILES IDX 3 1 4 2 12 3 13 4 14 5 15 6 17 7 18 8 20 9 2 10 1 11 5 12
REMARK SMILES IDX 6 13 11 14 7 15 10 16 8 17 9 18 19 20 16 22
REMARK H PARENT 9 19 19 21 16 23
REMARK Flexibility Score: inf
ROOT
ATOM      1  C   UNL     1      -6.337   6.425  18.169  1.00  0.00     0.131 C 
ATOM      2  C   UNL     1      -6.225   7.466  17.046  1.00  0.00     0.211 C 
ATOM      3  O   UNL     1      -6.843   6.985  15.849  1.00  0.00    -0.484 OA
ATOM      4  C   UNL     1      -6.743   5.651  15.430  1.00  0.00     0.138 A 
ATOM      5  C   UNL     1      -7.128   5.320  14.129  1.00  0.00     0.093 A 
ATOM      6  C   UNL     1      -7.026   4.004  13.677  1.00  0.00     0.123 A 
ATOM      7  C   UNL     1      -6.561   3.006  14.541  1.00  0.00     0.093 A 
ATOM      8  C   UNL     1      -6.207   3.310  15.862  1.00  0.00     0.133 A 
ATOM      9  C   UNL     1      -6.264   4.656  16.310  1.00  0.00     0.102 A 
ATOM     10  C   UNL     1      -5.847   5.102  17.662  1.00  0.00     0.174 C 
ATOM     11  O   UNL     1      -5.054   4.426  18.368  1.00  0.00    -0.294 OA
ENDROOT
BRANCH   2  12
ATOM     12  C   UNL     1      -6.854   8.773  17.464  1.00  0.00    -0.007 A 
ATOM     13  C   UNL     1      -6.676   9.932  16.689  1.00  0.00     0.011 A 
ATOM     14  C   UNL     1      -7.672   8.831  18.606  1.00  0.00     0.011 A 
ATOM     15  C   UNL     1      -7.286  11.134  17.064  1.00  0.00     0.046 A 
ATOM     16  C   UNL     1      -8.280  10.034  18.979  1.00  0.00     0.046 A 
ATOM     17  C   UNL     1      -8.087  11.189  18.209  1.00  0.00     0.115 A 
BRANCH  17  18
ATOM     18  O   UNL     1      -8.689  12.393  18.570  1.00  0.00    -0.508 OA
ATOM     19  H   UNL     1      -9.656  12.591  18.340  1.00  0.00     0.293 HD
ENDBRANCH  17  18
ENDBRANCH   2  12
BRANCH   8  20
ATOM     20  O   UNL     1      -5.843   2.244  16.689  1.00  0.00    -0.507 OA
ATOM     21  H   UNL     1      -6.379   1.943  17.490  1.00  0.00     0.293 HD
ENDBRANCH   8  20
BRANCH   6  22
ATOM     22  O   UNL     1      -7.395   3.695  12.370  1.00  0.00    -0.508 OA
ATOM     23  H   UNL     1      -7.094   4.262  11.586  1.00  0.00     0.293 HD
ENDBRANCH   6  22
TORSDOF 4
ENDMDL
