MODEL 1
REMARK VINA RESULT:    15.245      0.000      0.000
REMARK INTER + INTRA:          40.231
REMARK INTER:                  40.200
REMARK INTRA:                   0.031
REMARK UNBOUND:                 0.031
REMARK SMILES CCCCCCCCCCCCCCCCCCCCCCCCCCCCCC(=O)[O-]
REMARK SMILES IDX 16 1 17 2 18 3 19 4 20 5 21 6 22 7 23 8 24 9 25 10 26 11
REMARK SMILES IDX 27 12 28 13 29 14 30 15 31 16 32 17 15 18 14 19 13 20 12 21
REMARK SMILES IDX 11 22 10 23 9 24 8 25 7 26 6 27 5 28 4 29 3 30 2 31 1 32
REMARK H PARENT
REMARK Flexibility Score: inf
ROOT
ATOM      1  C   UNL     1      -2.996  -4.192  -4.431  1.00  0.00     0.000 C 
ENDROOT
BRANCH   1   2
ATOM      2  C   UNL     1      -2.945  -4.282  -5.962  1.00  0.00     0.000 C 
BRANCH   2   3
ATOM      3  C   UNL     1      -2.439  -2.988  -6.624  1.00  0.00     0.000 C 
BRANCH   3   4
ATOM      4  C   UNL     1      -3.286  -2.488  -7.809  1.00  0.00     0.000 C 
BRANCH   4   5
ATOM      5  C   UNL     1      -2.534  -2.539  -9.147  1.00  0.00     0.000 C 
BRANCH   5   6
ATOM      6  C   UNL     1      -1.524  -3.696  -9.173  1.00  0.00     0.000 C 
BRANCH   6   7
ATOM      7  C   UNL     1      -0.880  -3.896 -10.558  1.00  0.00     0.000 C 
BRANCH   7   8
ATOM      8  C   UNL     1      -1.135  -2.759 -11.565  1.00  0.00     0.000 C 
BRANCH   8   9
ATOM      9  C   UNL     1       0.012  -2.498 -12.560  1.00  0.00     0.000 C 
BRANCH   9  10
ATOM     10  C   UNL     1       1.419  -2.658 -11.946  1.00  0.00     0.000 C 
BRANCH  10  11
ATOM     11  C   UNL     1       2.529  -2.101 -12.853  1.00  0.00     0.000 C 
BRANCH  11  12
ATOM     12  C   UNL     1       2.973  -3.105 -13.932  1.00  0.00     0.000 C 
BRANCH  12  13
ATOM     13  C   UNL     1       4.506  -3.174 -14.125  1.00  0.00     0.006 C 
BRANCH  13  14
ATOM     14  C   UNL     1       5.121  -4.504 -13.658  1.00  0.00     0.053 C 
BRANCH  14  15
ATOM     15  C   UNL     1       6.124  -4.299 -12.564  1.00  0.00     0.041 C 
ATOM     16  O   UNL     1       7.050  -5.134 -12.386  1.00  0.00    -0.550 OA
ATOM     17  O   UNL     1       6.053  -3.172 -11.753  1.00  0.00    -0.550 OA
ENDBRANCH  14  15
ENDBRANCH  13  14
ENDBRANCH  12  13
ENDBRANCH  11  12
ENDBRANCH  10  11
ENDBRANCH   9  10
ENDBRANCH   8   9
ENDBRANCH   7   8
ENDBRANCH   6   7
ENDBRANCH   5   6
ENDBRANCH   4   5
ENDBRANCH   3   4
ENDBRANCH   2   3
ENDBRANCH   1   2
BRANCH   1  18
ATOM     18  C   UNL     1      -4.440  -4.333  -3.923  1.00  0.00     0.000 C 
BRANCH  18  19
ATOM     19  C   UNL     1      -5.070  -5.695  -4.266  1.00  0.00     0.000 C 
BRANCH  19  20
ATOM     20  C   UNL     1      -6.550  -5.850  -3.872  1.00  0.00     0.000 C 
BRANCH  20  21
ATOM     21  C   UNL     1      -7.024  -7.314  -3.873  1.00  0.00     0.000 C 
BRANCH  21  22
ATOM     22  C   UNL     1      -8.407  -7.500  -3.221  1.00  0.00     0.000 C 
BRANCH  22  23
ATOM     23  C   UNL     1      -9.268  -6.225  -3.142  1.00  0.00     0.000 C 
BRANCH  23  24
ATOM     24  C   UNL     1     -10.734  -6.516  -2.780  1.00  0.00    -0.000 C 
BRANCH  24  25
ATOM     25  C   UNL     1     -11.044  -8.022  -2.707  1.00  0.00    -0.000 C 
BRANCH  25  26
ATOM     26  C   UNL     1     -11.114  -8.606  -1.284  1.00  0.00    -0.000 C 
BRANCH  26  27
ATOM     27  C   UNL     1      -9.732  -8.968  -0.713  1.00  0.00    -0.000 C 
BRANCH  27  28
ATOM     28  C   UNL     1      -8.868  -7.729  -0.430  1.00  0.00    -0.000 C 
BRANCH  28  29
ATOM     29  C   UNL     1      -7.699  -8.023   0.526  1.00  0.00    -0.000 C 
BRANCH  29  30
ATOM     30  C   UNL     1      -6.360  -8.208  -0.211  1.00  0.00    -0.000 C 
BRANCH  30  31
ATOM     31  C   UNL     1      -6.397  -9.218  -1.372  1.00  0.00    -0.003 C 
ATOM     32  C   UNL     1      -5.070  -9.953  -1.564  1.00  0.00     0.004 C 
ENDBRANCH  30  31
ENDBRANCH  29  30
ENDBRANCH  28  29
ENDBRANCH  27  28
ENDBRANCH  26  27
ENDBRANCH  25  26
ENDBRANCH  24  25
ENDBRANCH  23  24
ENDBRANCH  22  23
ENDBRANCH  21  22
ENDBRANCH  20  21
ENDBRANCH  19  20
ENDBRANCH  18  19
ENDBRANCH   1  18
TORSDOF 28
ENDMDL
MODEL 2
REMARK VINA RESULT:    15.852      5.605     12.954
REMARK INTER + INTRA:          41.831
REMARK INTER:                  39.936
REMARK INTRA:                   1.895
REMARK UNBOUND:                 0.031
REMARK SMILES CCCCCCCCCCCCCCCCCCCCCCCCCCCCCC(=O)[O-]
REMARK SMILES IDX 16 1 17 2 18 3 19 4 20 5 21 6 22 7 23 8 24 9 25 10 26 11
REMARK SMILES IDX 27 12 28 13 29 14 30 15 31 16 32 17 15 18 14 19 13 20 12 21
REMARK SMILES IDX 11 22 10 23 9 24 8 25 7 26 6 27 5 28 4 29 3 30 2 31 1 32
REMARK H PARENT
REMARK Flexibility Score: inf
ROOT
ATOM      1  C   UNL     1      -2.435  -4.086  -6.135  1.00  0.00     0.000 C 
ENDROOT
BRANCH   1   2
ATOM      2  C   UNL     1      -2.640  -4.445  -4.657  1.00  0.00     0.000 C 
BRANCH   2   3
ATOM      3  C   UNL     1      -4.120  -4.422  -4.232  1.00  0.00     0.000 C 
BRANCH   3   4
ATOM      4  C   UNL     1      -5.004  -5.494  -4.895  1.00  0.00     0.000 C 
BRANCH   4   5
ATOM      5  C   UNL     1      -6.362  -5.663  -4.199  1.00  0.00     0.000 C 
BRANCH   5   6
ATOM      6  C   UNL     1      -7.019  -6.999  -4.580  1.00  0.00     0.000 C 
BRANCH   6   7
ATOM      7  C   UNL     1      -7.796  -7.639  -3.413  1.00  0.00     0.000 C 
BRANCH   7   8
ATOM      8  C   UNL     1      -8.996  -6.820  -2.904  1.00  0.00     0.000 C 
BRANCH   8   9
ATOM      9  C   UNL     1     -10.133  -7.649  -2.276  1.00  0.00     0.000 C 
BRANCH   9  10
ATOM     10  C   UNL     1      -9.655  -8.951  -1.599  1.00  0.00     0.000 C 
BRANCH  10  11
ATOM     11  C   UNL     1      -9.973  -8.989  -0.095  1.00  0.00     0.000 C 
BRANCH  11  12
ATOM     12  C   UNL     1      -9.168  -7.952   0.709  1.00  0.00     0.000 C 
BRANCH  12  13
ATOM     13  C   UNL     1      -7.695  -7.822   0.257  1.00  0.00     0.006 C 
BRANCH  13  14
ATOM     14  C   UNL     1      -7.352  -8.687  -0.967  1.00  0.00     0.053 C 
BRANCH  14  15
ATOM     15  C   UNL     1      -5.873  -8.872  -1.121  1.00  0.00     0.041 C 
ATOM     16  O   UNL     1      -5.076  -7.985  -0.714  1.00  0.00    -0.550 OA
ATOM     17  O   UNL     1      -5.371 -10.035  -1.694  1.00  0.00    -0.550 OA
ENDBRANCH  14  15
ENDBRANCH  13  14
ENDBRANCH  12  13
ENDBRANCH  11  12
ENDBRANCH  10  11
ENDBRANCH   9  10
ENDBRANCH   8   9
ENDBRANCH   7   8
ENDBRANCH   6   7
ENDBRANCH   5   6
ENDBRANCH   4   5
ENDBRANCH   3   4
ENDBRANCH   2   3
ENDBRANCH   1   2
BRANCH   1  18
ATOM     18  C   UNL     1      -2.970  -2.678  -6.436  1.00  0.00     0.000 C 
BRANCH  18  19
ATOM     19  C   UNL     1      -2.380  -2.071  -7.723  1.00  0.00     0.000 C 
BRANCH  19  20
ATOM     20  C   UNL     1      -1.509  -3.028  -8.558  1.00  0.00     0.000 C 
BRANCH  20  21
ATOM     21  C   UNL     1      -2.329  -3.903  -9.522  1.00  0.00     0.000 C 
BRANCH  21  22
ATOM     22  C   UNL     1      -1.451  -4.806 -10.409  1.00  0.00     0.000 C 
BRANCH  22  23
ATOM     23  C   UNL     1      -2.180  -5.465 -11.594  1.00  0.00     0.000 C 
BRANCH  23  24
ATOM     24  C   UNL     1      -1.525  -5.150 -12.949  1.00  0.00    -0.000 C 
BRANCH  24  25
ATOM     25  C   UNL     1      -2.520  -5.206 -14.122  1.00  0.00    -0.000 C 
BRANCH  25  26
ATOM     26  C   UNL     1      -3.658  -6.232 -13.964  1.00  0.00    -0.000 C 
BRANCH  26  27
ATOM     27  C   UNL     1      -3.159  -7.687 -13.959  1.00  0.00    -0.000 C 
BRANCH  27  28
ATOM     28  C   UNL     1      -4.136  -8.642 -13.254  1.00  0.00    -0.000 C 
BRANCH  28  29
ATOM     29  C   UNL     1      -5.484  -8.764 -13.988  1.00  0.00    -0.000 C 
BRANCH  29  30
ATOM     30  C   UNL     1      -5.959 -10.221 -14.124  1.00  0.00    -0.000 C 
BRANCH  30  31
ATOM     31  C   UNL     1      -6.874 -10.711 -12.987  1.00  0.00    -0.003 C 
ATOM     32  C   UNL     1      -8.345 -10.364 -13.215  1.00  0.00     0.004 C 
ENDBRANCH  30  31
ENDBRANCH  29  30
ENDBRANCH  28  29
ENDBRANCH  27  28
ENDBRANCH  26  27
ENDBRANCH  25  26
ENDBRANCH  24  25
ENDBRANCH  23  24
ENDBRANCH  22  23
ENDBRANCH  21  22
ENDBRANCH  20  21
ENDBRANCH  19  20
ENDBRANCH  18  19
ENDBRANCH   1  18
TORSDOF 28
ENDMDL
MODEL 3
REMARK VINA RESULT:    16.337      4.260     14.178
REMARK INTER + INTRA:          43.110
REMARK INTER:                  42.445
REMARK INTRA:                   0.665
REMARK UNBOUND:                 0.031
REMARK SMILES CCCCCCCCCCCCCCCCCCCCCCCCCCCCCC(=O)[O-]
REMARK SMILES IDX 16 1 17 2 18 3 19 4 20 5 21 6 22 7 23 8 24 9 25 10 26 11
REMARK SMILES IDX 27 12 28 13 29 14 30 15 31 16 32 17 15 18 14 19 13 20 12 21
REMARK SMILES IDX 11 22 10 23 9 24 8 25 7 26 6 27 5 28 4 29 3 30 2 31 1 32
REMARK H PARENT
REMARK Flexibility Score: inf
ROOT
ATOM      1  C   UNL     1      -3.677  -3.383  -5.113  1.00  0.00     0.000 C 
ENDROOT
BRANCH   1   2
ATOM      2  C   UNL     1      -3.722  -4.588  -4.164  1.00  0.00     0.000 C 
BRANCH   2   3
ATOM      3  C   UNL     1      -5.090  -4.766  -3.482  1.00  0.00     0.000 C 
BRANCH   3   4
ATOM      4  C   UNL     1      -6.096  -5.637  -4.256  1.00  0.00     0.000 C 
BRANCH   4   5
ATOM      5  C   UNL     1      -6.955  -6.520  -3.339  1.00  0.00     0.000 C 
BRANCH   5   6
ATOM      6  C   UNL     1      -7.657  -7.631  -4.135  1.00  0.00     0.000 C 
BRANCH   6   7
ATOM      7  C   UNL     1      -7.886  -8.908  -3.304  1.00  0.00     0.000 C 
BRANCH   7   8
ATOM      8  C   UNL     1      -9.317  -9.474  -3.363  1.00  0.00     0.000 C 
BRANCH   8   9
ATOM      9  C   UNL     1     -10.266  -8.965  -2.261  1.00  0.00     0.000 C 
BRANCH   9  10
ATOM     10  C   UNL     1     -10.367  -7.426  -2.186  1.00  0.00     0.000 C 
BRANCH  10  11
ATOM     11  C   UNL     1      -9.349  -6.812  -1.210  1.00  0.00     0.000 C 
BRANCH  11  12
ATOM     12  C   UNL     1      -9.053  -7.725  -0.007  1.00  0.00     0.000 C 
BRANCH  12  13
ATOM     13  C   UNL     1      -7.555  -8.075   0.154  1.00  0.00     0.006 C 
BRANCH  13  14
ATOM     14  C   UNL     1      -7.036  -9.049  -0.917  1.00  0.00     0.053 C 
BRANCH  14  15
ATOM     15  C   UNL     1      -5.546  -8.978  -1.059  1.00  0.00     0.041 C 
ATOM     16  O   UNL     1      -4.917  -7.964  -0.656  1.00  0.00    -0.550 OA
ATOM     17  O   UNL     1      -4.846 -10.042  -1.616  1.00  0.00    -0.550 OA
ENDBRANCH  14  15
ENDBRANCH  13  14
ENDBRANCH  12  13
ENDBRANCH  11  12
ENDBRANCH  10  11
ENDBRANCH   9  10
ENDBRANCH   8   9
ENDBRANCH   7   8
ENDBRANCH   6   7
ENDBRANCH   5   6
ENDBRANCH   4   5
ENDBRANCH   3   4
ENDBRANCH   2   3
ENDBRANCH   1   2
BRANCH   1  18
ATOM     18  C   UNL     1      -2.725  -3.648  -6.290  1.00  0.00     0.000 C 
BRANCH  18  19
ATOM     19  C   UNL     1      -2.387  -2.377  -7.090  1.00  0.00     0.000 C 
BRANCH  19  20
ATOM     20  C   UNL     1      -2.398  -2.543  -8.621  1.00  0.00     0.000 C 
BRANCH  20  21
ATOM     21  C   UNL     1      -2.198  -4.001  -9.070  1.00  0.00     0.000 C 
BRANCH  21  22
ATOM     22  C   UNL     1      -1.591  -4.117 -10.481  1.00  0.00     0.000 C 
BRANCH  22  23
ATOM     23  C   UNL     1      -0.468  -3.111 -10.793  1.00  0.00     0.000 C 
BRANCH  23  24
ATOM     24  C   UNL     1      -0.472  -2.649 -12.260  1.00  0.00    -0.000 C 
BRANCH  24  25
ATOM     25  C   UNL     1       0.210  -3.654 -13.206  1.00  0.00    -0.000 C 
BRANCH  25  26
ATOM     26  C   UNL     1       1.558  -3.191 -13.789  1.00  0.00    -0.000 C 
BRANCH  26  27
ATOM     27  C   UNL     1       2.587  -2.822 -12.706  1.00  0.00    -0.000 C 
BRANCH  27  28
ATOM     28  C   UNL     1       3.544  -1.708 -13.158  1.00  0.00    -0.000 C 
BRANCH  28  29
ATOM     29  C   UNL     1       4.632  -2.211 -14.123  1.00  0.00    -0.000 C 
BRANCH  29  30
ATOM     30  C   UNL     1       5.504  -3.321 -13.511  1.00  0.00    -0.000 C 
BRANCH  30  31
ATOM     31  C   UNL     1       5.444  -3.416 -11.975  1.00  0.00    -0.003 C 
ATOM     32  C   UNL     1       6.751  -3.914 -11.358  1.00  0.00     0.004 C 
ENDBRANCH  30  31
ENDBRANCH  29  30
ENDBRANCH  28  29
ENDBRANCH  27  28
ENDBRANCH  26  27
ENDBRANCH  25  26
ENDBRANCH  24  25
ENDBRANCH  23  24
ENDBRANCH  22  23
ENDBRANCH  21  22
ENDBRANCH  20  21
ENDBRANCH  19  20
ENDBRANCH  18  19
ENDBRANCH   1  18
TORSDOF 28
ENDMDL
MODEL 4
REMARK VINA RESULT:    16.853      1.380      3.408
REMARK INTER + INTRA:          44.470
REMARK INTER:                  45.993
REMARK INTRA:                  -1.523
REMARK UNBOUND:                 0.031
REMARK SMILES CCCCCCCCCCCCCCCCCCCCCCCCCCCCCC(=O)[O-]
REMARK SMILES IDX 16 1 17 2 18 3 19 4 20 5 21 6 22 7 23 8 24 9 25 10 26 11
REMARK SMILES IDX 27 12 28 13 29 14 30 15 31 16 32 17 15 18 14 19 13 20 12 21
REMARK SMILES IDX 11 22 10 23 9 24 8 25 7 26 6 27 5 28 4 29 3 30 2 31 1 32
REMARK H PARENT
REMARK Flexibility Score: inf
ROOT
ATOM      1  C   UNL     1      -2.845  -3.063  -6.094  1.00  0.00     0.000 C 
ENDROOT
BRANCH   1   2
ATOM      2  C   UNL     1      -2.000  -3.060  -7.375  1.00  0.00     0.000 C 
BRANCH   2   3
ATOM      3  C   UNL     1      -2.850  -3.138  -8.656  1.00  0.00     0.000 C 
BRANCH   3   4
ATOM      4  C   UNL     1      -2.282  -2.369  -9.863  1.00  0.00     0.000 C 
BRANCH   4   5
ATOM      5  C   UNL     1      -0.890  -2.861 -10.285  1.00  0.00     0.000 C 
BRANCH   5   6
ATOM      6  C   UNL     1      -0.893  -4.372 -10.557  1.00  0.00     0.000 C 
BRANCH   6   7
ATOM      7  C   UNL     1      -0.903  -4.711 -12.060  1.00  0.00     0.000 C 
BRANCH   7   8
ATOM      8  C   UNL     1      -0.576  -3.531 -12.995  1.00  0.00     0.000 C 
BRANCH   8   9
ATOM      9  C   UNL     1       0.737  -3.672 -13.788  1.00  0.00     0.000 C 
BRANCH   9  10
ATOM     10  C   UNL     1       1.688  -2.466 -13.639  1.00  0.00     0.000 C 
BRANCH  10  11
ATOM     11  C   UNL     1       3.171  -2.864 -13.726  1.00  0.00     0.000 C 
BRANCH  11  12
ATOM     12  C   UNL     1       3.368  -4.338 -14.125  1.00  0.00     0.000 C 
BRANCH  12  13
ATOM     13  C   UNL     1       4.591  -5.006 -13.456  1.00  0.00     0.006 C 
BRANCH  13  14
ATOM     14  C   UNL     1       5.479  -4.019 -12.680  1.00  0.00     0.053 C 
BRANCH  14  15
ATOM     15  C   UNL     1       6.774  -3.758 -13.389  1.00  0.00     0.041 C 
ATOM     16  O   UNL     1       7.705  -4.604 -13.343  1.00  0.00    -0.550 OA
ATOM     17  O   UNL     1       6.943  -2.590 -14.125  1.00  0.00    -0.550 OA
ENDBRANCH  14  15
ENDBRANCH  13  14
ENDBRANCH  12  13
ENDBRANCH  11  12
ENDBRANCH  10  11
ENDBRANCH   9  10
ENDBRANCH   8   9
ENDBRANCH   7   8
ENDBRANCH   6   7
ENDBRANCH   5   6
ENDBRANCH   4   5
ENDBRANCH   3   4
ENDBRANCH   2   3
ENDBRANCH   1   2
BRANCH   1  18
ATOM     18  C   UNL     1      -2.625  -4.358  -5.297  1.00  0.00     0.000 C 
BRANCH  18  19
ATOM     19  C   UNL     1      -3.396  -4.384  -3.964  1.00  0.00     0.000 C 
BRANCH  19  20
ATOM     20  C   UNL     1      -2.528  -4.225  -2.701  1.00  0.00     0.000 C 
BRANCH  20  21
ATOM     21  C   UNL     1      -3.290  -4.540  -1.403  1.00  0.00     0.000 C 
BRANCH  21  22
ATOM     22  C   UNL     1      -4.238  -5.747  -1.539  1.00  0.00     0.000 C 
BRANCH  22  23
ATOM     23  C   UNL     1      -4.459  -6.553  -0.246  1.00  0.00     0.000 C 
BRANCH  23  24
ATOM     24  C   UNL     1      -4.506  -8.070  -0.490  1.00  0.00    -0.000 C 
BRANCH  24  25
ATOM     25  C   UNL     1      -5.911  -8.571  -0.871  1.00  0.00    -0.000 C 
BRANCH  25  26
ATOM     26  C   UNL     1      -6.999  -8.336   0.193  1.00  0.00    -0.000 C 
BRANCH  26  27
ATOM     27  C   UNL     1      -8.278  -7.702  -0.384  1.00  0.00    -0.000 C 
BRANCH  27  28
ATOM     28  C   UNL     1      -9.139  -8.713  -1.158  1.00  0.00    -0.000 C 
BRANCH  28  29
ATOM     29  C   UNL     1      -9.120  -8.473  -2.677  1.00  0.00    -0.000 C 
BRANCH  29  30
ATOM     30  C   UNL     1      -8.746  -7.027  -3.047  1.00  0.00    -0.000 C 
BRANCH  30  31
ATOM     31  C   UNL     1      -9.939  -6.063  -3.175  1.00  0.00    -0.003 C 
ATOM     32  C   UNL     1     -11.034  -6.331  -2.143  1.00  0.00     0.004 C 
ENDBRANCH  30  31
ENDBRANCH  29  30
ENDBRANCH  28  29
ENDBRANCH  27  28
ENDBRANCH  26  27
ENDBRANCH  25  26
ENDBRANCH  24  25
ENDBRANCH  23  24
ENDBRANCH  22  23
ENDBRANCH  21  22
ENDBRANCH  20  21
ENDBRANCH  19  20
ENDBRANCH  18  19
ENDBRANCH   1  18
TORSDOF 28
ENDMDL
MODEL 5
REMARK VINA RESULT:    17.081     10.326     12.718
REMARK INTER + INTRA:          45.072
REMARK INTER:                  45.577
REMARK INTRA:                  -0.505
REMARK UNBOUND:                 0.031
REMARK SMILES CCCCCCCCCCCCCCCCCCCCCCCCCCCCCC(=O)[O-]
REMARK SMILES IDX 16 1 17 2 18 3 19 4 20 5 21 6 22 7 23 8 24 9 25 10 26 11
REMARK SMILES IDX 27 12 28 13 29 14 30 15 31 16 32 17 15 18 14 19 13 20 12 21
REMARK SMILES IDX 11 22 10 23 9 24 8 25 7 26 6 27 5 28 4 29 3 30 2 31 1 32
REMARK H PARENT
REMARK Flexibility Score: inf
ROOT
ATOM      1  C   UNL     1       5.692  -2.569  -0.591  1.00  0.00     0.000 C 
ENDROOT
BRANCH   1   2
ATOM      2  C   UNL     1       6.894  -2.282  -1.501  1.00  0.00     0.000 C 
BRANCH   2   3
ATOM      3  C   UNL     1       7.102  -3.358  -2.581  1.00  0.00     0.000 C 
BRANCH   3   4
ATOM      4  C   UNL     1       5.827  -3.778  -3.337  1.00  0.00     0.000 C 
BRANCH   4   5
ATOM      5  C   UNL     1       6.090  -4.121  -4.810  1.00  0.00     0.000 C 
BRANCH   5   6
ATOM      6  C   UNL     1       5.103  -5.183  -5.317  1.00  0.00     0.000 C 
BRANCH   6   7
ATOM      7  C   UNL     1       5.408  -5.645  -6.756  1.00  0.00     0.000 C 
BRANCH   7   8
ATOM      8  C   UNL     1       6.098  -4.593  -7.644  1.00  0.00     0.000 C 
BRANCH   8   9
ATOM      9  C   UNL     1       6.471  -5.075  -9.059  1.00  0.00     0.000 C 
BRANCH   9  10
ATOM     10  C   UNL     1       6.829  -3.933 -10.033  1.00  0.00     0.000 C 
BRANCH  10  11
ATOM     11  C   UNL     1       6.924  -4.407 -11.494  1.00  0.00     0.000 C 
BRANCH  11  12
ATOM     12  C   UNL     1       6.597  -3.290 -12.502  1.00  0.00     0.000 C 
BRANCH  12  13
ATOM     13  C   UNL     1       6.126  -3.814 -13.878  1.00  0.00     0.006 C 
BRANCH  13  14
ATOM     14  C   UNL     1       4.616  -3.647 -14.112  1.00  0.00     0.053 C 
BRANCH  14  15
ATOM     15  C   UNL     1       4.111  -2.339 -13.582  1.00  0.00     0.041 C 
ATOM     16  O   UNL     1       4.694  -1.264 -13.883  1.00  0.00    -0.550 OA
ATOM     17  O   UNL     1       2.979  -2.304 -12.775  1.00  0.00    -0.550 OA
ENDBRANCH  14  15
ENDBRANCH  13  14
ENDBRANCH  12  13
ENDBRANCH  11  12
ENDBRANCH  10  11
ENDBRANCH   9  10
ENDBRANCH   8   9
ENDBRANCH   7   8
ENDBRANCH   6   7
ENDBRANCH   5   6
ENDBRANCH   4   5
ENDBRANCH   3   4
ENDBRANCH   2   3
ENDBRANCH   1   2
BRANCH   1  18
ATOM     18  C   UNL     1       4.945  -1.272  -0.244  1.00  0.00     0.000 C 
BRANCH  18  19
ATOM     19  C   UNL     1       5.138  -0.165  -1.297  1.00  0.00     0.000 C 
BRANCH  19  20
ATOM     20  C   UNL     1       4.258   1.084  -1.103  1.00  0.00     0.000 C 
BRANCH  20  21
ATOM     21  C   UNL     1       5.041   2.296  -0.569  1.00  0.00     0.000 C 
BRANCH  21  22
ATOM     22  C   UNL     1       4.380   3.642  -0.923  1.00  0.00     0.000 C 
BRANCH  22  23
ATOM     23  C   UNL     1       4.793   4.826  -0.030  1.00  0.00     0.000 C 
BRANCH  23  24
ATOM     24  C   UNL     1       3.594   5.508   0.650  1.00  0.00    -0.000 C 
BRANCH  24  25
ATOM     25  C   UNL     1       3.968   6.188   1.980  1.00  0.00    -0.000 C 
BRANCH  25  26
ATOM     26  C   UNL     1       2.984   5.940   3.138  1.00  0.00    -0.000 C 
BRANCH  26  27
ATOM     27  C   UNL     1       3.690   5.622   4.469  1.00  0.00    -0.000 C 
BRANCH  27  28
ATOM     28  C   UNL     1       2.776   4.881   5.458  1.00  0.00    -0.000 C 
BRANCH  28  29
ATOM     29  C   UNL     1       3.296   3.477   5.812  1.00  0.00    -0.000 C 
BRANCH  29  30
ATOM     30  C   UNL     1       2.565   2.360   5.047  1.00  0.00    -0.000 C 
BRANCH  30  31
ATOM     31  C   UNL     1       1.156   2.033   5.573  1.00  0.00    -0.003 C 
ATOM     32  C   UNL     1       0.357   3.280   5.950  1.00  0.00     0.004 C 
ENDBRANCH  30  31
ENDBRANCH  29  30
ENDBRANCH  28  29
ENDBRANCH  27  28
ENDBRANCH  26  27
ENDBRANCH  25  26
ENDBRANCH  24  25
ENDBRANCH  23  24
ENDBRANCH  22  23
ENDBRANCH  21  22
ENDBRANCH  20  21
ENDBRANCH  19  20
ENDBRANCH  18  19
ENDBRANCH   1  18
TORSDOF 28
ENDMDL
MODEL 6
REMARK VINA RESULT:    17.168      4.578     14.427
REMARK INTER + INTRA:          45.301
REMARK INTER:                  46.008
REMARK INTRA:                  -0.707
REMARK UNBOUND:                 0.031
REMARK SMILES CCCCCCCCCCCCCCCCCCCCCCCCCCCCCC(=O)[O-]
REMARK SMILES IDX 16 1 17 2 18 3 19 4 20 5 21 6 22 7 23 8 24 9 25 10 26 11
REMARK SMILES IDX 27 12 28 13 29 14 30 15 31 16 32 17 15 18 14 19 13 20 12 21
REMARK SMILES IDX 11 22 10 23 9 24 8 25 7 26 6 27 5 28 4 29 3 30 2 31 1 32
REMARK H PARENT
REMARK Flexibility Score: inf
ROOT
ATOM      1  C   UNL     1      -2.728  -4.246  -2.717  1.00  0.00     0.000 C 
ENDROOT
BRANCH   1   2
ATOM      2  C   UNL     1      -3.530  -3.858  -1.468  1.00  0.00     0.000 C 
BRANCH   2   3
ATOM      3  C   UNL     1      -3.628  -4.997  -0.438  1.00  0.00     0.000 C 
BRANCH   3   4
ATOM      4  C   UNL     1      -3.528  -4.556   1.033  1.00  0.00     0.000 C 
BRANCH   4   5
ATOM      5  C   UNL     1      -4.502  -5.308   1.952  1.00  0.00     0.000 C 
BRANCH   5   6
ATOM      6  C   UNL     1      -5.759  -4.470   2.235  1.00  0.00     0.000 C 
BRANCH   6   7
ATOM      7  C   UNL     1      -6.912  -5.303   2.827  1.00  0.00     0.000 C 
BRANCH   7   8
ATOM      8  C   UNL     1      -7.942  -5.809   1.800  1.00  0.00     0.000 C 
BRANCH   8   9
ATOM      9  C   UNL     1      -7.511  -7.056   1.004  1.00  0.00     0.000 C 
BRANCH   9  10
ATOM     10  C   UNL     1      -8.692  -7.881   0.450  1.00  0.00     0.000 C 
BRANCH  10  11
ATOM     11  C   UNL     1      -9.409  -7.183  -0.718  1.00  0.00     0.000 C 
BRANCH  11  12
ATOM     12  C   UNL     1     -10.445  -8.089  -1.407  1.00  0.00     0.000 C 
BRANCH  12  13
ATOM     13  C   UNL     1      -9.952  -8.694  -2.742  1.00  0.00     0.006 C 
BRANCH  13  14
ATOM     14  C   UNL     1      -8.573  -9.366  -2.638  1.00  0.00     0.053 C 
BRANCH  14  15
ATOM     15  C   UNL     1      -7.458  -8.374  -2.767  1.00  0.00     0.041 C 
ATOM     16  O   UNL     1      -7.553  -7.413  -3.576  1.00  0.00    -0.550 OA
ATOM     17  O   UNL     1      -6.322  -8.494  -1.974  1.00  0.00    -0.550 OA
ENDBRANCH  14  15
ENDBRANCH  13  14
ENDBRANCH  12  13
ENDBRANCH  11  12
ENDBRANCH  10  11
ENDBRANCH   9  10
ENDBRANCH   8   9
ENDBRANCH   7   8
ENDBRANCH   6   7
ENDBRANCH   5   6
ENDBRANCH   4   5
ENDBRANCH   3   4
ENDBRANCH   2   3
ENDBRANCH   1   2
BRANCH   1  18
ATOM     18  C   UNL     1      -3.509  -3.907  -3.997  1.00  0.00     0.000 C 
BRANCH  18  19
ATOM     19  C   UNL     1      -2.814  -4.404  -5.277  1.00  0.00     0.000 C 
BRANCH  19  20
ATOM     20  C   UNL     1      -2.467  -3.308  -6.302  1.00  0.00     0.000 C 
BRANCH  20  21
ATOM     21  C   UNL     1      -3.299  -3.406  -7.593  1.00  0.00     0.000 C 
BRANCH  21  22
ATOM     22  C   UNL     1      -2.693  -2.604  -8.760  1.00  0.00     0.000 C 
BRANCH  22  23
ATOM     23  C   UNL     1      -1.339  -3.124  -9.277  1.00  0.00     0.000 C 
BRANCH  23  24
ATOM     24  C   UNL     1      -1.131  -2.860 -10.777  1.00  0.00    -0.000 C 
BRANCH  24  25
ATOM     25  C   UNL     1       0.349  -2.654 -11.149  1.00  0.00    -0.000 C 
BRANCH  25  26
ATOM     26  C   UNL     1       0.704  -2.964 -12.615  1.00  0.00    -0.000 C 
BRANCH  26  27
ATOM     27  C   UNL     1       2.070  -2.396 -13.037  1.00  0.00    -0.000 C 
BRANCH  27  28
ATOM     28  C   UNL     1       3.062  -3.493 -13.451  1.00  0.00    -0.000 C 
BRANCH  28  29
ATOM     29  C   UNL     1       4.326  -2.931 -14.125  1.00  0.00    -0.000 C 
BRANCH  29  30
ATOM     30  C   UNL     1       5.352  -2.391 -13.113  1.00  0.00    -0.000 C 
BRANCH  30  31
ATOM     31  C   UNL     1       6.627  -3.241 -12.971  1.00  0.00    -0.003 C 
ATOM     32  C   UNL     1       6.347  -4.656 -12.467  1.00  0.00     0.004 C 
ENDBRANCH  30  31
ENDBRANCH  29  30
ENDBRANCH  28  29
ENDBRANCH  27  28
ENDBRANCH  26  27
ENDBRANCH  25  26
ENDBRANCH  24  25
ENDBRANCH  23  24
ENDBRANCH  22  23
ENDBRANCH  21  22
ENDBRANCH  20  21
ENDBRANCH  19  20
ENDBRANCH  18  19
ENDBRANCH   1  18
TORSDOF 28
ENDMDL
MODEL 7
REMARK VINA RESULT:    17.217      2.027      3.246
REMARK INTER + INTRA:          45.431
REMARK INTER:                  46.475
REMARK INTRA:                  -1.044
REMARK UNBOUND:                 0.031
REMARK SMILES CCCCCCCCCCCCCCCCCCCCCCCCCCCCCC(=O)[O-]
REMARK SMILES IDX 16 1 17 2 18 3 19 4 20 5 21 6 22 7 23 8 24 9 25 10 26 11
REMARK SMILES IDX 27 12 28 13 29 14 30 15 31 16 32 17 15 18 14 19 13 20 12 21
REMARK SMILES IDX 11 22 10 23 9 24 8 25 7 26 6 27 5 28 4 29 3 30 2 31 1 32
REMARK H PARENT
REMARK Flexibility Score: inf
ROOT
ATOM      1  C   UNL     1      -2.545  -4.074  -4.180  1.00  0.00     0.000 C 
ENDROOT
BRANCH   1   2
ATOM      2  C   UNL     1      -3.245  -3.759  -5.509  1.00  0.00     0.000 C 
BRANCH   2   3
ATOM      3  C   UNL     1      -2.262  -3.394  -6.635  1.00  0.00     0.000 C 
BRANCH   3   4
ATOM      4  C   UNL     1      -2.668  -2.175  -7.484  1.00  0.00     0.000 C 
BRANCH   4   5
ATOM      5  C   UNL     1      -2.653  -2.464  -8.992  1.00  0.00     0.000 C 
BRANCH   5   6
ATOM      6  C   UNL     1      -1.481  -3.382  -9.370  1.00  0.00     0.000 C 
BRANCH   6   7
ATOM      7  C   UNL     1      -1.358  -3.600 -10.891  1.00  0.00     0.000 C 
BRANCH   7   8
ATOM      8  C   UNL     1      -0.950  -5.024 -11.313  1.00  0.00     0.000 C 
BRANCH   8   9
ATOM      9  C   UNL     1      -0.793  -5.235 -12.831  1.00  0.00     0.000 C 
BRANCH   9  10
ATOM     10  C   UNL     1      -0.384  -3.961 -13.599  1.00  0.00     0.000 C 
BRANCH  10  11
ATOM     11  C   UNL     1       1.061  -4.023 -14.124  1.00  0.00     0.000 C 
BRANCH  11  12
ATOM     12  C   UNL     1       2.003  -3.055 -13.385  1.00  0.00     0.000 C 
BRANCH  12  13
ATOM     13  C   UNL     1       3.344  -2.814 -14.115  1.00  0.00     0.006 C 
BRANCH  13  14
ATOM     14  C   UNL     1       4.574  -2.988 -13.208  1.00  0.00     0.053 C 
BRANCH  14  15
ATOM     15  C   UNL     1       5.217  -4.329 -13.393  1.00  0.00     0.041 C 
ATOM     16  O   UNL     1       4.664  -5.205 -14.108  1.00  0.00    -0.550 OA
ATOM     17  O   UNL     1       6.442  -4.603 -12.795  1.00  0.00    -0.550 OA
ENDBRANCH  14  15
ENDBRANCH  13  14
ENDBRANCH  12  13
ENDBRANCH  11  12
ENDBRANCH  10  11
ENDBRANCH   9  10
ENDBRANCH   8   9
ENDBRANCH   7   8
ENDBRANCH   6   7
ENDBRANCH   5   6
ENDBRANCH   4   5
ENDBRANCH   3   4
ENDBRANCH   2   3
ENDBRANCH   1   2
BRANCH   1  18
ATOM     18  C   UNL     1      -3.572  -4.282  -3.056  1.00  0.00     0.000 C 
BRANCH  18  19
ATOM     19  C   UNL     1      -2.931  -4.727  -1.729  1.00  0.00     0.000 C 
BRANCH  19  20
ATOM     20  C   UNL     1      -3.605  -4.177  -0.458  1.00  0.00     0.000 C 
BRANCH  20  21
ATOM     21  C   UNL     1      -3.770  -5.238   0.644  1.00  0.00     0.000 C 
BRANCH  21  22
ATOM     22  C   UNL     1      -4.146  -4.632   2.010  1.00  0.00     0.000 C 
BRANCH  22  23
ATOM     23  C   UNL     1      -5.489  -5.112   2.589  1.00  0.00     0.000 C 
BRANCH  23  24
ATOM     24  C   UNL     1      -6.361  -5.840   1.553  1.00  0.00    -0.000 C 
BRANCH  24  25
ATOM     25  C   UNL     1      -7.840  -5.930   1.972  1.00  0.00    -0.000 C 
BRANCH  25  26
ATOM     26  C   UNL     1      -8.640  -7.063   1.305  1.00  0.00    -0.000 C 
BRANCH  26  27
ATOM     27  C   UNL     1      -8.517  -7.064  -0.229  1.00  0.00    -0.000 C 
BRANCH  27  28
ATOM     28  C   UNL     1      -9.040  -8.364  -0.862  1.00  0.00    -0.000 C 
BRANCH  28  29
ATOM     29  C   UNL     1      -8.761  -8.446  -2.373  1.00  0.00    -0.000 C 
BRANCH  29  30
ATOM     30  C   UNL     1      -7.277  -8.693  -2.693  1.00  0.00    -0.000 C 
BRANCH  30  31
ATOM     31  C   UNL     1      -6.346  -8.709  -1.466  1.00  0.00    -0.003 C 
ATOM     32  C   UNL     1      -5.266  -9.787  -1.551  1.00  0.00     0.004 C 
ENDBRANCH  30  31
ENDBRANCH  29  30
ENDBRANCH  28  29
ENDBRANCH  27  28
ENDBRANCH  26  27
ENDBRANCH  25  26
ENDBRANCH  24  25
ENDBRANCH  23  24
ENDBRANCH  22  23
ENDBRANCH  21  22
ENDBRANCH  20  21
ENDBRANCH  19  20
ENDBRANCH  18  19
ENDBRANCH   1  18
TORSDOF 28
ENDMDL
MODEL 8
REMARK VINA RESULT:    17.346      5.349     14.689
REMARK INTER + INTRA:          45.771
REMARK INTER:                  47.310
REMARK INTRA:                  -1.540
REMARK UNBOUND:                 0.031
REMARK SMILES CCCCCCCCCCCCCCCCCCCCCCCCCCCCCC(=O)[O-]
REMARK SMILES IDX 16 1 17 2 18 3 19 4 20 5 21 6 22 7 23 8 24 9 25 10 26 11
REMARK SMILES IDX 27 12 28 13 29 14 30 15 31 16 32 17 15 18 14 19 13 20 12 21
REMARK SMILES IDX 11 22 10 23 9 24 8 25 7 26 6 27 5 28 4 29 3 30 2 31 1 32
REMARK H PARENT
REMARK Flexibility Score: inf
ROOT
ATOM      1  C   UNL     1      -3.242  -2.895  -5.979  1.00  0.00     0.000 C 
ENDROOT
BRANCH   1   2
ATOM      2  C   UNL     1      -3.028  -4.192  -5.188  1.00  0.00     0.000 C 
BRANCH   2   3
ATOM      3  C   UNL     1      -3.778  -4.207  -3.844  1.00  0.00     0.000 C 
BRANCH   3   4
ATOM      4  C   UNL     1      -2.891  -4.432  -2.606  1.00  0.00     0.000 C 
BRANCH   4   5
ATOM      5  C   UNL     1      -3.700  -4.738  -1.337  1.00  0.00     0.000 C 
BRANCH   5   6
ATOM      6  C   UNL     1      -3.630  -6.231  -0.980  1.00  0.00     0.000 C 
BRANCH   6   7
ATOM      7  C   UNL     1      -4.883  -6.727  -0.234  1.00  0.00     0.000 C 
BRANCH   7   8
ATOM      8  C   UNL     1      -4.991  -8.256  -0.088  1.00  0.00     0.000 C 
BRANCH   8   9
ATOM      9  C   UNL     1      -6.008  -8.931  -1.028  1.00  0.00     0.000 C 
BRANCH   9  10
ATOM     10  C   UNL     1      -5.712  -8.714  -2.527  1.00  0.00     0.000 C 
BRANCH  10  11
ATOM     11  C   UNL     1      -6.966  -8.855  -3.407  1.00  0.00     0.000 C 
BRANCH  11  12
ATOM     12  C   UNL     1      -7.734  -7.530  -3.563  1.00  0.00     0.000 C 
BRANCH  12  13
ATOM     13  C   UNL     1      -8.681  -7.217  -2.381  1.00  0.00     0.006 C 
BRANCH  13  14
ATOM     14  C   UNL     1      -9.760  -8.289  -2.161  1.00  0.00     0.053 C 
BRANCH  14  15
ATOM     15  C   UNL     1      -9.939  -8.611  -0.708  1.00  0.00     0.041 C 
ATOM     16  O   UNL     1     -10.822  -9.431  -0.343  1.00  0.00    -0.550 OA
ATOM     17  O   UNL     1      -9.113  -8.023   0.243  1.00  0.00    -0.550 OA
ENDBRANCH  14  15
ENDBRANCH  13  14
ENDBRANCH  12  13
ENDBRANCH  11  12
ENDBRANCH  10  11
ENDBRANCH   9  10
ENDBRANCH   8   9
ENDBRANCH   7   8
ENDBRANCH   6   7
ENDBRANCH   5   6
ENDBRANCH   4   5
ENDBRANCH   3   4
ENDBRANCH   2   3
ENDBRANCH   1   2
BRANCH   1  18
ATOM     18  C   UNL     1      -2.010  -2.567  -6.838  1.00  0.00     0.000 C 
BRANCH  18  19
ATOM     19  C   UNL     1      -2.313  -2.550  -8.347  1.00  0.00     0.000 C 
BRANCH  19  20
ATOM     20  C   UNL     1      -1.842  -3.793  -9.125  1.00  0.00     0.000 C 
BRANCH  20  21
ATOM     21  C   UNL     1      -0.682  -3.494 -10.090  1.00  0.00     0.000 C 
BRANCH  21  22
ATOM     22  C   UNL     1      -1.159  -3.133 -11.510  1.00  0.00     0.000 C 
BRANCH  22  23
ATOM     23  C   UNL     1      -0.293  -3.693 -12.652  1.00  0.00     0.000 C 
BRANCH  23  24
ATOM     24  C   UNL     1       0.749  -2.684 -13.162  1.00  0.00    -0.000 C 
BRANCH  24  25
ATOM     25  C   UNL     1       1.977  -3.361 -13.798  1.00  0.00    -0.000 C 
BRANCH  25  26
ATOM     26  C   UNL     1       3.149  -2.416 -14.122  1.00  0.00    -0.000 C 
BRANCH  26  27
ATOM     27  C   UNL     1       4.293  -2.504 -13.098  1.00  0.00    -0.000 C 
BRANCH  27  28
ATOM     28  C   UNL     1       5.663  -2.716 -13.761  1.00  0.00    -0.000 C 
BRANCH  28  29
ATOM     29  C   UNL     1       6.635  -3.519 -12.877  1.00  0.00    -0.000 C 
BRANCH  29  30
ATOM     30  C   UNL     1       5.915  -4.346 -11.798  1.00  0.00    -0.000 C 
BRANCH  30  31
ATOM     31  C   UNL     1       6.403  -4.094 -10.360  1.00  0.00    -0.003 C 
ATOM     32  C   UNL     1       7.721  -3.323 -10.304  1.00  0.00     0.004 C 
ENDBRANCH  30  31
ENDBRANCH  29  30
ENDBRANCH  28  29
ENDBRANCH  27  28
ENDBRANCH  26  27
ENDBRANCH  25  26
ENDBRANCH  24  25
ENDBRANCH  23  24
ENDBRANCH  22  23
ENDBRANCH  21  22
ENDBRANCH  20  21
ENDBRANCH  19  20
ENDBRANCH  18  19
ENDBRANCH   1  18
TORSDOF 28
ENDMDL
MODEL 9
REMARK VINA RESULT:    17.494      1.781      3.451
REMARK INTER + INTRA:          46.161
REMARK INTER:                  47.781
REMARK INTRA:                  -1.620
REMARK UNBOUND:                 0.031
REMARK SMILES CCCCCCCCCCCCCCCCCCCCCCCCCCCCCC(=O)[O-]
REMARK SMILES IDX 16 1 17 2 18 3 19 4 20 5 21 6 22 7 23 8 24 9 25 10 26 11
REMARK SMILES IDX 27 12 28 13 29 14 30 15 31 16 32 17 15 18 14 19 13 20 12 21
REMARK SMILES IDX 11 22 10 23 9 24 8 25 7 26 6 27 5 28 4 29 3 30 2 31 1 32
REMARK H PARENT
REMARK Flexibility Score: inf
ROOT
ATOM      1  C   UNL     1      -2.531  -4.206  -4.070  1.00  0.00     0.000 C 
ENDROOT
BRANCH   1   2
ATOM      2  C   UNL     1      -3.233  -3.934  -5.407  1.00  0.00     0.000 C 
BRANCH   2   3
ATOM      3  C   UNL     1      -2.270  -3.446  -6.504  1.00  0.00     0.000 C 
BRANCH   3   4
ATOM      4  C   UNL     1      -2.788  -2.268  -7.348  1.00  0.00     0.000 C 
BRANCH   4   5
ATOM      5  C   UNL     1      -2.922  -2.612  -8.838  1.00  0.00     0.000 C 
BRANCH   5   6
ATOM      6  C   UNL     1      -1.727  -3.444  -9.326  1.00  0.00     0.000 C 
BRANCH   6   7
ATOM      7  C   UNL     1      -1.790  -3.758 -10.833  1.00  0.00     0.000 C 
BRANCH   7   8
ATOM      8  C   UNL     1      -1.110  -5.074 -11.253  1.00  0.00     0.000 C 
BRANCH   8   9
ATOM      9  C   UNL     1      -0.924  -5.257 -12.772  1.00  0.00     0.000 C 
BRANCH   9  10
ATOM     10  C   UNL     1      -0.458  -3.979 -13.502  1.00  0.00     0.000 C 
BRANCH  10  11
ATOM     11  C   UNL     1       0.940  -4.127 -14.125  1.00  0.00     0.000 C 
BRANCH  11  12
ATOM     12  C   UNL     1       1.927  -3.055 -13.629  1.00  0.00     0.000 C 
BRANCH  12  13
ATOM     13  C   UNL     1       3.413  -3.447 -13.808  1.00  0.00     0.006 C 
BRANCH  13  14
ATOM     14  C   UNL     1       4.383  -2.271 -13.616  1.00  0.00     0.053 C 
BRANCH  14  15
ATOM     15  C   UNL     1       5.626  -2.686 -12.890  1.00  0.00     0.041 C 
ATOM     16  O   UNL     1       5.711  -2.541 -11.641  1.00  0.00    -0.550 OA
ATOM     17  O   UNL     1       6.684  -3.259 -13.587  1.00  0.00    -0.550 OA
ENDBRANCH  14  15
ENDBRANCH  13  14
ENDBRANCH  12  13
ENDBRANCH  11  12
ENDBRANCH  10  11
ENDBRANCH   9  10
ENDBRANCH   8   9
ENDBRANCH   7   8
ENDBRANCH   6   7
ENDBRANCH   5   6
ENDBRANCH   4   5
ENDBRANCH   3   4
ENDBRANCH   2   3
ENDBRANCH   1   2
BRANCH   1  18
ATOM     18  C   UNL     1      -3.546  -4.254  -2.917  1.00  0.00     0.000 C 
BRANCH  18  19
ATOM     19  C   UNL     1      -2.955  -4.825  -1.615  1.00  0.00     0.000 C 
BRANCH  19  20
ATOM     20  C   UNL     1      -3.518  -4.217  -0.318  1.00  0.00     0.000 C 
BRANCH  20  21
ATOM     21  C   UNL     1      -3.693  -5.252   0.807  1.00  0.00     0.000 C 
BRANCH  21  22
ATOM     22  C   UNL     1      -5.079  -5.186   1.475  1.00  0.00     0.000 C 
BRANCH  22  23
ATOM     23  C   UNL     1      -5.990  -6.398   1.210  1.00  0.00     0.000 C 
BRANCH  23  24
ATOM     24  C   UNL     1      -5.803  -6.989  -0.198  1.00  0.00    -0.000 C 
BRANCH  24  25
ATOM     25  C   UNL     1      -6.441  -8.381  -0.352  1.00  0.00    -0.000 C 
BRANCH  25  26
ATOM     26  C   UNL     1      -6.286  -9.021  -1.744  1.00  0.00    -0.000 C 
BRANCH  26  27
ATOM     27  C   UNL     1      -6.686  -8.074  -2.889  1.00  0.00    -0.000 C 
BRANCH  27  28
ATOM     28  C   UNL     1      -7.940  -8.553  -3.638  1.00  0.00    -0.000 C 
BRANCH  28  29
ATOM     29  C   UNL     1      -8.978  -9.204  -2.708  1.00  0.00    -0.000 C 
BRANCH  29  30
ATOM     30  C   UNL     1      -9.963  -8.185  -2.107  1.00  0.00    -0.000 C 
BRANCH  30  31
ATOM     31  C   UNL     1      -9.600  -7.692  -0.695  1.00  0.00    -0.003 C 
ATOM     32  C   UNL     1      -9.922  -8.716   0.394  1.00  0.00     0.004 C 
ENDBRANCH  30  31
ENDBRANCH  29  30
ENDBRANCH  28  29
ENDBRANCH  27  28
ENDBRANCH  26  27
ENDBRANCH  25  26
ENDBRANCH  24  25
ENDBRANCH  23  24
ENDBRANCH  22  23
ENDBRANCH  21  22
ENDBRANCH  20  21
ENDBRANCH  19  20
ENDBRANCH  18  19
ENDBRANCH   1  18
TORSDOF 28
ENDMDL
