MODEL 1
REMARK VINA RESULT:    -0.068      0.000      0.000
REMARK INTER + INTRA:          -0.068
REMARK INTER:                  -0.068
REMARK INTRA:                   0.000
REMARK UNBOUND:                 0.000
REMARK SMILES CC1(C)O[C@]2(C)CC[C@H]1CC2
REMARK SMILES IDX 1 1 2 2 9 3 10 4 11 5 5 6 4 7 7 8 8 9 6 10 3 11
REMARK H PARENT
REMARK Flexibility Score: inf
ROOT
ATOM      1  C   UNL     1      40.248  10.374  10.998  1.00  0.00     0.042 C 
ATOM      2  C   UNL     1      40.417   9.061  11.795  1.00  0.00     0.066 C 
ATOM      3  C   UNL     1      41.927   8.840  12.191  1.00  0.00     0.021 C 
ATOM      4  C   UNL     1      42.046   7.490  12.939  1.00  0.00     0.009 C 
ATOM      5  C   UNL     1      41.374   6.380  12.094  1.00  0.00     0.035 C 
ATOM      6  C   UNL     1      40.888   6.971  10.738  1.00  0.00     0.066 C 
ATOM      7  O   UNL     1      39.913   7.984  10.991  1.00  0.00    -0.369 OA
ATOM      8  C   UNL     1      42.102   7.603   9.998  1.00  0.00     0.035 C 
ATOM      9  C   UNL     1      42.756   8.684  10.893  1.00  0.00     0.009 C 
ATOM     10  C   UNL     1      40.252   5.875   9.878  1.00  0.00     0.042 C 
ATOM     11  C   UNL     1      39.533   9.173  13.056  1.00  0.00     0.042 C 
ENDROOT
TORSDOF 0
ENDMDL
MODEL 2
REMARK VINA RESULT:     1.717      0.908      3.248
REMARK INTER + INTRA:           1.717
REMARK INTER:                   1.717
REMARK INTRA:                   0.000
REMARK UNBOUND:                 0.000
REMARK SMILES CC1(C)O[C@]2(C)CC[C@H]1CC2
REMARK SMILES IDX 1 1 2 2 9 3 10 4 11 5 5 6 4 7 7 8 8 9 6 10 3 11
REMARK H PARENT
REMARK Flexibility Score: inf
ROOT
ATOM      1  C   UNL     1      40.249   5.888  12.234  1.00  0.00     0.042 C 
ATOM      2  C   UNL     1      40.862   6.917  11.259  1.00  0.00     0.066 C 
ATOM      3  C   UNL     1      42.287   7.375  11.755  1.00  0.00     0.021 C 
ATOM      4  C   UNL     1      42.830   8.440  10.773  1.00  0.00     0.009 C 
ATOM      5  C   UNL     1      41.765   9.549  10.585  1.00  0.00     0.035 C 
ATOM      6  C   UNL     1      40.547   9.272  11.514  1.00  0.00     0.066 C 
ATOM      7  O   UNL     1      39.954   8.024  11.150  1.00  0.00    -0.369 OA
ATOM      8  C   UNL     1      41.042   9.192  12.986  1.00  0.00     0.035 C 
ATOM      9  C   UNL     1      42.124   8.093  13.117  1.00  0.00     0.009 C 
ATOM     10  C   UNL     1      39.500  10.380  11.363  1.00  0.00     0.042 C 
ATOM     11  C   UNL     1      40.958   6.238   9.875  1.00  0.00     0.042 C 
ENDROOT
TORSDOF 0
ENDMDL
MODEL 3
REMARK VINA RESULT:     1.862      1.245      2.867
REMARK INTER + INTRA:           1.862
REMARK INTER:                   1.862
REMARK INTRA:                   0.000
REMARK UNBOUND:                 0.000
REMARK SMILES CC1(C)O[C@]2(C)CC[C@H]1CC2
REMARK SMILES IDX 1 1 2 2 9 3 10 4 11 5 5 6 4 7 7 8 8 9 6 10 3 11
REMARK H PARENT
REMARK Flexibility Score: inf
ROOT
ATOM      1  C   UNL     1      39.833   6.286  10.583  1.00  0.00     0.042 C 
ATOM      2  C   UNL     1      40.817   6.905  11.601  1.00  0.00     0.066 C 
ATOM      3  C   UNL     1      40.250   8.262  12.170  1.00  0.00     0.021 C 
ATOM      4  C   UNL     1      41.295   8.862  13.141  1.00  0.00     0.009 C 
ATOM      5  C   UNL     1      42.671   8.920  12.434  1.00  0.00     0.035 C 
ATOM      6  C   UNL     1      42.526   8.445  10.959  1.00  0.00     0.066 C 
ATOM      7  O   UNL     1      42.080   7.088  10.945  1.00  0.00    -0.369 OA
ATOM      8  C   UNL     1      41.472   9.337  10.242  1.00  0.00     0.035 C 
ATOM      9  C   UNL     1      40.125   9.269  11.000  1.00  0.00     0.009 C 
ATOM     10  C   UNL     1      43.875   8.530  10.237  1.00  0.00     0.042 C 
ATOM     11  C   UNL     1      41.011   5.876  12.736  1.00  0.00     0.042 C 
ENDROOT
TORSDOF 0
ENDMDL
MODEL 4
REMARK VINA RESULT:     2.218      1.299      3.022
REMARK INTER + INTRA:           2.218
REMARK INTER:                   2.218
REMARK INTRA:                   0.000
REMARK UNBOUND:                 0.000
REMARK SMILES CC1(C)O[C@]2(C)CC[C@H]1CC2
REMARK SMILES IDX 1 1 2 2 9 3 10 4 11 5 5 6 4 7 7 8 8 9 6 10 3 11
REMARK H PARENT
REMARK Flexibility Score: inf
ROOT
ATOM      1  C   UNL     1      40.812   6.362  12.877  1.00  0.00     0.042 C 
ATOM      2  C   UNL     1      40.912   7.828  12.401  1.00  0.00     0.066 C 
ATOM      3  C   UNL     1      40.071   8.046  11.085  1.00  0.00     0.021 C 
ATOM      4  C   UNL     1      40.249   9.513  10.626  1.00  0.00     0.009 C 
ATOM      5  C   UNL     1      41.760   9.843  10.553  1.00  0.00     0.035 C 
ATOM      6  C   UNL     1      42.594   8.569  10.874  1.00  0.00     0.066 C 
ATOM      7  O   UNL     1      42.300   8.139  12.204  1.00  0.00    -0.369 OA
ATOM      8  C   UNL     1      42.202   7.443   9.875  1.00  0.00     0.035 C 
ATOM      9  C   UNL     1      40.681   7.170   9.964  1.00  0.00     0.009 C 
ATOM     10  C   UNL     1      44.092   8.874  10.773  1.00  0.00     0.042 C 
ATOM     11  C   UNL     1      40.378   8.720  13.544  1.00  0.00     0.042 C 
ENDROOT
TORSDOF 0
ENDMDL
MODEL 5
REMARK VINA RESULT:     2.811      0.974      2.339
REMARK INTER + INTRA:           2.811
REMARK INTER:                   2.811
REMARK INTRA:                   0.000
REMARK UNBOUND:                 0.000
REMARK SMILES CC1(C)O[C@]2(C)CC[C@H]1CC2
REMARK SMILES IDX 1 1 2 2 9 3 10 4 11 5 5 6 4 7 7 8 8 9 6 10 3 11
REMARK H PARENT
REMARK Flexibility Score: inf
ROOT
ATOM      1  C   UNL     1      43.630   8.684  10.746  1.00  0.00     0.042 C 
ATOM      2  C   UNL     1      42.100   8.842  10.892  1.00  0.00     0.066 C 
ATOM      3  C   UNL     1      41.681   8.830  12.412  1.00  0.00     0.021 C 
ATOM      4  C   UNL     1      40.140   8.939  12.498  1.00  0.00     0.009 C 
ATOM      5  C   UNL     1      39.503   7.859  11.589  1.00  0.00     0.035 C 
ATOM      6  C   UNL     1      40.618   6.969  10.967  1.00  0.00     0.066 C 
ATOM      7  O   UNL     1      41.470   7.781  10.157  1.00  0.00    -0.369 OA
ATOM      8  C   UNL     1      41.456   6.334  12.114  1.00  0.00     0.035 C 
ATOM      9  C   UNL     1      42.047   7.449  13.010  1.00  0.00     0.009 C 
ATOM     10  C   UNL     1      40.000   5.875  10.091  1.00  0.00     0.042 C 
ATOM     11  C   UNL     1      41.711  10.181  10.229  1.00  0.00     0.042 C 
ENDROOT
TORSDOF 0
ENDMDL
