MODEL 1
REMARK VINA RESULT:    -4.260      0.000      0.000
REMARK INTER + INTRA:          -7.075
REMARK INTER:                  -6.751
REMARK INTRA:                  -0.324
REMARK UNBOUND:                -0.324
REMARK SMILES CCCCCCCCCCCC(=O)[O-]
REMARK SMILES IDX 7 1 8 2 9 3 10 4 11 5 12 6 13 7 14 8 6 9 5 10 4 11 3 12 2 13
REMARK SMILES IDX 1 14
REMARK H PARENT
REMARK Flexibility Score: inf
ROOT
ATOM      1  C   UNL     1     -33.490  -7.202  32.691  1.00  0.00     0.000 C 
ENDROOT
BRANCH   1   2
ATOM      2  C   UNL     1     -32.490  -7.471  33.826  1.00  0.00     0.000 C 
BRANCH   2   3
ATOM      3  C   UNL     1     -31.049  -7.645  33.313  1.00  0.00     0.000 C 
BRANCH   3   4
ATOM      4  C   UNL     1     -30.362  -8.899  33.883  1.00  0.00     0.006 C 
BRANCH   4   5
ATOM      5  C   UNL     1     -28.832  -8.903  33.733  1.00  0.00     0.053 C 
BRANCH   5   6
ATOM      6  C   UNL     1     -28.196 -10.024  34.496  1.00  0.00     0.041 C 
ATOM      7  O   UNL     1     -28.055  -9.941  35.745  1.00  0.00    -0.550 OA
ATOM      8  O   UNL     1     -27.725 -11.145  33.823  1.00  0.00    -0.550 OA
ENDBRANCH   5   6
ENDBRANCH   4   5
ENDBRANCH   3   4
ENDBRANCH   2   3
ENDBRANCH   1   2
BRANCH   1   9
ATOM      9  C   UNL     1     -34.939  -7.532  33.094  1.00  0.00     0.000 C 
BRANCH   9  10
ATOM     10  C   UNL     1     -35.938  -7.295  31.950  1.00  0.00    -0.000 C 
BRANCH  10  11
ATOM     11  C   UNL     1     -37.303  -6.798  32.449  1.00  0.00    -0.000 C 
BRANCH  11  12
ATOM     12  C   UNL     1     -37.347  -6.764  33.984  1.00  0.00    -0.000 C 
BRANCH  12  13
ATOM     13  C   UNL     1     -38.509  -5.915  34.524  1.00  0.00    -0.003 C 
ATOM     14  C   UNL     1     -38.042  -4.804  35.464  1.00  0.00     0.004 C 
ENDBRANCH  12  13
ENDBRANCH  11  12
ENDBRANCH  10  11
ENDBRANCH   9  10
ENDBRANCH   1   9
TORSDOF 10
ENDMDL
MODEL 2
REMARK VINA RESULT:    -4.243      1.473      2.120
REMARK INTER + INTRA:          -7.047
REMARK INTER:                  -6.698
REMARK INTRA:                  -0.349
REMARK UNBOUND:                -0.324
REMARK SMILES CCCCCCCCCCCC(=O)[O-]
REMARK SMILES IDX 7 1 8 2 9 3 10 4 11 5 12 6 13 7 14 8 6 9 5 10 4 11 3 12 2 13
REMARK SMILES IDX 1 14
REMARK H PARENT
REMARK Flexibility Score: inf
ROOT
ATOM      1  C   UNL     1     -32.467  -8.785  34.375  1.00  0.00     0.000 C 
ENDROOT
BRANCH   1   2
ATOM      2  C   UNL     1     -31.120  -8.084  34.135  1.00  0.00     0.000 C 
BRANCH   2   3
ATOM      3  C   UNL     1     -30.099  -8.994  33.429  1.00  0.00     0.000 C 
BRANCH   3   4
ATOM      4  C   UNL     1     -28.750  -9.058  34.168  1.00  0.00     0.006 C 
BRANCH   4   5
ATOM      5  C   UNL     1     -28.534 -10.347  34.977  1.00  0.00     0.053 C 
BRANCH   5   6
ATOM      6  C   UNL     1     -27.481 -11.222  34.370  1.00  0.00     0.041 C 
ATOM      7  O   UNL     1     -26.509 -11.620  35.064  1.00  0.00    -0.550 OA
ATOM      8  O   UNL     1     -27.555 -11.570  33.026  1.00  0.00    -0.550 OA
ENDBRANCH   5   6
ENDBRANCH   4   5
ENDBRANCH   3   4
ENDBRANCH   2   3
ENDBRANCH   1   2
BRANCH   1   9
ATOM      9  C   UNL     1     -33.315  -8.884  33.094  1.00  0.00     0.000 C 
BRANCH   9  10
ATOM     10  C   UNL     1     -33.914  -7.531  32.677  1.00  0.00    -0.000 C 
BRANCH  10  11
ATOM     11  C   UNL     1     -35.241  -7.680  31.920  1.00  0.00    -0.000 C 
BRANCH  11  12
ATOM     12  C   UNL     1     -36.411  -7.124  32.746  1.00  0.00    -0.000 C 
BRANCH  12  13
ATOM     13  C   UNL     1     -37.607  -6.710  31.875  1.00  0.00    -0.003 C 
ATOM     14  C   UNL     1     -38.874  -6.456  32.692  1.00  0.00     0.004 C 
ENDBRANCH  12  13
ENDBRANCH  11  12
ENDBRANCH  10  11
ENDBRANCH   9  10
ENDBRANCH   1   9
TORSDOF 10
ENDMDL
MODEL 3
REMARK VINA RESULT:    -4.184      4.470      8.333
REMARK INTER + INTRA:          -6.955
REMARK INTER:                  -6.542
REMARK INTRA:                  -0.412
REMARK UNBOUND:                -0.324
REMARK SMILES CCCCCCCCCCCC(=O)[O-]
REMARK SMILES IDX 7 1 8 2 9 3 10 4 11 5 12 6 13 7 14 8 6 9 5 10 4 11 3 12 2 13
REMARK SMILES IDX 1 14
REMARK H PARENT
REMARK Flexibility Score: inf
ROOT
ATOM      1  C   UNL     1     -31.984  -6.949  32.423  1.00  0.00     0.000 C 
ENDROOT
BRANCH   1   2
ATOM      2  C   UNL     1     -33.393  -6.677  31.875  1.00  0.00     0.000 C 
BRANCH   2   3
ATOM      3  C   UNL     1     -34.332  -7.886  32.036  1.00  0.00     0.000 C 
BRANCH   3   4
ATOM      4  C   UNL     1     -35.817  -7.511  31.882  1.00  0.00     0.006 C 
BRANCH   4   5
ATOM      5  C   UNL     1     -36.466  -6.966  33.164  1.00  0.00     0.053 C 
BRANCH   5   6
ATOM      6  C   UNL     1     -37.945  -6.786  33.012  1.00  0.00     0.041 C 
ATOM      7  O   UNL     1     -38.730  -7.734  33.278  1.00  0.00    -0.550 OA
ATOM      8  O   UNL     1     -38.455  -5.581  32.543  1.00  0.00    -0.550 OA
ENDBRANCH   5   6
ENDBRANCH   4   5
ENDBRANCH   3   4
ENDBRANCH   2   3
ENDBRANCH   1   2
BRANCH   1   9
ATOM      9  C   UNL     1     -31.997  -7.333  33.914  1.00  0.00     0.000 C 
BRANCH   9  10
ATOM     10  C   UNL     1     -31.279  -8.664  34.187  1.00  0.00    -0.000 C 
BRANCH  10  11
ATOM     11  C   UNL     1     -29.809  -8.645  33.745  1.00  0.00    -0.000 C 
BRANCH  11  12
ATOM     12  C   UNL     1     -28.991  -9.696  34.512  1.00  0.00    -0.000 C 
BRANCH  12  13
ATOM     13  C   UNL     1     -27.681 -10.063  33.798  1.00  0.00    -0.003 C 
ATOM     14  C   UNL     1     -27.474 -11.573  33.681  1.00  0.00     0.004 C 
ENDBRANCH  12  13
ENDBRANCH  11  12
ENDBRANCH  10  11
ENDBRANCH   9  10
ENDBRANCH   1   9
TORSDOF 10
ENDMDL
MODEL 4
REMARK VINA RESULT:    -4.160      4.463      8.074
REMARK INTER + INTRA:          -6.916
REMARK INTER:                  -6.400
REMARK INTRA:                  -0.517
REMARK UNBOUND:                -0.324
REMARK SMILES CCCCCCCCCCCC(=O)[O-]
REMARK SMILES IDX 7 1 8 2 9 3 10 4 11 5 12 6 13 7 14 8 6 9 5 10 4 11 3 12 2 13
REMARK SMILES IDX 1 14
REMARK H PARENT
REMARK Flexibility Score: inf
ROOT
ATOM      1  C   UNL     1     -33.885  -7.993  32.293  1.00  0.00     0.000 C 
ENDROOT
BRANCH   1   2
ATOM      2  C   UNL     1     -35.037  -7.217  32.951  1.00  0.00     0.000 C 
BRANCH   2   3
ATOM      3  C   UNL     1     -36.291  -7.158  32.061  1.00  0.00     0.000 C 
BRANCH   3   4
ATOM      4  C   UNL     1     -37.585  -6.951  32.870  1.00  0.00     0.006 C 
BRANCH   4   5
ATOM      5  C   UNL     1     -37.355  -6.638  34.357  1.00  0.00     0.053 C 
BRANCH   5   6
ATOM      6  C   UNL     1     -37.979  -5.337  34.760  1.00  0.00     0.041 C 
ATOM      7  O   UNL     1     -37.492  -4.666  35.708  1.00  0.00    -0.550 OA
ATOM      8  O   UNL     1     -39.122  -4.883  34.111  1.00  0.00    -0.550 OA
ENDBRANCH   5   6
ENDBRANCH   4   5
ENDBRANCH   3   4
ENDBRANCH   2   3
ENDBRANCH   1   2
BRANCH   1   9
ATOM      9  C   UNL     1     -33.451  -9.216  33.121  1.00  0.00     0.000 C 
BRANCH   9  10
ATOM     10  C   UNL     1     -32.638  -8.827  34.366  1.00  0.00    -0.000 C 
BRANCH  10  11
ATOM     11  C   UNL     1     -31.501  -7.844  34.048  1.00  0.00    -0.000 C 
BRANCH  11  12
ATOM     12  C   UNL     1     -30.333  -8.562  33.355  1.00  0.00    -0.000 C 
BRANCH  12  13
ATOM     13  C   UNL     1     -29.274  -9.064  34.348  1.00  0.00    -0.003 C 
ATOM     14  C   UNL     1     -28.122  -9.800  33.663  1.00  0.00     0.004 C 
ENDBRANCH  12  13
ENDBRANCH  11  12
ENDBRANCH  10  11
ENDBRANCH   9  10
ENDBRANCH   1   9
TORSDOF 10
ENDMDL
MODEL 5
REMARK VINA RESULT:    -4.143      2.875      5.696
REMARK INTER + INTRA:          -6.889
REMARK INTER:                  -6.383
REMARK INTRA:                  -0.505
REMARK UNBOUND:                -0.324
REMARK SMILES CCCCCCCCCCCC(=O)[O-]
REMARK SMILES IDX 7 1 8 2 9 3 10 4 11 5 12 6 13 7 14 8 6 9 5 10 4 11 3 12 2 13
REMARK SMILES IDX 1 14
REMARK H PARENT
REMARK Flexibility Score: inf
ROOT
ATOM      1  C   UNL     1     -28.173 -10.094  35.201  1.00  0.00     0.000 C 
ENDROOT
BRANCH   1   2
ATOM      2  C   UNL     1     -27.501 -11.422  34.817  1.00  0.00     0.000 C 
BRANCH   2   3
ATOM      3  C   UNL     1     -27.451 -11.637  33.293  1.00  0.00     0.000 C 
BRANCH   3   4
ATOM      4  C   UNL     1     -26.048 -12.026  32.794  1.00  0.00     0.006 C 
BRANCH   4   5
ATOM      5  C   UNL     1     -24.927 -11.087  33.267  1.00  0.00     0.053 C 
BRANCH   5   6
ATOM      6  C   UNL     1     -23.832 -11.829  33.971  1.00  0.00     0.041 C 
ATOM      7  O   UNL     1     -23.595 -11.605  35.187  1.00  0.00    -0.550 OA
ATOM      8  O   UNL     1     -23.050 -12.741  33.273  1.00  0.00    -0.550 OA
ENDBRANCH   5   6
ENDBRANCH   4   5
ENDBRANCH   3   4
ENDBRANCH   2   3
ENDBRANCH   1   2
BRANCH   1   9
ATOM      9  C   UNL     1     -28.721  -9.336  33.978  1.00  0.00     0.000 C 
BRANCH   9  10
ATOM     10  C   UNL     1     -30.199  -8.947  34.138  1.00  0.00    -0.000 C 
BRANCH  10  11
ATOM     11  C   UNL     1     -30.652  -7.906  33.103  1.00  0.00    -0.000 C 
BRANCH  11  12
ATOM     12  C   UNL     1     -31.891  -7.144  33.597  1.00  0.00    -0.000 C 
BRANCH  12  13
ATOM     13  C   UNL     1     -33.015  -7.102  32.550  1.00  0.00    -0.003 C 
ATOM     14  C   UNL     1     -34.373  -7.507  33.124  1.00  0.00     0.004 C 
ENDBRANCH  12  13
ENDBRANCH  11  12
ENDBRANCH  10  11
ENDBRANCH   9  10
ENDBRANCH   1   9
TORSDOF 10
ENDMDL
MODEL 6
REMARK VINA RESULT:    -4.100      4.195      9.919
REMARK INTER + INTRA:          -6.821
REMARK INTER:                  -6.388
REMARK INTRA:                  -0.433
REMARK UNBOUND:                -0.324
REMARK SMILES CCCCCCCCCCCC(=O)[O-]
REMARK SMILES IDX 7 1 8 2 9 3 10 4 11 5 12 6 13 7 14 8 6 9 5 10 4 11 3 12 2 13
REMARK SMILES IDX 1 14
REMARK H PARENT
REMARK Flexibility Score: inf
ROOT
ATOM      1  C   UNL     1     -27.928 -11.265  34.881  1.00  0.00     0.000 C 
ENDROOT
BRANCH   1   2
ATOM      2  C   UNL     1     -28.199  -9.771  35.118  1.00  0.00     0.000 C 
BRANCH   2   3
ATOM      3  C   UNL     1     -28.753  -9.067  33.866  1.00  0.00     0.000 C 
BRANCH   3   4
ATOM      4  C   UNL     1     -30.289  -8.955  33.878  1.00  0.00     0.006 C 
BRANCH   4   5
ATOM      5  C   UNL     1     -30.846  -7.842  32.976  1.00  0.00     0.053 C 
BRANCH   5   6
ATOM      6  C   UNL     1     -32.163  -7.326  33.470  1.00  0.00     0.041 C 
ATOM      7  O   UNL     1     -32.237  -6.191  34.011  1.00  0.00    -0.550 OA
ATOM      8  O   UNL     1     -33.303  -8.114  33.364  1.00  0.00    -0.550 OA
ENDBRANCH   5   6
ENDBRANCH   4   5
ENDBRANCH   3   4
ENDBRANCH   2   3
ENDBRANCH   1   2
BRANCH   1   9
ATOM      9  C   UNL     1     -27.492 -11.561  33.434  1.00  0.00     0.000 C 
BRANCH   9  10
ATOM     10  C   UNL     1     -25.964 -11.609  33.276  1.00  0.00    -0.000 C 
BRANCH  10  11
ATOM     11  C   UNL     1     -25.524 -12.363  32.012  1.00  0.00    -0.000 C 
BRANCH  11  12
ATOM     12  C   UNL     1     -23.994 -12.358  31.875  1.00  0.00    -0.000 C 
BRANCH  12  13
ATOM     13  C   UNL     1     -23.278 -12.521  33.224  1.00  0.00    -0.003 C 
ATOM     14  C   UNL     1     -22.139 -13.540  33.171  1.00  0.00     0.004 C 
ENDBRANCH  12  13
ENDBRANCH  11  12
ENDBRANCH  10  11
ENDBRANCH   9  10
ENDBRANCH   1   9
TORSDOF 10
ENDMDL
MODEL 7
REMARK VINA RESULT:    -4.095     18.227     19.407
REMARK INTER + INTRA:          -6.813
REMARK INTER:                  -5.264
REMARK INTRA:                  -1.548
REMARK UNBOUND:                -0.324
REMARK SMILES CCCCCCCCCCCC(=O)[O-]
REMARK SMILES IDX 7 1 8 2 9 3 10 4 11 5 12 6 13 7 14 8 6 9 5 10 4 11 3 12 2 13
REMARK SMILES IDX 1 14
REMARK H PARENT
REMARK Flexibility Score: inf
ROOT
ATOM      1  C   UNL     1     -35.212  -2.880  50.451  1.00  0.00     0.000 C 
ENDROOT
BRANCH   1   2
ATOM      2  C   UNL     1     -35.153  -2.286  51.867  1.00  0.00     0.000 C 
BRANCH   2   3
ATOM      3  C   UNL     1     -35.374  -0.763  51.877  1.00  0.00     0.000 C 
BRANCH   3   4
ATOM      4  C   UNL     1     -34.947  -0.092  50.559  1.00  0.00     0.006 C 
BRANCH   4   5
ATOM      5  C   UNL     1     -36.004   0.847  49.957  1.00  0.00     0.053 C 
BRANCH   5   6
ATOM      6  C   UNL     1     -35.935   2.223  50.547  1.00  0.00     0.041 C 
ATOM      7  O   UNL     1     -34.827   2.705  50.902  1.00  0.00    -0.550 OA
ATOM      8  O   UNL     1     -37.099   2.958  50.737  1.00  0.00    -0.550 OA
ENDBRANCH   5   6
ENDBRANCH   4   5
ENDBRANCH   3   4
ENDBRANCH   2   3
ENDBRANCH   1   2
BRANCH   1   9
ATOM      9  C   UNL     1     -36.186  -4.069  50.352  1.00  0.00     0.000 C 
BRANCH   9  10
ATOM     10  C   UNL     1     -37.581  -3.736  50.903  1.00  0.00    -0.000 C 
BRANCH  10  11
ATOM     11  C   UNL     1     -38.502  -3.111  49.845  1.00  0.00    -0.000 C 
BRANCH  11  12
ATOM     12  C   UNL     1     -38.739  -1.621  50.133  1.00  0.00    -0.000 C 
BRANCH  12  13
ATOM     13  C   UNL     1     -38.996  -1.340  51.621  1.00  0.00    -0.003 C 
ATOM     14  C   UNL     1     -38.997   0.153  51.949  1.00  0.00     0.004 C 
ENDBRANCH  12  13
ENDBRANCH  11  12
ENDBRANCH  10  11
ENDBRANCH   9  10
ENDBRANCH   1   9
TORSDOF 10
ENDMDL
MODEL 8
REMARK VINA RESULT:    -3.968     12.548     14.840
REMARK INTER + INTRA:          -6.613
REMARK INTER:                  -5.497
REMARK INTRA:                  -1.116
REMARK UNBOUND:                -0.324
REMARK SMILES CCCCCCCCCCCC(=O)[O-]
REMARK SMILES IDX 7 1 8 2 9 3 10 4 11 5 12 6 13 7 14 8 6 9 5 10 4 11 3 12 2 13
REMARK SMILES IDX 1 14
REMARK H PARENT
REMARK Flexibility Score: inf
ROOT
ATOM      1  C   UNL     1     -23.515 -14.182  39.194  1.00  0.00     0.000 C 
ENDROOT
BRANCH   1   2
ATOM      2  C   UNL     1     -22.421 -14.986  38.475  1.00  0.00     0.000 C 
BRANCH   2   3
ATOM      3  C   UNL     1     -21.081 -14.965  39.232  1.00  0.00     0.000 C 
BRANCH   3   4
ATOM      4  C   UNL     1     -21.136 -15.745  40.559  1.00  0.00     0.006 C 
BRANCH   4   5
ATOM      5  C   UNL     1     -20.916 -14.878  41.809  1.00  0.00     0.053 C 
BRANCH   5   6
ATOM      6  C   UNL     1     -22.022 -15.038  42.806  1.00  0.00     0.041 C 
ATOM      7  O   UNL     1     -22.963 -14.201  42.848  1.00  0.00    -0.550 OA
ATOM      8  O   UNL     1     -21.996 -16.091  43.712  1.00  0.00    -0.550 OA
ENDBRANCH   5   6
ENDBRANCH   4   5
ENDBRANCH   3   4
ENDBRANCH   2   3
ENDBRANCH   1   2
BRANCH   1   9
ATOM      9  C   UNL     1     -23.962 -12.948  38.388  1.00  0.00     0.000 C 
BRANCH   9  10
ATOM     10  C   UNL     1     -22.824 -11.938  38.175  1.00  0.00    -0.000 C 
BRANCH  10  11
ATOM     11  C   UNL     1     -22.660 -10.972  39.358  1.00  0.00    -0.000 C 
BRANCH  11  12
ATOM     12  C   UNL     1     -21.626 -11.504  40.362  1.00  0.00    -0.000 C 
BRANCH  12  13
ATOM     13  C   UNL     1     -20.195 -11.489  39.804  1.00  0.00    -0.003 C 
ATOM     14  C   UNL     1     -19.297 -10.471  40.506  1.00  0.00     0.004 C 
ENDBRANCH  12  13
ENDBRANCH  11  12
ENDBRANCH  10  11
ENDBRANCH   9  10
ENDBRANCH   1   9
TORSDOF 10
ENDMDL
MODEL 9
REMARK VINA RESULT:    -3.967     12.706     14.542
REMARK INTER + INTRA:          -6.610
REMARK INTER:                  -5.157
REMARK INTRA:                  -1.453
REMARK UNBOUND:                -0.324
REMARK SMILES CCCCCCCCCCCC(=O)[O-]
REMARK SMILES IDX 7 1 8 2 9 3 10 4 11 5 12 6 13 7 14 8 6 9 5 10 4 11 3 12 2 13
REMARK SMILES IDX 1 14
REMARK H PARENT
REMARK Flexibility Score: inf
ROOT
ATOM      1  C   UNL     1     -20.898 -11.247  40.164  1.00  0.00     0.000 C 
ENDROOT
BRANCH   1   2
ATOM      2  C   UNL     1     -20.839 -12.355  41.226  1.00  0.00     0.000 C 
BRANCH   2   3
ATOM      3  C   UNL     1     -20.565 -13.742  40.617  1.00  0.00     0.000 C 
BRANCH   3   4
ATOM      4  C   UNL     1     -21.714 -14.737  40.863  1.00  0.00     0.006 C 
BRANCH   4   5
ATOM      5  C   UNL     1     -22.970 -14.109  41.485  1.00  0.00     0.053 C 
BRANCH   5   6
ATOM      6  C   UNL     1     -23.282 -14.688  42.831  1.00  0.00     0.041 C 
ATOM      7  O   UNL     1     -22.582 -15.627  43.294  1.00  0.00    -0.550 OA
ATOM      8  O   UNL     1     -24.368 -14.215  43.557  1.00  0.00    -0.550 OA
ENDBRANCH   5   6
ENDBRANCH   4   5
ENDBRANCH   3   4
ENDBRANCH   2   3
ENDBRANCH   1   2
BRANCH   1   9
ATOM      9  C   UNL     1     -22.342 -10.906  39.749  1.00  0.00     0.000 C 
BRANCH   9  10
ATOM     10  C   UNL     1     -22.635 -11.264  38.284  1.00  0.00    -0.000 C 
BRANCH  10  11
ATOM     11  C   UNL     1     -23.427 -12.572  38.140  1.00  0.00    -0.000 C 
BRANCH  11  12
ATOM     12  C   UNL     1     -22.560 -13.674  37.513  1.00  0.00    -0.000 C 
BRANCH  12  13
ATOM     13  C   UNL     1     -21.295 -13.120  36.838  1.00  0.00    -0.003 C 
ATOM     14  C   UNL     1     -21.369 -13.169  35.312  1.00  0.00     0.004 C 
ENDBRANCH  12  13
ENDBRANCH  11  12
ENDBRANCH  10  11
ENDBRANCH   9  10
ENDBRANCH   1   9
TORSDOF 10
ENDMDL
