MODEL 1
REMARK VINA RESULT:    -5.099      0.000      0.000
REMARK INTER + INTRA:          -6.429
REMARK INTER:                  -6.292
REMARK INTRA:                  -0.137
REMARK UNBOUND:                -0.137
REMARK SMILES O=c1c(O)c(-c2cc(O)c(O)c(O)c2)oc2cc(O)cc(O)c12
REMARK SMILES IDX 5 1 3 2 2 3 1 4 23 5 21 6 20 7 18 8 17 9 16 10 15 11 6 12
REMARK SMILES IDX 7 13 8 14 14 15 10 16 12 17 9 18 11 20 13 22 4 24 22 26
REMARK SMILES IDX 19 28
REMARK H PARENT 9 19 11 21 13 23 4 25 22 27 19 29
REMARK Flexibility Score: inf
ROOT
ATOM      1  C   UNL     1      21.247  -0.154 -25.611  1.00  0.00     0.180 A 
ATOM      2  C   UNL     1      22.492   0.399 -25.965  1.00  0.00     0.208 A 
ATOM      3  C   UNL     1      23.599   0.165 -25.135  1.00  0.00     0.238 A 
ATOM      4  O   UNL     1      24.722   0.647 -25.446  1.00  0.00    -0.285 OA
ATOM      5  C   UNL     1      23.440  -0.599 -23.960  1.00  0.00     0.111 A 
ATOM      6  C   UNL     1      24.503  -0.879 -23.068  1.00  0.00     0.134 A 
ATOM      7  C   UNL     1      24.262  -1.638 -21.914  1.00  0.00     0.093 A 
ATOM      8  C   UNL     1      22.982  -2.123 -21.635  1.00  0.00     0.123 A 
ATOM      9  C   UNL     1      21.927  -1.851 -22.513  1.00  0.00     0.094 A 
ATOM     10  C   UNL     1      22.148  -1.096 -23.668  1.00  0.00     0.146 A 
ATOM     11  O   UNL     1      21.130  -0.857 -24.487  1.00  0.00    -0.452 OA
ENDROOT
BRANCH   1  12
ATOM     12  C   UNL     1      20.037   0.033 -26.445  1.00  0.00     0.029 A 
ATOM     13  C   UNL     1      19.415  -1.086 -27.019  1.00  0.00     0.062 A 
ATOM     14  C   UNL     1      18.284  -0.937 -27.828  1.00  0.00     0.162 A 
ATOM     15  C   UNL     1      19.532   1.314 -26.723  1.00  0.00     0.062 A 
ATOM     16  C   UNL     1      17.768   0.344 -28.086  1.00  0.00     0.200 A 
ATOM     17  C   UNL     1      18.400   1.472 -27.534  1.00  0.00     0.162 A 
BRANCH  14  18
ATOM     18  O   UNL     1      17.686  -2.076 -28.367  1.00  0.00    -0.504 OA
ATOM     19  H   UNL     1      18.029  -2.517 -29.212  1.00  0.00     0.293 HD
ENDBRANCH  14  18
BRANCH  16  20
ATOM     20  O   UNL     1      16.638   0.484 -28.892  1.00  0.00    -0.502 OA
ATOM     21  H   UNL     1      16.589   1.163 -29.642  1.00  0.00     0.293 HD
ENDBRANCH  16  20
BRANCH  17  22
ATOM     22  O   UNL     1      17.902   2.748 -27.799  1.00  0.00    -0.504 OA
ATOM     23  H   UNL     1      18.496   3.569 -27.760  1.00  0.00     0.293 HD
ENDBRANCH  17  22
ENDBRANCH   1  12
BRANCH   2  24
ATOM     24  O   UNL     1      22.612   1.194 -27.108  1.00  0.00    -0.502 OA
ATOM     25  H   UNL     1      22.040   2.016 -27.260  1.00  0.00     0.293 HD
ENDBRANCH   2  24
BRANCH   6  26
ATOM     26  O   UNL     1      25.793  -0.407 -23.318  1.00  0.00    -0.507 OA
ATOM     27  H   UNL     1      26.248   0.254 -22.699  1.00  0.00     0.293 HD
ENDBRANCH   6  26
BRANCH   8  28
ATOM     28  O   UNL     1      22.768  -2.874 -20.481  1.00  0.00    -0.508 OA
ATOM     29  H   UNL     1      23.374  -2.790 -19.673  1.00  0.00     0.293 HD
ENDBRANCH   8  28
TORSDOF 7
ENDMDL
MODEL 2
REMARK VINA RESULT:    -5.097      0.088      1.757
REMARK INTER + INTRA:          -6.427
REMARK INTER:                  -6.292
REMARK INTRA:                  -0.134
REMARK UNBOUND:                -0.137
REMARK SMILES O=c1c(O)c(-c2cc(O)c(O)c(O)c2)oc2cc(O)cc(O)c12
REMARK SMILES IDX 5 1 3 2 2 3 1 4 23 5 21 6 20 7 18 8 17 9 16 10 15 11 6 12
REMARK SMILES IDX 7 13 8 14 14 15 10 16 12 17 9 18 11 20 13 22 4 24 22 26
REMARK SMILES IDX 19 28
REMARK H PARENT 9 19 11 21 13 23 4 25 22 27 19 29
REMARK Flexibility Score: inf
ROOT
ATOM      1  C   UNL     1      21.230  -0.181 -25.704  1.00  0.00     0.180 A 
ATOM      2  C   UNL     1      22.472   0.388 -26.046  1.00  0.00     0.208 A 
ATOM      3  C   UNL     1      23.569   0.183 -25.195  1.00  0.00     0.238 A 
ATOM      4  O   UNL     1      24.689   0.679 -25.496  1.00  0.00    -0.285 OA
ATOM      5  C   UNL     1      23.403  -0.566 -24.012  1.00  0.00     0.111 A 
ATOM      6  C   UNL     1      24.457  -0.816 -23.099  1.00  0.00     0.134 A 
ATOM      7  C   UNL     1      24.209  -1.563 -21.939  1.00  0.00     0.093 A 
ATOM      8  C   UNL     1      22.933  -2.064 -21.673  1.00  0.00     0.123 A 
ATOM      9  C   UNL     1      21.888  -1.822 -22.571  1.00  0.00     0.094 A 
ATOM     10  C   UNL     1      22.115  -1.080 -23.733  1.00  0.00     0.146 A 
ATOM     11  O   UNL     1      21.107  -0.869 -24.572  1.00  0.00    -0.452 OA
ENDROOT
BRANCH   1  12
ATOM     12  C   UNL     1      20.031  -0.025 -26.560  1.00  0.00     0.029 A 
ATOM     13  C   UNL     1      19.520   1.259 -26.803  1.00  0.00     0.062 A 
ATOM     14  C   UNL     1      18.377   1.435 -27.590  1.00  0.00     0.162 A 
ATOM     15  C   UNL     1      19.359  -1.140 -27.087  1.00  0.00     0.062 A 
ATOM     16  C   UNL     1      17.720   0.318 -28.134  1.00  0.00     0.200 A 
ATOM     17  C   UNL     1      18.213  -0.973 -27.876  1.00  0.00     0.162 A 
BRANCH  14  18
ATOM     18  O   UNL     1      17.908   2.728 -27.820  1.00  0.00    -0.504 OA
ATOM     19  H   UNL     1      17.988   3.178 -28.724  1.00  0.00     0.293 HD
ENDBRANCH  14  18
BRANCH  16  20
ATOM     20  O   UNL     1      16.582   0.501 -28.920  1.00  0.00    -0.502 OA
ATOM     21  H   UNL     1      16.006  -0.273 -29.226  1.00  0.00     0.293 HD
ENDBRANCH  16  20
BRANCH  17  22
ATOM     22  O   UNL     1      17.557  -2.087 -28.400  1.00  0.00    -0.504 OA
ATOM     23  H   UNL     1      16.632  -2.015 -28.809  1.00  0.00     0.293 HD
ENDBRANCH  17  22
ENDBRANCH   1  12
BRANCH   2  24
ATOM     24  O   UNL     1      22.597   1.168 -27.198  1.00  0.00    -0.502 OA
ATOM     25  H   UNL     1      21.933   1.118 -27.962  1.00  0.00     0.293 HD
ENDBRANCH   2  24
BRANCH   6  26
ATOM     26  O   UNL     1      25.742  -0.327 -23.336  1.00  0.00    -0.507 OA
ATOM     27  H   UNL     1      26.518  -0.552 -22.724  1.00  0.00     0.293 HD
ENDBRANCH   6  26
BRANCH   8  28
ATOM     28  O   UNL     1      22.713  -2.803 -20.512  1.00  0.00    -0.508 OA
ATOM     29  H   UNL     1      21.852  -3.317 -20.365  1.00  0.00     0.293 HD
ENDBRANCH   8  28
TORSDOF 7
ENDMDL
MODEL 3
REMARK VINA RESULT:    -4.868      8.628     11.500
REMARK INTER + INTRA:          -6.144
REMARK INTER:                  -6.081
REMARK INTRA:                  -0.063
REMARK UNBOUND:                -0.137
REMARK SMILES O=c1c(O)c(-c2cc(O)c(O)c(O)c2)oc2cc(O)cc(O)c12
REMARK SMILES IDX 5 1 3 2 2 3 1 4 23 5 21 6 20 7 18 8 17 9 16 10 15 11 6 12
REMARK SMILES IDX 7 13 8 14 14 15 10 16 12 17 9 18 11 20 13 22 4 24 22 26
REMARK SMILES IDX 19 28
REMARK H PARENT 9 19 11 21 13 23 4 25 22 27 19 29
REMARK Flexibility Score: inf
ROOT
ATOM      1  C   UNL     1      23.159  -4.158 -33.309  1.00  0.00     0.180 A 
ATOM      2  C   UNL     1      23.161  -2.781 -33.016  1.00  0.00     0.208 A 
ATOM      3  C   UNL     1      22.343  -1.926 -33.771  1.00  0.00     0.238 A 
ATOM      4  O   UNL     1      22.328  -0.692 -33.511  1.00  0.00    -0.285 OA
ATOM      5  C   UNL     1      21.555  -2.456 -34.813  1.00  0.00     0.111 A 
ATOM      6  C   UNL     1      20.706  -1.664 -35.623  1.00  0.00     0.134 A 
ATOM      7  C   UNL     1      19.961  -2.265 -36.648  1.00  0.00     0.093 A 
ATOM      8  C   UNL     1      20.047  -3.640 -36.878  1.00  0.00     0.123 A 
ATOM      9  C   UNL     1      20.883  -4.429 -36.081  1.00  0.00     0.094 A 
ATOM     10  C   UNL     1      21.633  -3.848 -35.055  1.00  0.00     0.146 A 
ATOM     11  O   UNL     1      22.415  -4.621 -34.310  1.00  0.00    -0.452 OA
ENDROOT
BRANCH   1  12
ATOM     12  C   UNL     1      23.981  -5.125 -32.545  1.00  0.00     0.029 A 
ATOM     13  C   UNL     1      23.360  -6.218 -31.923  1.00  0.00     0.062 A 
ATOM     14  C   UNL     1      24.108  -7.136 -31.178  1.00  0.00     0.162 A 
ATOM     15  C   UNL     1      25.364  -4.942 -32.382  1.00  0.00     0.062 A 
ATOM     16  C   UNL     1      25.494  -6.960 -31.035  1.00  0.00     0.200 A 
ATOM     17  C   UNL     1      26.122  -5.855 -31.637  1.00  0.00     0.162 A 
BRANCH  14  18
ATOM     18  O   UNL     1      23.454  -8.217 -30.586  1.00  0.00    -0.504 OA
ATOM     19  H   UNL     1      23.809  -8.672 -29.754  1.00  0.00     0.293 HD
ENDBRANCH  14  18
BRANCH  16  20
ATOM     20  O   UNL     1      26.234  -7.881 -30.293  1.00  0.00    -0.502 OA
ATOM     21  H   UNL     1      26.636  -8.713 -30.709  1.00  0.00     0.293 HD
ENDBRANCH  16  20
BRANCH  17  22
ATOM     22  O   UNL     1      27.495  -5.666 -31.486  1.00  0.00    -0.504 OA
ATOM     23  H   UNL     1      28.019  -6.138 -30.757  1.00  0.00     0.293 HD
ENDBRANCH  17  22
ENDBRANCH   1  12
BRANCH   2  24
ATOM     24  O   UNL     1      23.988  -2.274 -32.011  1.00  0.00    -0.502 OA
ATOM     25  H   UNL     1      24.586  -2.870 -31.449  1.00  0.00     0.293 HD
ENDBRANCH   2  24
BRANCH   6  26
ATOM     26  O   UNL     1      20.599  -0.287 -35.418  1.00  0.00    -0.507 OA
ATOM     27  H   UNL     1      20.654   0.119 -34.492  1.00  0.00     0.293 HD
ENDBRANCH   6  26
BRANCH   8  28
ATOM     28  O   UNL     1      19.297  -4.213 -37.903  1.00  0.00    -0.508 OA
ATOM     29  H   UNL     1      18.462  -4.754 -37.711  1.00  0.00     0.293 HD
ENDBRANCH   8  28
TORSDOF 7
ENDMDL
MODEL 4
REMARK VINA RESULT:    -4.843      8.618     11.566
REMARK INTER + INTRA:          -6.113
REMARK INTER:                  -6.072
REMARK INTRA:                  -0.040
REMARK UNBOUND:                -0.137
REMARK SMILES O=c1c(O)c(-c2cc(O)c(O)c(O)c2)oc2cc(O)cc(O)c12
REMARK SMILES IDX 5 1 3 2 2 3 1 4 23 5 21 6 20 7 18 8 17 9 16 10 15 11 6 12
REMARK SMILES IDX 7 13 8 14 14 15 10 16 12 17 9 18 11 20 13 22 4 24 22 26
REMARK SMILES IDX 19 28
REMARK H PARENT 9 19 11 21 13 23 4 25 22 27 19 29
REMARK Flexibility Score: inf
ROOT
ATOM      1  C   UNL     1      23.165  -4.184 -33.239  1.00  0.00     0.180 A 
ATOM      2  C   UNL     1      23.174  -2.806 -32.951  1.00  0.00     0.208 A 
ATOM      3  C   UNL     1      22.358  -1.950 -33.706  1.00  0.00     0.238 A 
ATOM      4  O   UNL     1      22.349  -0.715 -33.451  1.00  0.00    -0.285 OA
ATOM      5  C   UNL     1      21.566  -2.479 -34.746  1.00  0.00     0.111 A 
ATOM      6  C   UNL     1      20.719  -1.685 -35.556  1.00  0.00     0.134 A 
ATOM      7  C   UNL     1      19.969  -2.286 -36.577  1.00  0.00     0.093 A 
ATOM      8  C   UNL     1      20.048  -3.662 -36.803  1.00  0.00     0.123 A 
ATOM      9  C   UNL     1      20.882  -4.453 -36.006  1.00  0.00     0.094 A 
ATOM     10  C   UNL     1      21.637  -3.872 -34.983  1.00  0.00     0.146 A 
ATOM     11  O   UNL     1      22.417  -4.646 -34.237  1.00  0.00    -0.452 OA
ENDROOT
BRANCH   1  12
ATOM     12  C   UNL     1      23.985  -5.153 -32.475  1.00  0.00     0.029 A 
ATOM     13  C   UNL     1      25.367  -4.945 -32.357  1.00  0.00     0.062 A 
ATOM     14  C   UNL     1      26.168  -5.854 -31.659  1.00  0.00     0.162 A 
ATOM     15  C   UNL     1      23.416  -6.308 -31.913  1.00  0.00     0.062 A 
ATOM     16  C   UNL     1      25.593  -6.998 -31.079  1.00  0.00     0.200 A 
ATOM     17  C   UNL     1      24.212  -7.225 -31.213  1.00  0.00     0.162 A 
BRANCH  14  18
ATOM     18  O   UNL     1      27.537  -5.604 -31.551  1.00  0.00    -0.504 OA
ATOM     19  H   UNL     1      28.106  -5.366 -32.354  1.00  0.00     0.293 HD
ENDBRANCH  14  18
BRANCH  16  20
ATOM     20  O   UNL     1      26.398  -7.898 -30.382  1.00  0.00    -0.502 OA
ATOM     21  H   UNL     1      26.453  -8.879 -30.631  1.00  0.00     0.293 HD
ENDBRANCH  16  20
BRANCH  17  22
ATOM     22  O   UNL     1      23.636  -8.365 -30.653  1.00  0.00    -0.504 OA
ATOM     23  H   UNL     1      22.764  -8.322 -30.139  1.00  0.00     0.293 HD
ENDBRANCH  17  22
ENDBRANCH   1  12
BRANCH   2  24
ATOM     24  O   UNL     1      24.006  -2.300 -31.949  1.00  0.00    -0.502 OA
ATOM     25  H   UNL     1      24.744  -1.632 -32.142  1.00  0.00     0.293 HD
ENDBRANCH   2  24
BRANCH   6  26
ATOM     26  O   UNL     1      20.619  -0.308 -35.355  1.00  0.00    -0.507 OA
ATOM     27  H   UNL     1      20.278   0.080 -34.483  1.00  0.00     0.293 HD
ENDBRANCH   6  26
BRANCH   8  28
ATOM     28  O   UNL     1      19.293  -4.234 -37.826  1.00  0.00    -0.508 OA
ATOM     29  H   UNL     1      18.396  -4.670 -37.643  1.00  0.00     0.293 HD
ENDBRANCH   8  28
TORSDOF 7
ENDMDL
MODEL 5
REMARK VINA RESULT:    -4.839      1.271      7.329
REMARK INTER + INTRA:          -6.108
REMARK INTER:                  -5.934
REMARK INTRA:                  -0.174
REMARK UNBOUND:                -0.137
REMARK SMILES O=c1c(O)c(-c2cc(O)c(O)c(O)c2)oc2cc(O)cc(O)c12
REMARK SMILES IDX 5 1 3 2 2 3 1 4 23 5 21 6 20 7 18 8 17 9 16 10 15 11 6 12
REMARK SMILES IDX 7 13 8 14 14 15 10 16 12 17 9 18 11 20 13 22 4 24 22 26
REMARK SMILES IDX 19 28
REMARK H PARENT 9 19 11 21 13 23 4 25 22 27 19 29
REMARK Flexibility Score: inf
ROOT
ATOM      1  C   UNL     1      21.294  -1.402 -24.891  1.00  0.00     0.180 A 
ATOM      2  C   UNL     1      20.896  -2.579 -25.553  1.00  0.00     0.208 A 
ATOM      3  C   UNL     1      19.958  -2.489 -26.592  1.00  0.00     0.238 A 
ATOM      4  O   UNL     1      19.601  -3.535 -27.199  1.00  0.00    -0.285 OA
ATOM      5  C   UNL     1      19.421  -1.232 -26.940  1.00  0.00     0.111 A 
ATOM      6  C   UNL     1      18.469  -1.054 -27.973  1.00  0.00     0.134 A 
ATOM      7  C   UNL     1      17.976   0.228 -28.251  1.00  0.00     0.093 A 
ATOM      8  C   UNL     1      18.414   1.335 -27.520  1.00  0.00     0.123 A 
ATOM      9  C   UNL     1      19.355   1.166 -26.499  1.00  0.00     0.094 A 
ATOM     10  C   UNL     1      19.859  -0.104 -26.207  1.00  0.00     0.146 A 
ATOM     11  O   UNL     1      20.756  -0.235 -25.235  1.00  0.00    -0.452 OA
ENDROOT
BRANCH   1  12
ATOM     12  C   UNL     1      22.293  -1.413 -23.797  1.00  0.00     0.029 A 
ATOM     13  C   UNL     1      23.527  -0.773 -23.983  1.00  0.00     0.062 A 
ATOM     14  C   UNL     1      24.497  -0.786 -22.976  1.00  0.00     0.162 A 
ATOM     15  C   UNL     1      22.054  -2.101 -22.596  1.00  0.00     0.062 A 
ATOM     16  C   UNL     1      24.246  -1.457 -21.767  1.00  0.00     0.200 A 
ATOM     17  C   UNL     1      23.020  -2.121 -21.582  1.00  0.00     0.162 A 
BRANCH  14  18
ATOM     18  O   UNL     1      25.707  -0.125 -23.195  1.00  0.00    -0.504 OA
ATOM     19  H   UNL     1      25.754   0.873 -23.360  1.00  0.00     0.293 HD
ENDBRANCH  14  18
BRANCH  16  20
ATOM     20  O   UNL     1      25.217  -1.463 -20.766  1.00  0.00    -0.502 OA
ATOM     21  H   UNL     1      25.090  -0.977 -19.886  1.00  0.00     0.293 HD
ENDBRANCH  16  20
BRANCH  17  22
ATOM     22  O   UNL     1      22.771  -2.802 -20.391  1.00  0.00    -0.504 OA
ATOM     23  H   UNL     1      22.200  -3.639 -20.367  1.00  0.00     0.293 HD
ENDBRANCH  17  22
ENDBRANCH   1  12
BRANCH   2  24
ATOM     24  O   UNL     1      21.406  -3.818 -25.156  1.00  0.00    -0.502 OA
ATOM     25  H   UNL     1      22.377  -4.073 -25.290  1.00  0.00     0.293 HD
ENDBRANCH   2  24
BRANCH   6  26
ATOM     26  O   UNL     1      18.011  -2.140 -28.720  1.00  0.00    -0.507 OA
ATOM     27  H   UNL     1      17.029  -2.255 -28.945  1.00  0.00     0.293 HD
ENDBRANCH   6  26
BRANCH   8  28
ATOM     28  O   UNL     1      17.907   2.599 -27.816  1.00  0.00    -0.508 OA
ATOM     29  H   UNL     1      18.514   3.405 -27.909  1.00  0.00     0.293 HD
ENDBRANCH   8  28
TORSDOF 7
ENDMDL
MODEL 6
REMARK VINA RESULT:    -4.788      1.916      3.349
REMARK INTER + INTRA:          -6.045
REMARK INTER:                  -5.698
REMARK INTRA:                  -0.347
REMARK UNBOUND:                -0.137
REMARK SMILES O=c1c(O)c(-c2cc(O)c(O)c(O)c2)oc2cc(O)cc(O)c12
REMARK SMILES IDX 5 1 3 2 2 3 1 4 23 5 21 6 20 7 18 8 17 9 16 10 15 11 6 12
REMARK SMILES IDX 7 13 8 14 14 15 10 16 12 17 9 18 11 20 13 22 4 24 22 26
REMARK SMILES IDX 19 28
REMARK H PARENT 9 19 11 21 13 23 4 25 22 27 19 29
REMARK Flexibility Score: inf
ROOT
ATOM      1  C   UNL     1      20.900  -0.658 -25.967  1.00  0.00     0.180 A 
ATOM      2  C   UNL     1      20.332  -1.939 -25.830  1.00  0.00     0.208 A 
ATOM      3  C   UNL     1      20.715  -2.738 -24.742  1.00  0.00     0.238 A 
ATOM      4  O   UNL     1      20.205  -3.883 -24.603  1.00  0.00    -0.285 OA
ATOM      5  C   UNL     1      21.670  -2.254 -23.824  1.00  0.00     0.111 A 
ATOM      6  C   UNL     1      22.113  -2.997 -22.703  1.00  0.00     0.134 A 
ATOM      7  C   UNL     1      23.074  -2.450 -21.842  1.00  0.00     0.093 A 
ATOM      8  C   UNL     1      23.600  -1.177 -22.077  1.00  0.00     0.123 A 
ATOM      9  C   UNL     1      23.166  -0.438 -23.182  1.00  0.00     0.094 A 
ATOM     10  C   UNL     1      22.208  -0.966 -24.052  1.00  0.00     0.146 A 
ATOM     11  O   UNL     1      21.810  -0.240 -25.091  1.00  0.00    -0.452 OA
ENDROOT
BRANCH   1  12
ATOM     12  C   UNL     1      20.533   0.251 -27.078  1.00  0.00     0.029 A 
ATOM     13  C   UNL     1      19.373   1.033 -26.974  1.00  0.00     0.062 A 
ATOM     14  C   UNL     1      18.990   1.884 -28.015  1.00  0.00     0.162 A 
ATOM     15  C   UNL     1      21.290   0.306 -28.260  1.00  0.00     0.062 A 
ATOM     16  C   UNL     1      19.761   1.952 -29.187  1.00  0.00     0.200 A 
ATOM     17  C   UNL     1      20.913   1.154 -29.309  1.00  0.00     0.162 A 
BRANCH  14  18
ATOM     18  O   UNL     1      17.837   2.657 -27.867  1.00  0.00    -0.504 OA
ATOM     19  H   UNL     1      17.848   3.665 -27.960  1.00  0.00     0.293 HD
ENDBRANCH  14  18
BRANCH  16  20
ATOM     20  O   UNL     1      19.375   2.806 -30.220  1.00  0.00    -0.502 OA
ATOM     21  H   UNL     1      18.430   2.820 -30.586  1.00  0.00     0.293 HD
ENDBRANCH  16  20
BRANCH  17  22
ATOM     22  O   UNL     1      21.676   1.206 -30.475  1.00  0.00    -0.504 OA
ATOM     23  H   UNL     1      22.261   0.429 -30.762  1.00  0.00     0.293 HD
ENDBRANCH  17  22
ENDBRANCH   1  12
BRANCH   2  24
ATOM     24  O   UNL     1      19.425  -2.413 -26.781  1.00  0.00    -0.502 OA
ATOM     25  H   UNL     1      18.438  -2.184 -26.752  1.00  0.00     0.293 HD
ENDBRANCH   2  24
BRANCH   6  26
ATOM     26  O   UNL     1      21.608  -4.272 -22.442  1.00  0.00    -0.507 OA
ATOM     27  H   UNL     1      20.801  -4.413 -21.845  1.00  0.00     0.293 HD
ENDBRANCH   6  26
BRANCH   8  28
ATOM     28  O   UNL     1      24.555  -0.657 -21.206  1.00  0.00    -0.508 OA
ATOM     29  H   UNL     1      25.538  -0.631 -21.450  1.00  0.00     0.293 HD
ENDBRANCH   8  28
TORSDOF 7
ENDMDL
MODEL 7
REMARK VINA RESULT:    -4.779      1.198      2.815
REMARK INTER + INTRA:          -6.033
REMARK INTER:                  -5.819
REMARK INTRA:                  -0.215
REMARK UNBOUND:                -0.137
REMARK SMILES O=c1c(O)c(-c2cc(O)c(O)c(O)c2)oc2cc(O)cc(O)c12
REMARK SMILES IDX 5 1 3 2 2 3 1 4 23 5 21 6 20 7 18 8 17 9 16 10 15 11 6 12
REMARK SMILES IDX 7 13 8 14 14 15 10 16 12 17 9 18 11 20 13 22 4 24 22 26
REMARK SMILES IDX 19 28
REMARK H PARENT 9 19 11 21 13 23 4 25 22 27 19 29
REMARK Flexibility Score: inf
ROOT
ATOM      1  C   UNL     1      21.118  -0.491 -25.333  1.00  0.00     0.180 A 
ATOM      2  C   UNL     1      20.940  -1.235 -24.151  1.00  0.00     0.208 A 
ATOM      3  C   UNL     1      22.025  -1.385 -23.274  1.00  0.00     0.238 A 
ATOM      4  O   UNL     1      21.875  -2.040 -22.207  1.00  0.00    -0.285 OA
ATOM      5  C   UNL     1      23.270  -0.808 -23.600  1.00  0.00     0.111 A 
ATOM      6  C   UNL     1      24.414  -0.915 -22.772  1.00  0.00     0.134 A 
ATOM      7  C   UNL     1      25.620  -0.321 -23.172  1.00  0.00     0.093 A 
ATOM      8  C   UNL     1      25.704   0.377 -24.379  1.00  0.00     0.123 A 
ATOM      9  C   UNL     1      24.577   0.487 -25.201  1.00  0.00     0.094 A 
ATOM     10  C   UNL     1      23.367  -0.097 -24.820  1.00  0.00     0.146 A 
ATOM     11  O   UNL     1      22.311   0.027 -25.616  1.00  0.00    -0.452 OA
ENDROOT
BRANCH   1  12
ATOM     12  C   UNL     1      20.017  -0.273 -26.299  1.00  0.00     0.029 A 
ATOM     13  C   UNL     1      19.524  -1.358 -27.040  1.00  0.00     0.062 A 
ATOM     14  C   UNL     1      18.499  -1.178 -27.973  1.00  0.00     0.162 A 
ATOM     15  C   UNL     1      19.491   1.009 -26.532  1.00  0.00     0.062 A 
ATOM     16  C   UNL     1      17.961   0.102 -28.189  1.00  0.00     0.200 A 
ATOM     17  C   UNL     1      18.465   1.199 -27.467  1.00  0.00     0.162 A 
BRANCH  14  18
ATOM     18  O   UNL     1      18.027  -2.285 -28.680  1.00  0.00    -0.504 OA
ATOM     19  H   UNL     1      17.845  -3.173 -28.230  1.00  0.00     0.293 HD
ENDBRANCH  14  18
BRANCH  16  20
ATOM     20  O   UNL     1      16.937   0.274 -29.120  1.00  0.00    -0.502 OA
ATOM     21  H   UNL     1      16.518  -0.506 -29.613  1.00  0.00     0.293 HD
ENDBRANCH  16  20
BRANCH  17  22
ATOM     22  O   UNL     1      17.946   2.475 -27.686  1.00  0.00    -0.504 OA
ATOM     23  H   UNL     1      18.169   3.002 -28.523  1.00  0.00     0.293 HD
ENDBRANCH  17  22
ENDBRANCH   1  12
BRANCH   2  24
ATOM     24  O   UNL     1      19.710  -1.838 -23.876  1.00  0.00    -0.502 OA
ATOM     25  H   UNL     1      19.050  -2.081 -24.605  1.00  0.00     0.293 HD
ENDBRANCH   2  24
BRANCH   6  26
ATOM     26  O   UNL     1      24.362  -1.606 -21.561  1.00  0.00    -0.507 OA
ATOM     27  H   UNL     1      25.009  -2.356 -21.348  1.00  0.00     0.293 HD
ENDBRANCH   6  26
BRANCH   8  28
ATOM     28  O   UNL     1      26.915   0.958 -24.754  1.00  0.00    -0.508 OA
ATOM     29  H   UNL     1      27.456   1.520 -24.107  1.00  0.00     0.293 HD
ENDBRANCH   8  28
TORSDOF 7
ENDMDL
MODEL 8
REMARK VINA RESULT:    -4.665     15.026     17.213
REMARK INTER + INTRA:          -5.893
REMARK INTER:                  -5.533
REMARK INTRA:                  -0.360
REMARK UNBOUND:                -0.137
REMARK SMILES O=c1c(O)c(-c2cc(O)c(O)c(O)c2)oc2cc(O)cc(O)c12
REMARK SMILES IDX 5 1 3 2 2 3 1 4 23 5 21 6 20 7 18 8 17 9 16 10 15 11 6 12
REMARK SMILES IDX 7 13 8 14 14 15 10 16 12 17 9 18 11 20 13 22 4 24 22 26
REMARK SMILES IDX 19 28
REMARK H PARENT 9 19 11 21 13 23 4 25 22 27 19 29
REMARK Flexibility Score: inf
ROOT
ATOM      1  C   UNL     1      16.395 -10.394 -37.900  1.00  0.00     0.180 A 
ATOM      2  C   UNL     1      15.635 -11.395 -38.536  1.00  0.00     0.208 A 
ATOM      3  C   UNL     1      16.084 -12.723 -38.483  1.00  0.00     0.238 A 
ATOM      4  O   UNL     1      15.406 -13.630 -39.040  1.00  0.00    -0.285 OA
ATOM      5  C   UNL     1      17.289 -13.026 -37.817  1.00  0.00     0.111 A 
ATOM      6  C   UNL     1      17.813 -14.338 -37.721  1.00  0.00     0.134 A 
ATOM      7  C   UNL     1      19.024 -14.556 -37.049  1.00  0.00     0.093 A 
ATOM      8  C   UNL     1      19.720 -13.492 -36.472  1.00  0.00     0.123 A 
ATOM      9  C   UNL     1      19.208 -12.193 -36.562  1.00  0.00     0.094 A 
ATOM     10  C   UNL     1      18.002 -11.956 -37.227  1.00  0.00     0.146 A 
ATOM     11  O   UNL     1      17.535 -10.714 -37.294  1.00  0.00    -0.452 OA
ENDROOT
BRANCH   1  12
ATOM     12  C   UNL     1      15.977  -8.973 -37.896  1.00  0.00     0.029 A 
ATOM     13  C   UNL     1      16.382  -8.132 -38.943  1.00  0.00     0.062 A 
ATOM     14  C   UNL     1      16.020  -6.781 -38.954  1.00  0.00     0.162 A 
ATOM     15  C   UNL     1      15.231  -8.433 -36.835  1.00  0.00     0.062 A 
ATOM     16  C   UNL     1      15.256  -6.250 -37.902  1.00  0.00     0.200 A 
ATOM     17  C   UNL     1      14.865  -7.081 -36.837  1.00  0.00     0.162 A 
BRANCH  14  18
ATOM     18  O   UNL     1      16.431  -5.981 -40.021  1.00  0.00    -0.504 OA
ATOM     19  H   UNL     1      16.888  -6.366 -40.839  1.00  0.00     0.293 HD
ENDBRANCH  14  18
BRANCH  16  20
ATOM     20  O   UNL     1      14.897  -4.902 -37.921  1.00  0.00    -0.502 OA
ATOM     21  H   UNL     1      13.997  -4.577 -37.586  1.00  0.00     0.293 HD
ENDBRANCH  16  20
BRANCH  17  22
ATOM     22  O   UNL     1      14.119  -6.556 -35.782  1.00  0.00    -0.504 OA
ATOM     23  H   UNL     1      13.641  -7.157 -35.119  1.00  0.00     0.293 HD
ENDBRANCH  17  22
ENDBRANCH   1  12
BRANCH   2  24
ATOM     24  O   UNL     1      14.470 -11.061 -39.232  1.00  0.00    -0.502 OA
ATOM     25  H   UNL     1      13.546 -11.183 -38.833  1.00  0.00     0.293 HD
ENDBRANCH   2  24
BRANCH   6  26
ATOM     26  O   UNL     1      17.142 -15.422 -38.289  1.00  0.00    -0.507 OA
ATOM     27  H   UNL     1      16.829 -16.207 -37.729  1.00  0.00     0.293 HD
ENDBRANCH   6  26
BRANCH   8  28
ATOM     28  O   UNL     1      20.923 -13.735 -35.810  1.00  0.00    -0.508 OA
ATOM     29  H   UNL     1      21.592 -12.994 -35.636  1.00  0.00     0.293 HD
ENDBRANCH   8  28
TORSDOF 7
ENDMDL
MODEL 9
REMARK VINA RESULT:    -4.636      1.741      6.524
REMARK INTER + INTRA:          -5.858
REMARK INTER:                  -5.689
REMARK INTRA:                  -0.169
REMARK UNBOUND:                -0.137
REMARK SMILES O=c1c(O)c(-c2cc(O)c(O)c(O)c2)oc2cc(O)cc(O)c12
REMARK SMILES IDX 5 1 3 2 2 3 1 4 23 5 21 6 20 7 18 8 17 9 16 10 15 11 6 12
REMARK SMILES IDX 7 13 8 14 14 15 10 16 12 17 9 18 11 20 13 22 4 24 22 26
REMARK SMILES IDX 19 28
REMARK H PARENT 9 19 11 21 13 23 4 25 22 27 19 29
REMARK Flexibility Score: inf
ROOT
ATOM      1  C   UNL     1      21.777  -1.111 -24.637  1.00  0.00     0.180 A 
ATOM      2  C   UNL     1      22.776  -0.169 -24.948  1.00  0.00     0.208 A 
ATOM      3  C   UNL     1      22.475   0.870 -25.842  1.00  0.00     0.238 A 
ATOM      4  O   UNL     1      23.358   1.725 -26.121  1.00  0.00    -0.285 OA
ATOM      5  C   UNL     1      21.191   0.939 -26.422  1.00  0.00     0.111 A 
ATOM      6  C   UNL     1      20.807   1.952 -27.335  1.00  0.00     0.134 A 
ATOM      7  C   UNL     1      19.513   1.946 -27.876  1.00  0.00     0.093 A 
ATOM      8  C   UNL     1      18.599   0.951 -27.525  1.00  0.00     0.123 A 
ATOM      9  C   UNL     1      18.972  -0.052 -26.623  1.00  0.00     0.094 A 
ATOM     10  C   UNL     1      20.255  -0.063 -26.072  1.00  0.00     0.146 A 
ATOM     11  O   UNL     1      20.582  -1.023 -25.215  1.00  0.00    -0.452 OA
ENDROOT
BRANCH   1  12
ATOM     12  C   UNL     1      22.014  -2.224 -23.689  1.00  0.00     0.029 A 
ATOM     13  C   UNL     1      21.813  -3.546 -24.114  1.00  0.00     0.062 A 
ATOM     14  C   UNL     1      22.008  -4.616 -23.235  1.00  0.00     0.162 A 
ATOM     15  C   UNL     1      22.379  -1.983 -22.354  1.00  0.00     0.062 A 
ATOM     16  C   UNL     1      22.395  -4.372 -21.906  1.00  0.00     0.200 A 
ATOM     17  C   UNL     1      22.576  -3.049 -21.466  1.00  0.00     0.162 A 
BRANCH  14  18
ATOM     18  O   UNL     1      21.813  -5.916 -23.700  1.00  0.00    -0.504 OA
ATOM     19  H   UNL     1      22.052  -6.729 -23.146  1.00  0.00     0.293 HD
ENDBRANCH  14  18
BRANCH  16  20
ATOM     20  O   UNL     1      22.590  -5.444 -21.036  1.00  0.00    -0.502 OA
ATOM     21  H   UNL     1      22.479  -6.407 -21.330  1.00  0.00     0.293 HD
ENDBRANCH  16  20
BRANCH  17  22
ATOM     22  O   UNL     1      22.945  -2.799 -20.144  1.00  0.00    -0.504 OA
ATOM     23  H   UNL     1      22.360  -2.249 -19.524  1.00  0.00     0.293 HD
ENDBRANCH  17  22
ENDBRANCH   1  12
BRANCH   2  24
ATOM     24  O   UNL     1      24.055  -0.289 -24.398  1.00  0.00    -0.502 OA
ATOM     25  H   UNL     1      24.222  -0.743 -23.507  1.00  0.00     0.293 HD
ENDBRANCH   2  24
BRANCH   6  26
ATOM     26  O   UNL     1      21.699   2.958 -27.706  1.00  0.00    -0.507 OA
ATOM     27  H   UNL     1      21.441   3.680 -28.370  1.00  0.00     0.293 HD
ENDBRANCH   6  26
BRANCH   8  28
ATOM     28  O   UNL     1      17.320   0.967 -28.078  1.00  0.00    -0.508 OA
ATOM     29  H   UNL     1      16.811   0.110 -28.265  1.00  0.00     0.293 HD
ENDBRANCH   8  28
TORSDOF 7
ENDMDL
