MODEL 1
REMARK VINA RESULT:    -8.362      0.000      0.000
REMARK INTER + INTRA:         -12.658
REMARK INTER:                 -11.784
REMARK INTRA:                  -0.873
REMARK UNBOUND:                -0.873
REMARK SMILES OCC1=C[C@@H](O)[C@@H]2C=CO[C@@H](O[C@@H]3O[C@@H](CO)[C@@H](O)[C@@H](O)[C@@H]3O)[C@H]12
REMARK SMILES IDX 12 1 11 2 8 3 9 4 7 5 10 6 24 7 5 8 3 9 4 10 6 11 2 13 1 14
REMARK SMILES IDX 13 16 22 17 14 18 20 19 15 20 18 21 23 22 21 24 16 26 17 27
REMARK SMILES IDX 19 29
REMARK H PARENT 6 12 1 15 23 23 21 25 17 28 19 30
REMARK Flexibility Score: inf
ROOT
ATOM      1  O   UNL     1     -30.717  16.718  56.229  1.00  0.00    -0.310 OA
ENDROOT
BRANCH   1   2
ATOM      2  C   UNL     1     -32.125  16.566  56.233  1.00  0.00     0.316 C 
ATOM      3  C   UNL     1     -32.072  14.384  58.051  1.00  0.00     0.018 C 
ATOM      4  C   UNL     1     -32.369  15.610  58.481  1.00  0.00     0.186 C 
ATOM      5  C   UNL     1     -32.127  14.006  56.583  1.00  0.00     0.061 C 
ATOM      6  O   UNL     1     -32.605  16.641  57.573  1.00  0.00    -0.472 OA
ATOM      7  C   UNL     1     -32.460  15.187  55.629  1.00  0.00     0.096 C 
ATOM      8  C   UNL     1     -33.275  12.995  56.367  1.00  0.00     0.145 C 
ATOM      9  C   UNL     1     -33.916  14.991  55.318  1.00  0.00    -0.036 C 
ATOM     10  C   UNL     1     -34.349  13.805  55.730  1.00  0.00     0.007 C 
BRANCH   8  11
ATOM     11  O   UNL     1     -32.882  11.983  55.481  1.00  0.00    -0.388 OA
ATOM     12  H   UNL     1     -31.896  11.908  55.561  1.00  0.00     0.211 HD
ENDBRANCH   8  11
BRANCH   9  13
ATOM     13  C   UNL     1     -34.752  15.912  54.465  1.00  0.00     0.187 C 
BRANCH  13  14
ATOM     14  O   UNL     1     -35.305  16.937  55.248  1.00  0.00    -0.392 OA
ATOM     15  H   UNL     1     -35.579  16.527  56.109  1.00  0.00     0.211 HD
ENDBRANCH  13  14
ENDBRANCH   9  13
ENDBRANCH   1   2
BRANCH   1  16
ATOM     16  C   UNL     1     -30.337  17.950  56.824  1.00  0.00     0.286 C 
ATOM     17  C   UNL     1     -28.955  17.816  57.501  1.00  0.00     0.202 C 
ATOM     18  O   UNL     1     -30.330  19.005  55.870  1.00  0.00    -0.341 OA
ATOM     19  C   UNL     1     -27.841  17.628  56.449  1.00  0.00     0.179 C 
ATOM     20  C   UNL     1     -29.419  18.747  54.812  1.00  0.00     0.178 C 
ATOM     21  C   UNL     1     -27.960  18.688  55.337  1.00  0.00     0.177 C 
BRANCH  17  22
ATOM     22  O   UNL     1     -28.956  16.768  58.441  1.00  0.00    -0.385 OA
ATOM     23  H   UNL     1     -28.017  16.597  58.711  1.00  0.00     0.211 HD
ENDBRANCH  17  22
BRANCH  19  24
ATOM     24  O   UNL     1     -26.577  17.721  57.055  1.00  0.00    -0.387 OA
ATOM     25  H   UNL     1     -25.903  17.650  56.329  1.00  0.00     0.211 HD
ENDBRANCH  19  24
BRANCH  20  26
ATOM     26  C   UNL     1     -29.593  19.830  53.741  1.00  0.00     0.191 C 
BRANCH  26  27
ATOM     27  O   UNL     1     -28.358  20.136  53.154  1.00  0.00    -0.394 OA
ATOM     28  H   UNL     1     -28.515  20.155  52.174  1.00  0.00     0.210 HD
ENDBRANCH  26  27
ENDBRANCH  20  26
BRANCH  21  29
ATOM     29  O   UNL     1     -27.505  19.946  55.780  1.00  0.00    -0.387 OA
ATOM     30  H   UNL     1     -28.242  20.387  56.276  1.00  0.00     0.211 HD
ENDBRANCH  21  29
ENDBRANCH   1  16
TORSDOF 10
ENDMDL
MODEL 2
REMARK VINA RESULT:    -8.296      2.123      3.559
REMARK INTER + INTRA:         -12.565
REMARK INTER:                 -11.705
REMARK INTRA:                  -0.859
REMARK UNBOUND:                -0.873
REMARK SMILES OCC1=C[C@@H](O)[C@@H]2C=CO[C@@H](O[C@@H]3O[C@@H](CO)[C@@H](O)[C@@H](O)[C@@H]3O)[C@H]12
REMARK SMILES IDX 12 1 11 2 8 3 9 4 7 5 10 6 24 7 5 8 3 9 4 10 6 11 2 13 1 14
REMARK SMILES IDX 13 16 22 17 14 18 20 19 15 20 18 21 23 22 21 24 16 26 17 27
REMARK SMILES IDX 19 29
REMARK H PARENT 6 12 1 15 23 23 21 25 17 28 19 30
REMARK Flexibility Score: inf
ROOT
ATOM      1  O   UNL     1     -31.439  17.430  56.936  1.00  0.00    -0.310 OA
ENDROOT
BRANCH   1   2
ATOM      2  C   UNL     1     -31.893  16.352  57.733  1.00  0.00     0.316 C 
ATOM      3  C   UNL     1     -32.420  14.677  55.501  1.00  0.00     0.018 C 
ATOM      4  C   UNL     1     -31.306  14.517  56.212  1.00  0.00     0.186 C 
ATOM      5  C   UNL     1     -33.613  15.451  56.028  1.00  0.00     0.061 C 
ATOM      6  O   UNL     1     -31.137  15.184  57.425  1.00  0.00    -0.472 OA
ATOM      7  C   UNL     1     -33.384  16.115  57.415  1.00  0.00     0.096 C 
ATOM      8  C   UNL     1     -34.787  14.473  56.255  1.00  0.00     0.145 C 
ATOM      9  C   UNL     1     -34.075  15.187  58.372  1.00  0.00    -0.036 C 
ATOM     10  C   UNL     1     -34.825  14.296  57.733  1.00  0.00     0.007 C 
BRANCH   8  11
ATOM     11  O   UNL     1     -35.995  15.045  55.834  1.00  0.00    -0.388 OA
ATOM     12  H   UNL     1     -36.647  14.300  55.759  1.00  0.00     0.211 HD
ENDBRANCH   8  11
BRANCH   9  13
ATOM     13  C   UNL     1     -34.103  15.349  59.871  1.00  0.00     0.187 C 
BRANCH  13  14
ATOM     14  O   UNL     1     -33.028  14.663  60.457  1.00  0.00    -0.392 OA
ATOM     15  H   UNL     1     -32.515  15.327  60.986  1.00  0.00     0.211 HD
ENDBRANCH  13  14
ENDBRANCH   9  13
ENDBRANCH   1   2
BRANCH   1  16
ATOM     16  C   UNL     1     -30.059  17.680  57.158  1.00  0.00     0.286 C 
ATOM     17  C   UNL     1     -29.439  18.396  55.937  1.00  0.00     0.202 C 
ATOM     18  O   UNL     1     -29.855  18.440  58.344  1.00  0.00    -0.341 OA
ATOM     19  C   UNL     1     -29.991  19.831  55.799  1.00  0.00     0.179 C 
ATOM     20  C   UNL     1     -30.508  19.699  58.277  1.00  0.00     0.178 C 
ATOM     21  C   UNL     1     -29.909  20.576  57.146  1.00  0.00     0.177 C 
BRANCH  17  22
ATOM     22  O   UNL     1     -29.644  17.651  54.761  1.00  0.00    -0.385 OA
ATOM     23  H   UNL     1     -29.926  16.736  55.022  1.00  0.00     0.211 HD
ENDBRANCH  17  22
BRANCH  19  24
ATOM     24  O   UNL     1     -29.270  20.540  54.824  1.00  0.00    -0.387 OA
ATOM     25  H   UNL     1     -28.563  19.929  54.488  1.00  0.00     0.211 HD
ENDBRANCH  19  24
BRANCH  20  26
ATOM     26  C   UNL     1     -30.395  20.381  59.645  1.00  0.00     0.191 C 
BRANCH  26  27
ATOM     27  O   UNL     1     -30.349  21.773  59.491  1.00  0.00    -0.394 OA
ATOM     28  H   UNL     1     -29.464  21.978  59.091  1.00  0.00     0.210 HD
ENDBRANCH  26  27
ENDBRANCH  20  26
BRANCH  21  29
ATOM     29  O   UNL     1     -28.588  20.975  57.429  1.00  0.00    -0.387 OA
ATOM     30  H   UNL     1     -27.977  20.486  56.819  1.00  0.00     0.211 HD
ENDBRANCH  21  29
ENDBRANCH   1  16
TORSDOF 10
ENDMDL
MODEL 3
REMARK VINA RESULT:    -8.263      2.051      3.447
REMARK INTER + INTRA:         -12.518
REMARK INTER:                 -11.622
REMARK INTRA:                  -0.896
REMARK UNBOUND:                -0.873
REMARK SMILES OCC1=C[C@@H](O)[C@@H]2C=CO[C@@H](O[C@@H]3O[C@@H](CO)[C@@H](O)[C@@H](O)[C@@H]3O)[C@H]12
REMARK SMILES IDX 12 1 11 2 8 3 9 4 7 5 10 6 24 7 5 8 3 9 4 10 6 11 2 13 1 14
REMARK SMILES IDX 13 16 22 17 14 18 20 19 15 20 18 21 23 22 21 24 16 26 17 27
REMARK SMILES IDX 19 29
REMARK H PARENT 6 12 1 15 23 23 21 25 17 28 19 30
REMARK Flexibility Score: inf
ROOT
ATOM      1  O   UNL     1     -30.801  16.728  57.425  1.00  0.00    -0.310 OA
ENDROOT
BRANCH   1   2
ATOM      2  C   UNL     1     -31.234  15.618  56.659  1.00  0.00     0.316 C 
ATOM      3  C   UNL     1     -33.981  16.055  57.235  1.00  0.00     0.018 C 
ATOM      4  C   UNL     1     -33.469  16.448  56.070  1.00  0.00     0.186 C 
ATOM      5  C   UNL     1     -33.282  15.048  58.129  1.00  0.00     0.061 C 
ATOM      6  O   UNL     1     -32.186  16.054  55.691  1.00  0.00    -0.472 OA
ATOM      7  C   UNL     1     -31.884  14.598  57.616  1.00  0.00     0.096 C 
ATOM      8  C   UNL     1     -34.116  13.749  58.173  1.00  0.00     0.145 C 
ATOM      9  C   UNL     1     -32.149  13.257  56.996  1.00  0.00    -0.036 C 
ATOM     10  C   UNL     1     -33.363  12.811  57.296  1.00  0.00     0.007 C 
BRANCH   8  11
ATOM     11  O   UNL     1     -34.151  13.228  59.474  1.00  0.00    -0.388 OA
ATOM     12  H   UNL     1     -34.622  12.357  59.414  1.00  0.00     0.211 HD
ENDBRANCH   8  11
BRANCH   9  13
ATOM     13  C   UNL     1     -31.119  12.407  56.295  1.00  0.00     0.187 C 
BRANCH  13  14
ATOM     14  O   UNL     1     -31.126  12.668  54.917  1.00  0.00    -0.392 OA
ATOM     15  H   UNL     1     -31.211  11.793  54.456  1.00  0.00     0.211 HD
ENDBRANCH  13  14
ENDBRANCH   9  13
ENDBRANCH   1   2
BRANCH   1  16
ATOM     16  C   UNL     1     -30.111  17.667  56.613  1.00  0.00     0.286 C 
ATOM     17  C   UNL     1     -30.214  19.082  57.224  1.00  0.00     0.202 C 
ATOM     18  O   UNL     1     -28.750  17.294  56.433  1.00  0.00    -0.341 OA
ATOM     19  C   UNL     1     -29.417  19.174  58.543  1.00  0.00     0.179 C 
ATOM     20  C   UNL     1     -28.060  17.218  57.672  1.00  0.00     0.178 C 
ATOM     21  C   UNL     1     -27.996  18.608  58.358  1.00  0.00     0.177 C 
BRANCH  17  22
ATOM     22  O   UNL     1     -31.559  19.452  57.409  1.00  0.00    -0.385 OA
ATOM     23  H   UNL     1     -31.582  20.223  58.033  1.00  0.00     0.211 HD
ENDBRANCH  17  22
BRANCH  19  24
ATOM     24  O   UNL     1     -29.340  20.508  58.975  1.00  0.00    -0.387 OA
ATOM     25  H   UNL     1     -28.508  20.889  58.588  1.00  0.00     0.211 HD
ENDBRANCH  19  24
BRANCH  20  26
ATOM     26  C   UNL     1     -26.662  16.643  57.419  1.00  0.00     0.191 C 
BRANCH  26  27
ATOM     27  O   UNL     1     -25.734  17.221  58.295  1.00  0.00    -0.394 OA
ATOM     28  H   UNL     1     -25.541  16.535  58.986  1.00  0.00     0.210 HD
ENDBRANCH  26  27
ENDBRANCH  20  26
BRANCH  21  29
ATOM     29  O   UNL     1     -27.174  19.509  57.652  1.00  0.00    -0.387 OA
ATOM     30  H   UNL     1     -26.804  20.165  58.297  1.00  0.00     0.211 HD
ENDBRANCH  21  29
ENDBRANCH   1  16
TORSDOF 10
ENDMDL
MODEL 4
REMARK VINA RESULT:    -8.213      1.836      6.439
REMARK INTER + INTRA:         -12.447
REMARK INTER:                 -11.656
REMARK INTRA:                  -0.791
REMARK UNBOUND:                -0.873
REMARK SMILES OCC1=C[C@@H](O)[C@@H]2C=CO[C@@H](O[C@@H]3O[C@@H](CO)[C@@H](O)[C@@H](O)[C@@H]3O)[C@H]12
REMARK SMILES IDX 12 1 11 2 8 3 9 4 7 5 10 6 24 7 5 8 3 9 4 10 6 11 2 13 1 14
REMARK SMILES IDX 13 16 22 17 14 18 20 19 15 20 18 21 23 22 21 24 16 26 17 27
REMARK SMILES IDX 19 29
REMARK H PARENT 6 12 1 15 23 23 21 25 17 28 19 30
REMARK Flexibility Score: inf
ROOT
ATOM      1  O   UNL     1     -31.791  16.823  56.410  1.00  0.00    -0.310 OA
ENDROOT
BRANCH   1   2
ATOM      2  C   UNL     1     -30.409  17.106  56.286  1.00  0.00     0.316 C 
ATOM      3  C   UNL     1     -30.501  19.290  58.099  1.00  0.00     0.018 C 
ATOM      4  C   UNL     1     -30.053  18.102  58.502  1.00  0.00     0.186 C 
ATOM      5  C   UNL     1     -30.614  19.658  56.633  1.00  0.00     0.061 C 
ATOM      6  O   UNL     1     -29.804  17.088  57.577  1.00  0.00    -0.472 OA
ATOM      7  C   UNL     1     -30.260  18.505  55.652  1.00  0.00     0.096 C 
ATOM      8  C   UNL     1     -29.590  20.769  56.312  1.00  0.00     0.145 C 
ATOM      9  C   UNL     1     -28.862  18.832  55.210  1.00  0.00    -0.036 C 
ATOM     10  C   UNL     1     -28.507  20.057  55.580  1.00  0.00     0.007 C 
BRANCH   8  11
ATOM     11  O   UNL     1     -30.155  21.733  55.465  1.00  0.00    -0.388 OA
ATOM     12  H   UNL     1     -29.407  22.111  54.933  1.00  0.00     0.211 HD
ENDBRANCH   8  11
BRANCH   9  13
ATOM     13  C   UNL     1     -28.025  17.985  54.285  1.00  0.00     0.187 C 
BRANCH  13  14
ATOM     14  O   UNL     1     -26.755  17.765  54.840  1.00  0.00    -0.392 OA
ATOM     15  H   UNL     1     -26.348  18.657  54.994  1.00  0.00     0.211 HD
ENDBRANCH  13  14
ENDBRANCH   9  13
ENDBRANCH   1   2
BRANCH   1  16
ATOM     16  C   UNL     1     -32.052  15.449  56.168  1.00  0.00     0.286 C 
ATOM     17  C   UNL     1     -32.446  14.737  57.480  1.00  0.00     0.202 C 
ATOM     18  O   UNL     1     -33.063  15.281  55.181  1.00  0.00    -0.341 OA
ATOM     19  C   UNL     1     -33.822  15.226  57.982  1.00  0.00     0.179 C 
ATOM     20  C   UNL     1     -34.287  15.881  55.578  1.00  0.00     0.178 C 
ATOM     21  C   UNL     1     -34.859  15.189  56.844  1.00  0.00     0.177 C 
BRANCH  17  22
ATOM     22  O   UNL     1     -31.451  14.907  58.461  1.00  0.00    -0.385 OA
ATOM     23  H   UNL     1     -31.794  14.534  59.314  1.00  0.00     0.211 HD
ENDBRANCH  17  22
BRANCH  19  24
ATOM     24  O   UNL     1     -34.265  14.427  59.049  1.00  0.00    -0.387 OA
ATOM     25  H   UNL     1     -33.783  13.561  58.980  1.00  0.00     0.211 HD
ENDBRANCH  19  24
BRANCH  20  26
ATOM     26  C   UNL     1     -35.268  15.816  54.403  1.00  0.00     0.191 C 
BRANCH  26  27
ATOM     27  O   UNL     1     -35.360  17.067  53.777  1.00  0.00    -0.394 OA
ATOM     28  H   UNL     1     -35.121  16.917  52.825  1.00  0.00     0.210 HD
ENDBRANCH  26  27
ENDBRANCH  20  26
BRANCH  21  29
ATOM     29  O   UNL     1     -35.282  13.871  56.581  1.00  0.00    -0.387 OA
ATOM     30  H   UNL     1     -34.574  13.415  56.056  1.00  0.00     0.211 HD
ENDBRANCH  21  29
ENDBRANCH   1  16
TORSDOF 10
ENDMDL
MODEL 5
REMARK VINA RESULT:    -8.125      1.652      6.704
REMARK INTER + INTRA:         -12.323
REMARK INTER:                 -11.488
REMARK INTRA:                  -0.834
REMARK UNBOUND:                -0.873
REMARK SMILES OCC1=C[C@@H](O)[C@@H]2C=CO[C@@H](O[C@@H]3O[C@@H](CO)[C@@H](O)[C@@H](O)[C@@H]3O)[C@H]12
REMARK SMILES IDX 12 1 11 2 8 3 9 4 7 5 10 6 24 7 5 8 3 9 4 10 6 11 2 13 1 14
REMARK SMILES IDX 13 16 22 17 14 18 20 19 15 20 18 21 23 22 21 24 16 26 17 27
REMARK SMILES IDX 19 29
REMARK H PARENT 6 12 1 15 23 23 21 25 17 28 19 30
REMARK Flexibility Score: inf
ROOT
ATOM      1  O   UNL     1     -31.102  16.091  56.688  1.00  0.00    -0.310 OA
ENDROOT
BRANCH   1   2
ATOM      2  C   UNL     1     -30.379  17.061  57.425  1.00  0.00     0.316 C 
ATOM      3  C   UNL     1     -29.941  18.724  55.166  1.00  0.00     0.018 C 
ATOM      4  C   UNL     1     -30.902  19.018  56.040  1.00  0.00     0.186 C 
ATOM      5  C   UNL     1     -28.812  17.766  55.496  1.00  0.00     0.061 C 
ATOM      6  O   UNL     1     -30.989  18.337  57.253  1.00  0.00    -0.472 OA
ATOM      7  C   UNL     1     -28.932  17.090  56.891  1.00  0.00     0.096 C 
ATOM      8  C   UNL     1     -27.485  18.554  55.559  1.00  0.00     0.145 C 
ATOM      9  C   UNL     1     -27.978  17.871  57.747  1.00  0.00    -0.036 C 
ATOM     10  C   UNL     1     -27.206  18.667  57.017  1.00  0.00     0.007 C 
BRANCH   8  11
ATOM     11  O   UNL     1     -26.451  17.829  54.952  1.00  0.00    -0.388 OA
ATOM     12  H   UNL     1     -26.769  17.597  54.041  1.00  0.00     0.211 HD
ENDBRANCH   8  11
BRANCH   9  13
ATOM     13  C   UNL     1     -27.756  17.650  59.222  1.00  0.00     0.187 C 
BRANCH  13  14
ATOM     14  O   UNL     1     -27.742  18.876  59.904  1.00  0.00    -0.392 OA
ATOM     15  H   UNL     1     -27.460  18.685  60.837  1.00  0.00     0.211 HD
ENDBRANCH  13  14
ENDBRANCH   9  13
ENDBRANCH   1   2
BRANCH   1  16
ATOM     16  C   UNL     1     -31.935  15.320  57.542  1.00  0.00     0.286 C 
ATOM     17  C   UNL     1     -33.422  15.573  57.212  1.00  0.00     0.202 C 
ATOM     18  O   UNL     1     -31.627  13.934  57.452  1.00  0.00    -0.341 OA
ATOM     19  C   UNL     1     -33.786  14.996  55.828  1.00  0.00     0.179 C 
ATOM     20  C   UNL     1     -31.805  13.444  56.131  1.00  0.00     0.178 C 
ATOM     21  C   UNL     1     -33.292  13.542  55.699  1.00  0.00     0.177 C 
BRANCH  17  22
ATOM     22  O   UNL     1     -33.729  16.944  57.295  1.00  0.00    -0.385 OA
ATOM     23  H   UNL     1     -34.713  17.034  57.381  1.00  0.00     0.211 HD
ENDBRANCH  17  22
BRANCH  19  24
ATOM     24  O   UNL     1     -35.177  15.040  55.631  1.00  0.00    -0.387 OA
ATOM     25  H   UNL     1     -35.581  15.323  56.492  1.00  0.00     0.211 HD
ENDBRANCH  19  24
BRANCH  20  26
ATOM     26  C   UNL     1     -31.290  12.002  56.071  1.00  0.00     0.191 C 
BRANCH  26  27
ATOM     27  O   UNL     1     -29.915  11.989  55.804  1.00  0.00    -0.394 OA
ATOM     28  H   UNL     1     -29.770  11.267  55.138  1.00  0.00     0.210 HD
ENDBRANCH  26  27
ENDBRANCH  20  26
BRANCH  21  29
ATOM     29  O   UNL     1     -34.114  12.657  56.425  1.00  0.00    -0.387 OA
ATOM     30  H   UNL     1     -33.661  11.775  56.466  1.00  0.00     0.211 HD
ENDBRANCH  21  29
ENDBRANCH   1  16
TORSDOF 10
ENDMDL
MODEL 6
REMARK VINA RESULT:    -8.063      1.250      1.459
REMARK INTER + INTRA:         -12.236
REMARK INTER:                 -11.354
REMARK INTRA:                  -0.882
REMARK UNBOUND:                -0.873
REMARK SMILES OCC1=C[C@@H](O)[C@@H]2C=CO[C@@H](O[C@@H]3O[C@@H](CO)[C@@H](O)[C@@H](O)[C@@H]3O)[C@H]12
REMARK SMILES IDX 12 1 11 2 8 3 9 4 7 5 10 6 24 7 5 8 3 9 4 10 6 11 2 13 1 14
REMARK SMILES IDX 13 16 22 17 14 18 20 19 15 20 18 21 23 22 21 24 16 26 17 27
REMARK SMILES IDX 19 29
REMARK H PARENT 6 12 1 15 23 23 21 25 17 28 19 30
REMARK Flexibility Score: inf
ROOT
ATOM      1  O   UNL     1     -31.068  16.874  56.708  1.00  0.00    -0.310 OA
ENDROOT
BRANCH   1   2
ATOM      2  C   UNL     1     -32.439  16.551  56.563  1.00  0.00     0.316 C 
ATOM      3  C   UNL     1     -32.269  14.259  58.231  1.00  0.00     0.018 C 
ATOM      4  C   UNL     1     -32.759  15.402  58.708  1.00  0.00     0.186 C 
ATOM      5  C   UNL     1     -32.142  13.990  56.744  1.00  0.00     0.061 C 
ATOM      6  O   UNL     1     -33.044  16.463  57.850  1.00  0.00    -0.472 OA
ATOM      7  C   UNL     1     -32.538  15.192  55.840  1.00  0.00     0.096 C 
ATOM      8  C   UNL     1     -33.125  12.866  56.350  1.00  0.00     0.145 C 
ATOM      9  C   UNL     1     -33.922  14.843  55.374  1.00  0.00    -0.036 C 
ATOM     10  C   UNL     1     -34.233  13.585  55.663  1.00  0.00     0.007 C 
BRANCH   8  11
ATOM     11  O   UNL     1     -32.526  11.981  55.444  1.00  0.00    -0.388 OA
ATOM     12  H   UNL     1     -31.980  11.353  55.985  1.00  0.00     0.211 HD
ENDBRANCH   8  11
BRANCH   9  13
ATOM     13  C   UNL     1     -34.789  15.717  54.503  1.00  0.00     0.187 C 
BRANCH  13  14
ATOM     14  O   UNL     1     -35.280  16.806  55.239  1.00  0.00    -0.392 OA
ATOM     15  H   UNL     1     -34.704  17.586  55.022  1.00  0.00     0.211 HD
ENDBRANCH  13  14
ENDBRANCH   9  13
ENDBRANCH   1   2
BRANCH   1  16
ATOM     16  C   UNL     1     -30.856  18.270  56.550  1.00  0.00     0.286 C 
ATOM     17  C   UNL     1     -30.314  18.882  57.860  1.00  0.00     0.202 C 
ATOM     18  O   UNL     1     -29.975  18.539  55.466  1.00  0.00    -0.341 OA
ATOM     19  C   UNL     1     -28.881  18.386  58.151  1.00  0.00     0.179 C 
ATOM     20  C   UNL     1     -28.704  17.937  55.663  1.00  0.00     0.178 C 
ATOM     21  C   UNL     1     -27.991  18.538  56.903  1.00  0.00     0.177 C 
BRANCH  17  22
ATOM     22  O   UNL     1     -31.180  18.612  58.936  1.00  0.00    -0.385 OA
ATOM     23  H   UNL     1     -31.662  17.768  58.738  1.00  0.00     0.211 HD
ENDBRANCH  17  22
BRANCH  19  24
ATOM     24  O   UNL     1     -28.322  19.107  59.219  1.00  0.00    -0.387 OA
ATOM     25  H   UNL     1     -27.565  19.631  58.848  1.00  0.00     0.211 HD
ENDBRANCH  19  24
BRANCH  20  26
ATOM     26  C   UNL     1     -27.874  18.118  54.387  1.00  0.00     0.191 C 
BRANCH  26  27
ATOM     27  O   UNL     1     -26.539  17.764  54.621  1.00  0.00    -0.394 OA
ATOM     28  H   UNL     1     -26.477  17.546  55.588  1.00  0.00     0.210 HD
ENDBRANCH  26  27
ENDBRANCH  20  26
BRANCH  21  29
ATOM     29  O   UNL     1     -27.620  19.882  56.700  1.00  0.00    -0.387 OA
ATOM     30  H   UNL     1     -28.446  20.428  56.645  1.00  0.00     0.211 HD
ENDBRANCH  21  29
ENDBRANCH   1  16
TORSDOF 10
ENDMDL
MODEL 7
REMARK VINA RESULT:    -8.056      2.191      6.745
REMARK INTER + INTRA:         -12.225
REMARK INTER:                 -11.408
REMARK INTRA:                  -0.817
REMARK UNBOUND:                -0.873
REMARK SMILES OCC1=C[C@@H](O)[C@@H]2C=CO[C@@H](O[C@@H]3O[C@@H](CO)[C@@H](O)[C@@H](O)[C@@H]3O)[C@H]12
REMARK SMILES IDX 12 1 11 2 8 3 9 4 7 5 10 6 24 7 5 8 3 9 4 10 6 11 2 13 1 14
REMARK SMILES IDX 13 16 22 17 14 18 20 19 15 20 18 21 23 22 21 24 16 26 17 27
REMARK SMILES IDX 19 29
REMARK H PARENT 6 12 1 15 23 23 21 25 17 28 19 30
REMARK Flexibility Score: inf
ROOT
ATOM      1  O   UNL     1     -31.526  16.502  57.554  1.00  0.00    -0.310 OA
ENDROOT
BRANCH   1   2
ATOM      2  C   UNL     1     -31.050  17.704  56.975  1.00  0.00     0.316 C 
ATOM      3  C   UNL     1     -28.332  17.133  57.568  1.00  0.00     0.018 C 
ATOM      4  C   UNL     1     -28.809  16.926  56.341  1.00  0.00     0.186 C 
ATOM      5  C   UNL     1     -29.046  18.010  58.578  1.00  0.00     0.061 C 
ATOM      6  O   UNL     1     -30.072  17.398  55.984  1.00  0.00    -0.472 OA
ATOM      7  C   UNL     1     -30.419  18.558  58.094  1.00  0.00     0.096 C 
ATOM      8  C   UNL     1     -28.195  19.271  58.841  1.00  0.00     0.145 C 
ATOM      9  C   UNL     1     -30.113  19.971  57.689  1.00  0.00    -0.036 C 
ATOM     10  C   UNL     1     -28.903  20.344  58.090  1.00  0.00     0.007 C 
BRANCH   8  11
ATOM     11  O   UNL     1     -28.197  19.593  60.205  1.00  0.00    -0.388 OA
ATOM     12  H   UNL     1     -27.948  18.763  60.689  1.00  0.00     0.211 HD
ENDBRANCH   8  11
BRANCH   9  13
ATOM     13  C   UNL     1     -31.105  20.935  57.089  1.00  0.00     0.187 C 
BRANCH  13  14
ATOM     14  O   UNL     1     -30.521  21.642  56.028  1.00  0.00    -0.392 OA
ATOM     15  H   UNL     1     -29.541  21.653  56.192  1.00  0.00     0.211 HD
ENDBRANCH  13  14
ENDBRANCH   9  13
ENDBRANCH   1   2
BRANCH   1  16
ATOM     16  C   UNL     1     -32.813  16.172  57.053  1.00  0.00     0.286 C 
ATOM     17  C   UNL     1     -32.744  14.889  56.196  1.00  0.00     0.202 C 
ATOM     18  O   UNL     1     -33.756  16.023  58.108  1.00  0.00    -0.341 OA
ATOM     19  C   UNL     1     -32.431  13.657  57.072  1.00  0.00     0.179 C 
ATOM     20  C   UNL     1     -33.374  14.993  59.008  1.00  0.00     0.178 C 
ATOM     21  C   UNL     1     -33.362  13.612  58.299  1.00  0.00     0.177 C 
BRANCH  17  22
ATOM     22  O   UNL     1     -31.808  15.031  55.155  1.00  0.00    -0.385 OA
ATOM     23  H   UNL     1     -32.261  15.477  54.394  1.00  0.00     0.211 HD
ENDBRANCH  17  22
BRANCH  19  24
ATOM     24  O   UNL     1     -32.581  12.476  56.325  1.00  0.00    -0.387 OA
ATOM     25  H   UNL     1     -32.751  11.744  56.974  1.00  0.00     0.211 HD
ENDBRANCH  19  24
BRANCH  20  26
ATOM     26  C   UNL     1     -34.333  15.008  60.204  1.00  0.00     0.191 C 
BRANCH  26  27
ATOM     27  O   UNL     1     -33.772  15.728  61.267  1.00  0.00    -0.394 OA
ATOM     28  H   UNL     1     -34.081  16.665  61.159  1.00  0.00     0.210 HD
ENDBRANCH  26  27
ENDBRANCH  20  26
BRANCH  21  29
ATOM     29  O   UNL     1     -34.658  13.189  57.942  1.00  0.00    -0.387 OA
ATOM     30  H   UNL     1     -35.276  13.421  58.683  1.00  0.00     0.211 HD
ENDBRANCH  21  29
ENDBRANCH   1  16
TORSDOF 10
ENDMDL
MODEL 8
REMARK VINA RESULT:    -8.041      1.786      2.771
REMARK INTER + INTRA:         -12.205
REMARK INTER:                 -11.254
REMARK INTRA:                  -0.950
REMARK UNBOUND:                -0.873
REMARK SMILES OCC1=C[C@@H](O)[C@@H]2C=CO[C@@H](O[C@@H]3O[C@@H](CO)[C@@H](O)[C@@H](O)[C@@H]3O)[C@H]12
REMARK SMILES IDX 12 1 11 2 8 3 9 4 7 5 10 6 24 7 5 8 3 9 4 10 6 11 2 13 1 14
REMARK SMILES IDX 13 16 22 17 14 18 20 19 15 20 18 21 23 22 21 24 16 26 17 27
REMARK SMILES IDX 19 29
REMARK H PARENT 6 12 1 15 23 23 21 25 17 28 19 30
REMARK Flexibility Score: inf
ROOT
ATOM      1  O   UNL     1     -31.031  16.888  56.986  1.00  0.00    -0.310 OA
ENDROOT
BRANCH   1   2
ATOM      2  C   UNL     1     -31.696  15.881  57.728  1.00  0.00     0.316 C 
ATOM      3  C   UNL     1     -32.377  14.370  55.422  1.00  0.00     0.018 C 
ATOM      4  C   UNL     1     -31.341  14.011  56.178  1.00  0.00     0.186 C 
ATOM      5  C   UNL     1     -33.452  15.317  55.919  1.00  0.00     0.061 C 
ATOM      6  O   UNL     1     -31.127  14.612  57.418  1.00  0.00    -0.472 OA
ATOM      7  C   UNL     1     -33.187  15.902  57.335  1.00  0.00     0.096 C 
ATOM      8  C   UNL     1     -34.780  14.541  56.062  1.00  0.00     0.145 C 
ATOM      9  C   UNL     1     -34.068  15.077  58.230  1.00  0.00    -0.036 C 
ATOM     10  C   UNL     1     -34.920  14.338  57.529  1.00  0.00     0.007 C 
BRANCH   8  11
ATOM     11  O   UNL     1     -35.856  15.315  55.604  1.00  0.00    -0.388 OA
ATOM     12  H   UNL     1     -35.671  16.247  55.887  1.00  0.00     0.211 HD
ENDBRANCH   8  11
BRANCH   9  13
ATOM     13  C   UNL     1     -34.144  15.207  59.730  1.00  0.00     0.187 C 
BRANCH  13  14
ATOM     14  O   UNL     1     -33.034  14.593  60.330  1.00  0.00    -0.392 OA
ATOM     15  H   UNL     1     -32.248  14.789  59.756  1.00  0.00     0.211 HD
ENDBRANCH  13  14
ENDBRANCH   9  13
ENDBRANCH   1   2
BRANCH   1  16
ATOM     16  C   UNL     1     -30.033  17.523  57.772  1.00  0.00     0.286 C 
ATOM     17  C   UNL     1     -28.637  17.299  57.152  1.00  0.00     0.202 C 
ATOM     18  O   UNL     1     -30.300  18.913  57.922  1.00  0.00    -0.341 OA
ATOM     19  C   UNL     1     -28.499  18.055  55.814  1.00  0.00     0.179 C 
ATOM     20  C   UNL     1     -30.337  19.577  56.667  1.00  0.00     0.178 C 
ATOM     21  C   UNL     1     -28.953  19.519  55.968  1.00  0.00     0.177 C 
BRANCH  17  22
ATOM     22  O   UNL     1     -28.372  15.925  56.997  1.00  0.00    -0.385 OA
ATOM     23  H   UNL     1     -29.125  15.420  57.399  1.00  0.00     0.211 HD
ENDBRANCH  17  22
BRANCH  19  24
ATOM     24  O   UNL     1     -27.167  18.019  55.368  1.00  0.00    -0.387 OA
ATOM     25  H   UNL     1     -27.194  18.070  54.376  1.00  0.00     0.211 HD
ENDBRANCH  19  24
BRANCH  20  26
ATOM     26  C   UNL     1     -30.800  21.020  56.891  1.00  0.00     0.191 C 
BRANCH  26  27
ATOM     27  O   UNL     1     -30.481  21.811  55.779  1.00  0.00    -0.394 OA
ATOM     28  H   UNL     1     -31.218  21.682  55.128  1.00  0.00     0.210 HD
ENDBRANCH  26  27
ENDBRANCH  20  26
BRANCH  21  29
ATOM     29  O   UNL     1     -27.984  20.285  56.646  1.00  0.00    -0.387 OA
ATOM     30  H   UNL     1     -27.590  20.930  56.003  1.00  0.00     0.211 HD
ENDBRANCH  21  29
ENDBRANCH   1  16
TORSDOF 10
ENDMDL
MODEL 9
REMARK VINA RESULT:    -7.360      1.993      3.546
REMARK INTER + INTRA:         -11.245
REMARK INTER:                 -10.641
REMARK INTRA:                  -0.604
REMARK UNBOUND:                -0.873
REMARK SMILES OCC1=C[C@@H](O)[C@@H]2C=CO[C@@H](O[C@@H]3O[C@@H](CO)[C@@H](O)[C@@H](O)[C@@H]3O)[C@H]12
REMARK SMILES IDX 12 1 11 2 8 3 9 4 7 5 10 6 24 7 5 8 3 9 4 10 6 11 2 13 1 14
REMARK SMILES IDX 13 16 22 17 14 18 20 19 15 20 18 21 23 22 21 24 16 26 17 27
REMARK SMILES IDX 19 29
REMARK H PARENT 6 12 1 15 23 23 21 25 17 28 19 30
REMARK Flexibility Score: inf
ROOT
ATOM      1  O   UNL     1     -31.346  17.048  57.180  1.00  0.00    -0.310 OA
ENDROOT
BRANCH   1   2
ATOM      2  C   UNL     1     -31.600  15.826  56.512  1.00  0.00     0.316 C 
ATOM      3  C   UNL     1     -34.392  15.907  57.029  1.00  0.00     0.018 C 
ATOM      4  C   UNL     1     -33.919  16.268  55.837  1.00  0.00     0.186 C 
ATOM      5  C   UNL     1     -33.572  15.093  58.012  1.00  0.00     0.061 C 
ATOM      6  O   UNL     1     -32.585  16.033  55.503  1.00  0.00    -0.472 OA
ATOM      7  C   UNL     1     -32.115  14.809  57.551  1.00  0.00     0.096 C 
ATOM      8  C   UNL     1     -34.211  13.695  58.165  1.00  0.00     0.145 C 
ATOM      9  C   UNL     1     -32.171  13.394  57.050  1.00  0.00    -0.036 C 
ATOM     10  C   UNL     1     -33.314  12.804  57.380  1.00  0.00     0.007 C 
BRANCH   8  11
ATOM     11  O   UNL     1     -34.197  13.289  59.506  1.00  0.00    -0.388 OA
ATOM     12  H   UNL     1     -33.554  12.535  59.564  1.00  0.00     0.211 HD
ENDBRANCH   8  11
BRANCH   9  13
ATOM     13  C   UNL     1     -31.016  12.646  56.434  1.00  0.00     0.187 C 
BRANCH  13  14
ATOM     14  O   UNL     1     -31.111  12.665  55.035  1.00  0.00    -0.392 OA
ATOM     15  H   UNL     1     -31.197  13.617  54.763  1.00  0.00     0.211 HD
ENDBRANCH  13  14
ENDBRANCH   9  13
ENDBRANCH   1   2
BRANCH   1  16
ATOM     16  C   UNL     1     -29.956  17.340  57.196  1.00  0.00     0.286 C 
ATOM     17  C   UNL     1     -29.541  18.052  55.890  1.00  0.00     0.202 C 
ATOM     18  O   UNL     1     -29.605  18.124  58.330  1.00  0.00    -0.341 OA
ATOM     19  C   UNL     1     -30.150  19.468  55.816  1.00  0.00     0.179 C 
ATOM     20  C   UNL     1     -30.298  19.363  58.344  1.00  0.00     0.178 C 
ATOM     21  C   UNL     1     -29.896  20.237  57.126  1.00  0.00     0.177 C 
BRANCH  17  22
ATOM     22  O   UNL     1     -29.893  17.282  54.765  1.00  0.00    -0.385 OA
ATOM     23  H   UNL     1     -30.883  17.260  54.706  1.00  0.00     0.211 HD
ENDBRANCH  17  22
BRANCH  19  24
ATOM     24  O   UNL     1     -29.599  20.181  54.738  1.00  0.00    -0.387 OA
ATOM     25  H   UNL     1     -30.307  20.247  54.044  1.00  0.00     0.211 HD
ENDBRANCH  19  24
BRANCH  20  26
ATOM     26  C   UNL     1     -30.008  20.071  59.672  1.00  0.00     0.191 C 
BRANCH  26  27
ATOM     27  O   UNL     1     -28.669  19.884  60.040  1.00  0.00    -0.394 OA
ATOM     28  H   UNL     1     -28.171  19.725  59.196  1.00  0.00     0.210 HD
ENDBRANCH  26  27
ENDBRANCH  20  26
BRANCH  21  29
ATOM     29  O   UNL     1     -28.560  20.678  57.210  1.00  0.00    -0.387 OA
ATOM     30  H   UNL     1     -27.968  19.882  57.204  1.00  0.00     0.211 HD
ENDBRANCH  21  29
ENDBRANCH   1  16
TORSDOF 10
ENDMDL
