MODEL 1
REMARK VINA RESULT:    -1.857      0.000      0.000
REMARK INTER + INTRA:          -2.374
REMARK INTER:                  -2.292
REMARK INTRA:                  -0.083
REMARK UNBOUND:                -0.083
REMARK SMILES CCCCCC(=O)[O-]
REMARK SMILES IDX 4 1 5 2 6 3 7 4 8 5 3 6 2 7 1 8
REMARK H PARENT
REMARK Flexibility Score: inf
ROOT
ATOM      1  C   UNL     1     -20.122   1.797 -14.897  1.00  0.00     0.006 C 
ENDROOT
BRANCH   1   2
ATOM      2  C   UNL     1     -19.389   0.466 -14.702  1.00  0.00     0.053 C 
BRANCH   2   3
ATOM      3  C   UNL     1     -19.786  -0.510 -15.763  1.00  0.00     0.041 C 
ATOM      4  O   UNL     1     -19.848  -0.149 -16.967  1.00  0.00    -0.550 OA
ATOM      5  O   UNL     1     -20.041  -1.835 -15.427  1.00  0.00    -0.550 OA
ENDBRANCH   2   3
ENDBRANCH   1   2
BRANCH   1   6
ATOM      6  C   UNL     1     -19.357   2.949 -14.234  1.00  0.00     0.000 C 
BRANCH   6   7
ATOM      7  C   UNL     1     -19.991   4.301 -14.580  1.00  0.00    -0.003 C 
ATOM      8  C   UNL     1     -20.122   4.479 -16.090  1.00  0.00     0.004 C 
ENDBRANCH   6   7
ENDBRANCH   1   6
TORSDOF 4
ENDMDL
MODEL 2
REMARK VINA RESULT:    -1.693      4.537      5.568
REMARK INTER + INTRA:          -2.171
REMARK INTER:                  -1.908
REMARK INTRA:                  -0.264
REMARK UNBOUND:                -0.083
REMARK SMILES CCCCCC(=O)[O-]
REMARK SMILES IDX 4 1 5 2 6 3 7 4 8 5 3 6 2 7 1 8
REMARK H PARENT
REMARK Flexibility Score: inf
ROOT
ATOM      1  C   UNL     1     -19.694   6.625 -16.318  1.00  0.00     0.006 C 
ENDROOT
BRANCH   1   2
ATOM      2  C   UNL     1     -19.845   6.191 -14.857  1.00  0.00     0.053 C 
BRANCH   2   3
ATOM      3  C   UNL     1     -18.612   5.487 -14.389  1.00  0.00     0.041 C 
ATOM      4  O   UNL     1     -18.686   4.318 -13.926  1.00  0.00    -0.550 OA
ATOM      5  O   UNL     1     -17.371   6.102 -14.511  1.00  0.00    -0.550 OA
ENDBRANCH   2   3
ENDBRANCH   1   2
BRANCH   1   6
ATOM      6  C   UNL     1     -19.567   5.409 -17.244  1.00  0.00     0.000 C 
BRANCH   6   7
ATOM      7  C   UNL     1     -18.539   5.665 -18.351  1.00  0.00    -0.003 C 
ATOM      8  C   UNL     1     -17.617   6.826 -17.989  1.00  0.00     0.004 C 
ENDBRANCH   6   7
ENDBRANCH   1   6
TORSDOF 4
ENDMDL
MODEL 3
REMARK VINA RESULT:    -1.676      3.959      5.657
REMARK INTER + INTRA:          -2.151
REMARK INTER:                  -1.968
REMARK INTRA:                  -0.183
REMARK UNBOUND:                -0.083
REMARK SMILES CCCCCC(=O)[O-]
REMARK SMILES IDX 4 1 5 2 6 3 7 4 8 5 3 6 2 7 1 8
REMARK H PARENT
REMARK Flexibility Score: inf
ROOT
ATOM      1  C   UNL     1     -20.100   6.020 -16.202  1.00  0.00     0.006 C 
ENDROOT
BRANCH   1   2
ATOM      2  C   UNL     1     -19.582   6.922 -17.326  1.00  0.00     0.053 C 
BRANCH   2   3
ATOM      3  C   UNL     1     -18.460   6.257 -18.057  1.00  0.00     0.041 C 
ATOM      4  O   UNL     1     -18.638   5.140 -18.611  1.00  0.00    -0.550 OA
ATOM      5  O   UNL     1     -17.229   6.894 -18.170  1.00  0.00    -0.550 OA
ENDBRANCH   2   3
ENDBRANCH   1   2
BRANCH   1   6
ATOM      6  C   UNL     1     -19.002   5.745 -15.167  1.00  0.00     0.000 C 
BRANCH   6   7
ATOM      7  C   UNL     1     -19.331   4.502 -14.334  1.00  0.00    -0.003 C 
ATOM      8  C   UNL     1     -20.046   3.447 -15.175  1.00  0.00     0.004 C 
ENDBRANCH   6   7
ENDBRANCH   1   6
TORSDOF 4
ENDMDL
MODEL 4
REMARK VINA RESULT:    -1.533      2.937      4.720
REMARK INTER + INTRA:          -1.975
REMARK INTER:                  -1.911
REMARK INTRA:                  -0.064
REMARK UNBOUND:                -0.083
REMARK SMILES CCCCCC(=O)[O-]
REMARK SMILES IDX 4 1 5 2 6 3 7 4 8 5 3 6 2 7 1 8
REMARK H PARENT
REMARK Flexibility Score: inf
ROOT
ATOM      1  C   UNL     1     -20.125   3.007 -15.140  1.00  0.00     0.006 C 
ENDROOT
BRANCH   1   2
ATOM      2  C   UNL     1     -19.684   4.471 -15.234  1.00  0.00     0.053 C 
BRANCH   2   3
ATOM      3  C   UNL     1     -19.904   4.997 -16.616  1.00  0.00     0.041 C 
ATOM      4  O   UNL     1     -19.994   4.204 -17.590  1.00  0.00    -0.550 OA
ATOM      5  O   UNL     1     -20.059   6.363 -16.824  1.00  0.00    -0.550 OA
ENDBRANCH   2   3
ENDBRANCH   1   2
BRANCH   1   6
ATOM      6  C   UNL     1     -19.371   2.275 -14.023  1.00  0.00     0.000 C 
BRANCH   6   7
ATOM      7  C   UNL     1     -18.986   0.857 -14.457  1.00  0.00    -0.003 C 
ATOM      8  C   UNL     1     -17.635   0.449 -13.875  1.00  0.00     0.004 C 
ENDBRANCH   6   7
ENDBRANCH   1   6
TORSDOF 4
ENDMDL
MODEL 5
REMARK VINA RESULT:    -1.494      2.741      4.477
REMARK INTER + INTRA:          -1.927
REMARK INTER:                  -1.837
REMARK INTRA:                  -0.089
REMARK UNBOUND:                -0.083
REMARK SMILES CCCCCC(=O)[O-]
REMARK SMILES IDX 4 1 5 2 6 3 7 4 8 5 3 6 2 7 1 8
REMARK H PARENT
REMARK Flexibility Score: inf
ROOT
ATOM      1  C   UNL     1     -20.072   1.982 -14.924  1.00  0.00     0.006 C 
ENDROOT
BRANCH   1   2
ATOM      2  C   UNL     1     -19.627   3.284 -14.252  1.00  0.00     0.053 C 
BRANCH   2   3
ATOM      3  C   UNL     1     -19.760   4.434 -15.198  1.00  0.00     0.041 C 
ATOM      4  O   UNL     1     -19.499   5.605 -14.814  1.00  0.00    -0.550 OA
ATOM      5  O   UNL     1     -20.125   4.209 -16.520  1.00  0.00    -0.550 OA
ENDBRANCH   2   3
ENDBRANCH   1   2
BRANCH   1   6
ATOM      6  C   UNL     1     -20.031   0.810 -13.936  1.00  0.00     0.000 C 
BRANCH   6   7
ATOM      7  C   UNL     1     -19.667  -0.497 -14.649  1.00  0.00    -0.003 C 
ATOM      8  C   UNL     1     -19.806  -0.358 -16.162  1.00  0.00     0.004 C 
ENDBRANCH   6   7
ENDBRANCH   1   6
TORSDOF 4
ENDMDL
MODEL 6
REMARK VINA RESULT:    -1.320      2.151      2.594
REMARK INTER + INTRA:          -1.712
REMARK INTER:                  -1.589
REMARK INTRA:                  -0.122
REMARK UNBOUND:                -0.083
REMARK SMILES CCCCCC(=O)[O-]
REMARK SMILES IDX 4 1 5 2 6 3 7 4 8 5 3 6 2 7 1 8
REMARK H PARENT
REMARK Flexibility Score: inf
ROOT
ATOM      1  C   UNL     1     -19.871   2.826 -14.452  1.00  0.00     0.006 C 
ENDROOT
BRANCH   1   2
ATOM      2  C   UNL     1     -18.490   2.501 -13.876  1.00  0.00     0.053 C 
BRANCH   2   3
ATOM      3  C   UNL     1     -18.242   1.026 -13.910  1.00  0.00     0.041 C 
ATOM      4  O   UNL     1     -19.206   0.223 -14.015  1.00  0.00    -0.550 OA
ATOM      5  O   UNL     1     -16.941   0.539 -13.877  1.00  0.00    -0.550 OA
ENDBRANCH   2   3
ENDBRANCH   1   2
BRANCH   1   6
ATOM      6  C   UNL     1     -20.001   4.323 -14.761  1.00  0.00     0.000 C 
BRANCH   6   7
ATOM      7  C   UNL     1     -18.848   5.115 -14.136  1.00  0.00    -0.003 C 
ATOM      8  C   UNL     1     -18.260   6.111 -15.131  1.00  0.00     0.004 C 
ENDBRANCH   6   7
ENDBRANCH   1   6
TORSDOF 4
ENDMDL
MODEL 7
REMARK VINA RESULT:    -1.052      5.161      5.950
REMARK INTER + INTRA:          -1.381
REMARK INTER:                  -1.244
REMARK INTRA:                  -0.137
REMARK UNBOUND:                -0.083
REMARK SMILES CCCCCC(=O)[O-]
REMARK SMILES IDX 4 1 5 2 6 3 7 4 8 5 3 6 2 7 1 8
REMARK H PARENT
REMARK Flexibility Score: inf
ROOT
ATOM      1  C   UNL     1     -18.138   6.978 -16.097  1.00  0.00     0.006 C 
ENDROOT
BRANCH   1   2
ATOM      2  C   UNL     1     -17.873   7.031 -14.589  1.00  0.00     0.053 C 
BRANCH   2   3
ATOM      3  C   UNL     1     -16.973   5.911 -14.175  1.00  0.00     0.041 C 
ATOM      4  O   UNL     1     -15.746   6.119 -13.988  1.00  0.00    -0.550 OA
ATOM      5  O   UNL     1     -17.499   4.644 -13.947  1.00  0.00    -0.550 OA
ENDBRANCH   2   3
ENDBRANCH   1   2
BRANCH   1   6
ATOM      6  C   UNL     1     -19.573   6.522 -16.388  1.00  0.00     0.000 C 
BRANCH   6   7
ATOM      7  C   UNL     1     -19.622   5.610 -17.617  1.00  0.00    -0.003 C 
ATOM      8  C   UNL     1     -18.286   5.608 -18.356  1.00  0.00     0.004 C 
ENDBRANCH   6   7
ENDBRANCH   1   6
TORSDOF 4
ENDMDL
MODEL 8
REMARK VINA RESULT:    -0.536      4.572      5.478
REMARK INTER + INTRA:          -0.744
REMARK INTER:                  -0.518
REMARK INTRA:                  -0.226
REMARK UNBOUND:                -0.083
REMARK SMILES CCCCCC(=O)[O-]
REMARK SMILES IDX 4 1 5 2 6 3 7 4 8 5 3 6 2 7 1 8
REMARK H PARENT
REMARK Flexibility Score: inf
ROOT
ATOM      1  C   UNL     1     -19.729   4.951 -15.739  1.00  0.00     0.006 C 
ENDROOT
BRANCH   1   2
ATOM      2  C   UNL     1     -19.850   6.093 -16.753  1.00  0.00     0.053 C 
BRANCH   2   3
ATOM      3  C   UNL     1     -18.652   6.129 -17.647  1.00  0.00     0.041 C 
ATOM      4  O   UNL     1     -17.708   6.929 -17.411  1.00  0.00    -0.550 OA
ATOM      5  O   UNL     1     -18.554   5.244 -18.714  1.00  0.00    -0.550 OA
ENDBRANCH   2   3
ENDBRANCH   1   2
BRANCH   1   6
ATOM      6  C   UNL     1     -19.939   5.461 -14.308  1.00  0.00     0.000 C 
BRANCH   6   7
ATOM      7  C   UNL     1     -18.789   6.377 -13.876  1.00  0.00    -0.003 C 
ATOM      8  C   UNL     1     -17.458   5.629 -13.875  1.00  0.00     0.004 C 
ENDBRANCH   6   7
ENDBRANCH   1   6
TORSDOF 4
ENDMDL
