MODEL 1
REMARK VINA RESULT:    -4.169      0.000      0.000
REMARK INTER + INTRA:          -8.751
REMARK INTER:                  -7.582
REMARK INTRA:                  -1.169
REMARK UNBOUND:                -1.169
REMARK SMILES CCCCCCCCCCCCCCCC(=O)[O-]
REMARK SMILES IDX 9 1 10 2 11 3 12 4 13 5 14 6 15 7 16 8 17 9 18 10 8 11 7 12
REMARK SMILES IDX 6 13 5 14 4 15 3 16 2 17 1 18
REMARK H PARENT
REMARK Flexibility Score: inf
ROOT
ATOM      1  C   UNL     1      33.117  46.291  25.122  1.00  0.00     0.000 C 
ENDROOT
BRANCH   1   2
ATOM      2  C   UNL     1      32.858  45.977  26.604  1.00  0.00     0.000 C 
BRANCH   2   3
ATOM      3  C   UNL     1      33.711  44.810  27.120  1.00  0.00     0.000 C 
BRANCH   3   4
ATOM      4  C   UNL     1      34.594  44.238  26.003  1.00  0.00     0.000 C 
BRANCH   4   5
ATOM      5  C   UNL     1      36.083  44.375  26.354  1.00  0.00     0.000 C 
BRANCH   5   6
ATOM      6  C   UNL     1      36.892  43.106  26.028  1.00  0.00     0.006 C 
BRANCH   6   7
ATOM      7  C   UNL     1      36.333  42.284  24.855  1.00  0.00     0.053 C 
BRANCH   7   8
ATOM      8  C   UNL     1      37.041  40.972  24.701  1.00  0.00     0.041 C 
ATOM      9  O   UNL     1      37.758  40.753  23.690  1.00  0.00    -0.550 OA
ATOM     10  O   UNL     1      36.934  40.005  25.693  1.00  0.00    -0.550 OA
ENDBRANCH   7   8
ENDBRANCH   6   7
ENDBRANCH   5   6
ENDBRANCH   4   5
ENDBRANCH   3   4
ENDBRANCH   2   3
ENDBRANCH   1   2
BRANCH   1  11
ATOM     11  C   UNL     1      33.390  47.782  24.871  1.00  0.00     0.000 C 
BRANCH  11  12
ATOM     12  C   UNL     1      34.774  48.184  25.397  1.00  0.00    -0.000 C 
BRANCH  12  13
ATOM     13  C   UNL     1      34.686  49.452  26.259  1.00  0.00    -0.000 C 
BRANCH  13  14
ATOM     14  C   UNL     1      33.278  50.067  26.269  1.00  0.00    -0.000 C 
BRANCH  14  15
ATOM     15  C   UNL     1      33.304  51.605  26.315  1.00  0.00    -0.000 C 
BRANCH  15  16
ATOM     16  C   UNL     1      32.067  52.236  25.657  1.00  0.00    -0.000 C 
BRANCH  16  17
ATOM     17  C   UNL     1      30.946  51.218  25.403  1.00  0.00    -0.003 C 
ATOM     18  C   UNL     1      30.791  50.932  23.912  1.00  0.00     0.004 C 
ENDBRANCH  16  17
ENDBRANCH  15  16
ENDBRANCH  14  15
ENDBRANCH  13  14
ENDBRANCH  12  13
ENDBRANCH  11  12
ENDBRANCH   1  11
TORSDOF 14
ENDMDL
MODEL 2
REMARK VINA RESULT:    -4.132      4.229      8.329
REMARK INTER + INTRA:          -8.683
REMARK INTER:                  -7.357
REMARK INTRA:                  -1.325
REMARK UNBOUND:                -1.169
REMARK SMILES CCCCCCCCCCCCCCCC(=O)[O-]
REMARK SMILES IDX 9 1 10 2 11 3 12 4 13 5 14 6 15 7 16 8 17 9 18 10 8 11 7 12
REMARK SMILES IDX 6 13 5 14 4 15 3 16 2 17 1 18
REMARK H PARENT
REMARK Flexibility Score: inf
ROOT
ATOM      1  C   UNL     1      33.205  47.741  25.055  1.00  0.00     0.000 C 
ENDROOT
BRANCH   1   2
ATOM      2  C   UNL     1      34.609  48.352  25.179  1.00  0.00     0.000 C 
BRANCH   2   3
ATOM      3  C   UNL     1      34.894  48.900  26.585  1.00  0.00     0.000 C 
BRANCH   3   4
ATOM      4  C   UNL     1      33.755  49.811  27.061  1.00  0.00     0.000 C 
BRANCH   4   5
ATOM      5  C   UNL     1      33.869  51.208  26.433  1.00  0.00     0.000 C 
BRANCH   5   6
ATOM      6  C   UNL     1      32.500  51.809  26.064  1.00  0.00     0.006 C 
BRANCH   6   7
ATOM      7  C   UNL     1      31.340  50.800  26.084  1.00  0.00     0.053 C 
BRANCH   7   8
ATOM      8  C   UNL     1      30.656  50.705  24.754  1.00  0.00     0.041 C 
ATOM      9  O   UNL     1      31.292  50.317  23.740  1.00  0.00    -0.550 OA
ATOM     10  O   UNL     1      29.306  51.012  24.644  1.00  0.00    -0.550 OA
ENDBRANCH   7   8
ENDBRANCH   6   7
ENDBRANCH   5   6
ENDBRANCH   4   5
ENDBRANCH   3   4
ENDBRANCH   2   3
ENDBRANCH   1   2
BRANCH   1  11
ATOM     11  C   UNL     1      32.943  46.640  26.095  1.00  0.00     0.000 C 
BRANCH  11  12
ATOM     12  C   UNL     1      33.100  45.247  25.472  1.00  0.00    -0.000 C 
BRANCH  12  13
ATOM     13  C   UNL     1      34.025  44.365  26.325  1.00  0.00    -0.000 C 
BRANCH  13  14
ATOM     14  C   UNL     1      35.300  45.099  26.769  1.00  0.00    -0.000 C 
BRANCH  14  15
ATOM     15  C   UNL     1      36.584  44.358  26.355  1.00  0.00    -0.000 C 
BRANCH  15  16
ATOM     16  C   UNL     1      36.294  43.060  25.585  1.00  0.00    -0.000 C 
BRANCH  16  17
ATOM     17  C   UNL     1      37.569  42.378  25.068  1.00  0.00    -0.003 C 
ATOM     18  C   UNL     1      37.251  41.401  23.940  1.00  0.00     0.004 C 
ENDBRANCH  16  17
ENDBRANCH  15  16
ENDBRANCH  14  15
ENDBRANCH  13  14
ENDBRANCH  12  13
ENDBRANCH  11  12
ENDBRANCH   1  11
TORSDOF 14
ENDMDL
MODEL 3
REMARK VINA RESULT:    -3.860      4.861      9.346
REMARK INTER + INTRA:          -8.188
REMARK INTER:                  -7.414
REMARK INTRA:                  -0.774
REMARK UNBOUND:                -1.169
REMARK SMILES CCCCCCCCCCCCCCCC(=O)[O-]
REMARK SMILES IDX 9 1 10 2 11 3 12 4 13 5 14 6 15 7 16 8 17 9 18 10 8 11 7 12
REMARK SMILES IDX 6 13 5 14 4 15 3 16 2 17 1 18
REMARK H PARENT
REMARK Flexibility Score: inf
ROOT
ATOM      1  C   UNL     1      33.929  46.942  25.944  1.00  0.00     0.000 C 
ENDROOT
BRANCH   1   2
ATOM      2  C   UNL     1      33.515  47.973  24.882  1.00  0.00     0.000 C 
BRANCH   2   3
ATOM      3  C   UNL     1      33.181  49.344  25.487  1.00  0.00     0.000 C 
BRANCH   3   4
ATOM      4  C   UNL     1      31.670  49.606  25.452  1.00  0.00     0.000 C 
BRANCH   4   5
ATOM      5  C   UNL     1      31.253  50.247  24.120  1.00  0.00     0.000 C 
BRANCH   5   6
ATOM      6  C   UNL     1      29.910  50.997  24.213  1.00  0.00     0.006 C 
BRANCH   6   7
ATOM      7  C   UNL     1      29.874  52.099  25.284  1.00  0.00     0.053 C 
BRANCH   7   8
ATOM      8  C   UNL     1      31.003  53.071  25.127  1.00  0.00     0.041 C 
ATOM      9  O   UNL     1      31.069  53.809  24.110  1.00  0.00    -0.550 OA
ATOM     10  O   UNL     1      31.966  53.184  26.122  1.00  0.00    -0.550 OA
ENDBRANCH   7   8
ENDBRANCH   6   7
ENDBRANCH   5   6
ENDBRANCH   4   5
ENDBRANCH   3   4
ENDBRANCH   2   3
ENDBRANCH   1   2
BRANCH   1  11
ATOM     11  C   UNL     1      32.783  45.993  26.327  1.00  0.00     0.000 C 
BRANCH  11  12
ATOM     12  C   UNL     1      33.325  44.626  26.763  1.00  0.00    -0.000 C 
BRANCH  12  13
ATOM     13  C   UNL     1      34.577  44.248  25.956  1.00  0.00    -0.000 C 
BRANCH  13  14
ATOM     14  C   UNL     1      35.758  43.838  26.851  1.00  0.00    -0.000 C 
BRANCH  14  15
ATOM     15  C   UNL     1      37.003  43.436  26.041  1.00  0.00    -0.000 C 
BRANCH  15  16
ATOM     16  C   UNL     1      37.275  41.924  26.090  1.00  0.00    -0.000 C 
BRANCH  16  17
ATOM     17  C   UNL     1      36.634  41.167  24.919  1.00  0.00    -0.003 C 
ATOM     18  C   UNL     1      37.642  40.931  23.798  1.00  0.00     0.004 C 
ENDBRANCH  16  17
ENDBRANCH  15  16
ENDBRANCH  14  15
ENDBRANCH  13  14
ENDBRANCH  12  13
ENDBRANCH  11  12
ENDBRANCH   1  11
TORSDOF 14
ENDMDL
MODEL 4
REMARK VINA RESULT:    -3.840      1.232      1.940
REMARK INTER + INTRA:          -8.152
REMARK INTER:                  -7.273
REMARK INTRA:                  -0.879
REMARK UNBOUND:                -1.169
REMARK SMILES CCCCCCCCCCCCCCCC(=O)[O-]
REMARK SMILES IDX 9 1 10 2 11 3 12 4 13 5 14 6 15 7 16 8 17 9 18 10 8 11 7 12
REMARK SMILES IDX 6 13 5 14 4 15 3 16 2 17 1 18
REMARK H PARENT
REMARK Flexibility Score: inf
ROOT
ATOM      1  C   UNL     1      34.186  47.292  25.573  1.00  0.00     0.000 C 
ENDROOT
BRANCH   1   2
ATOM      2  C   UNL     1      33.128  46.178  25.536  1.00  0.00     0.000 C 
BRANCH   2   3
ATOM      3  C   UNL     1      33.708  44.799  25.883  1.00  0.00     0.000 C 
BRANCH   3   4
ATOM      4  C   UNL     1      35.138  44.925  26.425  1.00  0.00     0.000 C 
BRANCH   4   5
ATOM      5  C   UNL     1      35.810  43.548  26.527  1.00  0.00     0.000 C 
BRANCH   5   6
ATOM      6  C   UNL     1      36.881  43.325  25.442  1.00  0.00     0.006 C 
BRANCH   6   7
ATOM      7  C   UNL     1      37.815  42.134  25.713  1.00  0.00     0.053 C 
BRANCH   7   8
ATOM      8  C   UNL     1      37.510  40.967  24.825  1.00  0.00     0.041 C 
ATOM      9  O   UNL     1      37.684  41.054  23.581  1.00  0.00    -0.550 OA
ATOM     10  O   UNL     1      37.064  39.773  25.376  1.00  0.00    -0.550 OA
ENDBRANCH   7   8
ENDBRANCH   6   7
ENDBRANCH   5   6
ENDBRANCH   4   5
ENDBRANCH   3   4
ENDBRANCH   2   3
ENDBRANCH   1   2
BRANCH   1  11
ATOM     11  C   UNL     1      33.794  48.451  26.502  1.00  0.00     0.000 C 
BRANCH  11  12
ATOM     12  C   UNL     1      32.282  48.703  26.459  1.00  0.00    -0.000 C 
BRANCH  12  13
ATOM     13  C   UNL     1      31.975  50.116  25.940  1.00  0.00    -0.000 C 
BRANCH  13  14
ATOM     14  C   UNL     1      31.555  50.127  24.461  1.00  0.00    -0.000 C 
BRANCH  14  15
ATOM     15  C   UNL     1      30.557  51.253  24.138  1.00  0.00    -0.000 C 
BRANCH  15  16
ATOM     16  C   UNL     1      30.060  51.980  25.397  1.00  0.00    -0.000 C 
BRANCH  16  17
ATOM     17  C   UNL     1      30.126  53.509  25.265  1.00  0.00    -0.003 C 
ATOM     18  C   UNL     1      31.295  53.934  24.381  1.00  0.00     0.004 C 
ENDBRANCH  16  17
ENDBRANCH  15  16
ENDBRANCH  14  15
ENDBRANCH  13  14
ENDBRANCH  12  13
ENDBRANCH  11  12
ENDBRANCH   1  11
TORSDOF 14
ENDMDL
MODEL 5
REMARK VINA RESULT:    -3.805      5.176      9.092
REMARK INTER + INTRA:          -8.089
REMARK INTER:                  -6.928
REMARK INTRA:                  -1.160
REMARK UNBOUND:                -1.169
REMARK SMILES CCCCCCCCCCCCCCCC(=O)[O-]
REMARK SMILES IDX 9 1 10 2 11 3 12 4 13 5 14 6 15 7 16 8 17 9 18 10 8 11 7 12
REMARK SMILES IDX 6 13 5 14 4 15 3 16 2 17 1 18
REMARK H PARENT
REMARK Flexibility Score: inf
ROOT
ATOM      1  C   UNL     1      33.175  47.558  24.886  1.00  0.00     0.000 C 
ENDROOT
BRANCH   1   2
ATOM      2  C   UNL     1      34.483  48.315  25.164  1.00  0.00     0.000 C 
BRANCH   2   3
ATOM      3  C   UNL     1      34.594  48.790  26.620  1.00  0.00     0.000 C 
BRANCH   3   4
ATOM      4  C   UNL     1      34.458  50.315  26.712  1.00  0.00     0.000 C 
BRANCH   4   5
ATOM      5  C   UNL     1      32.981  50.737  26.720  1.00  0.00     0.000 C 
BRANCH   5   6
ATOM      6  C   UNL     1      32.744  52.096  26.035  1.00  0.00     0.006 C 
BRANCH   6   7
ATOM      7  C   UNL     1      31.341  52.262  25.430  1.00  0.00     0.053 C 
BRANCH   7   8
ATOM      8  C   UNL     1      31.051  53.686  25.068  1.00  0.00     0.041 C 
ATOM      9  O   UNL     1      31.260  54.098  23.897  1.00  0.00    -0.550 OA
ATOM     10  O   UNL     1      30.518  54.549  26.016  1.00  0.00    -0.550 OA
ENDBRANCH   7   8
ENDBRANCH   6   7
ENDBRANCH   5   6
ENDBRANCH   4   5
ENDBRANCH   3   4
ENDBRANCH   2   3
ENDBRANCH   1   2
BRANCH   1  11
ATOM     11  C   UNL     1      32.802  46.586  26.015  1.00  0.00     0.000 C 
BRANCH  11  12
ATOM     12  C   UNL     1      33.111  45.137  25.617  1.00  0.00    -0.000 C 
BRANCH  12  13
ATOM     13  C   UNL     1      33.909  44.424  26.720  1.00  0.00    -0.000 C 
BRANCH  13  14
ATOM     14  C   UNL     1      35.206  45.163  27.087  1.00  0.00    -0.000 C 
BRANCH  14  15
ATOM     15  C   UNL     1      36.437  44.597  26.356  1.00  0.00    -0.000 C 
BRANCH  15  16
ATOM     16  C   UNL     1      36.340  43.081  26.126  1.00  0.00    -0.000 C 
BRANCH  16  17
ATOM     17  C   UNL     1      37.360  42.570  25.098  1.00  0.00    -0.003 C 
ATOM     18  C   UNL     1      36.887  41.271  24.452  1.00  0.00     0.004 C 
ENDBRANCH  16  17
ENDBRANCH  15  16
ENDBRANCH  14  15
ENDBRANCH  13  14
ENDBRANCH  12  13
ENDBRANCH  11  12
ENDBRANCH   1  11
TORSDOF 14
ENDMDL
MODEL 6
REMARK VINA RESULT:    -3.738     17.906     18.696
REMARK INTER + INTRA:          -7.966
REMARK INTER:                  -6.166
REMARK INTRA:                  -1.800
REMARK UNBOUND:                -1.169
REMARK SMILES CCCCCCCCCCCCCCCC(=O)[O-]
REMARK SMILES IDX 9 1 10 2 11 3 12 4 13 5 14 6 15 7 16 8 17 9 18 10 8 11 7 12
REMARK SMILES IDX 6 13 5 14 4 15 3 16 2 17 1 18
REMARK H PARENT
REMARK Flexibility Score: inf
ROOT
ATOM      1  C   UNL     1      30.416  46.949   8.254  1.00  0.00     0.000 C 
ENDROOT
BRANCH   1   2
ATOM      2  C   UNL     1      29.070  47.609   7.916  1.00  0.00     0.000 C 
BRANCH   2   3
ATOM      3  C   UNL     1      28.308  48.073   9.166  1.00  0.00     0.000 C 
BRANCH   3   4
ATOM      4  C   UNL     1      26.883  48.514   8.808  1.00  0.00     0.000 C 
BRANCH   4   5
ATOM      5  C   UNL     1      25.842  47.684   9.573  1.00  0.00     0.000 C 
BRANCH   5   6
ATOM      6  C   UNL     1      26.227  46.197   9.684  1.00  0.00     0.006 C 
BRANCH   6   7
ATOM      7  C   UNL     1      25.872  45.359   8.445  1.00  0.00     0.053 C 
BRANCH   7   8
ATOM      8  C   UNL     1      26.817  44.213   8.252  1.00  0.00     0.041 C 
ATOM      9  O   UNL     1      26.631  43.128   8.863  1.00  0.00    -0.550 OA
ATOM     10  O   UNL     1      27.884  44.332   7.372  1.00  0.00    -0.550 OA
ENDBRANCH   7   8
ENDBRANCH   6   7
ENDBRANCH   5   6
ENDBRANCH   4   5
ENDBRANCH   3   4
ENDBRANCH   2   3
ENDBRANCH   1   2
BRANCH   1  11
ATOM     11  C   UNL     1      31.613  47.877   8.000  1.00  0.00     0.000 C 
BRANCH  11  12
ATOM     12  C   UNL     1      31.246  48.988   7.008  1.00  0.00    -0.000 C 
BRANCH  12  13
ATOM     13  C   UNL     1      31.461  50.375   7.632  1.00  0.00    -0.000 C 
BRANCH  13  14
ATOM     14  C   UNL     1      30.180  51.224   7.649  1.00  0.00    -0.000 C 
BRANCH  14  15
ATOM     15  C   UNL     1      29.700  51.541   9.077  1.00  0.00    -0.000 C 
BRANCH  15  16
ATOM     16  C   UNL     1      28.441  52.423   9.093  1.00  0.00    -0.000 C 
BRANCH  16  17
ATOM     17  C   UNL     1      27.655  52.359   7.775  1.00  0.00    -0.003 C 
ATOM     18  C   UNL     1      26.175  52.090   8.031  1.00  0.00     0.004 C 
ENDBRANCH  16  17
ENDBRANCH  15  16
ENDBRANCH  14  15
ENDBRANCH  13  14
ENDBRANCH  12  13
ENDBRANCH  11  12
ENDBRANCH   1  11
TORSDOF 14
ENDMDL
MODEL 7
REMARK VINA RESULT:    -3.674     18.174     19.713
REMARK INTER + INTRA:          -7.850
REMARK INTER:                  -6.044
REMARK INTRA:                  -1.806
REMARK UNBOUND:                -1.169
REMARK SMILES CCCCCCCCCCCCCCCC(=O)[O-]
REMARK SMILES IDX 9 1 10 2 11 3 12 4 13 5 14 6 15 7 16 8 17 9 18 10 8 11 7 12
REMARK SMILES IDX 6 13 5 14 4 15 3 16 2 17 1 18
REMARK H PARENT
REMARK Flexibility Score: inf
ROOT
ATOM      1  C   UNL     1      29.677  46.706   8.382  1.00  0.00     0.000 C 
ENDROOT
BRANCH   1   2
ATOM      2  C   UNL     1      31.149  47.136   8.295  1.00  0.00     0.000 C 
BRANCH   2   3
ATOM      3  C   UNL     1      31.405  48.146   7.167  1.00  0.00     0.000 C 
BRANCH   3   4
ATOM      4  C   UNL     1      31.614  49.557   7.729  1.00  0.00     0.000 C 
BRANCH   4   5
ATOM      5  C   UNL     1      30.623  50.551   7.106  1.00  0.00     0.000 C 
BRANCH   5   6
ATOM      6  C   UNL     1      30.443  51.825   7.952  1.00  0.00     0.006 C 
BRANCH   6   7
ATOM      7  C   UNL     1      29.416  51.689   9.088  1.00  0.00     0.053 C 
BRANCH   7   8
ATOM      8  C   UNL     1      28.118  52.360   8.754  1.00  0.00     0.041 C 
ATOM      9  O   UNL     1      27.403  51.925   7.814  1.00  0.00    -0.550 OA
ATOM     10  O   UNL     1      27.684  53.446   9.503  1.00  0.00    -0.550 OA
ENDBRANCH   7   8
ENDBRANCH   6   7
ENDBRANCH   5   6
ENDBRANCH   4   5
ENDBRANCH   3   4
ENDBRANCH   2   3
ENDBRANCH   1   2
BRANCH   1  11
ATOM     11  C   UNL     1      28.822  47.683   9.205  1.00  0.00     0.000 C 
BRANCH  11  12
ATOM     12  C   UNL     1      27.803  48.405   8.316  1.00  0.00    -0.000 C 
BRANCH  12  13
ATOM     13  C   UNL     1      26.477  48.618   9.062  1.00  0.00    -0.000 C 
BRANCH  13  14
ATOM     14  C   UNL     1      25.656  47.325   9.196  1.00  0.00    -0.000 C 
BRANCH  14  15
ATOM     15  C   UNL     1      25.213  46.763   7.834  1.00  0.00    -0.000 C 
BRANCH  15  16
ATOM     16  C   UNL     1      25.341  45.233   7.758  1.00  0.00    -0.000 C 
BRANCH  16  17
ATOM     17  C   UNL     1      26.565  44.702   8.518  1.00  0.00    -0.003 C 
ATOM     18  C   UNL     1      26.587  43.176   8.528  1.00  0.00     0.004 C 
ENDBRANCH  16  17
ENDBRANCH  15  16
ENDBRANCH  14  15
ENDBRANCH  13  14
ENDBRANCH  12  13
ENDBRANCH  11  12
ENDBRANCH   1  11
TORSDOF 14
ENDMDL
MODEL 8
REMARK VINA RESULT:    -3.586     18.055     19.920
REMARK INTER + INTRA:          -7.691
REMARK INTER:                  -5.598
REMARK INTRA:                  -2.093
REMARK UNBOUND:                -1.169
REMARK SMILES CCCCCCCCCCCCCCCC(=O)[O-]
REMARK SMILES IDX 9 1 10 2 11 3 12 4 13 5 14 6 15 7 16 8 17 9 18 10 8 11 7 12
REMARK SMILES IDX 6 13 5 14 4 15 3 16 2 17 1 18
REMARK H PARENT
REMARK Flexibility Score: inf
ROOT
ATOM      1  C   UNL     1      31.066  47.235   8.102  1.00  0.00     0.000 C 
ENDROOT
BRANCH   1   2
ATOM      2  C   UNL     1      31.343  48.311   7.040  1.00  0.00     0.000 C 
BRANCH   2   3
ATOM      3  C   UNL     1      31.559  49.703   7.650  1.00  0.00     0.000 C 
BRANCH   3   4
ATOM      4  C   UNL     1      30.701  50.755   6.936  1.00  0.00     0.000 C 
BRANCH   4   5
ATOM      5  C   UNL     1      30.740  52.097   7.683  1.00  0.00     0.000 C 
BRANCH   5   6
ATOM      6  C   UNL     1      29.514  52.981   7.387  1.00  0.00     0.006 C 
BRANCH   6   7
ATOM      7  C   UNL     1      28.188  52.210   7.287  1.00  0.00     0.053 C 
BRANCH   7   8
ATOM      8  C   UNL     1      27.228  52.602   8.368  1.00  0.00     0.041 C 
ATOM      9  O   UNL     1      27.620  53.290   9.347  1.00  0.00    -0.550 OA
ATOM     10  O   UNL     1      25.891  52.236   8.277  1.00  0.00    -0.550 OA
ENDBRANCH   7   8
ENDBRANCH   6   7
ENDBRANCH   5   6
ENDBRANCH   4   5
ENDBRANCH   3   4
ENDBRANCH   2   3
ENDBRANCH   1   2
BRANCH   1  11
ATOM     11  C   UNL     1      29.570  46.917   8.246  1.00  0.00     0.000 C 
BRANCH  11  12
ATOM     12  C   UNL     1      28.973  47.622   9.470  1.00  0.00    -0.000 C 
BRANCH  12  13
ATOM     13  C   UNL     1      28.237  48.907   9.059  1.00  0.00    -0.000 C 
BRANCH  13  14
ATOM     14  C   UNL     1      27.289  48.693   7.869  1.00  0.00    -0.000 C 
BRANCH  14  15
ATOM     15  C   UNL     1      25.807  48.701   8.285  1.00  0.00    -0.000 C 
BRANCH  15  16
ATOM     16  C   UNL     1      25.334  47.337   8.810  1.00  0.00    -0.000 C 
BRANCH  16  17
ATOM     17  C   UNL     1      25.762  46.172   7.905  1.00  0.00    -0.003 C 
ATOM     18  C   UNL     1      26.373  45.037   8.721  1.00  0.00     0.004 C 
ENDBRANCH  16  17
ENDBRANCH  15  16
ENDBRANCH  14  15
ENDBRANCH  13  14
ENDBRANCH  12  13
ENDBRANCH  11  12
ENDBRANCH   1  11
TORSDOF 14
ENDMDL
