MODEL 1
REMARK VINA RESULT:    -3.840      0.000      0.000
REMARK INTER + INTRA:          -7.131
REMARK INTER:                  -6.084
REMARK INTRA:                  -1.047
REMARK UNBOUND:                -1.047
REMARK SMILES C=CCCCCCCCCCCC
REMARK SMILES IDX 7 1 8 2 9 3 10 4 11 5 12 6 13 7 6 8 5 9 4 10 3 11 2 12 1 13
REMARK H PARENT
REMARK Flexibility Score: inf
ROOT
ATOM      1  C   UNL     1      20.024  62.689  14.040  1.00  0.00     0.000 C 
ENDROOT
BRANCH   1   2
ATOM      2  C   UNL     1      21.218  63.653  14.143  1.00  0.00     0.000 C 
BRANCH   2   3
ATOM      3  C   UNL     1      22.562  62.915  14.263  1.00  0.00    -0.000 C 
BRANCH   3   4
ATOM      4  C   UNL     1      23.142  62.964  15.688  1.00  0.00    -0.000 C 
BRANCH   4   5
ATOM      5  C   UNL     1      22.284  63.806  16.645  1.00  0.00    -0.000 C 
BRANCH   5   6
ATOM      6  C   UNL     1      21.783  63.000  17.853  1.00  0.00    -0.003 C 
ATOM      7  C   UNL     1      20.282  63.181  18.051  1.00  0.00     0.004 C 
ENDBRANCH   5   6
ENDBRANCH   4   5
ENDBRANCH   3   4
ENDBRANCH   2   3
ENDBRANCH   1   2
BRANCH   1   8
ATOM      8  C   UNL     1      18.667  63.392  14.233  1.00  0.00     0.000 C 
BRANCH   8   9
ATOM      9  C   UNL     1      18.704  64.649  15.120  1.00  0.00     0.000 C 
BRANCH   9  10
ATOM     10  C   UNL     1      17.332  65.000  15.722  1.00  0.00     0.004 C 
BRANCH  10  11
ATOM     11  C   UNL     1      16.194  64.819  14.710  1.00  0.00     0.027 C 
BRANCH  11  12
ATOM     12  C   UNL     1      14.858  64.713  15.396  1.00  0.00    -0.035 C 
ATOM     13  C   UNL     1      14.675  65.135  16.651  1.00  0.00     0.004 C 
ENDBRANCH  11  12
ENDBRANCH  10  11
ENDBRANCH   9  10
ENDBRANCH   8   9
ENDBRANCH   1   8
TORSDOF 10
ENDMDL
MODEL 2
REMARK VINA RESULT:    -3.835      0.991      5.634
REMARK INTER + INTRA:          -7.124
REMARK INTER:                  -5.944
REMARK INTRA:                  -1.180
REMARK UNBOUND:                -1.047
REMARK SMILES C=CCCCCCCCCCCC
REMARK SMILES IDX 7 1 8 2 9 3 10 4 11 5 12 6 13 7 6 8 5 9 4 10 3 11 2 12 1 13
REMARK H PARENT
REMARK Flexibility Score: inf
ROOT
ATOM      1  C   UNL     1      19.987  63.528  17.505  1.00  0.00     0.000 C 
ENDROOT
BRANCH   1   2
ATOM      2  C   UNL     1      19.420  64.939  17.272  1.00  0.00     0.000 C 
BRANCH   2   3
ATOM      3  C   UNL     1      17.904  64.929  17.016  1.00  0.00    -0.000 C 
BRANCH   3   4
ATOM      4  C   UNL     1      17.529  65.534  15.651  1.00  0.00    -0.000 C 
BRANCH   4   5
ATOM      5  C   UNL     1      16.559  64.644  14.858  1.00  0.00    -0.000 C 
BRANCH   5   6
ATOM      6  C   UNL     1      15.157  65.260  14.739  1.00  0.00    -0.003 C 
ATOM      7  C   UNL     1      14.198  64.646  15.754  1.00  0.00     0.004 C 
ENDBRANCH   5   6
ENDBRANCH   4   5
ENDBRANCH   3   4
ENDBRANCH   2   3
ENDBRANCH   1   2
BRANCH   1   8
ATOM      8  C   UNL     1      21.486  63.535  17.860  1.00  0.00     0.000 C 
BRANCH   8   9
ATOM      9  C   UNL     1      22.423  63.035  16.747  1.00  0.00     0.000 C 
BRANCH   9  10
ATOM     10  C   UNL     1      22.355  63.894  15.472  1.00  0.00     0.004 C 
BRANCH  10  11
ATOM     11  C   UNL     1      21.867  63.090  14.260  1.00  0.00     0.027 C 
BRANCH  11  12
ATOM     12  C   UNL     1      20.463  63.473  13.874  1.00  0.00    -0.035 C 
ATOM     13  C   UNL     1      19.453  62.600  13.934  1.00  0.00     0.004 C 
ENDBRANCH  11  12
ENDBRANCH  10  11
ENDBRANCH   9  10
ENDBRANCH   8   9
ENDBRANCH   1   8
TORSDOF 10
ENDMDL
MODEL 3
REMARK VINA RESULT:    -3.802      0.947      2.728
REMARK INTER + INTRA:          -7.071
REMARK INTER:                  -5.898
REMARK INTRA:                  -1.172
REMARK UNBOUND:                -1.047
REMARK SMILES C=CCCCCCCCCCCC
REMARK SMILES IDX 7 1 8 2 9 3 10 4 11 5 12 6 13 7 6 8 5 9 4 10 3 11 2 12 1 13
REMARK H PARENT
REMARK Flexibility Score: inf
ROOT
ATOM      1  C   UNL     1      19.885  63.460  17.451  1.00  0.00     0.000 C 
ENDROOT
BRANCH   1   2
ATOM      2  C   UNL     1      21.318  63.407  18.008  1.00  0.00     0.000 C 
BRANCH   2   3
ATOM      3  C   UNL     1      22.354  63.039  16.933  1.00  0.00    -0.000 C 
BRANCH   3   4
ATOM      4  C   UNL     1      22.259  63.935  15.685  1.00  0.00    -0.000 C 
BRANCH   4   5
ATOM      5  C   UNL     1      21.921  63.141  14.413  1.00  0.00    -0.000 C 
BRANCH   5   6
ATOM      6  C   UNL     1      20.628  63.627  13.741  1.00  0.00    -0.003 C 
ATOM      7  C   UNL     1      19.505  62.608  13.909  1.00  0.00     0.004 C 
ENDBRANCH   5   6
ENDBRANCH   4   5
ENDBRANCH   3   4
ENDBRANCH   2   3
ENDBRANCH   1   2
BRANCH   1   8
ATOM      8  C   UNL     1      19.236  64.849  17.598  1.00  0.00     0.000 C 
BRANCH   8   9
ATOM      9  C   UNL     1      18.635  65.429  16.305  1.00  0.00     0.000 C 
BRANCH   9  10
ATOM     10  C   UNL     1      17.102  65.316  16.252  1.00  0.00     0.004 C 
BRANCH  10  11
ATOM     11  C   UNL     1      16.612  64.735  14.919  1.00  0.00     0.027 C 
BRANCH  11  12
ATOM     12  C   UNL     1      15.124  64.904  14.758  1.00  0.00    -0.035 C 
ATOM     13  C   UNL     1      14.268  64.571  15.727  1.00  0.00     0.004 C 
ENDBRANCH  11  12
ENDBRANCH  10  11
ENDBRANCH   9  10
ENDBRANCH   8   9
ENDBRANCH   1   8
TORSDOF 10
ENDMDL
MODEL 4
REMARK VINA RESULT:    -3.758      0.505      5.503
REMARK INTER + INTRA:          -7.001
REMARK INTER:                  -5.961
REMARK INTRA:                  -1.040
REMARK UNBOUND:                -1.047
REMARK SMILES C=CCCCCCCCCCCC
REMARK SMILES IDX 7 1 8 2 9 3 10 4 11 5 12 6 13 7 6 8 5 9 4 10 3 11 2 12 1 13
REMARK H PARENT
REMARK Flexibility Score: inf
ROOT
ATOM      1  C   UNL     1      19.898  62.715  14.026  1.00  0.00     0.000 C 
ENDROOT
BRANCH   1   2
ATOM      2  C   UNL     1      18.562  63.447  14.239  1.00  0.00     0.000 C 
BRANCH   2   3
ATOM      3  C   UNL     1      18.712  64.703  15.115  1.00  0.00    -0.000 C 
BRANCH   3   4
ATOM      4  C   UNL     1      17.387  65.467  15.289  1.00  0.00    -0.000 C 
BRANCH   4   5
ATOM      5  C   UNL     1      16.204  64.759  14.610  1.00  0.00    -0.000 C 
BRANCH   5   6
ATOM      6  C   UNL     1      14.928  64.793  15.463  1.00  0.00    -0.003 C 
ATOM      7  C   UNL     1      15.260  64.813  16.951  1.00  0.00     0.004 C 
ENDBRANCH   5   6
ENDBRANCH   4   5
ENDBRANCH   3   4
ENDBRANCH   2   3
ENDBRANCH   1   2
BRANCH   1   8
ATOM      8  C   UNL     1      21.121  63.630  14.220  1.00  0.00     0.000 C 
BRANCH   8   9
ATOM      9  C   UNL     1      22.346  62.956  14.862  1.00  0.00     0.000 C 
BRANCH   9  10
ATOM     10  C   UNL     1      22.783  63.628  16.176  1.00  0.00     0.004 C 
BRANCH  10  11
ATOM     11  C   UNL     1      22.654  62.684  17.378  1.00  0.00     0.027 C 
BRANCH  11  12
ATOM     12  C   UNL     1      21.586  63.150  18.333  1.00  0.00    -0.035 C 
ATOM     13  C   UNL     1      20.290  63.123  18.009  1.00  0.00     0.004 C 
ENDBRANCH  11  12
ENDBRANCH  10  11
ENDBRANCH   9  10
ENDBRANCH   8   9
ENDBRANCH   1   8
TORSDOF 10
ENDMDL
MODEL 5
REMARK VINA RESULT:    -3.731      1.214      1.772
REMARK INTER + INTRA:          -6.959
REMARK INTER:                  -6.359
REMARK INTRA:                  -0.600
REMARK UNBOUND:                -1.047
REMARK SMILES C=CCCCCCCCCCCC
REMARK SMILES IDX 7 1 8 2 9 3 10 4 11 5 12 6 13 7 6 8 5 9 4 10 3 11 2 12 1 13
REMARK H PARENT
REMARK Flexibility Score: inf
ROOT
ATOM      1  C   UNL     1      19.871  62.601  14.210  1.00  0.00     0.000 C 
ENDROOT
BRANCH   1   2
ATOM      2  C   UNL     1      21.089  63.273  14.868  1.00  0.00     0.000 C 
BRANCH   2   3
ATOM      3  C   UNL     1      22.383  63.060  14.065  1.00  0.00    -0.000 C 
BRANCH   3   4
ATOM      4  C   UNL     1      23.608  62.815  14.966  1.00  0.00    -0.000 C 
BRANCH   4   5
ATOM      5  C   UNL     1      23.245  62.786  16.458  1.00  0.00    -0.000 C 
BRANCH   5   6
ATOM      6  C   UNL     1      23.916  61.625  17.206  1.00  0.00    -0.003 C 
ATOM      7  C   UNL     1      24.892  60.879  16.303  1.00  0.00     0.004 C 
ENDBRANCH   5   6
ENDBRANCH   4   5
ENDBRANCH   3   4
ENDBRANCH   2   3
ENDBRANCH   1   2
BRANCH   1   8
ATOM      8  C   UNL     1      18.616  63.493  14.223  1.00  0.00     0.000 C 
BRANCH   8   9
ATOM      9  C   UNL     1      18.606  64.591  15.302  1.00  0.00     0.000 C 
BRANCH   9  10
ATOM     10  C   UNL     1      17.185  65.024  15.705  1.00  0.00     0.004 C 
BRANCH  10  11
ATOM     11  C   UNL     1      16.170  64.794  14.578  1.00  0.00     0.027 C 
BRANCH  11  12
ATOM     12  C   UNL     1      14.757  65.000  15.058  1.00  0.00    -0.035 C 
ATOM     13  C   UNL     1      14.373  64.648  16.288  1.00  0.00     0.004 C 
ENDBRANCH  11  12
ENDBRANCH  10  11
ENDBRANCH   9  10
ENDBRANCH   8   9
ENDBRANCH   1   8
TORSDOF 10
ENDMDL
MODEL 6
REMARK VINA RESULT:    -3.660      2.891      5.356
REMARK INTER + INTRA:          -6.847
REMARK INTER:                  -5.505
REMARK INTRA:                  -1.342
REMARK UNBOUND:                -1.047
REMARK SMILES C=CCCCCCCCCCCC
REMARK SMILES IDX 7 1 8 2 9 3 10 4 11 5 12 6 13 7 6 8 5 9 4 10 3 11 2 12 1 13
REMARK H PARENT
REMARK Flexibility Score: inf
ROOT
ATOM      1  C   UNL     1      24.910  60.732  15.563  1.00  0.00     0.000 C 
ENDROOT
BRANCH   1   2
ATOM      2  C   UNL     1      24.950  61.871  14.530  1.00  0.00     0.000 C 
BRANCH   2   3
ATOM      3  C   UNL     1      23.603  62.062  13.811  1.00  0.00    -0.000 C 
BRANCH   3   4
ATOM      4  C   UNL     1      23.077  63.505  13.911  1.00  0.00    -0.000 C 
BRANCH   4   5
ATOM      5  C   UNL     1      21.738  63.594  14.660  1.00  0.00    -0.000 C 
BRANCH   5   6
ATOM      6  C   UNL     1      20.531  63.623  13.712  1.00  0.00    -0.003 C 
ATOM      7  C   UNL     1      19.513  62.551  14.084  1.00  0.00     0.004 C 
ENDBRANCH   5   6
ENDBRANCH   4   5
ENDBRANCH   3   4
ENDBRANCH   2   3
ENDBRANCH   1   2
BRANCH   1   8
ATOM      8  C   UNL     1      24.477  61.206  16.962  1.00  0.00     0.000 C 
BRANCH   8   9
ATOM      9  C   UNL     1      24.741  62.693  17.258  1.00  0.00     0.000 C 
BRANCH   9  10
ATOM     10  C   UNL     1      23.681  63.320  18.181  1.00  0.00     0.004 C 
BRANCH  10  11
ATOM     11  C   UNL     1      22.361  62.539  18.158  1.00  0.00     0.027 C 
BRANCH  11  12
ATOM     12  C   UNL     1      21.194  63.417  18.527  1.00  0.00    -0.035 C 
ATOM     13  C   UNL     1      20.008  63.304  17.922  1.00  0.00     0.004 C 
ENDBRANCH  11  12
ENDBRANCH  10  11
ENDBRANCH   9  10
ENDBRANCH   8   9
ENDBRANCH   1   8
TORSDOF 10
ENDMDL
MODEL 7
REMARK VINA RESULT:    -3.641      2.179      4.475
REMARK INTER + INTRA:          -6.816
REMARK INTER:                  -5.587
REMARK INTRA:                  -1.228
REMARK UNBOUND:                -1.047
REMARK SMILES C=CCCCCCCCCCCC
REMARK SMILES IDX 7 1 8 2 9 3 10 4 11 5 12 6 13 7 6 8 5 9 4 10 3 11 2 12 1 13
REMARK H PARENT
REMARK Flexibility Score: inf
ROOT
ATOM      1  C   UNL     1      20.579  63.144  18.019  1.00  0.00     0.000 C 
ENDROOT
BRANCH   1   2
ATOM      2  C   UNL     1      22.040  62.771  18.323  1.00  0.00     0.000 C 
BRANCH   2   3
ATOM      3  C   UNL     1      22.910  62.720  17.056  1.00  0.00    -0.000 C 
BRANCH   3   4
ATOM      4  C   UNL     1      24.223  61.943  17.268  1.00  0.00    -0.000 C 
BRANCH   4   5
ATOM      5  C   UNL     1      24.646  61.151  16.022  1.00  0.00    -0.000 C 
BRANCH   5   6
ATOM      6  C   UNL     1      24.466  61.951  14.724  1.00  0.00    -0.003 C 
ATOM      7  C   UNL     1      24.318  61.024  13.522  1.00  0.00     0.004 C 
ENDBRANCH   5   6
ENDBRANCH   4   5
ENDBRANCH   3   4
ENDBRANCH   2   3
ENDBRANCH   1   2
BRANCH   1   8
ATOM      8  C   UNL     1      20.453  64.364  17.087  1.00  0.00     0.000 C 
BRANCH   8   9
ATOM      9  C   UNL     1      19.105  64.490  16.356  1.00  0.00     0.000 C 
BRANCH   9  10
ATOM     10  C   UNL     1      19.223  64.276  14.836  1.00  0.00     0.004 C 
BRANCH  10  11
ATOM     11  C   UNL     1      19.738  62.873  14.490  1.00  0.00     0.027 C 
BRANCH  11  12
ATOM     12  C   UNL     1      21.105  62.929  13.860  1.00  0.00    -0.035 C 
ATOM     13  C   UNL     1      21.695  64.088  13.557  1.00  0.00     0.004 C 
ENDBRANCH  11  12
ENDBRANCH  10  11
ENDBRANCH   9  10
ENDBRANCH   8   9
ENDBRANCH   1   8
TORSDOF 10
ENDMDL
MODEL 8
REMARK VINA RESULT:    -3.611      1.074      5.884
REMARK INTER + INTRA:          -6.769
REMARK INTER:                  -5.421
REMARK INTRA:                  -1.348
REMARK UNBOUND:                -1.047
REMARK SMILES C=CCCCCCCCCCCC
REMARK SMILES IDX 7 1 8 2 9 3 10 4 11 5 12 6 13 7 6 8 5 9 4 10 3 11 2 12 1 13
REMARK H PARENT
REMARK Flexibility Score: inf
ROOT
ATOM      1  C   UNL     1      19.019  65.429  14.974  1.00  0.00     0.000 C 
ENDROOT
BRANCH   1   2
ATOM      2  C   UNL     1      18.449  66.051  16.260  1.00  0.00     0.000 C 
BRANCH   2   3
ATOM      3  C   UNL     1      17.790  65.006  17.177  1.00  0.00    -0.000 C 
BRANCH   3   4
ATOM      4  C   UNL     1      16.378  65.420  17.629  1.00  0.00    -0.000 C 
BRANCH   4   5
ATOM      5  C   UNL     1      15.272  64.682  16.859  1.00  0.00    -0.000 C 
BRANCH   5   6
ATOM      6  C   UNL     1      14.647  65.544  15.753  1.00  0.00    -0.003 C 
ATOM      7  C   UNL     1      15.179  65.147  14.380  1.00  0.00     0.004 C 
ENDBRANCH   5   6
ENDBRANCH   4   5
ENDBRANCH   3   4
ENDBRANCH   2   3
ENDBRANCH   1   2
BRANCH   1   8
ATOM      8  C   UNL     1      18.686  63.933  14.832  1.00  0.00     0.000 C 
BRANCH   8   9
ATOM      9  C   UNL     1      19.571  63.158  13.839  1.00  0.00     0.000 C 
BRANCH   9  10
ATOM     10  C   UNL     1      20.980  63.758  13.694  1.00  0.00     0.004 C 
BRANCH  10  11
ATOM     11  C   UNL     1      22.052  62.881  14.352  1.00  0.00     0.027 C 
BRANCH  11  12
ATOM     12  C   UNL     1      22.528  63.473  15.653  1.00  0.00    -0.035 C 
ATOM     13  C   UNL     1      21.792  63.411  16.766  1.00  0.00     0.004 C 
ENDBRANCH  11  12
ENDBRANCH  10  11
ENDBRANCH   9  10
ENDBRANCH   8   9
ENDBRANCH   1   8
TORSDOF 10
ENDMDL
MODEL 9
REMARK VINA RESULT:    -3.525      1.942      5.679
REMARK INTER + INTRA:          -6.633
REMARK INTER:                  -5.317
REMARK INTRA:                  -1.316
REMARK UNBOUND:                -1.047
REMARK SMILES C=CCCCCCCCCCCC
REMARK SMILES IDX 7 1 8 2 9 3 10 4 11 5 12 6 13 7 6 8 5 9 4 10 3 11 2 12 1 13
REMARK H PARENT
REMARK Flexibility Score: inf
ROOT
ATOM      1  C   UNL     1      20.252  62.828  13.883  1.00  0.00     0.000 C 
ENDROOT
BRANCH   1   2
ATOM      2  C   UNL     1      18.849  63.294  14.309  1.00  0.00     0.000 C 
BRANCH   2   3
ATOM      3  C   UNL     1      18.860  64.697  14.938  1.00  0.00    -0.000 C 
BRANCH   3   4
ATOM      4  C   UNL     1      18.750  64.660  16.473  1.00  0.00    -0.000 C 
BRANCH   4   5
ATOM      5  C   UNL     1      20.118  64.522  17.160  1.00  0.00    -0.000 C 
BRANCH   5   6
ATOM      6  C   UNL     1      20.224  63.250  18.014  1.00  0.00    -0.003 C 
ATOM      7  C   UNL     1      21.657  63.021  18.484  1.00  0.00     0.004 C 
ENDBRANCH   5   6
ENDBRANCH   4   5
ENDBRANCH   3   4
ENDBRANCH   2   3
ENDBRANCH   1   2
BRANCH   1   8
ATOM      8  C   UNL     1      21.165  63.990  13.452  1.00  0.00     0.000 C 
BRANCH   8   9
ATOM      9  C   UNL     1      22.625  63.885  13.928  1.00  0.00     0.000 C 
BRANCH   9  10
ATOM     10  C   UNL     1      22.813  62.871  15.069  1.00  0.00     0.004 C 
BRANCH  10  11
ATOM     11  C   UNL     1      24.120  62.080  14.929  1.00  0.00     0.027 C 
BRANCH  11  12
ATOM     12  C   UNL     1      24.391  61.712  13.494  1.00  0.00    -0.035 C 
ATOM     13  C   UNL     1      24.419  60.441  13.086  1.00  0.00     0.004 C 
ENDBRANCH  11  12
ENDBRANCH  10  11
ENDBRANCH   9  10
ENDBRANCH   8   9
ENDBRANCH   1   8
TORSDOF 10
ENDMDL
