MODEL 1
REMARK VINA RESULT:    -8.658      0.000      0.000
REMARK INTER + INTRA:          -9.417
REMARK INTER:                  -9.417
REMARK INTRA:                   0.000
REMARK UNBOUND:                 0.000
REMARK SMILES C[C@@H]1CC[C@H]2[N@H+](C1)C[C@@H]1[C@H]3C[C@H]4[C@H](C[C@@H](O)[C@@H]5C[C@H](O)CC[C@@]45C)[C@@H]3CC[C@@H]1[C@@]2(C)O
REMARK SMILES IDX 5 1 6 2 8 3 7 4 4 5 29 6 3 7 28 8 30 9 2 10 27 11 9 12 1 13
REMARK SMILES IDX 26 14 10 15 25 16 11 17 13 18 12 19 14 20 23 21 15 22 17 23
REMARK SMILES IDX 22 24 24 25 18 26 21 27 19 28 31 30 16 32 20 34
REMARK H PARENT 6 29 31 31 16 33 20 35
REMARK Flexibility Score: inf
ROOT
ATOM      1  C   UNL     1      15.855  22.686 -10.312  1.00  0.00     0.216 C 
ATOM      2  N   UNL     1      15.175  21.354 -10.278  1.00  0.00    -0.330 N 
ATOM      3  C   UNL     1      15.610  20.617  -9.074  1.00  0.00     0.266 C 
ATOM      4  C   UNL     1      13.692  21.411 -10.284  1.00  0.00     0.265 C 
ATOM      5  C   UNL     1      15.243  23.623 -11.391  1.00  0.00     0.069 C 
ATOM      6  C   UNL     1      17.397  22.484 -10.554  1.00  0.00     0.117 C 
ATOM      7  C   UNL     1      13.725  23.695 -11.299  1.00  0.00     0.015 C 
ATOM      8  C   UNL     1      18.033  21.548  -9.449  1.00  0.00     0.036 C 
ATOM      9  C   UNL     1      18.132  23.846 -10.603  1.00  0.00     0.049 C 
ATOM     10  C   UNL     1      13.109  22.303 -11.395  1.00  0.00     0.041 C 
ATOM     11  C   UNL     1      18.583  22.263  -8.166  1.00  0.00     0.007 C 
ATOM     12  C   UNL     1      17.126  20.313  -9.073  1.00  0.00     0.054 C 
ATOM     13  C   UNL     1      13.251  21.688 -12.800  1.00  0.00     0.013 C 
ATOM     14  C   UNL     1      19.425  21.306  -7.270  1.00  0.00     0.004 C 
ATOM     15  C   UNL     1      17.511  19.747  -7.674  1.00  0.00     0.002 C 
ATOM     16  C   UNL     1      19.016  19.829  -7.469  1.00  0.00    -0.004 C 
ATOM     17  C   UNL     1      17.126  18.293  -7.380  1.00  0.00     0.009 C 
ATOM     18  C   UNL     1      19.329  18.791  -6.384  1.00  0.00    -0.001 C 
ATOM     19  C   UNL     1      18.399  17.622  -6.807  1.00  0.00    -0.001 C 
ATOM     20  C   UNL     1      19.057  19.312  -4.950  1.00  0.00     0.036 C 
ATOM     21  C   UNL     1      18.202  16.509  -5.720  1.00  0.00    -0.024 C 
ATOM     22  C   UNL     1      18.963  18.181  -3.916  1.00  0.00     0.118 C 
ATOM     23  C   UNL     1      17.869  17.167  -4.340  1.00  0.00     0.026 C 
ATOM     24  C   UNL     1      17.033  15.548  -6.120  1.00  0.00     0.010 C 
ATOM     25  C   UNL     1      19.518  15.671  -5.669  1.00  0.00     0.012 C 
ATOM     26  C   UNL     1      17.584  16.116  -3.245  1.00  0.00     0.038 C 
ATOM     27  C   UNL     1      16.728  14.501  -5.037  1.00  0.00     0.032 C 
ATOM     28  C   UNL     1      16.447  15.166  -3.675  1.00  0.00     0.114 C 
ATOM     29  H   UNL     1      15.448  20.791 -11.114  1.00  0.00     0.348 HD
ENDROOT
BRANCH   6  30
ATOM     30  O   UNL     1      17.600  21.907 -11.833  1.00  0.00    -0.384 OA
ATOM     31  H   UNL     1      18.563  21.712 -11.962  1.00  0.00     0.211 HD
ENDBRANCH   6  30
BRANCH  22  32
ATOM     32  O   UNL     1      18.703  18.731  -2.641  1.00  0.00    -0.393 OA
ATOM     33  H   UNL     1      19.077  19.646  -2.619  1.00  0.00     0.210 HD
ENDBRANCH  22  32
BRANCH  28  34
ATOM     34  O   UNL     1      16.230  14.190  -2.686  1.00  0.00    -0.393 OA
ATOM     35  H   UNL     1      17.014  13.584  -2.682  1.00  0.00     0.210 HD
ENDBRANCH  28  34
TORSDOF 3
ENDMDL
MODEL 2
REMARK VINA RESULT:    -8.608      5.483      9.055
REMARK INTER + INTRA:          -9.363
REMARK INTER:                  -9.363
REMARK INTRA:                   0.000
REMARK UNBOUND:                 0.000
REMARK SMILES C[C@@H]1CC[C@H]2[N@H+](C1)C[C@@H]1[C@H]3C[C@H]4[C@H](C[C@@H](O)[C@@H]5C[C@H](O)CC[C@@]45C)[C@@H]3CC[C@@H]1[C@@]2(C)O
REMARK SMILES IDX 5 1 6 2 8 3 7 4 4 5 29 6 3 7 28 8 30 9 2 10 27 11 9 12 1 13
REMARK SMILES IDX 26 14 10 15 25 16 11 17 13 18 12 19 14 20 23 21 15 22 17 23
REMARK SMILES IDX 22 24 24 25 18 26 21 27 19 28 31 30 16 32 20 34
REMARK H PARENT 6 29 31 31 16 33 20 35
REMARK Flexibility Score: inf
ROOT
ATOM      1  C   UNL     1      12.255  24.860  -3.141  1.00  0.00     0.216 C 
ATOM      2  N   UNL     1      13.737  24.668  -3.216  1.00  0.00    -0.330 N 
ATOM      3  C   UNL     1      14.134  24.500  -4.628  1.00  0.00     0.266 C 
ATOM      4  C   UNL     1      14.538  25.771  -2.630  1.00  0.00     0.265 C 
ATOM      5  C   UNL     1      11.799  25.317  -1.727  1.00  0.00     0.069 C 
ATOM      6  C   UNL     1      11.529  23.528  -3.560  1.00  0.00     0.117 C 
ATOM      7  C   UNL     1      12.612  26.497  -1.211  1.00  0.00     0.015 C 
ATOM      8  C   UNL     1      11.970  23.066  -5.007  1.00  0.00     0.036 C 
ATOM      9  C   UNL     1       9.991  23.689  -3.485  1.00  0.00     0.049 C 
ATOM     10  C   UNL     1      14.102  26.169  -1.209  1.00  0.00     0.041 C 
ATOM     11  C   UNL     1      11.116  23.612  -6.202  1.00  0.00     0.007 C 
ATOM     12  C   UNL     1      13.515  23.241  -5.279  1.00  0.00     0.054 C 
ATOM     13  C   UNL     1      14.475  25.118  -0.146  1.00  0.00     0.013 C 
ATOM     14  C   UNL     1      11.449  22.897  -7.545  1.00  0.00     0.004 C 
ATOM     15  C   UNL     1      13.808  23.287  -6.808  1.00  0.00     0.002 C 
ATOM     16  C   UNL     1      12.887  22.329  -7.549  1.00  0.00    -0.004 C 
ATOM     17  C   UNL     1      15.230  22.931  -7.256  1.00  0.00     0.009 C 
ATOM     18  C   UNL     1      13.596  22.038  -8.877  1.00  0.00    -0.001 C 
ATOM     19  C   UNL     1      15.070  21.910  -8.411  1.00  0.00    -0.001 C 
ATOM     20  C   UNL     1      13.375  23.146  -9.937  1.00  0.00     0.036 C 
ATOM     21  C   UNL     1      16.133  21.951  -9.562  1.00  0.00    -0.024 C 
ATOM     22  C   UNL     1      14.392  23.080 -11.086  1.00  0.00     0.118 C 
ATOM     23  C   UNL     1      15.834  23.151 -10.520  1.00  0.00     0.026 C 
ATOM     24  C   UNL     1      17.576  22.115  -8.977  1.00  0.00     0.010 C 
ATOM     25  C   UNL     1      16.068  20.578 -10.303  1.00  0.00     0.012 C 
ATOM     26  C   UNL     1      16.896  23.292 -11.632  1.00  0.00     0.038 C 
ATOM     27  C   UNL     1      18.646  22.267 -10.070  1.00  0.00     0.032 C 
ATOM     28  C   UNL     1      18.311  23.426 -11.029  1.00  0.00     0.114 C 
ATOM     29  H   UNL     1      14.012  23.802  -2.701  1.00  0.00     0.348 HD
ENDROOT
BRANCH   6  30
ATOM     30  O   UNL     1      11.840  22.509  -2.625  1.00  0.00    -0.384 OA
ATOM     31  H   UNL     1      12.631  22.775  -2.092  1.00  0.00     0.211 HD
ENDBRANCH   6  30
BRANCH  22  32
ATOM     32  O   UNL     1      14.135  24.123 -12.002  1.00  0.00    -0.393 OA
ATOM     33  H   UNL     1      14.876  24.776 -11.939  1.00  0.00     0.210 HD
ENDBRANCH  22  32
BRANCH  28  34
ATOM     34  O   UNL     1      19.269  23.510 -12.054  1.00  0.00    -0.393 OA
ATOM     35  H   UNL     1      20.077  23.020 -11.754  1.00  0.00     0.210 HD
ENDBRANCH  28  34
TORSDOF 3
ENDMDL
MODEL 3
REMARK VINA RESULT:    -8.132      2.509      8.463
REMARK INTER + INTRA:          -8.845
REMARK INTER:                  -8.845
REMARK INTRA:                   0.000
REMARK UNBOUND:                 0.000
REMARK SMILES C[C@@H]1CC[C@H]2[N@H+](C1)C[C@@H]1[C@H]3C[C@H]4[C@H](C[C@@H](O)[C@@H]5C[C@H](O)CC[C@@]45C)[C@@H]3CC[C@@H]1[C@@]2(C)O
REMARK SMILES IDX 5 1 6 2 8 3 7 4 4 5 29 6 3 7 28 8 30 9 2 10 27 11 9 12 1 13
REMARK SMILES IDX 26 14 10 15 25 16 11 17 13 18 12 19 14 20 23 21 15 22 17 23
REMARK SMILES IDX 22 24 24 25 18 26 21 27 19 28 31 30 16 32 20 34
REMARK H PARENT 6 29 31 31 16 33 20 35
REMARK Flexibility Score: inf
ROOT
ATOM      1  C   UNL     1      18.794  14.677  -5.345  1.00  0.00     0.216 C 
ATOM      2  N   UNL     1      18.545  14.826  -6.813  1.00  0.00    -0.330 N 
ATOM      3  C   UNL     1      18.565  16.260  -7.166  1.00  0.00     0.266 C 
ATOM      4  C   UNL     1      19.514  14.115  -7.683  1.00  0.00     0.265 C 
ATOM      5  C   UNL     1      19.062  13.199  -4.948  1.00  0.00     0.069 C 
ATOM      6  C   UNL     1      17.571  15.260  -4.543  1.00  0.00     0.117 C 
ATOM      7  C   UNL     1      20.117  12.546  -5.832  1.00  0.00     0.015 C 
ATOM      8  C   UNL     1      17.302  16.771  -4.924  1.00  0.00     0.036 C 
ATOM      9  C   UNL     1      17.791  15.114  -3.017  1.00  0.00     0.049 C 
ATOM     10  C   UNL     1      19.723  12.638  -7.302  1.00  0.00     0.041 C 
ATOM     11  C   UNL     1      18.054  17.848  -4.069  1.00  0.00     0.007 C 
ATOM     12  C   UNL     1      17.443  17.063  -6.469  1.00  0.00     0.054 C 
ATOM     13  C   UNL     1      18.514  11.748  -7.649  1.00  0.00     0.013 C 
ATOM     14  C   UNL     1      17.525  19.289  -4.333  1.00  0.00     0.004 C 
ATOM     15  C   UNL     1      17.695  18.579  -6.726  1.00  0.00     0.002 C 
ATOM     16  C   UNL     1      16.898  19.419  -5.740  1.00  0.00    -0.004 C 
ATOM     17  C   UNL     1      17.342  19.118  -8.117  1.00  0.00     0.009 C 
ATOM     18  C   UNL     1      16.769  20.798  -6.401  1.00  0.00    -0.001 C 
ATOM     19  C   UNL     1      16.507  20.401  -7.878  1.00  0.00    -0.001 C 
ATOM     20  C   UNL     1      18.028  21.681  -6.210  1.00  0.00     0.036 C 
ATOM     21  C   UNL     1      16.664  21.568  -8.913  1.00  0.00    -0.024 C 
ATOM     22  C   UNL     1      18.080  22.859  -7.193  1.00  0.00     0.118 C 
ATOM     23  C   UNL     1      18.002  22.334  -8.650  1.00  0.00     0.026 C 
ATOM     24  C   UNL     1      16.675  21.011 -10.375  1.00  0.00     0.010 C 
ATOM     25  C   UNL     1      15.417  22.495  -8.760  1.00  0.00     0.012 C 
ATOM     26  C   UNL     1      18.253  23.448  -9.690  1.00  0.00     0.038 C 
ATOM     27  C   UNL     1      16.934  22.104 -11.425  1.00  0.00     0.032 C 
ATOM     28  C   UNL     1      18.233  22.877 -11.125  1.00  0.00     0.114 C 
ATOM     29  H   UNL     1      17.603  14.449  -7.057  1.00  0.00     0.348 HD
ENDROOT
BRANCH   6  30
ATOM     30  O   UNL     1      16.414  14.490  -4.825  1.00  0.00    -0.384 OA
ATOM     31  H   UNL     1      15.900  14.342  -3.992  1.00  0.00     0.211 HD
ENDBRANCH   6  30
BRANCH  22  32
ATOM     32  O   UNL     1      19.256  23.608  -6.967  1.00  0.00    -0.393 OA
ATOM     33  H   UNL     1      19.498  23.519  -6.012  1.00  0.00     0.210 HD
ENDBRANCH  22  32
BRANCH  28  34
ATOM     34  O   UNL     1      18.419  23.909 -12.060  1.00  0.00    -0.393 OA
ATOM     35  H   UNL     1      18.608  24.743 -11.558  1.00  0.00     0.210 HD
ENDBRANCH  28  34
TORSDOF 3
ENDMDL
MODEL 4
REMARK VINA RESULT:    -7.884      4.698      6.886
REMARK INTER + INTRA:          -8.576
REMARK INTER:                  -8.576
REMARK INTRA:                   0.000
REMARK UNBOUND:                 0.000
REMARK SMILES C[C@@H]1CC[C@H]2[N@H+](C1)C[C@@H]1[C@H]3C[C@H]4[C@H](C[C@@H](O)[C@@H]5C[C@H](O)CC[C@@]45C)[C@@H]3CC[C@@H]1[C@@]2(C)O
REMARK SMILES IDX 5 1 6 2 8 3 7 4 4 5 29 6 3 7 28 8 30 9 2 10 27 11 9 12 1 13
REMARK SMILES IDX 26 14 10 15 25 16 11 17 13 18 12 19 14 20 23 21 15 22 17 23
REMARK SMILES IDX 22 24 24 25 18 26 21 27 19 28 31 30 16 32 20 34
REMARK H PARENT 6 29 31 31 16 33 20 35
REMARK Flexibility Score: inf
ROOT
ATOM      1  C   UNL     1       9.569  21.959  -6.211  1.00  0.00     0.216 C 
ATOM      2  N   UNL     1      10.091  21.696  -7.589  1.00  0.00    -0.330 N 
ATOM      3  C   UNL     1      11.544  21.444  -7.518  1.00  0.00     0.266 C 
ATOM      4  C   UNL     1       9.450  20.555  -8.289  1.00  0.00     0.265 C 
ATOM      5  C   UNL     1       8.016  21.958  -6.168  1.00  0.00     0.069 C 
ATOM      6  C   UNL     1      10.144  23.326  -5.684  1.00  0.00     0.117 C 
ATOM      7  C   UNL     1       7.420  20.728  -6.839  1.00  0.00     0.015 C 
ATOM      8  C   UNL     1      11.725  23.330  -5.705  1.00  0.00     0.036 C 
ATOM      9  C   UNL     1       9.617  23.635  -4.261  1.00  0.00     0.049 C 
ATOM     10  C   UNL     1       7.911  20.605  -8.278  1.00  0.00     0.041 C 
ATOM     11  C   UNL     1      12.439  22.817  -4.406  1.00  0.00     0.007 C 
ATOM     12  C   UNL     1      12.339  22.664  -6.997  1.00  0.00     0.054 C 
ATOM     13  C   UNL     1       7.336  21.700  -9.196  1.00  0.00     0.013 C 
ATOM     14  C   UNL     1      13.969  23.110  -4.415  1.00  0.00     0.004 C 
ATOM     15  C   UNL     1      13.810  22.218  -6.747  1.00  0.00     0.002 C 
ATOM     16  C   UNL     1      14.520  23.225  -5.855  1.00  0.00    -0.004 C 
ATOM     17  C   UNL     1      14.705  22.046  -7.980  1.00  0.00     0.009 C 
ATOM     18  C   UNL     1      16.016  23.015  -6.125  1.00  0.00    -0.001 C 
ATOM     19  C   UNL     1      16.018  22.806  -7.663  1.00  0.00    -0.001 C 
ATOM     20  C   UNL     1      16.612  21.823  -5.337  1.00  0.00     0.036 C 
ATOM     21  C   UNL     1      17.349  22.222  -8.248  1.00  0.00    -0.024 C 
ATOM     22  C   UNL     1      17.960  21.353  -5.903  1.00  0.00     0.118 C 
ATOM     23  C   UNL     1      17.805  20.987  -7.402  1.00  0.00     0.026 C 
ATOM     24  C   UNL     1      17.150  21.774  -9.734  1.00  0.00     0.010 C 
ATOM     25  C   UNL     1      18.408  23.370  -8.230  1.00  0.00     0.012 C 
ATOM     26  C   UNL     1      19.071  20.318  -7.978  1.00  0.00     0.038 C 
ATOM     27  C   UNL     1      18.398  21.095 -10.323  1.00  0.00     0.032 C 
ATOM     28  C   UNL     1      18.857  19.909  -9.451  1.00  0.00     0.114 C 
ATOM     29  H   UNL     1       9.940  22.532  -8.195  1.00  0.00     0.348 HD
ENDROOT
BRANCH   6  30
ATOM     30  O   UNL     1       9.661  24.383  -6.495  1.00  0.00    -0.384 OA
ATOM     31  H   UNL     1       8.917  24.846  -6.033  1.00  0.00     0.211 HD
ENDBRANCH   6  30
BRANCH  22  32
ATOM     32  O   UNL     1      18.434  20.261  -5.143  1.00  0.00    -0.393 OA
ATOM     33  H   UNL     1      19.156  20.588  -4.551  1.00  0.00     0.210 HD
ENDBRANCH  22  32
BRANCH  28  34
ATOM     34  O   UNL     1      20.032  19.341  -9.973  1.00  0.00    -0.393 OA
ATOM     35  H   UNL     1      20.796  19.683  -9.441  1.00  0.00     0.210 HD
ENDBRANCH  28  34
TORSDOF 3
ENDMDL
MODEL 5
REMARK VINA RESULT:    -7.810      5.645      8.274
REMARK INTER + INTRA:          -8.495
REMARK INTER:                  -8.495
REMARK INTRA:                   0.000
REMARK UNBOUND:                 0.000
REMARK SMILES C[C@@H]1CC[C@H]2[N@H+](C1)C[C@@H]1[C@H]3C[C@H]4[C@H](C[C@@H](O)[C@@H]5C[C@H](O)CC[C@@]45C)[C@@H]3CC[C@@H]1[C@@]2(C)O
REMARK SMILES IDX 5 1 6 2 8 3 7 4 4 5 29 6 3 7 28 8 30 9 2 10 27 11 9 12 1 13
REMARK SMILES IDX 26 14 10 15 25 16 11 17 13 18 12 19 14 20 23 21 15 22 17 23
REMARK SMILES IDX 22 24 24 25 18 26 21 27 19 28 31 30 16 32 20 34
REMARK H PARENT 6 29 31 31 16 33 20 35
REMARK Flexibility Score: inf
ROOT
ATOM      1  C   UNL     1      15.096  21.828 -10.079  1.00  0.00     0.216 C 
ATOM      2  N   UNL     1      15.304  22.504  -8.761  1.00  0.00    -0.330 N 
ATOM      3  C   UNL     1      14.162  22.202  -7.875  1.00  0.00     0.266 C 
ATOM      4  C   UNL     1      16.555  22.127  -8.059  1.00  0.00     0.265 C 
ATOM      5  C   UNL     1      16.375  21.869 -10.961  1.00  0.00     0.069 C 
ATOM      6  C   UNL     1      13.879  22.492 -10.825  1.00  0.00     0.117 C 
ATOM      7  C   UNL     1      17.612  21.403 -10.206  1.00  0.00     0.015 C 
ATOM      8  C   UNL     1      12.567  22.438  -9.944  1.00  0.00     0.036 C 
ATOM      9  C   UNL     1      13.641  21.822 -12.200  1.00  0.00     0.049 C 
ATOM     10  C   UNL     1      17.815  22.226  -8.938  1.00  0.00     0.041 C 
ATOM     11  C   UNL     1      11.662  21.170 -10.124  1.00  0.00     0.007 C 
ATOM     12  C   UNL     1      12.821  22.749  -8.418  1.00  0.00     0.054 C 
ATOM     13  C   UNL     1      18.230  23.680  -9.236  1.00  0.00     0.013 C 
ATOM     14  C   UNL     1      10.275  21.329  -9.431  1.00  0.00     0.004 C 
ATOM     15  C   UNL     1      11.668  22.182  -7.536  1.00  0.00     0.002 C 
ATOM     16  C   UNL     1      10.336  22.330  -8.255  1.00  0.00    -0.004 C 
ATOM     17  C   UNL     1      11.472  22.816  -6.155  1.00  0.00     0.009 C 
ATOM     18  C   UNL     1       9.276  22.281  -7.147  1.00  0.00    -0.001 C 
ATOM     19  C   UNL     1       9.959  23.126  -6.038  1.00  0.00    -0.001 C 
ATOM     20  C   UNL     1       8.932  20.837  -6.702  1.00  0.00     0.036 C 
ATOM     21  C   UNL     1       9.304  23.005  -4.619  1.00  0.00    -0.024 C 
ATOM     22  C   UNL     1       8.212  20.790  -5.347  1.00  0.00     0.118 C 
ATOM     23  C   UNL     1       9.071  21.498  -4.268  1.00  0.00     0.026 C 
ATOM     24  C   UNL     1      10.227  23.644  -3.529  1.00  0.00     0.010 C 
ATOM     25  C   UNL     1       7.968  23.813  -4.653  1.00  0.00     0.012 C 
ATOM     26  C   UNL     1       8.501  21.311  -2.845  1.00  0.00     0.038 C 
ATOM     27  C   UNL     1       9.681  23.458  -2.104  1.00  0.00     0.032 C 
ATOM     28  C   UNL     1       9.416  21.972  -1.792  1.00  0.00     0.114 C 
ATOM     29  H   UNL     1      15.343  23.539  -8.891  1.00  0.00     0.348 HD
ENDROOT
BRANCH   6  30
ATOM     30  O   UNL     1      14.191  23.843 -11.121  1.00  0.00    -0.384 OA
ATOM     31  H   UNL     1      14.457  23.924 -12.072  1.00  0.00     0.211 HD
ENDBRANCH   6  30
BRANCH  22  32
ATOM     32  O   UNL     1       7.942  19.447  -5.004  1.00  0.00    -0.393 OA
ATOM     33  H   UNL     1       6.963  19.312  -5.036  1.00  0.00     0.210 HD
ENDBRANCH  22  32
BRANCH  28  34
ATOM     34  O   UNL     1       8.861  21.830  -0.509  1.00  0.00    -0.393 OA
ATOM     35  H   UNL     1       7.916  21.550  -0.617  1.00  0.00     0.210 HD
ENDBRANCH  28  34
TORSDOF 3
ENDMDL
MODEL 6
REMARK VINA RESULT:    -7.804      5.391      7.900
REMARK INTER + INTRA:          -8.488
REMARK INTER:                  -8.488
REMARK INTRA:                   0.000
REMARK UNBOUND:                 0.000
REMARK SMILES C[C@@H]1CC[C@H]2[N@H+](C1)C[C@@H]1[C@H]3C[C@H]4[C@H](C[C@@H](O)[C@@H]5C[C@H](O)CC[C@@]45C)[C@@H]3CC[C@@H]1[C@@]2(C)O
REMARK SMILES IDX 5 1 6 2 8 3 7 4 4 5 29 6 3 7 28 8 30 9 2 10 27 11 9 12 1 13
REMARK SMILES IDX 26 14 10 15 25 16 11 17 13 18 12 19 14 20 23 21 15 22 17 23
REMARK SMILES IDX 22 24 24 25 18 26 21 27 19 28 31 30 16 32 20 34
REMARK H PARENT 6 29 31 31 16 33 20 35
REMARK Flexibility Score: inf
ROOT
ATOM      1  C   UNL     1      17.157  21.226  -8.235  1.00  0.00     0.216 C 
ATOM      2  N   UNL     1      17.042  21.895  -6.901  1.00  0.00    -0.330 N 
ATOM      3  C   UNL     1      15.683  21.681  -6.366  1.00  0.00     0.266 C 
ATOM      4  C   UNL     1      18.024  21.436  -5.888  1.00  0.00     0.265 C 
ATOM      5  C   UNL     1      18.628  21.170  -8.732  1.00  0.00     0.069 C 
ATOM      6  C   UNL     1      16.240  21.968  -9.277  1.00  0.00     0.117 C 
ATOM      7  C   UNL     1      19.576  20.624  -7.672  1.00  0.00     0.015 C 
ATOM      8  C   UNL     1      14.737  22.013  -8.790  1.00  0.00     0.036 C 
ATOM      9  C   UNL     1      16.342  21.306 -10.673  1.00  0.00     0.049 C 
ATOM     10  C   UNL     1      19.480  21.440  -6.387  1.00  0.00     0.041 C 
ATOM     11  C   UNL     1      13.829  20.811  -9.226  1.00  0.00     0.007 C 
ATOM     12  C   UNL     1      14.584  22.317  -7.248  1.00  0.00     0.054 C 
ATOM     13  C   UNL     1      20.061  22.859  -6.543  1.00  0.00     0.013 C 
ATOM     14  C   UNL     1      12.321  21.072  -8.937  1.00  0.00     0.004 C 
ATOM     15  C   UNL     1      13.197  21.839  -6.723  1.00  0.00     0.002 C 
ATOM     16  C   UNL     1      12.126  22.075  -7.777  1.00  0.00    -0.004 C 
ATOM     17  C   UNL     1      12.674  22.495  -5.440  1.00  0.00     0.009 C 
ATOM     18  C   UNL     1      10.803  22.108  -7.002  1.00  0.00    -0.001 C 
ATOM     19  C   UNL     1      11.212  22.911  -5.739  1.00  0.00    -0.001 C 
ATOM     20  C   UNL     1      10.250  20.696  -6.687  1.00  0.00     0.036 C 
ATOM     21  C   UNL     1      10.187  22.847  -4.555  1.00  0.00    -0.024 C 
ATOM     22  C   UNL     1       9.185  20.709  -5.581  1.00  0.00     0.118 C 
ATOM     23  C   UNL     1       9.762  21.364  -4.299  1.00  0.00     0.026 C 
ATOM     24  C   UNL     1      10.818  23.428  -3.246  1.00  0.00     0.010 C 
ATOM     25  C   UNL     1       8.972  23.748  -4.943  1.00  0.00     0.012 C 
ATOM     26  C   UNL     1       8.813  21.227  -3.090  1.00  0.00     0.038 C 
ATOM     27  C   UNL     1       9.891  23.292  -2.027  1.00  0.00     0.032 C 
ATOM     28  C   UNL     1       9.448  21.830  -1.819  1.00  0.00     0.114 C 
ATOM     29  H   UNL     1      17.188  22.924  -7.003  1.00  0.00     0.348 HD
ENDROOT
BRANCH   6  30
ATOM     30  O   UNL     1      16.715  23.292  -9.460  1.00  0.00    -0.384 OA
ATOM     31  H   UNL     1      16.320  23.678 -10.283  1.00  0.00     0.211 HD
ENDBRANCH   6  30
BRANCH  22  32
ATOM     32  O   UNL     1       8.739  19.391  -5.342  1.00  0.00    -0.393 OA
ATOM     33  H   UNL     1       8.684  19.258  -4.363  1.00  0.00     0.210 HD
ENDBRANCH  22  32
BRANCH  28  34
ATOM     34  O   UNL     1       8.554  21.737  -0.738  1.00  0.00    -0.393 OA
ATOM     35  H   UNL     1       8.029  22.577  -0.706  1.00  0.00     0.210 HD
ENDBRANCH  28  34
TORSDOF 3
ENDMDL
MODEL 7
REMARK VINA RESULT:    -7.645      2.516      8.391
REMARK INTER + INTRA:          -8.316
REMARK INTER:                  -8.316
REMARK INTRA:                   0.000
REMARK UNBOUND:                 0.000
REMARK SMILES C[C@@H]1CC[C@H]2[N@H+](C1)C[C@@H]1[C@H]3C[C@H]4[C@H](C[C@@H](O)[C@@H]5C[C@H](O)CC[C@@]45C)[C@@H]3CC[C@@H]1[C@@]2(C)O
REMARK SMILES IDX 5 1 6 2 8 3 7 4 4 5 29 6 3 7 28 8 30 9 2 10 27 11 9 12 1 13
REMARK SMILES IDX 26 14 10 15 25 16 11 17 13 18 12 19 14 20 23 21 15 22 17 23
REMARK SMILES IDX 22 24 24 25 18 26 21 27 19 28 31 30 16 32 20 34
REMARK H PARENT 6 29 31 31 16 33 20 35
REMARK Flexibility Score: inf
ROOT
ATOM      1  C   UNL     1      15.930  13.299  -5.503  1.00  0.00     0.216 C 
ATOM      2  N   UNL     1      14.819  14.193  -5.955  1.00  0.00    -0.330 N 
ATOM      3  C   UNL     1      15.385  15.324  -6.718  1.00  0.00     0.266 C 
ATOM      4  C   UNL     1      13.789  13.530  -6.793  1.00  0.00     0.265 C 
ATOM      5  C   UNL     1      15.399  11.952  -4.938  1.00  0.00     0.069 C 
ATOM      6  C   UNL     1      16.807  14.049  -4.432  1.00  0.00     0.117 C 
ATOM      7  C   UNL     1      14.400  11.287  -5.875  1.00  0.00     0.015 C 
ATOM      8  C   UNL     1      17.369  15.412  -5.005  1.00  0.00     0.036 C 
ATOM      9  C   UNL     1      17.963  13.148  -3.935  1.00  0.00     0.049 C 
ATOM     10  C   UNL     1      13.240  12.226  -6.186  1.00  0.00     0.041 C 
ATOM     11  C   UNL     1      18.759  15.341  -5.726  1.00  0.00     0.007 C 
ATOM     12  C   UNL     1      16.317  16.215  -5.865  1.00  0.00     0.054 C 
ATOM     13  C   UNL     1      12.327  12.464  -4.968  1.00  0.00     0.013 C 
ATOM     14  C   UNL     1      19.352  16.754  -6.011  1.00  0.00     0.004 C 
ATOM     15  C   UNL     1      17.030  17.225  -6.813  1.00  0.00     0.002 C 
ATOM     16  C   UNL     1      18.245  17.826  -6.122  1.00  0.00    -0.004 C 
ATOM     17  C   UNL     1      16.202  18.414  -7.314  1.00  0.00     0.009 C 
ATOM     18  C   UNL     1      18.518  19.140  -6.866  1.00  0.00    -0.001 C 
ATOM     19  C   UNL     1      17.075  19.671  -7.080  1.00  0.00    -0.001 C 
ATOM     20  C   UNL     1      19.306  18.938  -8.184  1.00  0.00     0.036 C 
ATOM     21  C   UNL     1      16.950  20.840  -8.117  1.00  0.00    -0.024 C 
ATOM     22  C   UNL     1      19.219  20.152  -9.119  1.00  0.00     0.118 C 
ATOM     23  C   UNL     1      17.734  20.480  -9.422  1.00  0.00     0.026 C 
ATOM     24  C   UNL     1      15.449  21.098  -8.480  1.00  0.00     0.010 C 
ATOM     25  C   UNL     1      17.507  22.129  -7.433  1.00  0.00     0.012 C 
ATOM     26  C   UNL     1      17.581  21.561 -10.513  1.00  0.00     0.038 C 
ATOM     27  C   UNL     1      15.277  22.164  -9.574  1.00  0.00     0.032 C 
ATOM     28  C   UNL     1      16.093  21.814 -10.834  1.00  0.00     0.114 C 
ATOM     29  H   UNL     1      14.315  14.585  -5.129  1.00  0.00     0.348 HD
ENDROOT
BRANCH   6  30
ATOM     30  O   UNL     1      16.021  14.312  -3.282  1.00  0.00    -0.384 OA
ATOM     31  H   UNL     1      15.315  13.622  -3.195  1.00  0.00     0.211 HD
ENDBRANCH   6  30
BRANCH  22  32
ATOM     32  O   UNL     1      19.950  19.890 -10.299  1.00  0.00    -0.393 OA
ATOM     33  H   UNL     1      19.682  20.555 -10.980  1.00  0.00     0.210 HD
ENDBRANCH  22  32
BRANCH  28  34
ATOM     34  O   UNL     1      15.970  22.830 -11.798  1.00  0.00    -0.393 OA
ATOM     35  H   UNL     1      16.862  23.244 -11.917  1.00  0.00     0.210 HD
ENDBRANCH  28  34
TORSDOF 3
ENDMDL
MODEL 8
REMARK VINA RESULT:    -7.620      3.572      9.409
REMARK INTER + INTRA:          -8.288
REMARK INTER:                  -8.288
REMARK INTRA:                   0.000
REMARK UNBOUND:                 0.000
REMARK SMILES C[C@@H]1CC[C@H]2[N@H+](C1)C[C@@H]1[C@H]3C[C@H]4[C@H](C[C@@H](O)[C@@H]5C[C@H](O)CC[C@@]45C)[C@@H]3CC[C@@H]1[C@@]2(C)O
REMARK SMILES IDX 5 1 6 2 8 3 7 4 4 5 29 6 3 7 28 8 30 9 2 10 27 11 9 12 1 13
REMARK SMILES IDX 26 14 10 15 25 16 11 17 13 18 12 19 14 20 23 21 15 22 17 23
REMARK SMILES IDX 22 24 24 25 18 26 21 27 19 28 31 30 16 32 20 34
REMARK H PARENT 6 29 31 31 16 33 20 35
REMARK Flexibility Score: inf
ROOT
ATOM      1  C   UNL     1      18.602  13.525  -2.852  1.00  0.00     0.216 C 
ATOM      2  N   UNL     1      19.316  14.796  -2.512  1.00  0.00    -0.330 N 
ATOM      3  C   UNL     1      18.831  15.877  -3.393  1.00  0.00     0.266 C 
ATOM      4  C   UNL     1      19.164  15.236  -1.103  1.00  0.00     0.265 C 
ATOM      5  C   UNL     1      18.853  12.416  -1.793  1.00  0.00     0.069 C 
ATOM      6  C   UNL     1      19.042  13.043  -4.285  1.00  0.00     0.117 C 
ATOM      7  C   UNL     1      18.613  12.909  -0.373  1.00  0.00     0.015 C 
ATOM      8  C   UNL     1      18.772  14.157  -5.374  1.00  0.00     0.036 C 
ATOM      9  C   UNL     1      18.328  11.723  -4.667  1.00  0.00     0.049 C 
ATOM     10  C   UNL     1      19.470  14.134  -0.072  1.00  0.00     0.041 C 
ATOM     11  C   UNL     1      17.366  14.123  -6.068  1.00  0.00     0.007 C 
ATOM     12  C   UNL     1      19.135  15.614  -4.886  1.00  0.00     0.054 C 
ATOM     13  C   UNL     1      20.971  13.798   0.026  1.00  0.00     0.013 C 
ATOM     14  C   UNL     1      17.292  15.073  -7.301  1.00  0.00     0.004 C 
ATOM     15  C   UNL     1      18.388  16.686  -5.734  1.00  0.00     0.002 C 
ATOM     16  C   UNL     1      18.299  16.240  -7.186  1.00  0.00    -0.004 C 
ATOM     17  C   UNL     1      18.991  18.095  -5.765  1.00  0.00     0.009 C 
ATOM     18  C   UNL     1      18.079  17.529  -7.988  1.00  0.00    -0.001 C 
ATOM     19  C   UNL     1      19.038  18.506  -7.258  1.00  0.00    -0.001 C 
ATOM     20  C   UNL     1      16.602  17.996  -7.990  1.00  0.00     0.036 C 
ATOM     21  C   UNL     1      18.820  20.021  -7.596  1.00  0.00    -0.024 C 
ATOM     22  C   UNL     1      16.444  19.462  -8.416  1.00  0.00     0.118 C 
ATOM     23  C   UNL     1      17.298  20.374  -7.498  1.00  0.00     0.026 C 
ATOM     24  C   UNL     1      19.617  20.930  -6.602  1.00  0.00     0.010 C 
ATOM     25  C   UNL     1      19.387  20.263  -9.031  1.00  0.00     0.012 C 
ATOM     26  C   UNL     1      17.028  21.874  -7.743  1.00  0.00     0.038 C 
ATOM     27  C   UNL     1      19.353  22.428  -6.824  1.00  0.00     0.032 C 
ATOM     28  C   UNL     1      17.846  22.748  -6.768  1.00  0.00     0.114 C 
ATOM     29  H   UNL     1      20.341  14.686  -2.674  1.00  0.00     0.348 HD
ENDROOT
BRANCH   6  30
ATOM     30  O   UNL     1      20.424  12.726  -4.270  1.00  0.00    -0.384 OA
ATOM     31  H   UNL     1      20.573  11.860  -4.728  1.00  0.00     0.211 HD
ENDBRANCH   6  30
BRANCH  22  32
ATOM     32  O   UNL     1      15.077  19.817  -8.383  1.00  0.00    -0.393 OA
ATOM     33  H   UNL     1      14.639  19.427  -9.180  1.00  0.00     0.210 HD
ENDBRANCH  22  32
BRANCH  28  34
ATOM     34  O   UNL     1      17.622  24.110  -7.033  1.00  0.00    -0.393 OA
ATOM     35  H   UNL     1      16.858  24.175  -7.661  1.00  0.00     0.210 HD
ENDBRANCH  28  34
TORSDOF 3
ENDMDL
MODEL 9
REMARK VINA RESULT:    -7.592      5.406      8.236
REMARK INTER + INTRA:          -8.258
REMARK INTER:                  -8.258
REMARK INTRA:                   0.000
REMARK UNBOUND:                 0.000
REMARK SMILES C[C@@H]1CC[C@H]2[N@H+](C1)C[C@@H]1[C@H]3C[C@H]4[C@H](C[C@@H](O)[C@@H]5C[C@H](O)CC[C@@]45C)[C@@H]3CC[C@@H]1[C@@]2(C)O
REMARK SMILES IDX 5 1 6 2 8 3 7 4 4 5 29 6 3 7 28 8 30 9 2 10 27 11 9 12 1 13
REMARK SMILES IDX 26 14 10 15 25 16 11 17 13 18 12 19 14 20 23 21 15 22 17 23
REMARK SMILES IDX 22 24 24 25 18 26 21 27 19 28 31 30 16 32 20 34
REMARK H PARENT 6 29 31 31 16 33 20 35
REMARK Flexibility Score: inf
ROOT
ATOM      1  C   UNL     1      14.020  24.512  -1.934  1.00  0.00     0.216 C 
ATOM      2  N   UNL     1      15.143  23.525  -1.881  1.00  0.00    -0.330 N 
ATOM      3  C   UNL     1      15.537  23.163  -3.257  1.00  0.00     0.266 C 
ATOM      4  C   UNL     1      16.350  23.994  -1.155  1.00  0.00     0.265 C 
ATOM      5  C   UNL     1      13.738  25.146  -0.544  1.00  0.00     0.069 C 
ATOM      6  C   UNL     1      12.730  23.811  -2.502  1.00  0.00     0.117 C 
ATOM      7  C   UNL     1      15.005  25.672   0.118  1.00  0.00     0.015 C 
ATOM      8  C   UNL     1      13.001  23.179  -3.927  1.00  0.00     0.036 C 
ATOM      9  C   UNL     1      11.543  24.803  -2.563  1.00  0.00     0.049 C 
ATOM     10  C   UNL     1      16.051  24.569   0.241  1.00  0.00     0.041 C 
ATOM     11  C   UNL     1      12.735  24.109  -5.161  1.00  0.00     0.007 C 
ATOM     12  C   UNL     1      14.403  22.463  -4.040  1.00  0.00     0.054 C 
ATOM     13  C   UNL     1      15.655  23.489   1.267  1.00  0.00     0.013 C 
ATOM     14  C   UNL     1      12.765  23.328  -6.509  1.00  0.00     0.004 C 
ATOM     15  C   UNL     1      14.842  22.336  -5.530  1.00  0.00     0.002 C 
ATOM     16  C   UNL     1      13.635  22.054  -6.412  1.00  0.00    -0.004 C 
ATOM     17  C   UNL     1      15.868  21.247  -5.863  1.00  0.00     0.009 C 
ATOM     18  C   UNL     1      14.209  21.416  -7.683  1.00  0.00    -0.001 C 
ATOM     19  C   UNL     1      15.301  20.487  -7.088  1.00  0.00    -0.001 C 
ATOM     20  C   UNL     1      14.761  22.458  -8.688  1.00  0.00     0.036 C 
ATOM     21  C   UNL     1      16.330  19.927  -8.130  1.00  0.00    -0.024 C 
ATOM     22  C   UNL     1      15.692  21.834  -9.738  1.00  0.00     0.118 C 
ATOM     23  C   UNL     1      16.856  21.089  -9.035  1.00  0.00     0.026 C 
ATOM     24  C   UNL     1      17.544  19.259  -7.403  1.00  0.00     0.010 C 
ATOM     25  C   UNL     1      15.598  18.823  -8.958  1.00  0.00     0.012 C 
ATOM     26  C   UNL     1      17.936  20.612 -10.031  1.00  0.00     0.038 C 
ATOM     27  C   UNL     1      18.634  18.787  -8.378  1.00  0.00     0.032 C 
ATOM     28  C   UNL     1      19.109  19.935  -9.291  1.00  0.00     0.114 C 
ATOM     29  H   UNL     1      14.833  22.653  -1.397  1.00  0.00     0.348 HD
ENDROOT
BRANCH   6  30
ATOM     30  O   UNL     1      12.316  22.792  -1.608  1.00  0.00    -0.384 OA
ATOM     31  H   UNL     1      11.379  22.538  -1.802  1.00  0.00     0.211 HD
ENDBRANCH   6  30
BRANCH  22  32
ATOM     32  O   UNL     1      16.162  22.842 -10.607  1.00  0.00    -0.393 OA
ATOM     33  H   UNL     1      16.928  23.292 -10.171  1.00  0.00     0.210 HD
ENDBRANCH  22  32
BRANCH  28  34
ATOM     34  O   UNL     1      20.060  19.469 -10.214  1.00  0.00    -0.393 OA
ATOM     35  H   UNL     1      20.954  19.541  -9.790  1.00  0.00     0.210 HD
ENDBRANCH  28  34
TORSDOF 3
ENDMDL
