MODEL 1
REMARK VINA RESULT:    -6.555      0.000      0.000
REMARK INTER + INTRA:         -10.142
REMARK INTER:                  -9.046
REMARK INTRA:                  -1.097
REMARK UNBOUND:                -1.097
REMARK SMILES CC[C@H](CC[C@H](C)[C@@H]1CC[C@H]2[C@H]3CC=C4C[C@H](O)CC[C@]4(C)[C@H]3CC[C@]21C)C(C)C
REMARK SMILES IDX 5 1 4 2 3 3 2 4 1 5 28 6 29 7 30 8 6 9 7 10 8 11 9 12 26 13
REMARK SMILES IDX 10 14 11 15 25 16 27 17 12 18 24 19 23 20 13 21 21 22 14 23
REMARK SMILES IDX 15 24 20 25 22 26 16 27 19 28 17 29 18 30
REMARK H PARENT 18 31
REMARK Flexibility Score: inf
ROOT
ATOM      1  C   UNL     1      11.524  -9.996  24.958  1.00  0.00     0.004 C 
ENDROOT
BRANCH   1   2
ATOM      2  C   UNL     1      11.669  -8.547  25.479  1.00  0.00     0.004 C 
BRANCH   2   3
ATOM      3  C   UNL     1      10.421  -8.012  26.249  1.00  0.00    -0.009 C 
BRANCH   3   4
ATOM      4  C   UNL     1      10.571  -8.143  27.793  1.00  0.00     0.000 C 
ATOM      5  C   UNL     1      10.196  -9.499  28.395  1.00  0.00     0.004 C 
ENDBRANCH   3   4
BRANCH   3   6
ATOM      6  C   UNL     1       9.948  -6.612  25.730  1.00  0.00    -0.014 C 
ATOM      7  C   UNL     1       8.540  -6.251  26.228  1.00  0.00     0.007 C 
ATOM      8  C   UNL     1      10.923  -5.445  25.986  1.00  0.00     0.007 C 
ENDBRANCH   3   6
ENDBRANCH   2   3
ENDBRANCH   1   2
BRANCH   1   9
ATOM      9  C   UNL     1      12.384 -11.081  25.683  1.00  0.00    -0.011 C 
ATOM     10  C   UNL     1      13.564 -10.390  26.397  1.00  0.00     0.008 C 
BRANCH   9  11
ATOM     11  C   UNL     1      12.867 -12.169  24.649  1.00  0.00    -0.002 C 
ATOM     12  C   UNL     1      11.754 -12.518  23.625  1.00  0.00     0.005 C 
ATOM     13  C   UNL     1      13.356 -13.564  25.173  1.00  0.00    -0.026 C 
ATOM     14  C   UNL     1      11.790 -14.023  23.361  1.00  0.00     0.005 C 
ATOM     15  C   UNL     1      13.094 -14.528  23.971  1.00  0.00    -0.001 C 
ATOM     16  C   UNL     1      14.847 -13.606  25.636  1.00  0.00     0.007 C 
ATOM     17  C   UNL     1      12.474 -14.038  26.367  1.00  0.00     0.012 C 
ATOM     18  C   UNL     1      14.242 -14.677  22.906  1.00  0.00     0.000 C 
ATOM     19  C   UNL     1      15.889 -13.691  24.519  1.00  0.00     0.005 C 
ATOM     20  C   UNL     1      15.604 -14.902  23.595  1.00  0.00     0.003 C 
ATOM     21  C   UNL     1      14.352 -13.544  21.855  1.00  0.00     0.031 C 
ATOM     22  C   UNL     1      16.736 -15.261  22.545  1.00  0.00    -0.008 C 
ATOM     23  C   UNL     1      15.525 -13.726  20.938  1.00  0.00    -0.027 C 
ATOM     24  C   UNL     1      16.614 -14.459  21.244  1.00  0.00    -0.065 C 
ATOM     25  C   UNL     1      16.649 -16.792  22.182  1.00  0.00     0.014 C 
ATOM     26  C   UNL     1      18.137 -14.990  23.159  1.00  0.00     0.016 C 
ATOM     27  C   UNL     1      17.626 -14.744  20.144  1.00  0.00     0.063 C 
ATOM     28  C   UNL     1      16.875 -17.125  20.688  1.00  0.00     0.033 C 
ATOM     29  C   UNL     1      17.970 -16.254  20.052  1.00  0.00     0.118 C 
BRANCH  29  30
ATOM     30  O   UNL     1      18.129 -16.633  18.709  1.00  0.00    -0.393 OA
ATOM     31  H   UNL     1      17.333 -16.295  18.221  1.00  0.00     0.210 HD
ENDBRANCH  29  30
ENDBRANCH   9  11
ENDBRANCH   1   9
TORSDOF 7
ENDMDL
MODEL 2
REMARK VINA RESULT:    -6.543      4.067      7.729
REMARK INTER + INTRA:         -10.126
REMARK INTER:                  -8.291
REMARK INTRA:                  -1.835
REMARK UNBOUND:                -1.097
REMARK SMILES CC[C@H](CC[C@H](C)[C@@H]1CC[C@H]2[C@H]3CC=C4C[C@H](O)CC[C@]4(C)[C@H]3CC[C@]21C)C(C)C
REMARK SMILES IDX 5 1 4 2 3 3 2 4 1 5 28 6 29 7 30 8 6 9 7 10 8 11 9 12 26 13
REMARK SMILES IDX 10 14 11 15 25 16 27 17 12 18 24 19 23 20 13 21 21 22 14 23
REMARK SMILES IDX 15 24 20 25 22 26 16 27 19 28 17 29 18 30
REMARK H PARENT 18 31
REMARK Flexibility Score: inf
ROOT
ATOM      1  C   UNL     1      19.347 -10.820  19.906  1.00  0.00     0.004 C 
ENDROOT
BRANCH   1   2
ATOM      2  C   UNL     1      19.162  -9.622  18.945  1.00  0.00     0.004 C 
BRANCH   2   3
ATOM      3  C   UNL     1      18.581  -8.340  19.620  1.00  0.00    -0.009 C 
BRANCH   3   4
ATOM      4  C   UNL     1      17.373  -7.749  18.834  1.00  0.00     0.000 C 
ATOM      5  C   UNL     1      17.374  -7.980  17.321  1.00  0.00     0.004 C 
ENDBRANCH   3   4
BRANCH   3   6
ATOM      6  C   UNL     1      18.368  -8.515  21.161  1.00  0.00    -0.014 C 
ATOM      7  C   UNL     1      19.423  -7.759  21.985  1.00  0.00     0.007 C 
ATOM      8  C   UNL     1      16.952  -8.188  21.677  1.00  0.00     0.007 C 
ENDBRANCH   3   6
ENDBRANCH   2   3
ENDBRANCH   1   2
BRANCH   1   9
ATOM      9  C   UNL     1      18.337 -12.000  19.743  1.00  0.00    -0.011 C 
ATOM     10  C   UNL     1      17.233 -11.582  18.749  1.00  0.00     0.008 C 
BRANCH   9  11
ATOM     11  C   UNL     1      17.749 -12.409  21.149  1.00  0.00    -0.002 C 
ATOM     12  C   UNL     1      18.733 -12.066  22.299  1.00  0.00     0.005 C 
ATOM     13  C   UNL     1      17.358 -13.905  21.413  1.00  0.00    -0.026 C 
ATOM     14  C   UNL     1      18.694 -13.197  23.327  1.00  0.00     0.005 C 
ATOM     15  C   UNL     1      17.487 -14.057  22.963  1.00  0.00    -0.001 C 
ATOM     16  C   UNL     1      15.939 -14.312  20.906  1.00  0.00     0.007 C 
ATOM     17  C   UNL     1      18.392 -14.864  20.751  1.00  0.00     0.012 C 
ATOM     18  C   UNL     1      16.218 -13.714  23.826  1.00  0.00     0.000 C 
ATOM     19  C   UNL     1      14.766 -13.878  21.789  1.00  0.00     0.005 C 
ATOM     20  C   UNL     1      14.958 -14.383  23.240  1.00  0.00     0.003 C 
ATOM     21  C   UNL     1      15.954 -12.209  24.087  1.00  0.00     0.031 C 
ATOM     22  C   UNL     1      13.711 -14.224  24.206  1.00  0.00    -0.008 C 
ATOM     23  C   UNL     1      14.680 -11.973  24.842  1.00  0.00    -0.027 C 
ATOM     24  C   UNL     1      13.652 -12.846  24.876  1.00  0.00    -0.065 C 
ATOM     25  C   UNL     1      13.782 -15.314  25.341  1.00  0.00     0.014 C 
ATOM     26  C   UNL     1      12.392 -14.440  23.413  1.00  0.00     0.016 C 
ATOM     27  C   UNL     1      12.517 -12.587  25.855  1.00  0.00     0.063 C 
ATOM     28  C   UNL     1      13.378 -14.820  26.751  1.00  0.00     0.033 C 
ATOM     29  C   UNL     1      12.194 -13.841  26.711  1.00  0.00     0.118 C 
BRANCH  29  30
ATOM     30  O   UNL     1      11.875 -13.459  28.026  1.00  0.00    -0.393 OA
ATOM     31  H   UNL     1      12.654 -13.706  28.591  1.00  0.00     0.210 HD
ENDBRANCH  29  30
ENDBRANCH   9  11
ENDBRANCH   1   9
TORSDOF 7
ENDMDL
MODEL 3
REMARK VINA RESULT:    -6.259      9.531     14.018
REMARK INTER + INTRA:          -9.734
REMARK INTER:                  -7.742
REMARK INTRA:                  -1.992
REMARK UNBOUND:                -1.097
REMARK SMILES CC[C@H](CC[C@H](C)[C@@H]1CC[C@H]2[C@H]3CC=C4C[C@H](O)CC[C@]4(C)[C@H]3CC[C@]21C)C(C)C
REMARK SMILES IDX 5 1 4 2 3 3 2 4 1 5 28 6 29 7 30 8 6 9 7 10 8 11 9 12 26 13
REMARK SMILES IDX 10 14 11 15 25 16 27 17 12 18 24 19 23 20 13 21 21 22 14 23
REMARK SMILES IDX 15 24 20 25 22 26 16 27 19 28 17 29 18 30
REMARK H PARENT 18 31
REMARK Flexibility Score: inf
ROOT
ATOM      1  C   UNL     1      20.886  -2.893  26.931  1.00  0.00     0.004 C 
ENDROOT
BRANCH   1   2
ATOM      2  C   UNL     1      21.124  -4.138  27.816  1.00  0.00     0.004 C 
BRANCH   2   3
ATOM      3  C   UNL     1      20.217  -5.359  27.466  1.00  0.00    -0.009 C 
BRANCH   3   4
ATOM      4  C   UNL     1      19.595  -6.022  28.730  1.00  0.00     0.000 C 
ATOM      5  C   UNL     1      20.339  -5.792  30.048  1.00  0.00     0.004 C 
ENDBRANCH   3   4
BRANCH   3   6
ATOM      6  C   UNL     1      19.217  -5.052  26.300  1.00  0.00    -0.014 C 
ATOM      7  C   UNL     1      19.308  -6.084  25.166  1.00  0.00     0.007 C 
ATOM      8  C   UNL     1      17.748  -4.848  26.722  1.00  0.00     0.007 C 
ENDBRANCH   3   6
ENDBRANCH   2   3
ENDBRANCH   1   2
BRANCH   1   9
ATOM      9  C   UNL     1      20.185  -1.678  27.620  1.00  0.00    -0.011 C 
ATOM     10  C   UNL     1      19.932  -2.022  29.103  1.00  0.00     0.008 C 
BRANCH   9  11
ATOM     11  C   UNL     1      18.854  -1.315  26.856  1.00  0.00    -0.002 C 
ATOM     12  C   UNL     1      19.037  -1.406  25.317  1.00  0.00     0.005 C 
ATOM     13  C   UNL     1      18.198   0.091  27.081  1.00  0.00    -0.026 C 
ATOM     14  C   UNL     1      18.276  -0.251  24.668  1.00  0.00     0.005 C 
ATOM     15  C   UNL     1      17.397   0.345  25.763  1.00  0.00    -0.001 C 
ATOM     16  C   UNL     1      17.286   0.196  28.344  1.00  0.00     0.007 C 
ATOM     17  C   UNL     1      19.294   1.193  27.194  1.00  0.00     0.012 C 
ATOM     18  C   UNL     1      15.918  -0.186  25.708  1.00  0.00     0.000 C 
ATOM     19  C   UNL     1      15.885  -0.406  28.205  1.00  0.00     0.005 C 
ATOM     20  C   UNL     1      15.147   0.202  26.986  1.00  0.00     0.003 C 
ATOM     21  C   UNL     1      15.744  -1.699  25.414  1.00  0.00     0.031 C 
ATOM     22  C   UNL     1      13.604  -0.140  26.863  1.00  0.00    -0.008 C 
ATOM     23  C   UNL     1      14.309  -2.131  25.467  1.00  0.00    -0.027 C 
ATOM     24  C   UNL     1      13.347  -1.468  26.139  1.00  0.00    -0.065 C 
ATOM     25  C   UNL     1      12.875   1.002  26.057  1.00  0.00     0.014 C 
ATOM     26  C   UNL     1      12.961  -0.219  28.275  1.00  0.00     0.016 C 
ATOM     27  C   UNL     1      11.899  -1.885  25.928  1.00  0.00     0.063 C 
ATOM     28  C   UNL     1      11.804   0.514  25.053  1.00  0.00     0.033 C 
ATOM     29  C   UNL     1      10.990  -0.672  25.593  1.00  0.00     0.118 C 
BRANCH  29  30
ATOM     30  O   UNL     1      10.029  -1.038  24.637  1.00  0.00    -0.393 OA
ATOM     31  H   UNL     1       9.210  -1.291  25.138  1.00  0.00     0.210 HD
ENDBRANCH  29  30
ENDBRANCH   9  11
ENDBRANCH   1   9
TORSDOF 7
ENDMDL
MODEL 4
REMARK VINA RESULT:    -6.060     12.310     15.881
REMARK INTER + INTRA:          -9.460
REMARK INTER:                  -7.564
REMARK INTRA:                  -1.896
REMARK UNBOUND:                -1.097
REMARK SMILES CC[C@H](CC[C@H](C)[C@@H]1CC[C@H]2[C@H]3CC=C4C[C@H](O)CC[C@]4(C)[C@H]3CC[C@]21C)C(C)C
REMARK SMILES IDX 5 1 4 2 3 3 2 4 1 5 28 6 29 7 30 8 6 9 7 10 8 11 9 12 26 13
REMARK SMILES IDX 10 14 11 15 25 16 27 17 12 18 24 19 23 20 13 21 21 22 14 23
REMARK SMILES IDX 15 24 20 25 22 26 16 27 19 28 17 29 18 30
REMARK H PARENT 18 31
REMARK Flexibility Score: inf
ROOT
ATOM      1  C   UNL     1      15.153  -0.196  24.202  1.00  0.00     0.004 C 
ENDROOT
BRANCH   1   2
ATOM      2  C   UNL     1      14.099  -1.012  24.987  1.00  0.00     0.004 C 
BRANCH   2   3
ATOM      3  C   UNL     1      13.337  -0.196  26.078  1.00  0.00    -0.009 C 
BRANCH   3   4
ATOM      4  C   UNL     1      11.956   0.322  25.578  1.00  0.00     0.000 C 
ATOM      5  C   UNL     1      11.962   1.674  24.861  1.00  0.00     0.004 C 
ENDBRANCH   3   4
BRANCH   3   6
ATOM      6  C   UNL     1      13.328  -0.914  27.470  1.00  0.00    -0.014 C 
ATOM      7  C   UNL     1      14.738  -1.039  28.069  1.00  0.00     0.007 C 
ATOM      8  C   UNL     1      12.353  -0.331  28.512  1.00  0.00     0.007 C 
ENDBRANCH   3   6
ENDBRANCH   2   3
ENDBRANCH   1   2
BRANCH   1   9
ATOM      9  C   UNL     1      16.649  -0.474  24.557  1.00  0.00    -0.011 C 
ATOM     10  C   UNL     1      16.822  -1.979  24.850  1.00  0.00     0.008 C 
BRANCH   9  11
ATOM     11  C   UNL     1      17.094   0.425  25.774  1.00  0.00    -0.002 C 
ATOM     12  C   UNL     1      16.356   1.791  25.773  1.00  0.00     0.005 C 
ATOM     13  C   UNL     1      18.606   0.808  25.935  1.00  0.00    -0.026 C 
ATOM     14  C   UNL     1      17.344   2.878  26.193  1.00  0.00     0.005 C 
ATOM     15  C   UNL     1      18.569   2.149  26.736  1.00  0.00    -0.001 C 
ATOM     16  C   UNL     1      19.484  -0.270  26.647  1.00  0.00     0.007 C 
ATOM     17  C   UNL     1      19.246   1.098  24.544  1.00  0.00     0.012 C 
ATOM     18  C   UNL     1      18.567   2.048  28.306  1.00  0.00     0.000 C 
ATOM     19  C   UNL     1      19.363  -0.325  28.172  1.00  0.00     0.005 C 
ATOM     20  C   UNL     1      19.650   1.064  28.794  1.00  0.00     0.003 C 
ATOM     21  C   UNL     1      17.205   1.721  28.969  1.00  0.00     0.031 C 
ATOM     22  C   UNL     1      19.805   1.104  30.371  1.00  0.00    -0.008 C 
ATOM     23  C   UNL     1      17.316   1.559  30.455  1.00  0.00    -0.027 C 
ATOM     24  C   UNL     1      18.461   1.248  31.096  1.00  0.00    -0.065 C 
ATOM     25  C   UNL     1      20.710   2.328  30.779  1.00  0.00     0.014 C 
ATOM     26  C   UNL     1      20.496  -0.194  30.872  1.00  0.00     0.016 C 
ATOM     27  C   UNL     1      18.486   1.334  32.615  1.00  0.00     0.063 C 
ATOM     28  C   UNL     1      20.244   3.097  32.038  1.00  0.00     0.033 C 
ATOM     29  C   UNL     1      19.695   2.162  33.127  1.00  0.00     0.118 C 
BRANCH  29  30
ATOM     30  O   UNL     1      19.317   2.932  34.240  1.00  0.00    -0.393 OA
ATOM     31  H   UNL     1      19.058   3.826  33.893  1.00  0.00     0.210 HD
ENDBRANCH  29  30
ENDBRANCH   9  11
ENDBRANCH   1   9
TORSDOF 7
ENDMDL
MODEL 5
REMARK VINA RESULT:    -6.026      3.268      8.984
REMARK INTER + INTRA:          -9.412
REMARK INTER:                  -7.402
REMARK INTRA:                  -2.010
REMARK UNBOUND:                -1.097
REMARK SMILES CC[C@H](CC[C@H](C)[C@@H]1CC[C@H]2[C@H]3CC=C4C[C@H](O)CC[C@]4(C)[C@H]3CC[C@]21C)C(C)C
REMARK SMILES IDX 5 1 4 2 3 3 2 4 1 5 28 6 29 7 30 8 6 9 7 10 8 11 9 12 26 13
REMARK SMILES IDX 10 14 11 15 25 16 27 17 12 18 24 19 23 20 13 21 21 22 14 23
REMARK SMILES IDX 15 24 20 25 22 26 16 27 19 28 17 29 18 30
REMARK H PARENT 18 31
REMARK Flexibility Score: inf
ROOT
ATOM      1  C   UNL     1      15.363 -15.747  25.394  1.00  0.00     0.004 C 
ENDROOT
BRANCH   1   2
ATOM      2  C   UNL     1      16.043 -16.668  24.355  1.00  0.00     0.004 C 
BRANCH   2   3
ATOM      3  C   UNL     1      16.597 -15.923  23.100  1.00  0.00    -0.009 C 
BRANCH   3   4
ATOM      4  C   UNL     1      18.153 -15.926  23.043  1.00  0.00     0.000 C 
ATOM      5  C   UNL     1      18.846 -14.621  23.441  1.00  0.00     0.004 C 
ENDBRANCH   3   4
BRANCH   3   6
ATOM      6  C   UNL     1      15.870 -16.347  21.779  1.00  0.00    -0.014 C 
ATOM      7  C   UNL     1      14.340 -16.348  21.931  1.00  0.00     0.007 C 
ATOM      8  C   UNL     1      16.281 -15.566  20.515  1.00  0.00     0.007 C 
ENDBRANCH   3   6
ENDBRANCH   2   3
ENDBRANCH   1   2
BRANCH   1   9
ATOM      9  C   UNL     1      15.725 -14.229  25.316  1.00  0.00    -0.011 C 
ATOM     10  C   UNL     1      16.693 -13.885  26.467  1.00  0.00     0.008 C 
BRANCH   9  11
ATOM     11  C   UNL     1      14.413 -13.355  25.359  1.00  0.00    -0.002 C 
ATOM     12  C   UNL     1      13.139 -14.241  25.391  1.00  0.00     0.005 C 
ATOM     13  C   UNL     1      14.135 -12.327  24.207  1.00  0.00    -0.026 C 
ATOM     14  C   UNL     1      12.072 -13.591  24.509  1.00  0.00     0.005 C 
ATOM     15  C   UNL     1      12.579 -12.186  24.199  1.00  0.00    -0.001 C 
ATOM     16  C   UNL     1      14.842 -10.945  24.376  1.00  0.00     0.007 C 
ATOM     17  C   UNL     1      14.570 -12.918  22.832  1.00  0.00     0.012 C 
ATOM     18  C   UNL     1      11.951 -11.095  25.141  1.00  0.00     0.000 C 
ATOM     19  C   UNL     1      14.184  -9.976  25.362  1.00  0.00     0.005 C 
ATOM     20  C   UNL     1      12.696  -9.752  24.997  1.00  0.00     0.003 C 
ATOM     21  C   UNL     1      11.817 -11.477  26.637  1.00  0.00     0.031 C 
ATOM     22  C   UNL     1      11.954  -8.588  25.776  1.00  0.00    -0.008 C 
ATOM     23  C   UNL     1      11.291 -10.347  27.471  1.00  0.00    -0.027 C 
ATOM     24  C   UNL     1      11.376  -9.048  27.120  1.00  0.00    -0.065 C 
ATOM     25  C   UNL     1      10.765  -8.041  24.898  1.00  0.00     0.014 C 
ATOM     26  C   UNL     1      12.936  -7.413  26.042  1.00  0.00     0.016 C 
ATOM     27  C   UNL     1      10.608  -8.025  27.944  1.00  0.00     0.063 C 
ATOM     28  C   UNL     1       9.468  -7.720  25.678  1.00  0.00     0.033 C 
ATOM     29  C   UNL     1       9.750  -7.091  27.051  1.00  0.00     0.118 C 
BRANCH  29  30
ATOM     30  O   UNL     1       8.526  -6.809  27.682  1.00  0.00    -0.393 OA
ATOM     31  H   UNL     1       7.822  -7.278  27.161  1.00  0.00     0.210 HD
ENDBRANCH  29  30
ENDBRANCH   9  11
ENDBRANCH   1   9
TORSDOF 7
ENDMDL
MODEL 6
REMARK VINA RESULT:    -6.011      3.882      8.202
REMARK INTER + INTRA:          -9.392
REMARK INTER:                  -7.384
REMARK INTRA:                  -2.008
REMARK UNBOUND:                -1.097
REMARK SMILES CC[C@H](CC[C@H](C)[C@@H]1CC[C@H]2[C@H]3CC=C4C[C@H](O)CC[C@]4(C)[C@H]3CC[C@]21C)C(C)C
REMARK SMILES IDX 5 1 4 2 3 3 2 4 1 5 28 6 29 7 30 8 6 9 7 10 8 11 9 12 26 13
REMARK SMILES IDX 10 14 11 15 25 16 27 17 12 18 24 19 23 20 13 21 21 22 14 23
REMARK SMILES IDX 15 24 20 25 22 26 16 27 19 28 17 29 18 30
REMARK H PARENT 18 31
REMARK Flexibility Score: inf
ROOT
ATOM      1  C   UNL     1      19.638 -12.276  21.607  1.00  0.00     0.004 C 
ENDROOT
BRANCH   1   2
ATOM      2  C   UNL     1      19.517 -11.583  20.230  1.00  0.00     0.004 C 
BRANCH   2   3
ATOM      3  C   UNL     1      19.242 -10.048  20.304  1.00  0.00    -0.009 C 
BRANCH   3   4
ATOM      4  C   UNL     1      18.292  -9.557  19.172  1.00  0.00     0.000 C 
ATOM      5  C   UNL     1      17.334 -10.601  18.596  1.00  0.00     0.004 C 
ENDBRANCH   3   4
BRANCH   3   6
ATOM      6  C   UNL     1      18.878  -9.571  21.750  1.00  0.00    -0.014 C 
ATOM      7  C   UNL     1      19.764  -8.408  22.221  1.00  0.00     0.007 C 
ATOM      8  C   UNL     1      17.390  -9.239  21.985  1.00  0.00     0.007 C 
ENDBRANCH   3   6
ENDBRANCH   2   3
ENDBRANCH   1   2
BRANCH   1   9
ATOM      9  C   UNL     1      18.528 -13.319  21.956  1.00  0.00    -0.011 C 
ATOM     10  C   UNL     1      17.722 -13.639  20.680  1.00  0.00     0.008 C 
BRANCH   9  11
ATOM     11  C   UNL     1      17.613 -12.769  23.117  1.00  0.00    -0.002 C 
ATOM     12  C   UNL     1      18.458 -12.221  24.298  1.00  0.00     0.005 C 
ATOM     13  C   UNL     1      16.577 -13.728  23.800  1.00  0.00    -0.026 C 
ATOM     14  C   UNL     1      17.776 -12.614  25.608  1.00  0.00     0.005 C 
ATOM     15  C   UNL     1      16.387 -13.119  25.226  1.00  0.00    -0.001 C 
ATOM     16  C   UNL     1      15.218 -13.872  23.045  1.00  0.00     0.007 C 
ATOM     17  C   UNL     1      17.182 -15.155  23.966  1.00  0.00     0.012 C 
ATOM     18  C   UNL     1      15.276 -12.019  25.396  1.00  0.00     0.000 C 
ATOM     19  C   UNL     1      14.229 -12.718  23.228  1.00  0.00     0.005 C 
ATOM     20  C   UNL     1      13.957 -12.464  24.731  1.00  0.00     0.003 C 
ATOM     21  C   UNL     1      15.654 -10.588  24.934  1.00  0.00     0.031 C 
ATOM     22  C   UNL     1      12.770 -11.469  25.068  1.00  0.00    -0.008 C 
ATOM     23  C   UNL     1      14.508  -9.627  25.052  1.00  0.00    -0.027 C 
ATOM     24  C   UNL     1      13.212 -10.000  25.076  1.00  0.00    -0.065 C 
ATOM     25  C   UNL     1      12.186 -11.809  26.492  1.00  0.00     0.014 C 
ATOM     26  C   UNL     1      11.627 -11.631  24.027  1.00  0.00     0.016 C 
ATOM     27  C   UNL     1      12.165  -8.952  25.422  1.00  0.00     0.063 C 
ATOM     28  C   UNL     1      11.825 -10.581  27.362  1.00  0.00     0.033 C 
ATOM     29  C   UNL     1      11.204  -9.442  26.538  1.00  0.00     0.118 C 
BRANCH  29  30
ATOM     30  O   UNL     1      10.884  -8.380  27.401  1.00  0.00    -0.393 OA
ATOM     31  H   UNL     1       9.898  -8.396  27.519  1.00  0.00     0.210 HD
ENDBRANCH  29  30
ENDBRANCH   9  11
ENDBRANCH   1   9
TORSDOF 7
ENDMDL
MODEL 7
REMARK VINA RESULT:    -5.911      3.390      8.077
REMARK INTER + INTRA:          -9.254
REMARK INTER:                  -7.182
REMARK INTRA:                  -2.073
REMARK UNBOUND:                -1.097
REMARK SMILES CC[C@H](CC[C@H](C)[C@@H]1CC[C@H]2[C@H]3CC=C4C[C@H](O)CC[C@]4(C)[C@H]3CC[C@]21C)C(C)C
REMARK SMILES IDX 5 1 4 2 3 3 2 4 1 5 28 6 29 7 30 8 6 9 7 10 8 11 9 12 26 13
REMARK SMILES IDX 10 14 11 15 25 16 27 17 12 18 24 19 23 20 13 21 21 22 14 23
REMARK SMILES IDX 15 24 20 25 22 26 16 27 19 28 17 29 18 30
REMARK H PARENT 18 31
REMARK Flexibility Score: inf
ROOT
ATOM      1  C   UNL     1      19.702 -13.909  22.174  1.00  0.00     0.004 C 
ENDROOT
BRANCH   1   2
ATOM      2  C   UNL     1      19.301 -12.812  21.160  1.00  0.00     0.004 C 
BRANCH   2   3
ATOM      3  C   UNL     1      19.105 -11.396  21.787  1.00  0.00    -0.009 C 
BRANCH   3   4
ATOM      4  C   UNL     1      20.065 -10.334  21.175  1.00  0.00     0.000 C 
ATOM      5  C   UNL     1      20.575 -10.622  19.761  1.00  0.00     0.004 C 
ENDBRANCH   3   4
BRANCH   3   6
ATOM      6  C   UNL     1      17.597 -10.980  21.872  1.00  0.00    -0.014 C 
ATOM      7  C   UNL     1      17.380  -9.501  21.513  1.00  0.00     0.007 C 
ATOM      8  C   UNL     1      16.617 -11.872  21.084  1.00  0.00     0.007 C 
ENDBRANCH   3   6
ENDBRANCH   2   3
ENDBRANCH   1   2
BRANCH   1   9
ATOM      9  C   UNL     1      18.552 -14.835  22.683  1.00  0.00    -0.011 C 
ATOM     10  C   UNL     1      17.767 -15.373  21.468  1.00  0.00     0.008 C 
BRANCH   9  11
ATOM     11  C   UNL     1      17.626 -14.048  23.689  1.00  0.00    -0.002 C 
ATOM     12  C   UNL     1      18.444 -13.442  24.861  1.00  0.00     0.005 C 
ATOM     13  C   UNL     1      16.445 -14.799  24.395  1.00  0.00    -0.026 C 
ATOM     14  C   UNL     1      17.633 -13.590  26.148  1.00  0.00     0.005 C 
ATOM     15  C   UNL     1      16.226 -13.994  25.716  1.00  0.00    -0.001 C 
ATOM     16  C   UNL     1      15.133 -14.899  23.554  1.00  0.00     0.007 C 
ATOM     17  C   UNL     1      16.872 -16.247  24.782  1.00  0.00     0.012 C 
ATOM     18  C   UNL     1      15.237 -12.773  25.659  1.00  0.00     0.000 C 
ATOM     19  C   UNL     1      14.270 -13.636  23.513  1.00  0.00     0.005 C 
ATOM     20  C   UNL     1      13.925 -13.163  24.947  1.00  0.00     0.003 C 
ATOM     21  C   UNL     1      15.804 -11.460  25.060  1.00  0.00     0.031 C 
ATOM     22  C   UNL     1      12.837 -12.016  25.061  1.00  0.00    -0.008 C 
ATOM     23  C   UNL     1      14.768 -10.380  24.966  1.00  0.00    -0.027 C 
ATOM     24  C   UNL     1      13.440 -10.611  24.927  1.00  0.00    -0.065 C 
ATOM     25  C   UNL     1      12.122 -12.106  26.462  1.00  0.00     0.014 C 
ATOM     26  C   UNL     1      11.758 -12.193  23.957  1.00  0.00     0.016 C 
ATOM     27  C   UNL     1      12.496  -9.425  25.056  1.00  0.00     0.063 C 
ATOM     28  C   UNL     1      11.841 -10.746  27.144  1.00  0.00     0.033 C 
ATOM     29  C   UNL     1      11.411  -9.665  26.140  1.00  0.00     0.118 C 
BRANCH  29  30
ATOM     30  O   UNL     1      11.153  -8.473  26.838  1.00  0.00    -0.393 OA
ATOM     31  H   UNL     1      10.680  -8.728  27.673  1.00  0.00     0.210 HD
ENDBRANCH  29  30
ENDBRANCH   9  11
ENDBRANCH   1   9
TORSDOF 7
ENDMDL
MODEL 8
REMARK VINA RESULT:    -5.794      8.173     13.622
REMARK INTER + INTRA:          -9.092
REMARK INTER:                  -7.960
REMARK INTRA:                  -1.132
REMARK UNBOUND:                -1.097
REMARK SMILES CC[C@H](CC[C@H](C)[C@@H]1CC[C@H]2[C@H]3CC=C4C[C@H](O)CC[C@]4(C)[C@H]3CC[C@]21C)C(C)C
REMARK SMILES IDX 5 1 4 2 3 3 2 4 1 5 28 6 29 7 30 8 6 9 7 10 8 11 9 12 26 13
REMARK SMILES IDX 10 14 11 15 25 16 27 17 12 18 24 19 23 20 13 21 21 22 14 23
REMARK SMILES IDX 15 24 20 25 22 26 16 27 19 28 17 29 18 30
REMARK H PARENT 18 31
REMARK Flexibility Score: inf
ROOT
ATOM      1  C   UNL     1      12.374  -3.950  26.031  1.00  0.00     0.004 C 
ENDROOT
BRANCH   1   2
ATOM      2  C   UNL     1      12.129  -5.405  26.494  1.00  0.00     0.004 C 
BRANCH   2   3
ATOM      3  C   UNL     1      10.653  -5.890  26.339  1.00  0.00    -0.009 C 
BRANCH   3   4
ATOM      4  C   UNL     1       9.882  -5.111  25.233  1.00  0.00     0.000 C 
ATOM      5  C   UNL     1       8.774  -5.882  24.512  1.00  0.00     0.004 C 
ENDBRANCH   3   4
BRANCH   3   6
ATOM      6  C   UNL     1      10.536  -7.450  26.278  1.00  0.00    -0.014 C 
ATOM      7  C   UNL     1      11.762  -8.101  25.620  1.00  0.00     0.007 C 
ATOM      8  C   UNL     1      10.214  -8.145  27.616  1.00  0.00     0.007 C 
ENDBRANCH   3   6
ENDBRANCH   2   3
ENDBRANCH   1   2
BRANCH   1   9
ATOM      9  C   UNL     1      13.843  -3.585  25.645  1.00  0.00    -0.011 C 
ATOM     10  C   UNL     1      14.718  -4.852  25.747  1.00  0.00     0.008 C 
BRANCH   9  11
ATOM     11  C   UNL     1      14.373  -2.419  26.565  1.00  0.00    -0.002 C 
ATOM     12  C   UNL     1      13.256  -1.875  27.496  1.00  0.00     0.005 C 
ATOM     13  C   UNL     1      14.980  -1.133  25.904  1.00  0.00    -0.026 C 
ATOM     14  C   UNL     1      13.395  -0.356  27.587  1.00  0.00     0.005 C 
ATOM     15  C   UNL     1      14.752  -0.019  26.976  1.00  0.00    -0.001 C 
ATOM     16  C   UNL     1      16.484  -1.250  25.500  1.00  0.00     0.007 C 
ATOM     17  C   UNL     1      14.174  -0.743  24.629  1.00  0.00     0.012 C 
ATOM     18  C   UNL     1      15.873   0.174  28.062  1.00  0.00     0.000 C 
ATOM     19  C   UNL     1      17.493  -1.107  26.642  1.00  0.00     0.005 C 
ATOM     20  C   UNL     1      17.269   0.220  27.407  1.00  0.00     0.003 C 
ATOM     21  C   UNL     1      15.865  -0.833  29.240  1.00  0.00     0.031 C 
ATOM     22  C   UNL     1      18.390   0.621  28.454  1.00  0.00    -0.008 C 
ATOM     23  C   UNL     1      17.018  -0.626  30.177  1.00  0.00    -0.027 C 
ATOM     24  C   UNL     1      18.168  -0.012  29.833  1.00  0.00    -0.065 C 
ATOM     25  C   UNL     1      18.406   2.187  28.635  1.00  0.00     0.014 C 
ATOM     26  C   UNL     1      19.787   0.183  27.932  1.00  0.00     0.016 C 
ATOM     27  C   UNL     1      19.162   0.329  30.933  1.00  0.00     0.063 C 
ATOM     28  C   UNL     1      18.607   2.676  30.089  1.00  0.00     0.033 C 
ATOM     29  C   UNL     1      19.614   1.812  30.864  1.00  0.00     0.118 C 
BRANCH  29  30
ATOM     30  O   UNL     1      19.758   2.334  32.160  1.00  0.00    -0.393 OA
ATOM     31  H   UNL     1      20.717   2.570  32.268  1.00  0.00     0.210 HD
ENDBRANCH  29  30
ENDBRANCH   9  11
ENDBRANCH   1   9
TORSDOF 7
ENDMDL
MODEL 9
REMARK VINA RESULT:    -4.868      3.891      8.780
REMARK INTER + INTRA:          -7.815
REMARK INTER:                  -5.664
REMARK INTRA:                  -2.150
REMARK UNBOUND:                -1.097
REMARK SMILES CC[C@H](CC[C@H](C)[C@@H]1CC[C@H]2[C@H]3CC=C4C[C@H](O)CC[C@]4(C)[C@H]3CC[C@]21C)C(C)C
REMARK SMILES IDX 5 1 4 2 3 3 2 4 1 5 28 6 29 7 30 8 6 9 7 10 8 11 9 12 26 13
REMARK SMILES IDX 10 14 11 15 25 16 27 17 12 18 24 19 23 20 13 21 21 22 14 23
REMARK SMILES IDX 15 24 20 25 22 26 16 27 19 28 17 29 18 30
REMARK H PARENT 18 31
REMARK Flexibility Score: inf
ROOT
ATOM      1  C   UNL     1      18.510 -14.262  17.107  1.00  0.00     0.004 C 
ENDROOT
BRANCH   1   2
ATOM      2  C   UNL     1      18.046 -15.737  17.137  1.00  0.00     0.004 C 
BRANCH   2   3
ATOM      3  C   UNL     1      16.562 -15.936  17.579  1.00  0.00    -0.009 C 
BRANCH   3   4
ATOM      4  C   UNL     1      16.411 -16.064  19.123  1.00  0.00     0.000 C 
ATOM      5  C   UNL     1      17.348 -17.059  19.812  1.00  0.00     0.004 C 
ENDBRANCH   3   4
BRANCH   3   6
ATOM      6  C   UNL     1      15.587 -14.926  16.884  1.00  0.00    -0.014 C 
ATOM      7  C   UNL     1      14.655 -15.615  15.875  1.00  0.00     0.007 C 
ATOM      8  C   UNL     1      14.773 -14.026  17.836  1.00  0.00     0.007 C 
ENDBRANCH   3   6
ENDBRANCH   2   3
ENDBRANCH   1   2
BRANCH   1   9
ATOM      9  C   UNL     1      19.269 -13.750  18.374  1.00  0.00    -0.011 C 
ATOM     10  C   UNL     1      20.174 -14.880  18.906  1.00  0.00     0.008 C 
BRANCH   9  11
ATOM     11  C   UNL     1      18.238 -13.250  19.458  1.00  0.00    -0.002 C 
ATOM     12  C   UNL     1      17.460 -11.999  18.971  1.00  0.00     0.005 C 
ATOM     13  C   UNL     1      18.755 -12.848  20.883  1.00  0.00    -0.026 C 
ATOM     14  C   UNL     1      17.293 -11.040  20.149  1.00  0.00     0.005 C 
ATOM     15  C   UNL     1      17.688 -11.829  21.395  1.00  0.00    -0.001 C 
ATOM     16  C   UNL     1      18.942 -14.040  21.874  1.00  0.00     0.007 C 
ATOM     17  C   UNL     1      20.119 -12.101  20.778  1.00  0.00     0.012 C 
ATOM     18  C   UNL     1      16.444 -12.413  22.159  1.00  0.00     0.000 C 
ATOM     19  C   UNL     1      17.661 -14.575  22.520  1.00  0.00     0.005 C 
ATOM     20  C   UNL     1      16.887 -13.435  23.227  1.00  0.00     0.003 C 
ATOM     21  C   UNL     1      15.318 -13.011  21.278  1.00  0.00     0.031 C 
ATOM     22  C   UNL     1      15.675 -13.879  24.146  1.00  0.00    -0.008 C 
ATOM     23  C   UNL     1      14.217 -13.621  22.093  1.00  0.00    -0.027 C 
ATOM     24  C   UNL     1      14.367 -14.049  23.363  1.00  0.00    -0.065 C 
ATOM     25  C   UNL     1      15.435 -12.793  25.262  1.00  0.00     0.014 C 
ATOM     26  C   UNL     1      16.004 -15.226  24.848  1.00  0.00     0.016 C 
ATOM     27  C   UNL     1      13.122 -14.439  24.146  1.00  0.00     0.063 C 
ATOM     28  C   UNL     1      13.950 -12.483  25.568  1.00  0.00     0.033 C 
ATOM     29  C   UNL     1      13.070 -13.742  25.532  1.00  0.00     0.118 C 
BRANCH  29  30
ATOM     30  O   UNL     1      11.747 -13.381  25.841  1.00  0.00    -0.393 OA
ATOM     31  H   UNL     1      11.560 -12.538  25.352  1.00  0.00     0.210 HD
ENDBRANCH  29  30
ENDBRANCH   9  11
ENDBRANCH   1   9
TORSDOF 7
ENDMDL
