MODEL 1
REMARK VINA RESULT:    -0.895      0.000      0.000
REMARK INTER + INTRA:          -3.923
REMARK INTER:                  -2.254
REMARK INTRA:                  -1.669
REMARK UNBOUND:                -1.669
REMARK SMILES CCCCCCCCCCCCCCCCCCCCCCCCCCCC(=O)[O-]
REMARK SMILES IDX 15 1 16 2 17 3 18 4 19 5 20 6 21 7 22 8 23 9 24 10 25 11
REMARK SMILES IDX 26 12 27 13 28 14 29 15 30 16 14 17 13 18 12 19 11 20 10 21
REMARK SMILES IDX 9 22 8 23 7 24 6 25 5 26 4 27 3 28 2 29 1 30
REMARK H PARENT
REMARK Flexibility Score: inf
ROOT
ATOM      1  C   UNL     1      31.056  14.695  18.439  1.00  0.00     0.000 C 
ENDROOT
BRANCH   1   2
ATOM      2  C   UNL     1      30.548  13.538  19.319  1.00  0.00     0.000 C 
BRANCH   2   3
ATOM      3  C   UNL     1      29.092  13.149  19.010  1.00  0.00     0.000 C 
BRANCH   3   4
ATOM      4  C   UNL     1      28.439  14.063  17.957  1.00  0.00     0.000 C 
BRANCH   4   5
ATOM      5  C   UNL     1      27.587  15.186  18.581  1.00  0.00     0.000 C 
BRANCH   5   6
ATOM      6  C   UNL     1      27.869  16.591  18.018  1.00  0.00     0.000 C 
BRANCH   6   7
ATOM      7  C   UNL     1      26.976  16.935  16.813  1.00  0.00     0.000 C 
BRANCH   7   8
ATOM      8  C   UNL     1      27.775  17.123  15.508  1.00  0.00     0.000 C 
BRANCH   8   9
ATOM      9  C   UNL     1      29.005  16.211  15.359  1.00  0.00     0.000 C 
BRANCH   9  10
ATOM     10  C   UNL     1      30.116  16.528  16.373  1.00  0.00     0.000 C 
BRANCH  10  11
ATOM     11  C   UNL     1      31.343  17.121  15.667  1.00  0.00     0.000 C 
BRANCH  11  12
ATOM     12  C   UNL     1      31.777  16.250  14.478  1.00  0.00     0.006 C 
BRANCH  12  13
ATOM     13  C   UNL     1      31.422  16.883  13.125  1.00  0.00     0.053 C 
BRANCH  13  14
ATOM     14  C   UNL     1      31.752  15.978  11.975  1.00  0.00     0.041 C 
ATOM     15  O   UNL     1      31.100  14.913  11.802  1.00  0.00    -0.550 OA
ATOM     16  O   UNL     1      32.802  16.295  11.115  1.00  0.00    -0.550 OA
ENDBRANCH  13  14
ENDBRANCH  12  13
ENDBRANCH  11  12
ENDBRANCH  10  11
ENDBRANCH   9  10
ENDBRANCH   8   9
ENDBRANCH   7   8
ENDBRANCH   6   7
ENDBRANCH   5   6
ENDBRANCH   4   5
ENDBRANCH   3   4
ENDBRANCH   2   3
ENDBRANCH   1   2
BRANCH   1  17
ATOM     17  C   UNL     1      31.136  16.028  19.200  1.00  0.00     0.000 C 
BRANCH  17  18
ATOM     18  C   UNL     1      30.618  15.921  20.648  1.00  0.00     0.000 C 
BRANCH  18  19
ATOM     19  C   UNL     1      29.760  17.125  21.071  1.00  0.00     0.000 C 
BRANCH  19  20
ATOM     20  C   UNL     1      29.283  17.037  22.533  1.00  0.00     0.000 C 
BRANCH  20  21
ATOM     21  C   UNL     1      29.160  15.584  23.026  1.00  0.00     0.000 C 
BRANCH  21  22
ATOM     22  C   UNL     1      27.772  14.933  22.830  1.00  0.00    -0.000 C 
BRANCH  22  23
ATOM     23  C   UNL     1      27.656  13.966  21.633  1.00  0.00    -0.000 C 
BRANCH  23  24
ATOM     24  C   UNL     1      26.881  12.668  21.929  1.00  0.00    -0.000 C 
BRANCH  24  25
ATOM     25  C   UNL     1      27.771  11.413  21.836  1.00  0.00    -0.000 C 
BRANCH  25  26
ATOM     26  C   UNL     1      28.657  11.228  23.081  1.00  0.00    -0.000 C 
BRANCH  26  27
ATOM     27  C   UNL     1      30.056  10.639  22.801  1.00  0.00    -0.000 C 
BRANCH  27  28
ATOM     28  C   UNL     1      30.990  11.534  21.962  1.00  0.00    -0.000 C 
BRANCH  28  29
ATOM     29  C   UNL     1      31.294  12.882  22.637  1.00  0.00    -0.003 C 
ATOM     30  C   UNL     1      32.797  13.145  22.689  1.00  0.00     0.004 C 
ENDBRANCH  28  29
ENDBRANCH  27  28
ENDBRANCH  26  27
ENDBRANCH  25  26
ENDBRANCH  24  25
ENDBRANCH  23  24
ENDBRANCH  22  23
ENDBRANCH  21  22
ENDBRANCH  20  21
ENDBRANCH  19  20
ENDBRANCH  18  19
ENDBRANCH  17  18
ENDBRANCH   1  17
TORSDOF 26
ENDMDL
MODEL 2
REMARK VINA RESULT:    -0.541      3.558      7.506
REMARK INTER + INTRA:          -3.033
REMARK INTER:                  -2.899
REMARK INTRA:                  -0.134
REMARK UNBOUND:                -1.669
REMARK SMILES CCCCCCCCCCCCCCCCCCCCCCCCCCCC(=O)[O-]
REMARK SMILES IDX 15 1 16 2 17 3 18 4 19 5 20 6 21 7 22 8 23 9 24 10 25 11
REMARK SMILES IDX 26 12 27 13 28 14 29 15 30 16 14 17 13 18 12 19 11 20 10 21
REMARK SMILES IDX 9 22 8 23 7 24 6 25 5 26 4 27 3 28 2 29 1 30
REMARK H PARENT
REMARK Flexibility Score: inf
ROOT
ATOM      1  C   UNL     1      31.391  16.210  17.494  1.00  0.00     0.000 C 
ENDROOT
BRANCH   1   2
ATOM      2  C   UNL     1      32.514  17.117  18.030  1.00  0.00     0.000 C 
BRANCH   2   3
ATOM      3  C   UNL     1      32.896  16.796  19.486  1.00  0.00     0.000 C 
BRANCH   3   4
ATOM      4  C   UNL     1      31.770  17.121  20.485  1.00  0.00     0.000 C 
BRANCH   4   5
ATOM      5  C   UNL     1      31.887  16.327  21.802  1.00  0.00     0.000 C 
BRANCH   5   6
ATOM      6  C   UNL     1      32.690  15.018  21.689  1.00  0.00     0.000 C 
BRANCH   6   7
ATOM      7  C   UNL     1      32.002  13.978  20.788  1.00  0.00     0.000 C 
BRANCH   7   8
ATOM      8  C   UNL     1      31.950  12.574  21.422  1.00  0.00     0.000 C 
BRANCH   8   9
ATOM      9  C   UNL     1      31.459  12.535  22.880  1.00  0.00     0.000 C 
BRANCH   9  10
ATOM     10  C   UNL     1      29.950  12.791  23.015  1.00  0.00     0.000 C 
BRANCH  10  11
ATOM     11  C   UNL     1      29.224  12.468  21.702  1.00  0.00     0.000 C 
BRANCH  11  12
ATOM     12  C   UNL     1      27.869  11.793  21.966  1.00  0.00     0.006 C 
BRANCH  12  13
ATOM     13  C   UNL     1      27.968  10.663  23.001  1.00  0.00     0.053 C 
BRANCH  13  14
ATOM     14  C   UNL     1      28.377   9.361  22.377  1.00  0.00     0.041 C 
ATOM     15  O   UNL     1      29.482   9.268  21.777  1.00  0.00    -0.550 OA
ATOM     16  O   UNL     1      27.522   8.262  22.428  1.00  0.00    -0.550 OA
ENDBRANCH  13  14
ENDBRANCH  12  13
ENDBRANCH  11  12
ENDBRANCH  10  11
ENDBRANCH   9  10
ENDBRANCH   8   9
ENDBRANCH   7   8
ENDBRANCH   6   7
ENDBRANCH   5   6
ENDBRANCH   4   5
ENDBRANCH   3   4
ENDBRANCH   2   3
ENDBRANCH   1   2
BRANCH   1  17
ATOM     17  C   UNL     1      30.789  16.726  16.178  1.00  0.00     0.000 C 
BRANCH  17  18
ATOM     18  C   UNL     1      31.365  16.015  14.938  1.00  0.00     0.000 C 
BRANCH  18  19
ATOM     19  C   UNL     1      31.690  14.533  15.190  1.00  0.00     0.000 C 
BRANCH  19  20
ATOM     20  C   UNL     1      30.435  13.640  15.219  1.00  0.00     0.000 C 
BRANCH  20  21
ATOM     21  C   UNL     1      30.154  13.065  16.620  1.00  0.00     0.000 C 
BRANCH  21  22
ATOM     22  C   UNL     1      29.959  14.112  17.739  1.00  0.00    -0.000 C 
BRANCH  22  23
ATOM     23  C   UNL     1      29.246  13.599  19.009  1.00  0.00    -0.000 C 
BRANCH  23  24
ATOM     24  C   UNL     1      28.083  14.486  19.494  1.00  0.00    -0.000 C 
BRANCH  24  25
ATOM     25  C   UNL     1      27.918  15.762  18.645  1.00  0.00    -0.000 C 
BRANCH  25  26
ATOM     26  C   UNL     1      27.956  17.043  19.497  1.00  0.00    -0.000 C 
BRANCH  26  27
ATOM     27  C   UNL     1      26.875  17.125  20.596  1.00  0.00    -0.000 C 
BRANCH  27  28
ATOM     28  C   UNL     1      27.212  16.383  21.905  1.00  0.00    -0.000 C 
BRANCH  28  29
ATOM     29  C   UNL     1      28.514  16.878  22.556  1.00  0.00    -0.003 C 
ATOM     30  C   UNL     1      29.377  15.707  23.021  1.00  0.00     0.004 C 
ENDBRANCH  28  29
ENDBRANCH  27  28
ENDBRANCH  26  27
ENDBRANCH  25  26
ENDBRANCH  24  25
ENDBRANCH  23  24
ENDBRANCH  22  23
ENDBRANCH  21  22
ENDBRANCH  20  21
ENDBRANCH  19  20
ENDBRANCH  18  19
ENDBRANCH  17  18
ENDBRANCH   1  17
TORSDOF 26
ENDMDL
MODEL 3
REMARK VINA RESULT:     0.679      1.600      3.710
REMARK INTER + INTRA:           0.042
REMARK INTER:                  -3.810
REMARK INTRA:                   3.852
REMARK UNBOUND:                -1.669
REMARK SMILES CCCCCCCCCCCCCCCCCCCCCCCCCCCC(=O)[O-]
REMARK SMILES IDX 15 1 16 2 17 3 18 4 19 5 20 6 21 7 22 8 23 9 24 10 25 11
REMARK SMILES IDX 26 12 27 13 28 14 29 15 30 16 14 17 13 18 12 19 11 20 10 21
REMARK SMILES IDX 9 22 8 23 7 24 6 25 5 26 4 27 3 28 2 29 1 30
REMARK H PARENT
REMARK Flexibility Score: inf
ROOT
ATOM      1  C   UNL     1      29.763  13.513  17.105  1.00  0.00     0.000 C 
ENDROOT
BRANCH   1   2
ATOM      2  C   UNL     1      29.241  14.957  16.994  1.00  0.00     0.000 C 
BRANCH   2   3
ATOM      3  C   UNL     1      27.709  15.047  17.103  1.00  0.00     0.000 C 
BRANCH   3   4
ATOM      4  C   UNL     1      27.214  16.469  17.426  1.00  0.00     0.000 C 
BRANCH   4   5
ATOM      5  C   UNL     1      27.881  17.066  18.681  1.00  0.00     0.000 C 
BRANCH   5   6
ATOM      6  C   UNL     1      29.419  17.125  18.622  1.00  0.00     0.000 C 
BRANCH   6   7
ATOM      7  C   UNL     1      30.086  16.202  19.657  1.00  0.00     0.000 C 
BRANCH   7   8
ATOM      8  C   UNL     1      30.859  16.977  20.743  1.00  0.00     0.000 C 
BRANCH   8   9
ATOM      9  C   UNL     1      32.376  16.725  20.768  1.00  0.00     0.000 C 
BRANCH   9  10
ATOM     10  C   UNL     1      33.030  16.845  19.383  1.00  0.00     0.000 C 
BRANCH  10  11
ATOM     11  C   UNL     1      31.973  17.122  18.305  1.00  0.00     0.000 C 
BRANCH  11  12
ATOM     12  C   UNL     1      32.386  16.521  16.953  1.00  0.00     0.006 C 
BRANCH  12  13
ATOM     13  C   UNL     1      31.469  16.971  15.806  1.00  0.00     0.053 C 
BRANCH  13  14
ATOM     14  C   UNL     1      31.442  15.977  14.683  1.00  0.00     0.041 C 
ATOM     15  O   UNL     1      31.872  14.806  14.865  1.00  0.00    -0.550 OA
ATOM     16  O   UNL     1      30.974  16.355  13.426  1.00  0.00    -0.550 OA
ENDBRANCH  13  14
ENDBRANCH  12  13
ENDBRANCH  11  12
ENDBRANCH  10  11
ENDBRANCH   9  10
ENDBRANCH   8   9
ENDBRANCH   7   8
ENDBRANCH   6   7
ENDBRANCH   5   6
ENDBRANCH   4   5
ENDBRANCH   3   4
ENDBRANCH   2   3
ENDBRANCH   1   2
BRANCH   1  17
ATOM     17  C   UNL     1      29.595  12.929  18.516  1.00  0.00     0.000 C 
BRANCH  17  18
ATOM     18  C   UNL     1      28.966  13.928  19.506  1.00  0.00     0.000 C 
BRANCH  18  19
ATOM     19  C   UNL     1      27.766  13.345  20.271  1.00  0.00     0.000 C 
BRANCH  19  20
ATOM     20  C   UNL     1      27.336  14.217  21.465  1.00  0.00     0.000 C 
BRANCH  20  21
ATOM     21  C   UNL     1      28.447  14.361  22.521  1.00  0.00     0.000 C 
BRANCH  21  22
ATOM     22  C   UNL     1      29.891  14.339  21.970  1.00  0.00    -0.000 C 
BRANCH  22  23
ATOM     23  C   UNL     1      30.969  13.838  22.955  1.00  0.00    -0.000 C 
BRANCH  23  24
ATOM     24  C   UNL     1      31.916  12.767  22.381  1.00  0.00    -0.000 C 
BRANCH  24  25
ATOM     25  C   UNL     1      31.730  11.393  23.054  1.00  0.00    -0.000 C 
BRANCH  25  26
ATOM     26  C   UNL     1      30.252  10.968  23.125  1.00  0.00    -0.000 C 
BRANCH  26  27
ATOM     27  C   UNL     1      29.564  10.782  21.755  1.00  0.00    -0.000 C 
BRANCH  27  28
ATOM     28  C   UNL     1      28.141  10.192  21.810  1.00  0.00    -0.000 C 
BRANCH  28  29
ATOM     29  C   UNL     1      28.131   8.664  21.982  1.00  0.00    -0.003 C 
ATOM     30  C   UNL     1      27.083   8.231  23.006  1.00  0.00     0.004 C 
ENDBRANCH  28  29
ENDBRANCH  27  28
ENDBRANCH  26  27
ENDBRANCH  25  26
ENDBRANCH  24  25
ENDBRANCH  23  24
ENDBRANCH  22  23
ENDBRANCH  21  22
ENDBRANCH  20  21
ENDBRANCH  19  20
ENDBRANCH  18  19
ENDBRANCH  17  18
ENDBRANCH   1  17
TORSDOF 26
ENDMDL
MODEL 4
REMARK VINA RESULT:     0.819      3.071      5.761
REMARK INTER + INTRA:           0.394
REMARK INTER:                   0.752
REMARK INTRA:                  -0.358
REMARK UNBOUND:                -1.669
REMARK SMILES CCCCCCCCCCCCCCCCCCCCCCCCCCCC(=O)[O-]
REMARK SMILES IDX 15 1 16 2 17 3 18 4 19 5 20 6 21 7 22 8 23 9 24 10 25 11
REMARK SMILES IDX 26 12 27 13 28 14 29 15 30 16 14 17 13 18 12 19 11 20 10 21
REMARK SMILES IDX 9 22 8 23 7 24 6 25 5 26 4 27 3 28 2 29 1 30
REMARK H PARENT
REMARK Flexibility Score: inf
ROOT
ATOM      1  C   UNL     1      32.195  16.719  15.863  1.00  0.00     0.000 C 
ENDROOT
BRANCH   1   2
ATOM      2  C   UNL     1      31.862  16.416  17.335  1.00  0.00     0.000 C 
BRANCH   2   3
ATOM      3  C   UNL     1      30.583  17.125  17.815  1.00  0.00     0.000 C 
BRANCH   3   4
ATOM      4  C   UNL     1      29.326  16.245  17.682  1.00  0.00     0.000 C 
BRANCH   4   5
ATOM      5  C   UNL     1      28.972  15.502  18.986  1.00  0.00     0.000 C 
BRANCH   5   6
ATOM      6  C   UNL     1      27.476  15.524  19.348  1.00  0.00     0.000 C 
BRANCH   6   7
ATOM      7  C   UNL     1      27.067  16.805  20.097  1.00  0.00     0.000 C 
BRANCH   7   8
ATOM      8  C   UNL     1      27.611  16.857  21.539  1.00  0.00     0.000 C 
BRANCH   8   9
ATOM      9  C   UNL     1      29.128  17.082  21.656  1.00  0.00     0.000 C 
BRANCH   9  10
ATOM     10  C   UNL     1      29.772  16.274  22.793  1.00  0.00     0.000 C 
BRANCH  10  11
ATOM     11  C   UNL     1      30.059  14.835  22.342  1.00  0.00     0.000 C 
BRANCH  11  12
ATOM     12  C   UNL     1      31.398  14.742  21.593  1.00  0.00     0.006 C 
BRANCH  12  13
ATOM     13  C   UNL     1      31.826  16.087  20.988  1.00  0.00     0.053 C 
BRANCH  13  14
ATOM     14  C   UNL     1      33.266  16.398  21.269  1.00  0.00     0.041 C 
ATOM     15  O   UNL     1      33.791  16.035  22.356  1.00  0.00    -0.550 OA
ATOM     16  O   UNL     1      34.018  17.120  20.343  1.00  0.00    -0.550 OA
ENDBRANCH  13  14
ENDBRANCH  12  13
ENDBRANCH  11  12
ENDBRANCH  10  11
ENDBRANCH   9  10
ENDBRANCH   8   9
ENDBRANCH   7   8
ENDBRANCH   6   7
ENDBRANCH   5   6
ENDBRANCH   4   5
ENDBRANCH   3   4
ENDBRANCH   2   3
ENDBRANCH   1   2
BRANCH   1  17
ATOM     17  C   UNL     1      31.228  16.035  14.884  1.00  0.00     0.000 C 
BRANCH  17  18
ATOM     18  C   UNL     1      31.590  14.562  14.616  1.00  0.00     0.000 C 
BRANCH  18  19
ATOM     19  C   UNL     1      30.605  13.572  15.260  1.00  0.00     0.000 C 
BRANCH  19  20
ATOM     20  C   UNL     1      30.989  13.195  16.702  1.00  0.00     0.000 C 
BRANCH  20  21
ATOM     21  C   UNL     1      29.945  12.280  17.370  1.00  0.00     0.000 C 
BRANCH  21  22
ATOM     22  C   UNL     1      29.215  12.888  18.588  1.00  0.00    -0.000 C 
BRANCH  22  23
ATOM     23  C   UNL     1      29.010  11.932  19.783  1.00  0.00    -0.000 C 
BRANCH  23  24
ATOM     24  C   UNL     1      30.240  11.774  20.698  1.00  0.00    -0.000 C 
BRANCH  24  25
ATOM     25  C   UNL     1      30.079  10.625  21.712  1.00  0.00    -0.000 C 
BRANCH  25  26
ATOM     26  C   UNL     1      29.657  11.126  23.105  1.00  0.00    -0.000 C 
BRANCH  26  27
ATOM     27  C   UNL     1      28.377  11.990  23.124  1.00  0.00    -0.000 C 
BRANCH  27  28
ATOM     28  C   UNL     1      27.089  11.264  22.686  1.00  0.00    -0.000 C 
BRANCH  28  29
ATOM     29  C   UNL     1      27.362   9.902  22.028  1.00  0.00    -0.003 C 
ATOM     30  C   UNL     1      27.454   8.793  23.075  1.00  0.00     0.004 C 
ENDBRANCH  28  29
ENDBRANCH  27  28
ENDBRANCH  26  27
ENDBRANCH  25  26
ENDBRANCH  24  25
ENDBRANCH  23  24
ENDBRANCH  22  23
ENDBRANCH  21  22
ENDBRANCH  20  21
ENDBRANCH  19  20
ENDBRANCH  18  19
ENDBRANCH  17  18
ENDBRANCH   1  17
TORSDOF 26
ENDMDL
MODEL 5
REMARK VINA RESULT:     0.940      1.611      3.959
REMARK INTER + INTRA:           0.700
REMARK INTER:                   2.341
REMARK INTRA:                  -1.641
REMARK UNBOUND:                -1.669
REMARK SMILES CCCCCCCCCCCCCCCCCCCCCCCCCCCC(=O)[O-]
REMARK SMILES IDX 15 1 16 2 17 3 18 4 19 5 20 6 21 7 22 8 23 9 24 10 25 11
REMARK SMILES IDX 26 12 27 13 28 14 29 15 30 16 14 17 13 18 12 19 11 20 10 21
REMARK SMILES IDX 9 22 8 23 7 24 6 25 5 26 4 27 3 28 2 29 1 30
REMARK H PARENT
REMARK Flexibility Score: inf
ROOT
ATOM      1  C   UNL     1      29.038  13.621  19.164  1.00  0.00     0.000 C 
ENDROOT
BRANCH   1   2
ATOM      2  C   UNL     1      28.056  14.228  18.146  1.00  0.00     0.000 C 
BRANCH   2   3
ATOM      3  C   UNL     1      28.662  15.407  17.364  1.00  0.00     0.000 C 
BRANCH   3   4
ATOM      4  C   UNL     1      28.719  16.706  18.189  1.00  0.00     0.000 C 
BRANCH   4   5
ATOM      5  C   UNL     1      29.871  16.717  19.213  1.00  0.00     0.000 C 
BRANCH   5   6
ATOM      6  C   UNL     1      31.126  15.940  18.772  1.00  0.00     0.000 C 
BRANCH   6   7
ATOM      7  C   UNL     1      32.336  16.860  18.532  1.00  0.00     0.000 C 
BRANCH   7   8
ATOM      8  C   UNL     1      32.603  17.125  17.037  1.00  0.00     0.000 C 
BRANCH   8   9
ATOM      9  C   UNL     1      31.536  16.571  16.077  1.00  0.00     0.000 C 
BRANCH   9  10
ATOM     10  C   UNL     1      32.105  15.574  15.054  1.00  0.00     0.000 C 
BRANCH  10  11
ATOM     11  C   UNL     1      31.000  14.654  14.519  1.00  0.00     0.000 C 
BRANCH  11  12
ATOM     12  C   UNL     1      30.568  15.065  13.103  1.00  0.00     0.006 C 
BRANCH  12  13
ATOM     13  C   UNL     1      31.696  14.896  12.074  1.00  0.00     0.053 C 
BRANCH  13  14
ATOM     14  C   UNL     1      32.477  16.163  11.881  1.00  0.00     0.041 C 
ATOM     15  O   UNL     1      32.333  17.122  12.686  1.00  0.00    -0.550 OA
ATOM     16  O   UNL     1      33.339  16.293  10.794  1.00  0.00    -0.550 OA
ENDBRANCH  13  14
ENDBRANCH  12  13
ENDBRANCH  11  12
ENDBRANCH  10  11
ENDBRANCH   9  10
ENDBRANCH   8   9
ENDBRANCH   7   8
ENDBRANCH   6   7
ENDBRANCH   5   6
ENDBRANCH   4   5
ENDBRANCH   3   4
ENDBRANCH   2   3
ENDBRANCH   1   2
BRANCH   1  17
ATOM     17  C   UNL     1      28.403  13.415  20.549  1.00  0.00     0.000 C 
BRANCH  17  18
ATOM     18  C   UNL     1      27.471  12.190  20.603  1.00  0.00     0.000 C 
BRANCH  18  19
ATOM     19  C   UNL     1      27.005  11.850  22.028  1.00  0.00     0.000 C 
BRANCH  19  20
ATOM     20  C   UNL     1      27.183  10.361  22.378  1.00  0.00     0.000 C 
BRANCH  20  21
ATOM     21  C   UNL     1      28.577  10.054  22.954  1.00  0.00     0.000 C 
BRANCH  21  22
ATOM     22  C   UNL     1      29.498   9.210  22.044  1.00  0.00    -0.000 C 
BRANCH  22  23
ATOM     23  C   UNL     1      30.919   9.775  21.832  1.00  0.00    -0.000 C 
BRANCH  23  24
ATOM     24  C   UNL     1      31.535  10.447  23.075  1.00  0.00    -0.000 C 
BRANCH  24  25
ATOM     25  C   UNL     1      31.266  11.964  23.120  1.00  0.00    -0.000 C 
BRANCH  25  26
ATOM     26  C   UNL     1      31.193  12.589  21.715  1.00  0.00    -0.000 C 
BRANCH  26  27
ATOM     27  C   UNL     1      32.323  13.590  21.391  1.00  0.00    -0.000 C 
BRANCH  27  28
ATOM     28  C   UNL     1      32.650  14.597  22.512  1.00  0.00    -0.000 C 
BRANCH  28  29
ATOM     29  C   UNL     1      31.578  15.687  22.670  1.00  0.00    -0.003 C 
ATOM     30  C   UNL     1      32.083  17.035  22.159  1.00  0.00     0.004 C 
ENDBRANCH  28  29
ENDBRANCH  27  28
ENDBRANCH  26  27
ENDBRANCH  25  26
ENDBRANCH  24  25
ENDBRANCH  23  24
ENDBRANCH  22  23
ENDBRANCH  21  22
ENDBRANCH  20  21
ENDBRANCH  19  20
ENDBRANCH  18  19
ENDBRANCH  17  18
ENDBRANCH   1  17
TORSDOF 26
ENDMDL
MODEL 6
REMARK VINA RESULT:     1.011      2.972      6.401
REMARK INTER + INTRA:           0.879
REMARK INTER:                  -1.641
REMARK INTRA:                   2.519
REMARK UNBOUND:                -1.669
REMARK SMILES CCCCCCCCCCCCCCCCCCCCCCCCCCCC(=O)[O-]
REMARK SMILES IDX 15 1 16 2 17 3 18 4 19 5 20 6 21 7 22 8 23 9 24 10 25 11
REMARK SMILES IDX 26 12 27 13 28 14 29 15 30 16 14 17 13 18 12 19 11 20 10 21
REMARK SMILES IDX 9 22 8 23 7 24 6 25 5 26 4 27 3 28 2 29 1 30
REMARK H PARENT
REMARK Flexibility Score: inf
ROOT
ATOM      1  C   UNL     1      31.413  15.816  17.486  1.00  0.00     0.000 C 
ENDROOT
BRANCH   1   2
ATOM      2  C   UNL     1      30.790  16.692  18.589  1.00  0.00     0.000 C 
BRANCH   2   3
ATOM      3  C   UNL     1      29.290  16.953  18.366  1.00  0.00     0.000 C 
BRANCH   3   4
ATOM      4  C   UNL     1      28.502  17.073  19.683  1.00  0.00     0.000 C 
BRANCH   4   5
ATOM      5  C   UNL     1      28.690  15.855  20.609  1.00  0.00     0.000 C 
BRANCH   5   6
ATOM      6  C   UNL     1      27.466  15.519  21.480  1.00  0.00     0.000 C 
BRANCH   6   7
ATOM      7  C   UNL     1      27.289  16.499  22.653  1.00  0.00     0.000 C 
BRANCH   7   8
ATOM      8  C   UNL     1      28.619  17.119  23.125  1.00  0.00     0.000 C 
BRANCH   8   9
ATOM      9  C   UNL     1      29.789  16.983  22.134  1.00  0.00     0.000 C 
BRANCH   9  10
ATOM     10  C   UNL     1      31.162  16.946  22.824  1.00  0.00     0.000 C 
BRANCH  10  11
ATOM     11  C   UNL     1      31.608  15.498  23.069  1.00  0.00     0.000 C 
BRANCH  11  12
ATOM     12  C   UNL     1      33.101  15.314  22.756  1.00  0.00     0.006 C 
BRANCH  12  13
ATOM     13  C   UNL     1      33.461  13.854  22.448  1.00  0.00     0.053 C 
BRANCH  13  14
ATOM     14  C   UNL     1      32.277  13.073  21.957  1.00  0.00     0.041 C 
ATOM     15  O   UNL     1      31.647  12.318  22.746  1.00  0.00    -0.550 OA
ATOM     16  O   UNL     1      31.891  13.155  20.620  1.00  0.00    -0.550 OA
ENDBRANCH  13  14
ENDBRANCH  12  13
ENDBRANCH  11  12
ENDBRANCH  10  11
ENDBRANCH   9  10
ENDBRANCH   8   9
ENDBRANCH   7   8
ENDBRANCH   6   7
ENDBRANCH   5   6
ENDBRANCH   4   5
ENDBRANCH   3   4
ENDBRANCH   2   3
ENDBRANCH   1   2
BRANCH   1  17
ATOM     17  C   UNL     1      31.720  16.605  16.204  1.00  0.00     0.000 C 
BRANCH  17  18
ATOM     18  C   UNL     1      31.630  15.739  14.933  1.00  0.00     0.000 C 
BRANCH  18  19
ATOM     19  C   UNL     1      30.422  16.090  14.049  1.00  0.00     0.000 C 
BRANCH  19  20
ATOM     20  C   UNL     1      29.475  17.111  14.705  1.00  0.00     0.000 C 
BRANCH  20  21
ATOM     21  C   UNL     1      28.009  16.641  14.705  1.00  0.00     0.000 C 
BRANCH  21  22
ATOM     22  C   UNL     1      27.458  16.188  16.075  1.00  0.00    -0.000 C 
BRANCH  22  23
ATOM     23  C   UNL     1      27.987  14.831  16.587  1.00  0.00    -0.000 C 
BRANCH  23  24
ATOM     24  C   UNL     1      27.766  14.581  18.091  1.00  0.00    -0.000 C 
BRANCH  24  25
ATOM     25  C   UNL     1      28.792  13.594  18.682  1.00  0.00    -0.000 C 
BRANCH  25  26
ATOM     26  C   UNL     1      28.123  12.453  19.469  1.00  0.00    -0.000 C 
BRANCH  26  27
ATOM     27  C   UNL     1      28.822  12.081  20.794  1.00  0.00    -0.000 C 
BRANCH  27  28
ATOM     28  C   UNL     1      27.912  11.432  21.857  1.00  0.00    -0.000 C 
BRANCH  28  29
ATOM     29  C   UNL     1      28.605  10.295  22.626  1.00  0.00    -0.003 C 
ATOM     30  C   UNL     1      28.048   8.933  22.215  1.00  0.00     0.004 C 
ENDBRANCH  28  29
ENDBRANCH  27  28
ENDBRANCH  26  27
ENDBRANCH  25  26
ENDBRANCH  24  25
ENDBRANCH  23  24
ENDBRANCH  22  23
ENDBRANCH  21  22
ENDBRANCH  20  21
ENDBRANCH  19  20
ENDBRANCH  18  19
ENDBRANCH  17  18
ENDBRANCH   1  17
TORSDOF 26
ENDMDL
