MODEL 1
REMARK VINA RESULT:    -5.641      0.000      0.000
REMARK INTER + INTRA:         -17.433
REMARK INTER:                 -14.215
REMARK INTRA:                  -3.217
REMARK UNBOUND:                -3.217
REMARK SMILES CCCCCCCCCCCCCCCCCCCCCCCCCCCC(=O)[O-]
REMARK SMILES IDX 15 1 16 2 17 3 18 4 19 5 20 6 21 7 22 8 23 9 24 10 25 11
REMARK SMILES IDX 26 12 27 13 28 14 29 15 30 16 14 17 13 18 12 19 11 20 10 21
REMARK SMILES IDX 9 22 8 23 7 24 6 25 5 26 4 27 3 28 2 29 1 30
REMARK H PARENT
REMARK Flexibility Score: inf
ROOT
ATOM      1  C   UNL     1      43.862  -1.723  29.319  1.00  0.00     0.000 C 
ENDROOT
BRANCH   1   2
ATOM      2  C   UNL     1      43.022  -1.310  30.542  1.00  0.00     0.000 C 
BRANCH   2   3
ATOM      3  C   UNL     1      41.918  -2.306  30.943  1.00  0.00     0.000 C 
BRANCH   3   4
ATOM      4  C   UNL     1      42.342  -3.244  32.089  1.00  0.00     0.000 C 
BRANCH   4   5
ATOM      5  C   UNL     1      42.848  -4.596  31.559  1.00  0.00     0.000 C 
BRANCH   5   6
ATOM      6  C   UNL     1      41.700  -5.589  31.285  1.00  0.00     0.000 C 
BRANCH   6   7
ATOM      7  C   UNL     1      41.487  -5.846  29.785  1.00  0.00     0.000 C 
BRANCH   7   8
ATOM      8  C   UNL     1      42.606  -5.216  28.934  1.00  0.00     0.000 C 
BRANCH   8   9
ATOM      9  C   UNL     1      42.068  -4.281  27.840  1.00  0.00     0.000 C 
BRANCH   9  10
ATOM     10  C   UNL     1      41.508  -5.031  26.612  1.00  0.00     0.000 C 
BRANCH  10  11
ATOM     11  C   UNL     1      39.996  -4.824  26.443  1.00  0.00     0.000 C 
BRANCH  11  12
ATOM     12  C   UNL     1      39.228  -6.119  26.739  1.00  0.00     0.006 C 
BRANCH  12  13
ATOM     13  C   UNL     1      37.720  -5.865  26.807  1.00  0.00     0.053 C 
BRANCH  13  14
ATOM     14  C   UNL     1      37.016  -6.594  25.705  1.00  0.00     0.041 C 
ATOM     15  O   UNL     1      37.640  -6.916  24.661  1.00  0.00    -0.550 OA
ATOM     16  O   UNL     1      35.679  -6.951  25.849  1.00  0.00    -0.550 OA
ENDBRANCH  13  14
ENDBRANCH  12  13
ENDBRANCH  11  12
ENDBRANCH  10  11
ENDBRANCH   9  10
ENDBRANCH   8   9
ENDBRANCH   7   8
ENDBRANCH   6   7
ENDBRANCH   5   6
ENDBRANCH   4   5
ENDBRANCH   3   4
ENDBRANCH   2   3
ENDBRANCH   1   2
BRANCH   1  17
ATOM     17  C   UNL     1      44.838  -0.622  28.866  1.00  0.00     0.000 C 
BRANCH  17  18
ATOM     18  C   UNL     1      45.886  -1.130  27.857  1.00  0.00     0.000 C 
BRANCH  18  19
ATOM     19  C   UNL     1      45.834  -2.646  27.586  1.00  0.00     0.000 C 
BRANCH  19  20
ATOM     20  C   UNL     1      47.056  -3.152  26.797  1.00  0.00     0.000 C 
BRANCH  20  21
ATOM     21  C   UNL     1      46.770  -4.453  26.032  1.00  0.00     0.000 C 
BRANCH  21  22
ATOM     22  C   UNL     1      45.393  -5.052  26.375  1.00  0.00    -0.000 C 
BRANCH  22  23
ATOM     23  C   UNL     1      45.510  -6.399  27.120  1.00  0.00    -0.000 C 
BRANCH  23  24
ATOM     24  C   UNL     1      45.969  -7.567  26.230  1.00  0.00    -0.000 C 
BRANCH  24  25
ATOM     25  C   UNL     1      45.597  -7.372  24.751  1.00  0.00    -0.000 C 
BRANCH  25  26
ATOM     26  C   UNL     1      46.829  -7.356  23.830  1.00  0.00    -0.000 C 
BRANCH  26  27
ATOM     27  C   UNL     1      48.130  -7.670  24.588  1.00  0.00    -0.000 C 
BRANCH  27  28
ATOM     28  C   UNL     1      49.336  -6.872  24.057  1.00  0.00    -0.000 C 
BRANCH  28  29
ATOM     29  C   UNL     1      50.468  -6.662  25.079  1.00  0.00    -0.003 C 
ATOM     30  C   UNL     1      50.298  -5.385  25.904  1.00  0.00     0.004 C 
ENDBRANCH  28  29
ENDBRANCH  27  28
ENDBRANCH  26  27
ENDBRANCH  25  26
ENDBRANCH  24  25
ENDBRANCH  23  24
ENDBRANCH  22  23
ENDBRANCH  21  22
ENDBRANCH  20  21
ENDBRANCH  19  20
ENDBRANCH  18  19
ENDBRANCH  17  18
ENDBRANCH   1  17
TORSDOF 26
ENDMDL
MODEL 2
REMARK VINA RESULT:    -5.610      3.917      7.550
REMARK INTER + INTRA:         -17.353
REMARK INTER:                 -13.761
REMARK INTRA:                  -3.593
REMARK UNBOUND:                -3.217
REMARK SMILES CCCCCCCCCCCCCCCCCCCCCCCCCCCC(=O)[O-]
REMARK SMILES IDX 15 1 16 2 17 3 18 4 19 5 20 6 21 7 22 8 23 9 24 10 25 11
REMARK SMILES IDX 26 12 27 13 28 14 29 15 30 16 14 17 13 18 12 19 11 20 10 21
REMARK SMILES IDX 9 22 8 23 7 24 6 25 5 26 4 27 3 28 2 29 1 30
REMARK H PARENT
REMARK Flexibility Score: inf
ROOT
ATOM      1  C   UNL     1      46.964  -3.565  26.068  1.00  0.00     0.000 C 
ENDROOT
BRANCH   1   2
ATOM      2  C   UNL     1      46.245  -3.080  27.341  1.00  0.00     0.000 C 
BRANCH   2   3
ATOM      3  C   UNL     1      46.291  -1.559  27.578  1.00  0.00     0.000 C 
BRANCH   3   4
ATOM      4  C   UNL     1      45.094  -1.041  28.397  1.00  0.00     0.000 C 
BRANCH   4   5
ATOM      5  C   UNL     1      44.087  -2.162  28.703  1.00  0.00     0.000 C 
BRANCH   5   6
ATOM      6  C   UNL     1      43.262  -1.881  29.977  1.00  0.00     0.000 C 
BRANCH   6   7
ATOM      7  C   UNL     1      43.132  -3.119  30.880  1.00  0.00     0.000 C 
BRANCH   7   8
ATOM      8  C   UNL     1      42.250  -2.836  32.110  1.00  0.00     0.000 C 
BRANCH   8   9
ATOM      9  C   UNL     1      43.064  -2.693  33.406  1.00  0.00     0.000 C 
BRANCH   9  10
ATOM     10  C   UNL     1      42.325  -1.908  34.512  1.00  0.00     0.000 C 
BRANCH  10  11
ATOM     11  C   UNL     1      43.172  -0.759  35.076  1.00  0.00     0.000 C 
BRANCH  11  12
ATOM     12  C   UNL     1      43.953  -0.053  33.959  1.00  0.00     0.006 C 
BRANCH  12  13
ATOM     13  C   UNL     1      43.021   0.774  33.070  1.00  0.00     0.053 C 
BRANCH  13  14
ATOM     14  C   UNL     1      43.780   1.870  32.391  1.00  0.00     0.041 C 
ATOM     15  O   UNL     1      43.476   2.219  31.221  1.00  0.00    -0.550 OA
ATOM     16  O   UNL     1      44.800   2.533  33.066  1.00  0.00    -0.550 OA
ENDBRANCH  13  14
ENDBRANCH  12  13
ENDBRANCH  11  12
ENDBRANCH  10  11
ENDBRANCH   9  10
ENDBRANCH   8   9
ENDBRANCH   7   8
ENDBRANCH   6   7
ENDBRANCH   5   6
ENDBRANCH   4   5
ENDBRANCH   3   4
ENDBRANCH   2   3
ENDBRANCH   1   2
BRANCH   1  17
ATOM     17  C   UNL     1      47.987  -4.680  26.349  1.00  0.00     0.000 C 
BRANCH  17  18
ATOM     18  C   UNL     1      48.771  -5.103  25.092  1.00  0.00     0.000 C 
BRANCH  18  19
ATOM     19  C   UNL     1      49.331  -6.537  25.137  1.00  0.00     0.000 C 
BRANCH  19  20
ATOM     20  C   UNL     1      48.226  -7.607  25.197  1.00  0.00     0.000 C 
BRANCH  20  21
ATOM     21  C   UNL     1      47.098  -7.352  24.187  1.00  0.00     0.000 C 
BRANCH  21  22
ATOM     22  C   UNL     1      45.698  -7.511  24.810  1.00  0.00    -0.000 C 
BRANCH  22  23
ATOM     23  C   UNL     1      45.752  -7.628  26.349  1.00  0.00    -0.000 C 
BRANCH  23  24
ATOM     24  C   UNL     1      44.772  -6.694  27.080  1.00  0.00    -0.000 C 
BRANCH  24  25
ATOM     25  C   UNL     1      44.085  -5.692  26.139  1.00  0.00    -0.000 C 
BRANCH  25  26
ATOM     26  C   UNL     1      42.797  -5.104  26.741  1.00  0.00    -0.000 C 
BRANCH  26  27
ATOM     27  C   UNL     1      42.536  -5.610  28.169  1.00  0.00    -0.000 C 
BRANCH  27  28
ATOM     28  C   UNL     1      41.120  -5.269  28.671  1.00  0.00    -0.000 C 
BRANCH  28  29
ATOM     29  C   UNL     1      40.512  -3.990  28.064  1.00  0.00    -0.003 C 
ATOM     30  C   UNL     1      39.184  -4.242  27.350  1.00  0.00     0.004 C 
ENDBRANCH  28  29
ENDBRANCH  27  28
ENDBRANCH  26  27
ENDBRANCH  25  26
ENDBRANCH  24  25
ENDBRANCH  23  24
ENDBRANCH  22  23
ENDBRANCH  21  22
ENDBRANCH  20  21
ENDBRANCH  19  20
ENDBRANCH  18  19
ENDBRANCH  17  18
ENDBRANCH   1  17
TORSDOF 26
ENDMDL
MODEL 3
REMARK VINA RESULT:    -5.480      1.551      5.223
REMARK INTER + INTRA:         -17.028
REMARK INTER:                 -13.465
REMARK INTRA:                  -3.562
REMARK UNBOUND:                -3.217
REMARK SMILES CCCCCCCCCCCCCCCCCCCCCCCCCCCC(=O)[O-]
REMARK SMILES IDX 15 1 16 2 17 3 18 4 19 5 20 6 21 7 22 8 23 9 24 10 25 11
REMARK SMILES IDX 26 12 27 13 28 14 29 15 30 16 14 17 13 18 12 19 11 20 10 21
REMARK SMILES IDX 9 22 8 23 7 24 6 25 5 26 4 27 3 28 2 29 1 30
REMARK H PARENT
REMARK Flexibility Score: inf
ROOT
ATOM      1  C   UNL     1      46.715  -3.770  26.035  1.00  0.00     0.000 C 
ENDROOT
BRANCH   1   2
ATOM      2  C   UNL     1      46.225  -3.136  27.350  1.00  0.00     0.000 C 
BRANCH   2   3
ATOM      3  C   UNL     1      46.402  -1.609  27.446  1.00  0.00     0.000 C 
BRANCH   3   4
ATOM      4  C   UNL     1      45.276  -0.922  28.241  1.00  0.00     0.000 C 
BRANCH   4   5
ATOM      5  C   UNL     1      44.313  -1.946  28.864  1.00  0.00     0.000 C 
BRANCH   5   6
ATOM      6  C   UNL     1      43.139  -1.274  29.607  1.00  0.00     0.000 C 
BRANCH   6   7
ATOM      7  C   UNL     1      42.336  -2.268  30.461  1.00  0.00     0.000 C 
BRANCH   7   8
ATOM      8  C   UNL     1      41.125  -2.832  29.693  1.00  0.00     0.000 C 
BRANCH   8   9
ATOM      9  C   UNL     1      39.915  -1.885  29.712  1.00  0.00     0.000 C 
BRANCH   9  10
ATOM     10  C   UNL     1      38.598  -2.563  29.276  1.00  0.00     0.000 C 
BRANCH  10  11
ATOM     11  C   UNL     1      38.313  -2.372  27.779  1.00  0.00     0.000 C 
BRANCH  11  12
ATOM     12  C   UNL     1      38.801  -3.581  26.970  1.00  0.00     0.006 C 
BRANCH  12  13
ATOM     13  C   UNL     1      38.321  -4.894  27.592  1.00  0.00     0.053 C 
BRANCH  13  14
ATOM     14  C   UNL     1      38.563  -6.037  26.656  1.00  0.00     0.041 C 
ATOM     15  O   UNL     1      38.883  -7.167  27.108  1.00  0.00    -0.550 OA
ATOM     16  O   UNL     1      38.397  -5.862  25.286  1.00  0.00    -0.550 OA
ENDBRANCH  13  14
ENDBRANCH  12  13
ENDBRANCH  11  12
ENDBRANCH  10  11
ENDBRANCH   9  10
ENDBRANCH   8   9
ENDBRANCH   7   8
ENDBRANCH   6   7
ENDBRANCH   5   6
ENDBRANCH   4   5
ENDBRANCH   3   4
ENDBRANCH   2   3
ENDBRANCH   1   2
BRANCH   1  17
ATOM     17  C   UNL     1      47.861  -4.775  26.246  1.00  0.00     0.000 C 
BRANCH  17  18
ATOM     18  C   UNL     1      48.731  -4.964  24.989  1.00  0.00     0.000 C 
BRANCH  18  19
ATOM     19  C   UNL     1      49.124  -6.425  24.694  1.00  0.00     0.000 C 
BRANCH  19  20
ATOM     20  C   UNL     1      48.018  -7.428  25.072  1.00  0.00     0.000 C 
BRANCH  20  21
ATOM     21  C   UNL     1      46.881  -7.472  24.041  1.00  0.00     0.000 C 
BRANCH  21  22
ATOM     22  C   UNL     1      45.488  -7.373  24.691  1.00  0.00    -0.000 C 
BRANCH  22  23
ATOM     23  C   UNL     1      45.510  -7.764  26.185  1.00  0.00    -0.000 C 
BRANCH  23  24
ATOM     24  C   UNL     1      44.896  -6.705  27.116  1.00  0.00    -0.000 C 
BRANCH  24  25
ATOM     25  C   UNL     1      43.817  -5.855  26.426  1.00  0.00    -0.000 C 
BRANCH  25  26
ATOM     26  C   UNL     1      42.916  -5.116  27.431  1.00  0.00    -0.000 C 
BRANCH  26  27
ATOM     27  C   UNL     1      42.847  -5.831  28.791  1.00  0.00    -0.000 C 
BRANCH  27  28
ATOM     28  C   UNL     1      41.404  -5.998  29.303  1.00  0.00    -0.000 C 
BRANCH  28  29
ATOM     29  C   UNL     1      41.259  -6.925  30.524  1.00  0.00    -0.003 C 
ATOM     30  C   UNL     1      40.139  -7.953  30.362  1.00  0.00     0.004 C 
ENDBRANCH  28  29
ENDBRANCH  27  28
ENDBRANCH  26  27
ENDBRANCH  25  26
ENDBRANCH  24  25
ENDBRANCH  23  24
ENDBRANCH  22  23
ENDBRANCH  21  22
ENDBRANCH  20  21
ENDBRANCH  19  20
ENDBRANCH  18  19
ENDBRANCH  17  18
ENDBRANCH   1  17
TORSDOF 26
ENDMDL
MODEL 4
REMARK VINA RESULT:    -5.450      2.529      3.634
REMARK INTER + INTRA:         -16.951
REMARK INTER:                 -13.524
REMARK INTRA:                  -3.427
REMARK UNBOUND:                -3.217
REMARK SMILES CCCCCCCCCCCCCCCCCCCCCCCCCCCC(=O)[O-]
REMARK SMILES IDX 15 1 16 2 17 3 18 4 19 5 20 6 21 7 22 8 23 9 24 10 25 11
REMARK SMILES IDX 26 12 27 13 28 14 29 15 30 16 14 17 13 18 12 19 11 20 10 21
REMARK SMILES IDX 9 22 8 23 7 24 6 25 5 26 4 27 3 28 2 29 1 30
REMARK H PARENT
REMARK Flexibility Score: inf
ROOT
ATOM      1  C   UNL     1      43.387  -2.066  29.431  1.00  0.00     0.000 C 
ENDROOT
BRANCH   1   2
ATOM      2  C   UNL     1      42.459  -1.840  30.639  1.00  0.00     0.000 C 
BRANCH   2   3
ATOM      3  C   UNL     1      41.341  -0.803  30.419  1.00  0.00     0.000 C 
BRANCH   3   4
ATOM      4  C   UNL     1      39.930  -1.415  30.493  1.00  0.00     0.000 C 
BRANCH   4   5
ATOM      5  C   UNL     1      39.898  -2.842  29.920  1.00  0.00     0.000 C 
BRANCH   5   6
ATOM      6  C   UNL     1      39.334  -2.889  28.484  1.00  0.00     0.000 C 
BRANCH   6   7
ATOM      7  C   UNL     1      39.509  -4.267  27.827  1.00  0.00     0.000 C 
BRANCH   7   8
ATOM      8  C   UNL     1      40.468  -4.207  26.623  1.00  0.00     0.000 C 
BRANCH   8   9
ATOM      9  C   UNL     1      41.730  -5.061  26.824  1.00  0.00     0.000 C 
BRANCH   9  10
ATOM     10  C   UNL     1      41.749  -5.821  28.168  1.00  0.00     0.000 C 
BRANCH  10  11
ATOM     11  C   UNL     1      42.883  -5.349  29.088  1.00  0.00     0.000 C 
BRANCH  11  12
ATOM     12  C   UNL     1      42.542  -5.614  30.561  1.00  0.00     0.006 C 
BRANCH  12  13
ATOM     13  C   UNL     1      41.835  -6.961  30.731  1.00  0.00     0.053 C 
BRANCH  13  14
ATOM     14  C   UNL     1      40.951  -6.939  31.939  1.00  0.00     0.041 C 
ATOM     15  O   UNL     1      41.315  -7.514  32.998  1.00  0.00    -0.550 OA
ATOM     16  O   UNL     1      39.742  -6.252  31.906  1.00  0.00    -0.550 OA
ENDBRANCH  13  14
ENDBRANCH  12  13
ENDBRANCH  11  12
ENDBRANCH  10  11
ENDBRANCH   9  10
ENDBRANCH   8   9
ENDBRANCH   7   8
ENDBRANCH   6   7
ENDBRANCH   5   6
ENDBRANCH   4   5
ENDBRANCH   3   4
ENDBRANCH   2   3
ENDBRANCH   1   2
BRANCH   1  17
ATOM     17  C   UNL     1      44.371  -0.903  29.208  1.00  0.00     0.000 C 
BRANCH  17  18
ATOM     18  C   UNL     1      45.474  -1.240  28.187  1.00  0.00     0.000 C 
BRANCH  18  19
ATOM     19  C   UNL     1      45.565  -2.731  27.809  1.00  0.00     0.000 C 
BRANCH  19  20
ATOM     20  C   UNL     1      46.821  -3.060  26.981  1.00  0.00     0.000 C 
BRANCH  20  21
ATOM     21  C   UNL     1      46.623  -4.273  26.060  1.00  0.00     0.000 C 
BRANCH  21  22
ATOM     22  C   UNL     1      45.387  -5.110  26.440  1.00  0.00    -0.000 C 
BRANCH  22  23
ATOM     23  C   UNL     1      45.769  -6.439  27.128  1.00  0.00    -0.000 C 
BRANCH  23  24
ATOM     24  C   UNL     1      45.628  -7.674  26.222  1.00  0.00    -0.000 C 
BRANCH  24  25
ATOM     25  C   UNL     1      45.159  -7.323  24.801  1.00  0.00    -0.000 C 
BRANCH  25  26
ATOM     26  C   UNL     1      46.268  -7.509  23.751  1.00  0.00    -0.000 C 
BRANCH  26  27
ATOM     27  C   UNL     1      47.669  -7.247  24.327  1.00  0.00    -0.000 C 
BRANCH  27  28
ATOM     28  C   UNL     1      48.793  -7.532  23.313  1.00  0.00    -0.000 C 
BRANCH  28  29
ATOM     29  C   UNL     1      48.308  -7.812  21.878  1.00  0.00    -0.003 C 
ATOM     30  C   UNL     1      49.450  -8.140  20.916  1.00  0.00     0.004 C 
ENDBRANCH  28  29
ENDBRANCH  27  28
ENDBRANCH  26  27
ENDBRANCH  25  26
ENDBRANCH  24  25
ENDBRANCH  23  24
ENDBRANCH  22  23
ENDBRANCH  21  22
ENDBRANCH  20  21
ENDBRANCH  19  20
ENDBRANCH  18  19
ENDBRANCH  17  18
ENDBRANCH   1  17
TORSDOF 26
ENDMDL
MODEL 5
REMARK VINA RESULT:    -5.382      1.654      4.213
REMARK INTER + INTRA:         -16.780
REMARK INTER:                 -13.181
REMARK INTRA:                  -3.599
REMARK UNBOUND:                -3.217
REMARK SMILES CCCCCCCCCCCCCCCCCCCCCCCCCCCC(=O)[O-]
REMARK SMILES IDX 15 1 16 2 17 3 18 4 19 5 20 6 21 7 22 8 23 9 24 10 25 11
REMARK SMILES IDX 26 12 27 13 28 14 29 15 30 16 14 17 13 18 12 19 11 20 10 21
REMARK SMILES IDX 9 22 8 23 7 24 6 25 5 26 4 27 3 28 2 29 1 30
REMARK H PARENT
REMARK Flexibility Score: inf
ROOT
ATOM      1  C   UNL     1      43.249  -4.776  28.494  1.00  0.00     0.000 C 
ENDROOT
BRANCH   1   2
ATOM      2  C   UNL     1      42.014  -4.191  29.203  1.00  0.00     0.000 C 
BRANCH   2   3
ATOM      3  C   UNL     1      41.925  -2.654  29.200  1.00  0.00     0.000 C 
BRANCH   3   4
ATOM      4  C   UNL     1      41.745  -2.059  30.608  1.00  0.00     0.000 C 
BRANCH   4   5
ATOM      5  C   UNL     1      41.062  -0.682  30.561  1.00  0.00     0.000 C 
BRANCH   5   6
ATOM      6  C   UNL     1      39.599  -0.766  30.075  1.00  0.00     0.000 C 
BRANCH   6   7
ATOM      7  C   UNL     1      38.834  -1.939  30.708  1.00  0.00     0.000 C 
BRANCH   7   8
ATOM      8  C   UNL     1      38.162  -2.824  29.641  1.00  0.00     0.000 C 
BRANCH   8   9
ATOM      9  C   UNL     1      38.347  -2.280  28.215  1.00  0.00     0.000 C 
BRANCH   9  10
ATOM     10  C   UNL     1      38.545  -3.387  27.156  1.00  0.00     0.000 C 
BRANCH  10  11
ATOM     11  C   UNL     1      38.049  -4.755  27.645  1.00  0.00     0.000 C 
BRANCH  11  12
ATOM     12  C   UNL     1      39.182  -5.789  27.625  1.00  0.00     0.006 C 
BRANCH  12  13
ATOM     13  C   UNL     1      39.398  -6.346  26.215  1.00  0.00     0.053 C 
BRANCH  13  14
ATOM     14  C   UNL     1      38.186  -7.096  25.757  1.00  0.00     0.041 C 
ATOM     15  O   UNL     1      37.743  -8.058  26.438  1.00  0.00    -0.550 OA
ATOM     16  O   UNL     1      37.524  -6.709  24.597  1.00  0.00    -0.550 OA
ENDBRANCH  13  14
ENDBRANCH  12  13
ENDBRANCH  11  12
ENDBRANCH  10  11
ENDBRANCH   9  10
ENDBRANCH   8   9
ENDBRANCH   7   8
ENDBRANCH   6   7
ENDBRANCH   5   6
ENDBRANCH   4   5
ENDBRANCH   3   4
ENDBRANCH   2   3
ENDBRANCH   1   2
BRANCH   1  17
ATOM     17  C   UNL     1      42.903  -5.461  27.159  1.00  0.00     0.000 C 
BRANCH  17  18
ATOM     18  C   UNL     1      44.152  -5.860  26.350  1.00  0.00     0.000 C 
BRANCH  18  19
ATOM     19  C   UNL     1      45.008  -6.968  26.995  1.00  0.00     0.000 C 
BRANCH  19  20
ATOM     20  C   UNL     1      45.505  -8.007  25.974  1.00  0.00     0.000 C 
BRANCH  20  21
ATOM     21  C   UNL     1      45.200  -7.607  24.523  1.00  0.00     0.000 C 
BRANCH  21  22
ATOM     22  C   UNL     1      46.456  -7.608  23.632  1.00  0.00    -0.000 C 
BRANCH  22  23
ATOM     23  C   UNL     1      47.750  -7.379  24.444  1.00  0.00    -0.000 C 
BRANCH  23  24
ATOM     24  C   UNL     1      48.476  -6.067  24.104  1.00  0.00    -0.000 C 
BRANCH  24  25
ATOM     25  C   UNL     1      48.692  -5.167  25.332  1.00  0.00    -0.000 C 
BRANCH  25  26
ATOM     26  C   UNL     1      47.368  -4.697  25.958  1.00  0.00    -0.000 C 
BRANCH  26  27
ATOM     27  C   UNL     1      47.474  -3.285  26.559  1.00  0.00    -0.000 C 
BRANCH  27  28
ATOM     28  C   UNL     1      46.190  -2.852  27.291  1.00  0.00    -0.000 C 
BRANCH  28  29
ATOM     29  C   UNL     1      46.140  -1.361  27.674  1.00  0.00    -0.003 C 
ATOM     30  C   UNL     1      44.902  -0.997  28.495  1.00  0.00     0.004 C 
ENDBRANCH  28  29
ENDBRANCH  27  28
ENDBRANCH  26  27
ENDBRANCH  25  26
ENDBRANCH  24  25
ENDBRANCH  23  24
ENDBRANCH  22  23
ENDBRANCH  21  22
ENDBRANCH  20  21
ENDBRANCH  19  20
ENDBRANCH  18  19
ENDBRANCH  17  18
ENDBRANCH   1  17
TORSDOF 26
ENDMDL
MODEL 6
REMARK VINA RESULT:    -5.368      3.614      9.185
REMARK INTER + INTRA:         -16.745
REMARK INTER:                 -13.871
REMARK INTRA:                  -2.874
REMARK UNBOUND:                -3.217
REMARK SMILES CCCCCCCCCCCCCCCCCCCCCCCCCCCC(=O)[O-]
REMARK SMILES IDX 15 1 16 2 17 3 18 4 19 5 20 6 21 7 22 8 23 9 24 10 25 11
REMARK SMILES IDX 26 12 27 13 28 14 29 15 30 16 14 17 13 18 12 19 11 20 10 21
REMARK SMILES IDX 9 22 8 23 7 24 6 25 5 26 4 27 3 28 2 29 1 30
REMARK H PARENT
REMARK Flexibility Score: inf
ROOT
ATOM      1  C   UNL     1      39.160  -1.757  29.397  1.00  0.00     0.000 C 
ENDROOT
BRANCH   1   2
ATOM      2  C   UNL     1      40.383  -2.488  29.982  1.00  0.00     0.000 C 
BRANCH   2   3
ATOM      3  C   UNL     1      41.735  -1.790  29.748  1.00  0.00     0.000 C 
BRANCH   3   4
ATOM      4  C   UNL     1      42.919  -2.774  29.695  1.00  0.00     0.000 C 
BRANCH   4   5
ATOM      5  C   UNL     1      42.510  -4.181  30.161  1.00  0.00     0.000 C 
BRANCH   5   6
ATOM      6  C   UNL     1      42.715  -5.248  29.066  1.00  0.00     0.000 C 
BRANCH   6   7
ATOM      7  C   UNL     1      43.557  -4.731  27.888  1.00  0.00     0.000 C 
BRANCH   7   8
ATOM      8  C   UNL     1      43.996  -5.875  26.955  1.00  0.00     0.000 C 
BRANCH   8   9
ATOM      9  C   UNL     1      45.477  -6.247  27.127  1.00  0.00     0.000 C 
BRANCH   9  10
ATOM     10  C   UNL     1      45.852  -7.594  26.472  1.00  0.00     0.000 C 
BRANCH  10  11
ATOM     11  C   UNL     1      45.514  -7.627  24.974  1.00  0.00     0.000 C 
BRANCH  11  12
ATOM     12  C   UNL     1      46.752  -7.309  24.125  1.00  0.00     0.006 C 
BRANCH  12  13
ATOM     13  C   UNL     1      48.023  -7.309  24.979  1.00  0.00     0.053 C 
BRANCH  13  14
ATOM     14  C   UNL     1      48.784  -6.034  24.785  1.00  0.00     0.041 C 
ATOM     15  O   UNL     1      48.562  -5.313  23.778  1.00  0.00    -0.550 OA
ATOM     16  O   UNL     1      49.712  -5.625  25.738  1.00  0.00    -0.550 OA
ENDBRANCH  13  14
ENDBRANCH  12  13
ENDBRANCH  11  12
ENDBRANCH  10  11
ENDBRANCH   9  10
ENDBRANCH   8   9
ENDBRANCH   7   8
ENDBRANCH   6   7
ENDBRANCH   5   6
ENDBRANCH   4   5
ENDBRANCH   3   4
ENDBRANCH   2   3
ENDBRANCH   1   2
BRANCH   1  17
ATOM     17  C   UNL     1      38.492  -2.534  28.249  1.00  0.00     0.000 C 
BRANCH  17  18
ATOM     18  C   UNL     1      39.022  -3.974  28.113  1.00  0.00     0.000 C 
BRANCH  18  19
ATOM     19  C   UNL     1      39.806  -4.250  26.816  1.00  0.00     0.000 C 
BRANCH  19  20
ATOM     20  C   UNL     1      39.987  -5.754  26.537  1.00  0.00     0.000 C 
BRANCH  20  21
ATOM     21  C   UNL     1      39.187  -6.637  27.506  1.00  0.00     0.000 C 
BRANCH  21  22
ATOM     22  C   UNL     1      38.551  -7.855  26.809  1.00  0.00    -0.000 C 
BRANCH  22  23
ATOM     23  C   UNL     1      37.181  -7.519  26.179  1.00  0.00    -0.000 C 
BRANCH  23  24
ATOM     24  C   UNL     1      37.277  -6.865  24.790  1.00  0.00    -0.000 C 
BRANCH  24  25
ATOM     25  C   UNL     1      36.031  -7.113  23.925  1.00  0.00    -0.000 C 
BRANCH  25  26
ATOM     26  C   UNL     1      34.833  -7.619  24.748  1.00  0.00    -0.000 C 
BRANCH  26  27
ATOM     27  C   UNL     1      33.570  -6.770  24.526  1.00  0.00    -0.000 C 
BRANCH  27  28
ATOM     28  C   UNL     1      32.844  -6.430  25.841  1.00  0.00    -0.000 C 
BRANCH  28  29
ATOM     29  C   UNL     1      33.661  -6.706  27.118  1.00  0.00    -0.003 C 
ATOM     30  C   UNL     1      33.914  -5.446  27.947  1.00  0.00     0.004 C 
ENDBRANCH  28  29
ENDBRANCH  27  28
ENDBRANCH  26  27
ENDBRANCH  25  26
ENDBRANCH  24  25
ENDBRANCH  23  24
ENDBRANCH  22  23
ENDBRANCH  21  22
ENDBRANCH  20  21
ENDBRANCH  19  20
ENDBRANCH  18  19
ENDBRANCH  17  18
ENDBRANCH   1  17
TORSDOF 26
ENDMDL
MODEL 7
REMARK VINA RESULT:    -5.322      2.002      3.468
REMARK INTER + INTRA:         -16.629
REMARK INTER:                 -14.186
REMARK INTRA:                  -2.443
REMARK UNBOUND:                -3.217
REMARK SMILES CCCCCCCCCCCCCCCCCCCCCCCCCCCC(=O)[O-]
REMARK SMILES IDX 15 1 16 2 17 3 18 4 19 5 20 6 21 7 22 8 23 9 24 10 25 11
REMARK SMILES IDX 26 12 27 13 28 14 29 15 30 16 14 17 13 18 12 19 11 20 10 21
REMARK SMILES IDX 9 22 8 23 7 24 6 25 5 26 4 27 3 28 2 29 1 30
REMARK H PARENT
REMARK Flexibility Score: inf
ROOT
ATOM      1  C   UNL     1      43.405  -2.125  29.187  1.00  0.00     0.000 C 
ENDROOT
BRANCH   1   2
ATOM      2  C   UNL     1      42.248  -2.387  30.170  1.00  0.00     0.000 C 
BRANCH   2   3
ATOM      3  C   UNL     1      40.891  -1.788  29.757  1.00  0.00     0.000 C 
BRANCH   3   4
ATOM      4  C   UNL     1      39.766  -2.837  29.691  1.00  0.00     0.000 C 
BRANCH   4   5
ATOM      5  C   UNL     1      38.722  -2.485  28.618  1.00  0.00     0.000 C 
BRANCH   5   6
ATOM      6  C   UNL     1      38.289  -3.714  27.791  1.00  0.00     0.000 C 
BRANCH   6   7
ATOM      7  C   UNL     1      39.291  -4.057  26.677  1.00  0.00     0.000 C 
BRANCH   7   8
ATOM      8  C   UNL     1      39.247  -5.554  26.313  1.00  0.00     0.000 C 
BRANCH   8   9
ATOM      9  C   UNL     1      38.328  -5.848  25.117  1.00  0.00     0.000 C 
BRANCH   9  10
ATOM     10  C   UNL     1      37.628  -7.222  25.203  1.00  0.00     0.000 C 
BRANCH  10  11
ATOM     11  C   UNL     1      36.262  -7.225  24.502  1.00  0.00     0.000 C 
BRANCH  11  12
ATOM     12  C   UNL     1      35.121  -7.103  25.521  1.00  0.00     0.006 C 
BRANCH  12  13
ATOM     13  C   UNL     1      35.504  -7.741  26.859  1.00  0.00     0.053 C 
BRANCH  13  14
ATOM     14  C   UNL     1      34.657  -8.946  27.126  1.00  0.00     0.041 C 
ATOM     15  O   UNL     1      35.157  -9.959  27.681  1.00  0.00    -0.550 OA
ATOM     16  O   UNL     1      33.306  -8.935  26.796  1.00  0.00    -0.550 OA
ENDBRANCH  13  14
ENDBRANCH  12  13
ENDBRANCH  11  12
ENDBRANCH  10  11
ENDBRANCH   9  10
ENDBRANCH   8   9
ENDBRANCH   7   8
ENDBRANCH   6   7
ENDBRANCH   5   6
ENDBRANCH   4   5
ENDBRANCH   3   4
ENDBRANCH   2   3
ENDBRANCH   1   2
BRANCH   1  17
ATOM     17  C   UNL     1      44.011  -3.421  28.619  1.00  0.00     0.000 C 
BRANCH  17  18
ATOM     18  C   UNL     1      42.965  -4.535  28.425  1.00  0.00     0.000 C 
BRANCH  18  19
ATOM     19  C   UNL     1      43.049  -5.265  27.070  1.00  0.00     0.000 C 
BRANCH  19  20
ATOM     20  C   UNL     1      44.499  -5.490  26.603  1.00  0.00     0.000 C 
BRANCH  20  21
ATOM     21  C   UNL     1      45.098  -6.798  27.139  1.00  0.00     0.000 C 
BRANCH  21  22
ATOM     22  C   UNL     1      45.538  -7.753  26.013  1.00  0.00    -0.000 C 
BRANCH  22  23
ATOM     23  C   UNL     1      45.240  -7.180  24.610  1.00  0.00    -0.000 C 
BRANCH  23  24
ATOM     24  C   UNL     1      45.649  -8.112  23.456  1.00  0.00    -0.000 C 
BRANCH  24  25
ATOM     25  C   UNL     1      46.484  -7.399  22.380  1.00  0.00    -0.000 C 
BRANCH  25  26
ATOM     26  C   UNL     1      47.923  -7.936  22.299  1.00  0.00    -0.000 C 
BRANCH  26  27
ATOM     27  C   UNL     1      48.904  -7.111  23.147  1.00  0.00    -0.000 C 
BRANCH  27  28
ATOM     28  C   UNL     1      49.007  -7.615  24.599  1.00  0.00    -0.000 C 
BRANCH  28  29
ATOM     29  C   UNL     1      49.094  -6.504  25.661  1.00  0.00    -0.003 C 
ATOM     30  C   UNL     1      50.412  -5.730  25.607  1.00  0.00     0.004 C 
ENDBRANCH  28  29
ENDBRANCH  27  28
ENDBRANCH  26  27
ENDBRANCH  25  26
ENDBRANCH  24  25
ENDBRANCH  23  24
ENDBRANCH  22  23
ENDBRANCH  21  22
ENDBRANCH  20  21
ENDBRANCH  19  20
ENDBRANCH  18  19
ENDBRANCH  17  18
ENDBRANCH   1  17
TORSDOF 26
ENDMDL
MODEL 8
REMARK VINA RESULT:    -5.266      1.647      4.235
REMARK INTER + INTRA:         -16.488
REMARK INTER:                 -12.786
REMARK INTRA:                  -3.701
REMARK UNBOUND:                -3.217
REMARK SMILES CCCCCCCCCCCCCCCCCCCCCCCCCCCC(=O)[O-]
REMARK SMILES IDX 15 1 16 2 17 3 18 4 19 5 20 6 21 7 22 8 23 9 24 10 25 11
REMARK SMILES IDX 26 12 27 13 28 14 29 15 30 16 14 17 13 18 12 19 11 20 10 21
REMARK SMILES IDX 9 22 8 23 7 24 6 25 5 26 4 27 3 28 2 29 1 30
REMARK H PARENT
REMARK Flexibility Score: inf
ROOT
ATOM      1  C   UNL     1      42.726  -5.996  33.026  1.00  0.00     0.000 C 
ENDROOT
BRANCH   1   2
ATOM      2  C   UNL     1      42.498  -5.853  31.510  1.00  0.00     0.000 C 
BRANCH   2   3
ATOM      3  C   UNL     1      41.374  -6.733  30.932  1.00  0.00     0.000 C 
BRANCH   3   4
ATOM      4  C   UNL     1      40.416  -5.957  30.010  1.00  0.00     0.000 C 
BRANCH   4   5
ATOM      5  C   UNL     1      39.521  -4.991  30.803  1.00  0.00     0.000 C 
BRANCH   5   6
ATOM      6  C   UNL     1      39.656  -3.531  30.320  1.00  0.00     0.000 C 
BRANCH   6   7
ATOM      7  C   UNL     1      38.343  -2.976  29.747  1.00  0.00     0.000 C 
BRANCH   7   8
ATOM      8  C   UNL     1      38.542  -2.378  28.341  1.00  0.00     0.000 C 
BRANCH   8   9
ATOM      9  C   UNL     1      38.291  -3.399  27.220  1.00  0.00     0.000 C 
BRANCH   9  10
ATOM     10  C   UNL     1      39.585  -4.038  26.670  1.00  0.00     0.000 C 
BRANCH  10  11
ATOM     11  C   UNL     1      39.425  -5.543  26.408  1.00  0.00     0.000 C 
BRANCH  11  12
ATOM     12  C   UNL     1      37.945  -5.922  26.269  1.00  0.00     0.006 C 
BRANCH  12  13
ATOM     13  C   UNL     1      37.780  -7.240  25.509  1.00  0.00     0.053 C 
BRANCH  13  14
ATOM     14  C   UNL     1      36.383  -7.374  24.989  1.00  0.00     0.041 C 
ATOM     15  O   UNL     1      36.079  -6.897  23.864  1.00  0.00    -0.550 OA
ATOM     16  O   UNL     1      35.426  -8.060  25.730  1.00  0.00    -0.550 OA
ENDBRANCH  13  14
ENDBRANCH  12  13
ENDBRANCH  11  12
ENDBRANCH  10  11
ENDBRANCH   9  10
ENDBRANCH   8   9
ENDBRANCH   7   8
ENDBRANCH   6   7
ENDBRANCH   5   6
ENDBRANCH   4   5
ENDBRANCH   3   4
ENDBRANCH   2   3
ENDBRANCH   1   2
BRANCH   1  17
ATOM     17  C   UNL     1      43.301  -4.719  33.666  1.00  0.00     0.000 C 
BRANCH  17  18
ATOM     18  C   UNL     1      42.469  -3.463  33.348  1.00  0.00     0.000 C 
BRANCH  18  19
ATOM     19  C   UNL     1      43.235  -2.361  32.590  1.00  0.00     0.000 C 
BRANCH  19  20
ATOM     20  C   UNL     1      42.557  -1.968  31.265  1.00  0.00     0.000 C 
BRANCH  20  21
ATOM     21  C   UNL     1      43.498  -1.202  30.322  1.00  0.00     0.000 C 
BRANCH  21  22
ATOM     22  C   UNL     1      43.928  -2.041  29.104  1.00  0.00    -0.000 C 
BRANCH  22  23
ATOM     23  C   UNL     1      42.974  -3.226  28.843  1.00  0.00    -0.000 C 
BRANCH  23  24
ATOM     24  C   UNL     1      43.693  -4.552  28.542  1.00  0.00    -0.000 C 
BRANCH  24  25
ATOM     25  C   UNL     1      43.183  -5.233  27.262  1.00  0.00    -0.000 C 
BRANCH  25  26
ATOM     26  C   UNL     1      44.327  -5.711  26.352  1.00  0.00    -0.000 C 
BRANCH  26  27
ATOM     27  C   UNL     1      45.356  -6.568  27.108  1.00  0.00    -0.000 C 
BRANCH  27  28
ATOM     28  C   UNL     1      45.837  -7.781  26.289  1.00  0.00    -0.000 C 
BRANCH  28  29
ATOM     29  C   UNL     1      46.567  -7.425  24.980  1.00  0.00    -0.003 C 
ATOM     30  C   UNL     1      48.088  -7.387  25.137  1.00  0.00     0.004 C 
ENDBRANCH  28  29
ENDBRANCH  27  28
ENDBRANCH  26  27
ENDBRANCH  25  26
ENDBRANCH  24  25
ENDBRANCH  23  24
ENDBRANCH  22  23
ENDBRANCH  21  22
ENDBRANCH  20  21
ENDBRANCH  19  20
ENDBRANCH  18  19
ENDBRANCH  17  18
ENDBRANCH   1  17
TORSDOF 26
ENDMDL
MODEL 9
REMARK VINA RESULT:    -5.261      1.532      2.679
REMARK INTER + INTRA:         -16.475
REMARK INTER:                 -11.758
REMARK INTRA:                  -4.717
REMARK UNBOUND:                -3.217
REMARK SMILES CCCCCCCCCCCCCCCCCCCCCCCCCCCC(=O)[O-]
REMARK SMILES IDX 15 1 16 2 17 3 18 4 19 5 20 6 21 7 22 8 23 9 24 10 25 11
REMARK SMILES IDX 26 12 27 13 28 14 29 15 30 16 14 17 13 18 12 19 11 20 10 21
REMARK SMILES IDX 9 22 8 23 7 24 6 25 5 26 4 27 3 28 2 29 1 30
REMARK H PARENT
REMARK Flexibility Score: inf
ROOT
ATOM      1  C   UNL     1      41.854  -1.348  29.906  1.00  0.00     0.000 C 
ENDROOT
BRANCH   1   2
ATOM      2  C   UNL     1      40.786  -1.720  30.951  1.00  0.00     0.000 C 
BRANCH   2   3
ATOM      3  C   UNL     1      39.708  -2.705  30.462  1.00  0.00     0.000 C 
BRANCH   3   4
ATOM      4  C   UNL     1      39.182  -3.625  31.580  1.00  0.00     0.000 C 
BRANCH   4   5
ATOM      5  C   UNL     1      39.844  -3.313  32.932  1.00  0.00     0.000 C 
BRANCH   5   6
ATOM      6  C   UNL     1      40.657  -4.506  33.479  1.00  0.00     0.000 C 
BRANCH   6   7
ATOM      7  C   UNL     1      42.172  -4.251  33.448  1.00  0.00     0.000 C 
BRANCH   7   8
ATOM      8  C   UNL     1      42.799  -4.700  32.115  1.00  0.00     0.000 C 
BRANCH   8   9
ATOM      9  C   UNL     1      42.279  -6.068  31.644  1.00  0.00     0.000 C 
BRANCH   9  10
ATOM     10  C   UNL     1      41.834  -6.080  30.165  1.00  0.00     0.000 C 
BRANCH  10  11
ATOM     11  C   UNL     1      42.543  -5.000  29.335  1.00  0.00     0.000 C 
BRANCH  11  12
ATOM     12  C   UNL     1      41.821  -4.770  28.001  1.00  0.00     0.006 C 
BRANCH  12  13
ATOM     13  C   UNL     1      40.357  -5.210  28.082  1.00  0.00     0.053 C 
BRANCH  13  14
ATOM     14  C   UNL     1      39.701  -5.099  26.741  1.00  0.00     0.041 C 
ATOM     15  O   UNL     1      39.395  -3.968  26.280  1.00  0.00    -0.550 OA
ATOM     16  O   UNL     1      39.464  -6.241  25.984  1.00  0.00    -0.550 OA
ENDBRANCH  13  14
ENDBRANCH  12  13
ENDBRANCH  11  12
ENDBRANCH  10  11
ENDBRANCH   9  10
ENDBRANCH   8   9
ENDBRANCH   7   8
ENDBRANCH   6   7
ENDBRANCH   5   6
ENDBRANCH   4   5
ENDBRANCH   3   4
ENDBRANCH   2   3
ENDBRANCH   1   2
BRANCH   1  17
ATOM     17  C   UNL     1      43.284  -1.385  30.475  1.00  0.00     0.000 C 
BRANCH  17  18
ATOM     18  C   UNL     1      44.358  -1.081  29.413  1.00  0.00     0.000 C 
BRANCH  18  19
ATOM     19  C   UNL     1      44.644  -2.240  28.439  1.00  0.00     0.000 C 
BRANCH  19  20
ATOM     20  C   UNL     1      45.927  -2.024  27.616  1.00  0.00     0.000 C 
BRANCH  20  21
ATOM     21  C   UNL     1      46.545  -3.342  27.125  1.00  0.00     0.000 C 
BRANCH  21  22
ATOM     22  C   UNL     1      45.720  -4.575  27.542  1.00  0.00    -0.000 C 
BRANCH  22  23
ATOM     23  C   UNL     1      45.277  -5.419  26.328  1.00  0.00    -0.000 C 
BRANCH  23  24
ATOM     24  C   UNL     1      45.113  -6.917  26.636  1.00  0.00    -0.000 C 
BRANCH  24  25
ATOM     25  C   UNL     1      45.844  -7.819  25.627  1.00  0.00    -0.000 C 
BRANCH  25  26
ATOM     26  C   UNL     1      45.616  -7.379  24.171  1.00  0.00    -0.000 C 
BRANCH  26  27
ATOM     27  C   UNL     1      46.818  -7.700  23.267  1.00  0.00    -0.000 C 
BRANCH  27  28
ATOM     28  C   UNL     1      48.168  -7.379  23.937  1.00  0.00    -0.000 C 
BRANCH  28  29
ATOM     29  C   UNL     1      48.424  -5.880  24.181  1.00  0.00    -0.003 C 
ATOM     30  C   UNL     1      49.082  -5.600  25.533  1.00  0.00     0.004 C 
ENDBRANCH  28  29
ENDBRANCH  27  28
ENDBRANCH  26  27
ENDBRANCH  25  26
ENDBRANCH  24  25
ENDBRANCH  23  24
ENDBRANCH  22  23
ENDBRANCH  21  22
ENDBRANCH  20  21
ENDBRANCH  19  20
ENDBRANCH  18  19
ENDBRANCH  17  18
ENDBRANCH   1  17
TORSDOF 26
ENDMDL
