MODEL 1
REMARK VINA RESULT:    71.177      0.000      0.000
REMARK INTER + INTRA:         105.499
REMARK INTER:                 104.466
REMARK INTRA:                   1.033
REMARK UNBOUND:                 1.033
REMARK SMILES Cc1cc2c(C(C)C)c(O)c(O)c(C=O)c2c(O)c1-c1c(C)cc2c(C(C)C)c(O)c(O)c(C=O)c2c1O
REMARK SMILES IDX 1 1 2 2 3 3 4 4 16 5 13 6 11 7 9 8 5 9 17 10 19 11 20 12
REMARK SMILES IDX 37 13 21 14 36 15 23 16 22 17 24 18 33 19 25 20 31 21 29 22
REMARK SMILES IDX 38 23 34 25 35 26 26 27 27 28 28 29 32 30 30 32 18 34 6 36
REMARK SMILES IDX 7 37 8 38 14 39 15 40 10 41 12 43
REMARK H PARENT 38 24 32 31 30 33 18 35 10 42 12 44
REMARK Flexibility Score: inf
ROOT
ATOM      1  C   UNL     1     -18.514   4.184 -18.091  1.00  0.00     0.045 C 
ATOM      2  C   UNL     1     -19.033   5.439 -18.751  1.00  0.00    -0.039 A 
ATOM      3  C   UNL     1     -18.376   5.941 -19.875  1.00  0.00     0.013 A 
ATOM      4  C   UNL     1     -18.783   7.127 -20.514  1.00  0.00    -0.006 A 
ATOM      5  C   UNL     1     -19.948   7.799 -20.028  1.00  0.00     0.039 A 
ATOM      6  C   UNL     1     -20.370   9.000 -20.672  1.00  0.00     0.072 A 
ATOM      7  C   UNL     1     -19.780   9.378 -21.888  1.00  0.00     0.169 A 
ATOM      8  C   UNL     1     -18.690   8.671 -22.404  1.00  0.00     0.162 A 
ATOM      9  C   UNL     1     -18.077   7.642 -21.648  1.00  0.00     0.008 A 
ATOM     10  C   UNL     1     -20.682   7.223 -18.949  1.00  0.00     0.132 A 
ATOM     11  C   UNL     1     -20.202   6.068 -18.296  1.00  0.00     0.031 A 
ENDROOT
BRANCH  11  12
ATOM     12  C   UNL     1     -20.953   5.483 -17.155  1.00  0.00     0.031 A 
ATOM     13  C   UNL     1     -20.560   5.762 -15.828  1.00  0.00     0.132 A 
ATOM     14  C   UNL     1     -22.058   4.651 -17.401  1.00  0.00    -0.039 A 
ATOM     15  C   UNL     1     -21.275   5.196 -14.729  1.00  0.00     0.039 A 
ATOM     16  C   UNL     1     -22.706   4.034 -16.329  1.00  0.00     0.013 A 
ATOM     17  C   UNL     1     -22.575   4.432 -18.803  1.00  0.00     0.045 C 
ATOM     18  C   UNL     1     -22.282   4.224 -14.996  1.00  0.00    -0.006 A 
ATOM     19  C   UNL     1     -21.007   5.558 -13.375  1.00  0.00     0.072 A 
ATOM     20  C   UNL     1     -22.866   3.482 -13.926  1.00  0.00     0.008 A 
ATOM     21  C   UNL     1     -21.732   4.945 -12.330  1.00  0.00     0.169 A 
ATOM     22  C   UNL     1     -22.640   3.917 -12.602  1.00  0.00     0.162 A 
BRANCH  13  23
ATOM     23  O   UNL     1     -19.443   6.575 -15.603  1.00  0.00    -0.507 OA
ATOM     24  H   UNL     1     -19.302   7.121 -14.763  1.00  0.00     0.293 HD
ENDBRANCH  13  23
BRANCH  19  25
ATOM     25  C   UNL     1     -20.057   6.633 -13.028  1.00  0.00     0.264 C 
ATOM     26  O   UNL     1     -20.245   7.811 -13.432  1.00  0.00    -0.298 OA
ENDBRANCH  19  25
BRANCH  20  27
ATOM     27  C   UNL     1     -23.739   2.241 -14.185  1.00  0.00     0.017 C 
ATOM     28  C   UNL     1     -23.639   1.248 -13.023  1.00  0.00     0.012 C 
ATOM     29  C   UNL     1     -23.455   1.554 -15.535  1.00  0.00     0.012 C 
ENDBRANCH  20  27
BRANCH  21  30
ATOM     30  O   UNL     1     -21.586   5.353 -10.998  1.00  0.00    -0.504 OA
ATOM     31  H   UNL     1     -22.354   5.635 -10.403  1.00  0.00     0.293 HD
ENDBRANCH  21  30
BRANCH  22  32
ATOM     32  O   UNL     1     -23.348   3.335 -11.549  1.00  0.00    -0.504 OA
ATOM     33  H   UNL     1     -22.941   2.655 -10.917  1.00  0.00     0.293 HD
ENDBRANCH  22  32
ENDBRANCH  11  12
BRANCH  10  34
ATOM     34  O   UNL     1     -21.912   7.767 -18.560  1.00  0.00    -0.507 OA
ATOM     35  H   UNL     1     -22.016   8.469 -17.839  1.00  0.00     0.293 HD
ENDBRANCH  10  34
BRANCH   9  36
ATOM     36  C   UNL     1     -16.658   7.196 -22.051  1.00  0.00     0.017 C 
ATOM     37  C   UNL     1     -15.805   6.652 -20.888  1.00  0.00     0.012 C 
ATOM     38  C   UNL     1     -16.650   6.278 -23.281  1.00  0.00     0.012 C 
ENDBRANCH   9  36
BRANCH   6  39
ATOM     39  C   UNL     1     -21.366   9.916 -20.062  1.00  0.00     0.264 C 
ATOM     40  O   UNL     1     -21.314  11.161 -20.248  1.00  0.00    -0.298 OA
ENDBRANCH   6  39
BRANCH   8  41
ATOM     41  O   UNL     1     -18.232   9.023 -23.679  1.00  0.00    -0.504 OA
ATOM     42  H   UNL     1     -18.493   8.534 -24.525  1.00  0.00     0.293 HD
ENDBRANCH   8  41
BRANCH   7  43
ATOM     43  O   UNL     1     -20.274  10.490 -22.580  1.00  0.00    -0.504 OA
ATOM     44  H   UNL     1     -19.919  10.778 -23.483  1.00  0.00     0.293 HD
ENDBRANCH   7  43
TORSDOF 11
ENDMDL
MODEL 2
REMARK VINA RESULT:    71.491      2.062      9.248
REMARK INTER + INTRA:         105.959
REMARK INTER:                 105.092
REMARK INTRA:                   0.867
REMARK UNBOUND:                 1.033
REMARK SMILES Cc1cc2c(C(C)C)c(O)c(O)c(C=O)c2c(O)c1-c1c(C)cc2c(C(C)C)c(O)c(O)c(C=O)c2c1O
REMARK SMILES IDX 1 1 2 2 3 3 4 4 16 5 13 6 11 7 9 8 5 9 17 10 19 11 20 12
REMARK SMILES IDX 37 13 21 14 36 15 23 16 22 17 24 18 33 19 25 20 31 21 29 22
REMARK SMILES IDX 38 23 34 25 35 26 26 27 27 28 28 29 32 30 30 32 18 34 6 36
REMARK SMILES IDX 7 37 8 38 14 39 15 40 10 41 12 43
REMARK H PARENT 38 24 32 31 30 33 18 35 10 42 12 44
REMARK Flexibility Score: inf
ROOT
ATOM      1  C   UNL     1     -20.377   6.993 -14.421  1.00  0.00     0.045 C 
ATOM      2  C   UNL     1     -21.147   5.694 -14.400  1.00  0.00    -0.039 A 
ATOM      3  C   UNL     1     -21.642   5.214 -13.187  1.00  0.00     0.013 A 
ATOM      4  C   UNL     1     -22.333   3.992 -13.091  1.00  0.00    -0.006 A 
ATOM      5  C   UNL     1     -22.588   3.255 -14.289  1.00  0.00     0.039 A 
ATOM      6  C   UNL     1     -23.290   2.017 -14.202  1.00  0.00     0.072 A 
ATOM      7  C   UNL     1     -23.907   1.654 -12.993  1.00  0.00     0.169 A 
ATOM      8  C   UNL     1     -23.723   2.420 -11.839  1.00  0.00     0.162 A 
ATOM      9  C   UNL     1     -22.808   3.501 -11.832  1.00  0.00     0.008 A 
ATOM     10  C   UNL     1     -22.178   3.802 -15.541  1.00  0.00     0.132 A 
ATOM     11  C   UNL     1     -21.431   4.999 -15.585  1.00  0.00     0.031 A 
ENDROOT
BRANCH  11  12
ATOM     12  C   UNL     1     -20.981   5.555 -16.888  1.00  0.00     0.031 A 
ATOM     13  C   UNL     1     -19.657   5.347 -17.330  1.00  0.00     0.132 A 
ATOM     14  C   UNL     1     -21.879   6.291 -17.678  1.00  0.00    -0.039 A 
ATOM     15  C   UNL     1     -19.219   5.886 -18.578  1.00  0.00     0.039 A 
ATOM     16  C   UNL     1     -21.428   6.886 -18.858  1.00  0.00     0.013 A 
ATOM     17  C   UNL     1     -23.332   6.429 -17.289  1.00  0.00     0.045 C 
ATOM     18  C   UNL     1     -20.088   6.769 -19.284  1.00  0.00    -0.006 A 
ATOM     19  C   UNL     1     -17.940   5.586 -19.134  1.00  0.00     0.072 A 
ATOM     20  C   UNL     1     -19.609   7.493 -20.417  1.00  0.00     0.008 A 
ATOM     21  C   UNL     1     -17.555   6.170 -20.360  1.00  0.00     0.169 A 
ATOM     22  C   UNL     1     -18.373   7.116 -20.985  1.00  0.00     0.162 A 
BRANCH  13  23
ATOM     23  O   UNL     1     -18.770   4.630 -16.518  1.00  0.00    -0.507 OA
ATOM     24  H   UNL     1     -18.597   4.845 -15.545  1.00  0.00     0.293 HD
ENDBRANCH  13  23
BRANCH  19  25
ATOM     25  C   UNL     1     -17.032   4.599 -18.516  1.00  0.00     0.264 C 
ATOM     26  O   UNL     1     -17.365   3.387 -18.430  1.00  0.00    -0.298 OA
ENDBRANCH  19  25
BRANCH  20  27
ATOM     27  C   UNL     1     -20.411   8.654 -21.030  1.00  0.00     0.017 C 
ATOM     28  C   UNL     1     -19.485   9.805 -21.441  1.00  0.00     0.012 C 
ATOM     29  C   UNL     1     -21.564   9.153 -20.137  1.00  0.00     0.012 C 
ENDBRANCH  20  27
BRANCH  21  30
ATOM     30  O   UNL     1     -16.361   5.813 -21.000  1.00  0.00    -0.504 OA
ATOM     31  H   UNL     1     -16.288   5.596 -21.986  1.00  0.00     0.293 HD
ENDBRANCH  21  30
BRANCH  22  32
ATOM     32  O   UNL     1     -17.969   7.671 -22.201  1.00  0.00    -0.504 OA
ATOM     33  H   UNL     1     -18.548   8.304 -22.741  1.00  0.00     0.293 HD
ENDBRANCH  22  32
ENDBRANCH  11  12
BRANCH  10  34
ATOM     34  O   UNL     1     -22.555   3.187 -16.741  1.00  0.00    -0.507 OA
ATOM     35  H   UNL     1     -21.918   2.679 -17.339  1.00  0.00     0.293 HD
ENDBRANCH  10  34
BRANCH   9  36
ATOM     36  C   UNL     1     -22.325   4.031 -10.467  1.00  0.00     0.017 C 
ATOM     37  C   UNL     1     -20.915   4.653 -10.486  1.00  0.00     0.012 C 
ATOM     38  C   UNL     1     -23.365   4.922  -9.774  1.00  0.00     0.012 C 
ENDBRANCH   9  36
BRANCH   6  39
ATOM     39  C   UNL     1     -23.332   1.050 -15.327  1.00  0.00     0.264 C 
ATOM     40  O   UNL     1     -23.322  -0.194 -15.125  1.00  0.00    -0.298 OA
ENDBRANCH   6  39
BRANCH   8  41
ATOM     41  O   UNL     1     -24.465   2.074 -10.704  1.00  0.00    -0.504 OA
ATOM     42  H   UNL     1     -25.341   2.511 -10.450  1.00  0.00     0.293 HD
ENDBRANCH   8  41
BRANCH   7  43
ATOM     43  O   UNL     1     -24.696   0.499 -12.939  1.00  0.00    -0.504 OA
ATOM     44  H   UNL     1     -25.674   0.513 -12.683  1.00  0.00     0.293 HD
ENDBRANCH   7  43
TORSDOF 11
ENDMDL
MODEL 3
REMARK VINA RESULT:    73.731      0.752      8.933
REMARK INTER + INTRA:         109.247
REMARK INTER:                 108.490
REMARK INTRA:                   0.757
REMARK UNBOUND:                 1.033
REMARK SMILES Cc1cc2c(C(C)C)c(O)c(O)c(C=O)c2c(O)c1-c1c(C)cc2c(C(C)C)c(O)c(O)c(C=O)c2c1O
REMARK SMILES IDX 1 1 2 2 3 3 4 4 16 5 13 6 11 7 9 8 5 9 17 10 19 11 20 12
REMARK SMILES IDX 37 13 21 14 36 15 23 16 22 17 24 18 33 19 25 20 31 21 29 22
REMARK SMILES IDX 38 23 34 25 35 26 26 27 27 28 28 29 32 30 30 32 18 34 6 36
REMARK SMILES IDX 7 37 8 38 14 39 15 40 10 41 12 43
REMARK H PARENT 38 24 32 31 30 33 18 35 10 42 12 44
REMARK Flexibility Score: inf
ROOT
ATOM      1  C   UNL     1     -22.008   3.932 -19.130  1.00  0.00     0.045 C 
ATOM      2  C   UNL     1     -21.836   4.291 -17.674  1.00  0.00    -0.039 A 
ATOM      3  C   UNL     1     -22.442   3.498 -16.699  1.00  0.00     0.013 A 
ATOM      4  C   UNL     1     -22.355   3.799 -15.327  1.00  0.00    -0.006 A 
ATOM      5  C   UNL     1     -21.564   4.920 -14.923  1.00  0.00     0.039 A 
ATOM      6  C   UNL     1     -21.467   5.230 -13.534  1.00  0.00     0.072 A 
ATOM      7  C   UNL     1     -21.956   4.319 -12.585  1.00  0.00     0.169 A 
ATOM      8  C   UNL     1     -22.661   3.180 -12.984  1.00  0.00     0.162 A 
ATOM      9  C   UNL     1     -23.009   2.990 -14.344  1.00  0.00     0.008 A 
ATOM     10  C   UNL     1     -20.855   5.663 -15.913  1.00  0.00     0.132 A 
ATOM     11  C   UNL     1     -21.022   5.366 -17.282  1.00  0.00     0.031 A 
ENDROOT
BRANCH  11  12
ATOM     12  C   UNL     1     -20.304   6.157 -18.316  1.00  0.00     0.031 A 
ATOM     13  C   UNL     1     -20.908   7.300 -18.883  1.00  0.00     0.132 A 
ATOM     14  C   UNL     1     -19.020   5.762 -18.727  1.00  0.00    -0.039 A 
ATOM     15  C   UNL     1     -20.224   8.058 -19.881  1.00  0.00     0.039 A 
ATOM     16  C   UNL     1     -18.386   6.456 -19.760  1.00  0.00     0.013 A 
ATOM     17  C   UNL     1     -18.301   4.617 -18.055  1.00  0.00     0.045 C 
ATOM     18  C   UNL     1     -19.000   7.550 -20.406  1.00  0.00    -0.006 A 
ATOM     19  C   UNL     1     -20.728   9.296 -20.380  1.00  0.00     0.072 A 
ATOM     20  C   UNL     1     -18.400   8.162 -21.548  1.00  0.00     0.008 A 
ATOM     21  C   UNL     1     -20.017   9.987 -21.385  1.00  0.00     0.169 A 
ATOM     22  C   UNL     1     -18.877   9.423 -21.965  1.00  0.00     0.162 A 
BRANCH  13  23
ATOM     23  O   UNL     1     -22.197   7.664 -18.476  1.00  0.00    -0.507 OA
ATOM     24  H   UNL     1     -22.910   7.002 -18.199  1.00  0.00     0.293 HD
ENDBRANCH  13  23
BRANCH  19  25
ATOM     25  C   UNL     1     -21.930   9.937 -19.809  1.00  0.00     0.264 C 
ATOM     26  O   UNL     1     -22.387  11.001 -20.304  1.00  0.00    -0.298 OA
ENDBRANCH  19  25
BRANCH  20  27
ATOM     27  C   UNL     1     -17.248   7.487 -22.313  1.00  0.00     0.017 C 
ATOM     28  C   UNL     1     -17.784   6.465 -23.322  1.00  0.00     0.012 C 
ATOM     29  C   UNL     1     -16.177   6.862 -21.398  1.00  0.00     0.012 C 
ENDBRANCH  20  27
BRANCH  21  30
ATOM     30  O   UNL     1     -20.412  11.258 -21.820  1.00  0.00    -0.504 OA
ATOM     31  H   UNL     1     -20.502  12.064 -21.213  1.00  0.00     0.293 HD
ENDBRANCH  21  30
BRANCH  22  32
ATOM     32  O   UNL     1     -18.191  10.134 -22.952  1.00  0.00    -0.504 OA
ATOM     33  H   UNL     1     -18.657  10.681 -23.666  1.00  0.00     0.293 HD
ENDBRANCH  22  32
ENDBRANCH  11  12
BRANCH  10  34
ATOM     34  O   UNL     1     -19.947   6.659 -15.536  1.00  0.00    -0.507 OA
ATOM     35  H   UNL     1     -18.971   6.485 -15.331  1.00  0.00     0.293 HD
ENDBRANCH  10  34
BRANCH   9  36
ATOM     36  C   UNL     1     -24.124   1.976 -14.670  1.00  0.00     0.017 C 
ATOM     37  C   UNL     1     -23.746   0.934 -15.740  1.00  0.00     0.012 C 
ATOM     38  C   UNL     1     -24.743   1.350 -13.413  1.00  0.00     0.012 C 
ENDBRANCH   9  36
BRANCH   6  39
ATOM     39  C   UNL     1     -20.932   6.528 -13.049  1.00  0.00     0.264 C 
ATOM     40  O   UNL     1     -19.693   6.728 -12.942  1.00  0.00    -0.298 OA
ENDBRANCH   6  39
BRANCH   8  41
ATOM     41  O   UNL     1     -23.008   2.252 -11.996  1.00  0.00    -0.504 OA
ATOM     42  H   UNL     1     -22.352   1.864 -11.332  1.00  0.00     0.293 HD
ENDBRANCH   8  41
BRANCH   7  43
ATOM     43  O   UNL     1     -21.755   4.566 -11.222  1.00  0.00    -0.504 OA
ATOM     44  H   UNL     1     -21.372   3.876 -10.588  1.00  0.00     0.293 HD
ENDBRANCH   7  43
TORSDOF 11
ENDMDL
MODEL 4
REMARK VINA RESULT:    73.793      2.066      4.505
REMARK INTER + INTRA:         109.338
REMARK INTER:                 109.143
REMARK INTRA:                   0.195
REMARK UNBOUND:                 1.033
REMARK SMILES Cc1cc2c(C(C)C)c(O)c(O)c(C=O)c2c(O)c1-c1c(C)cc2c(C(C)C)c(O)c(O)c(C=O)c2c1O
REMARK SMILES IDX 1 1 2 2 3 3 4 4 16 5 13 6 11 7 9 8 5 9 17 10 19 11 20 12
REMARK SMILES IDX 37 13 21 14 36 15 23 16 22 17 24 18 33 19 25 20 31 21 29 22
REMARK SMILES IDX 38 23 34 25 35 26 26 27 27 28 28 29 32 30 30 32 18 34 6 36
REMARK SMILES IDX 7 37 8 38 14 39 15 40 10 41 12 43
REMARK H PARENT 38 24 32 31 30 33 18 35 10 42 12 44
REMARK Flexibility Score: inf
ROOT
ATOM      1  C   UNL     1     -23.362   7.021 -16.643  1.00  0.00     0.045 C 
ATOM      2  C   UNL     1     -22.069   6.728 -17.364  1.00  0.00    -0.039 A 
ATOM      3  C   UNL     1     -21.707   7.510 -18.461  1.00  0.00     0.013 A 
ATOM      4  C   UNL     1     -20.535   7.265 -19.202  1.00  0.00    -0.006 A 
ATOM      5  C   UNL     1     -19.660   6.220 -18.771  1.00  0.00     0.039 A 
ATOM      6  C   UNL     1     -18.469   5.967 -19.513  1.00  0.00     0.072 A 
ATOM      7  C   UNL     1     -18.066   6.874 -20.506  1.00  0.00     0.169 A 
ATOM      8  C   UNL     1     -18.887   7.944 -20.872  1.00  0.00     0.162 A 
ATOM      9  C   UNL     1     -20.196   8.060 -20.344  1.00  0.00     0.008 A 
ATOM     10  C   UNL     1     -19.977   5.495 -17.583  1.00  0.00     0.132 A 
ATOM     11  C   UNL     1     -21.193   5.729 -16.908  1.00  0.00     0.031 A 
ENDROOT
BRANCH  11  12
ATOM     12  C   UNL     1     -21.536   4.956 -15.686  1.00  0.00     0.031 A 
ATOM     13  C   UNL     1     -22.287   3.765 -15.786  1.00  0.00     0.132 A 
ATOM     14  C   UNL     1     -21.109   5.415 -14.429  1.00  0.00    -0.039 A 
ATOM     15  C   UNL     1     -22.623   3.023 -14.614  1.00  0.00     0.039 A 
ATOM     16  C   UNL     1     -21.507   4.734 -13.277  1.00  0.00     0.013 A 
ATOM     17  C   UNL     1     -20.205   6.618 -14.301  1.00  0.00     0.045 C 
ATOM     18  C   UNL     1     -22.330   3.588 -13.339  1.00  0.00    -0.006 A 
ATOM     19  C   UNL     1     -23.255   1.744 -14.672  1.00  0.00     0.072 A 
ATOM     20  C   UNL     1     -22.840   2.984 -12.151  1.00  0.00     0.008 A 
ATOM     21  C   UNL     1     -23.585   1.071 -13.477  1.00  0.00     0.169 A 
ATOM     22  C   UNL     1     -23.389   1.686 -12.237  1.00  0.00     0.162 A 
BRANCH  13  23
ATOM     23  O   UNL     1     -22.722   3.335 -17.046  1.00  0.00    -0.507 OA
ATOM     24  H   UNL     1     -22.554   3.843 -17.904  1.00  0.00     0.293 HD
ENDBRANCH  13  23
BRANCH  19  25
ATOM     25  C   UNL     1     -23.491   1.049 -15.954  1.00  0.00     0.264 C 
ATOM     26  O   UNL     1     -24.169  -0.012 -15.993  1.00  0.00    -0.298 OA
ENDBRANCH  19  25
BRANCH  20  27
ATOM     27  C   UNL     1     -22.790   3.705 -10.792  1.00  0.00     0.017 C 
ATOM     28  C   UNL     1     -23.958   4.687 -10.650  1.00  0.00     0.012 C 
ATOM     29  C   UNL     1     -21.441   4.393 -10.503  1.00  0.00     0.012 C 
ENDBRANCH  20  27
BRANCH  21  30
ATOM     30  O   UNL     1     -24.097  -0.233 -13.486  1.00  0.00    -0.504 OA
ATOM     31  H   UNL     1     -24.423  -0.722 -12.662  1.00  0.00     0.293 HD
ENDBRANCH  21  30
BRANCH  22  32
ATOM     32  O   UNL     1     -23.717   0.992 -11.071  1.00  0.00    -0.504 OA
ATOM     33  H   UNL     1     -23.073   0.371 -10.595  1.00  0.00     0.293 HD
ENDBRANCH  22  32
ENDBRANCH  11  12
BRANCH  10  34
ATOM     34  O   UNL     1     -19.062   4.581 -17.047  1.00  0.00    -0.507 OA
ATOM     35  H   UNL     1     -19.329   3.752 -16.532  1.00  0.00     0.293 HD
ENDBRANCH  10  34
BRANCH   9  36
ATOM     36  C   UNL     1     -21.194   8.978 -21.077  1.00  0.00     0.017 C 
ATOM     37  C   UNL     1     -21.671  10.189 -20.253  1.00  0.00     0.012 C 
ATOM     38  C   UNL     1     -20.724   9.359 -22.488  1.00  0.00     0.012 C 
ENDBRANCH   9  36
BRANCH   6  39
ATOM     39  C   UNL     1     -17.670   4.730 -19.329  1.00  0.00     0.264 C 
ATOM     40  O   UNL     1     -16.762   4.658 -18.458  1.00  0.00    -0.298 OA
ENDBRANCH   6  39
BRANCH   8  41
ATOM     41  O   UNL     1     -18.371   8.880 -21.776  1.00  0.00    -0.504 OA
ATOM     42  H   UNL     1     -18.033   8.643 -22.699  1.00  0.00     0.293 HD
ENDBRANCH   8  41
BRANCH   7  43
ATOM     43  O   UNL     1     -16.838   6.691 -21.152  1.00  0.00    -0.504 OA
ATOM     44  H   UNL     1     -16.060   7.329 -21.045  1.00  0.00     0.293 HD
ENDBRANCH   7  43
TORSDOF 11
ENDMDL
