MODEL 1
REMARK VINA RESULT:    -5.683      0.000      0.000
REMARK INTER + INTRA:          -5.683
REMARK INTER:                  -5.683
REMARK INTRA:                   0.000
REMARK UNBOUND:                 0.000
REMARK SMILES O=c1ccc2ccccc2o1
REMARK SMILES IDX 7 1 8 2 9 3 10 4 5 5 6 6 4 7 3 8 2 9 1 10 11 11
REMARK H PARENT
REMARK Flexibility Score: inf
ROOT
ATOM      1  C   UNL     1     -41.190  -8.499 -13.212  1.00  0.00     0.001 A 
ATOM      2  C   UNL     1     -41.238  -7.118 -12.989  1.00  0.00     0.004 A 
ATOM      3  C   UNL     1     -40.058  -6.367 -12.967  1.00  0.00     0.048 A 
ATOM      4  C   UNL     1     -38.824  -6.996 -13.169  1.00  0.00     0.138 A 
ATOM      5  C   UNL     1     -38.775  -8.390 -13.394  1.00  0.00     0.018 A 
ATOM      6  C   UNL     1     -39.962  -9.137 -13.414  1.00  0.00     0.012 A 
ATOM      7  C   UNL     1     -37.529  -8.990 -13.592  1.00  0.00     0.019 A 
ATOM      8  C   UNL     1     -36.378  -8.202 -13.563  1.00  0.00     0.094 A 
ATOM      9  C   UNL     1     -36.503  -6.827 -13.334  1.00  0.00     0.336 A 
ATOM     10  O   UNL     1     -35.476  -6.100 -13.304  1.00  0.00    -0.246 OA
ATOM     11  O   UNL     1     -37.702  -6.281 -13.149  1.00  0.00    -0.423 OA
ENDROOT
TORSDOF 0
ENDMDL
MODEL 2
REMARK VINA RESULT:    -5.588      1.808      3.740
REMARK INTER + INTRA:          -5.588
REMARK INTER:                  -5.588
REMARK INTRA:                   0.000
REMARK UNBOUND:                 0.000
REMARK SMILES O=c1ccc2ccccc2o1
REMARK SMILES IDX 7 1 8 2 9 3 10 4 5 5 6 6 4 7 3 8 2 9 1 10 11 11
REMARK H PARENT
REMARK Flexibility Score: inf
ROOT
ATOM      1  C   UNL     1     -35.848  -5.382 -13.354  1.00  0.00     0.001 A 
ATOM      2  C   UNL     1     -37.012  -4.619 -13.206  1.00  0.00     0.004 A 
ATOM      3  C   UNL     1     -38.262  -5.245 -13.160  1.00  0.00     0.048 A 
ATOM      4  C   UNL     1     -38.352  -6.638 -13.261  1.00  0.00     0.138 A 
ATOM      5  C   UNL     1     -37.177  -7.409 -13.410  1.00  0.00     0.018 A 
ATOM      6  C   UNL     1     -35.927  -6.774 -13.456  1.00  0.00     0.012 A 
ATOM      7  C   UNL     1     -37.298  -8.797 -13.508  1.00  0.00     0.019 A 
ATOM      8  C   UNL     1     -38.565  -9.379 -13.456  1.00  0.00     0.094 A 
ATOM      9  C   UNL     1     -39.685  -8.553 -13.308  1.00  0.00     0.336 A 
ATOM     10  O   UNL     1     -40.837  -9.059 -13.260  1.00  0.00    -0.246 OA
ATOM     11  O   UNL     1     -39.542  -7.233 -13.217  1.00  0.00    -0.423 OA
ENDROOT
TORSDOF 0
ENDMDL
MODEL 3
REMARK VINA RESULT:    -5.587      1.827      4.325
REMARK INTER + INTRA:          -5.587
REMARK INTER:                  -5.587
REMARK INTRA:                   0.000
REMARK UNBOUND:                 0.000
REMARK SMILES O=c1ccc2ccccc2o1
REMARK SMILES IDX 7 1 8 2 9 3 10 4 5 5 6 6 4 7 3 8 2 9 1 10 11 11
REMARK H PARENT
REMARK Flexibility Score: inf
ROOT
ATOM      1  C   UNL     1     -36.180  -5.097 -13.221  1.00  0.00     0.001 A 
ATOM      2  C   UNL     1     -35.665  -6.369 -13.496  1.00  0.00     0.004 A 
ATOM      3  C   UNL     1     -36.518  -7.475 -13.559  1.00  0.00     0.048 A 
ATOM      4  C   UNL     1     -37.892  -7.313 -13.345  1.00  0.00     0.138 A 
ATOM      5  C   UNL     1     -38.413  -6.030 -13.067  1.00  0.00     0.018 A 
ATOM      6  C   UNL     1     -37.551  -4.925 -13.006  1.00  0.00     0.012 A 
ATOM      7  C   UNL     1     -39.788  -5.899 -12.858  1.00  0.00     0.019 A 
ATOM      8  C   UNL     1     -40.602  -7.030 -12.930  1.00  0.00     0.094 A 
ATOM      9  C   UNL     1     -40.016  -8.270 -13.210  1.00  0.00     0.336 A 
ATOM     10  O   UNL     1     -40.733  -9.302 -13.278  1.00  0.00    -0.246 OA
ATOM     11  O   UNL     1     -38.704  -8.367 -13.404  1.00  0.00    -0.423 OA
ENDROOT
TORSDOF 0
ENDMDL
MODEL 4
REMARK VINA RESULT:    -5.248      1.519      3.532
REMARK INTER + INTRA:          -5.248
REMARK INTER:                  -5.248
REMARK INTRA:                   0.000
REMARK UNBOUND:                 0.000
REMARK SMILES O=c1ccc2ccccc2o1
REMARK SMILES IDX 7 1 8 2 9 3 10 4 5 5 6 6 4 7 3 8 2 9 1 10 11 11
REMARK H PARENT
REMARK Flexibility Score: inf
ROOT
ATOM      1  C   UNL     1     -37.208  -8.629 -15.016  1.00  0.00     0.001 A 
ATOM      2  C   UNL     1     -36.407  -7.491 -14.864  1.00  0.00     0.004 A 
ATOM      3  C   UNL     1     -36.864  -6.404 -14.111  1.00  0.00     0.048 A 
ATOM      4  C   UNL     1     -38.125  -6.451 -13.507  1.00  0.00     0.138 A 
ATOM      5  C   UNL     1     -38.935  -7.599 -13.661  1.00  0.00     0.018 A 
ATOM      6  C   UNL     1     -38.470  -8.685 -14.417  1.00  0.00     0.012 A 
ATOM      7  C   UNL     1     -40.190  -7.617 -13.046  1.00  0.00     0.019 A 
ATOM      8  C   UNL     1     -40.604  -6.510 -12.304  1.00  0.00     0.094 A 
ATOM      9  C   UNL     1     -39.749  -5.408 -12.196  1.00  0.00     0.336 A 
ATOM     10  O   UNL     1     -40.106  -4.400 -11.531  1.00  0.00    -0.246 OA
ATOM     11  O   UNL     1     -38.559  -5.416 -12.791  1.00  0.00    -0.423 OA
ENDROOT
TORSDOF 0
ENDMDL
MODEL 5
REMARK VINA RESULT:    -5.214      1.031      2.222
REMARK INTER + INTRA:          -5.214
REMARK INTER:                  -5.214
REMARK INTRA:                   0.000
REMARK UNBOUND:                 0.000
REMARK SMILES O=c1ccc2ccccc2o1
REMARK SMILES IDX 7 1 8 2 9 3 10 4 5 5 6 6 4 7 3 8 2 9 1 10 11 11
REMARK H PARENT
REMARK Flexibility Score: inf
ROOT
ATOM      1  C   UNL     1     -41.067  -8.044 -13.019  1.00  0.00     0.001 A 
ATOM      2  C   UNL     1     -40.199  -9.068 -13.413  1.00  0.00     0.004 A 
ATOM      3  C   UNL     1     -38.835  -8.808 -13.583  1.00  0.00     0.048 A 
ATOM      4  C   UNL     1     -38.334  -7.521 -13.360  1.00  0.00     0.138 A 
ATOM      5  C   UNL     1     -39.211  -6.486 -12.963  1.00  0.00     0.018 A 
ATOM      6  C   UNL     1     -40.577  -6.753 -12.794  1.00  0.00     0.012 A 
ATOM      7  C   UNL     1     -38.681  -5.211 -12.748  1.00  0.00     0.019 A 
ATOM      8  C   UNL     1     -37.315  -4.997 -12.929  1.00  0.00     0.094 A 
ATOM      9  C   UNL     1     -36.508  -6.069 -13.325  1.00  0.00     0.336 A 
ATOM     10  O   UNL     1     -35.272  -5.896 -13.494  1.00  0.00    -0.246 OA
ATOM     11  O   UNL     1     -37.037  -7.274 -13.523  1.00  0.00    -0.423 OA
ENDROOT
TORSDOF 0
ENDMDL
MODEL 6
REMARK VINA RESULT:    -5.188      1.797      2.944
REMARK INTER + INTRA:          -5.188
REMARK INTER:                  -5.188
REMARK INTRA:                   0.000
REMARK UNBOUND:                 0.000
REMARK SMILES O=c1ccc2ccccc2o1
REMARK SMILES IDX 7 1 8 2 9 3 10 4 5 5 6 6 4 7 3 8 2 9 1 10 11 11
REMARK H PARENT
REMARK Flexibility Score: inf
ROOT
ATOM      1  C   UNL     1     -40.061  -4.629 -11.528  1.00  0.00     0.001 A 
ATOM      2  C   UNL     1     -38.841  -4.130 -11.999  1.00  0.00     0.004 A 
ATOM      3  C   UNL     1     -38.036  -4.913 -12.832  1.00  0.00     0.048 A 
ATOM      4  C   UNL     1     -38.448  -6.200 -13.197  1.00  0.00     0.138 A 
ATOM      5  C   UNL     1     -39.679  -6.704 -12.721  1.00  0.00     0.018 A 
ATOM      6  C   UNL     1     -40.482  -5.913 -11.886  1.00  0.00     0.012 A 
ATOM      7  C   UNL     1     -40.064  -7.992 -13.102  1.00  0.00     0.019 A 
ATOM      8  C   UNL     1     -39.229  -8.738 -13.934  1.00  0.00     0.094 A 
ATOM      9  C   UNL     1     -38.023  -8.174 -14.366  1.00  0.00     0.336 A 
ATOM     10  O   UNL     1     -37.256  -8.831 -15.118  1.00  0.00    -0.246 OA
ATOM     11  O   UNL     1     -37.681  -6.945 -13.989  1.00  0.00    -0.423 OA
ENDROOT
TORSDOF 0
ENDMDL
MODEL 7
REMARK VINA RESULT:    -5.148      5.978      8.297
REMARK INTER + INTRA:          -5.148
REMARK INTER:                  -5.148
REMARK INTRA:                   0.000
REMARK UNBOUND:                 0.000
REMARK SMILES O=c1ccc2ccccc2o1
REMARK SMILES IDX 7 1 8 2 9 3 10 4 5 5 6 6 4 7 3 8 2 9 1 10 11 11
REMARK H PARENT
REMARK Flexibility Score: inf
ROOT
ATOM      1  C   UNL     1     -31.438  -2.617 -18.241  1.00  0.00     0.001 A 
ATOM      2  C   UNL     1     -30.956  -3.265 -17.097  1.00  0.00     0.004 A 
ATOM      3  C   UNL     1     -31.734  -4.237 -16.460  1.00  0.00     0.048 A 
ATOM      4  C   UNL     1     -32.998  -4.564 -16.963  1.00  0.00     0.138 A 
ATOM      5  C   UNL     1     -33.485  -3.910 -18.118  1.00  0.00     0.018 A 
ATOM      6  C   UNL     1     -32.700  -2.936 -18.752  1.00  0.00     0.012 A 
ATOM      7  C   UNL     1     -34.750  -4.258 -18.597  1.00  0.00     0.019 A 
ATOM      8  C   UNL     1     -35.491  -5.233 -17.929  1.00  0.00     0.094 A 
ATOM      9  C   UNL     1     -34.946  -5.838 -16.792  1.00  0.00     0.336 A 
ATOM     10  O   UNL     1     -35.599  -6.720 -16.175  1.00  0.00    -0.246 OA
ATOM     11  O   UNL     1     -33.738  -5.489 -16.356  1.00  0.00    -0.423 OA
ENDROOT
TORSDOF 0
ENDMDL
MODEL 8
REMARK VINA RESULT:    -5.074      6.339      8.539
REMARK INTER + INTRA:          -5.074
REMARK INTER:                  -5.074
REMARK INTRA:                   0.000
REMARK UNBOUND:                 0.000
REMARK SMILES O=c1ccc2ccccc2o1
REMARK SMILES IDX 7 1 8 2 9 3 10 4 5 5 6 6 4 7 3 8 2 9 1 10 11 11
REMARK H PARENT
REMARK Flexibility Score: inf
ROOT
ATOM      1  C   UNL     1     -30.798  -3.211 -17.136  1.00  0.00     0.001 A 
ATOM      2  C   UNL     1     -31.215  -2.601 -18.324  1.00  0.00     0.004 A 
ATOM      3  C   UNL     1     -32.456  -2.924 -18.883  1.00  0.00     0.048 A 
ATOM      4  C   UNL     1     -33.286  -3.859 -18.253  1.00  0.00     0.138 A 
ATOM      5  C   UNL     1     -32.865  -4.475 -17.053  1.00  0.00     0.018 A 
ATOM      6  C   UNL     1     -31.620  -4.147 -16.499  1.00  0.00     0.012 A 
ATOM      7  C   UNL     1     -33.715  -5.404 -16.448  1.00  0.00     0.019 A 
ATOM      8  C   UNL     1     -34.944  -5.695 -17.040  1.00  0.00     0.094 A 
ATOM      9  C   UNL     1     -35.294  -5.047 -18.229  1.00  0.00     0.336 A 
ATOM     10  O   UNL     1     -36.399  -5.296 -18.779  1.00  0.00    -0.246 OA
ATOM     11  O   UNL     1     -34.467  -4.166 -18.785  1.00  0.00    -0.423 OA
ENDROOT
TORSDOF 0
ENDMDL
