MODEL 1
REMARK VINA RESULT:    -5.199      0.000      0.000
REMARK INTER + INTRA:          -5.642
REMARK INTER:                  -5.503
REMARK INTRA:                  -0.139
REMARK UNBOUND:                -0.139
REMARK SMILES CC1=CC=C(C(C)C)CC1
REMARK SMILES IDX 1 1 2 2 3 3 4 4 5 5 9 6 10 7 6 8 7 9 8 10
REMARK H PARENT
REMARK Flexibility Score: inf
ROOT
ATOM      1  C   UNL     1       7.388   5.260  12.757  1.00  0.00     0.039 C 
ATOM      2  C   UNL     1       6.416   6.345  12.394  1.00  0.00    -0.073 C 
ATOM      3  C   UNL     1       6.870   7.539  11.985  1.00  0.00    -0.001 C 
ATOM      4  C   UNL     1       5.935   8.622  11.627  1.00  0.00    -0.001 C 
ATOM      5  C   UNL     1       4.622   8.526  11.916  1.00  0.00    -0.067 C 
ATOM      6  C   UNL     1       4.128   7.338  12.714  1.00  0.00     0.035 C 
ATOM      7  C   UNL     1       4.931   6.069  12.390  1.00  0.00     0.035 C 
ENDROOT
BRANCH   5   8
ATOM      8  C   UNL     1       3.649   9.627  11.535  1.00  0.00     0.009 C 
ATOM      9  C   UNL     1       2.825  10.090  12.743  1.00  0.00     0.012 C 
ATOM     10  C   UNL     1       4.375  10.805  10.875  1.00  0.00     0.012 C 
ENDBRANCH   5   8
TORSDOF 1
ENDMDL
MODEL 2
REMARK VINA RESULT:    -4.999      1.063      4.481
REMARK INTER + INTRA:          -5.430
REMARK INTER:                  -5.263
REMARK INTRA:                  -0.168
REMARK UNBOUND:                -0.139
REMARK SMILES CC1=CC=C(C(C)C)CC1
REMARK SMILES IDX 1 1 2 2 3 3 4 4 5 5 9 6 10 7 6 8 7 9 8 10
REMARK H PARENT
REMARK Flexibility Score: inf
ROOT
ATOM      1  C   UNL     1       3.177  10.217  11.213  1.00  0.00     0.039 C 
ATOM      2  C   UNL     1       4.133   9.148  11.656  1.00  0.00    -0.073 C 
ATOM      3  C   UNL     1       3.773   8.287  12.619  1.00  0.00    -0.001 C 
ATOM      4  C   UNL     1       4.697   7.232  13.075  1.00  0.00    -0.001 C 
ATOM      5  C   UNL     1       5.993   7.242  12.709  1.00  0.00    -0.067 C 
ATOM      6  C   UNL     1       6.525   8.413  11.910  1.00  0.00     0.035 C 
ATOM      7  C   UNL     1       5.459   8.972  10.955  1.00  0.00     0.035 C 
ENDROOT
BRANCH   5   8
ATOM      8  C   UNL     1       6.947   6.149  13.157  1.00  0.00     0.009 C 
ATOM      9  C   UNL     1       6.194   4.876  13.561  1.00  0.00     0.012 C 
ATOM     10  C   UNL     1       7.996   5.853  12.079  1.00  0.00     0.012 C 
ENDBRANCH   5   8
TORSDOF 1
ENDMDL
MODEL 3
REMARK VINA RESULT:    -4.963      1.060      4.235
REMARK INTER + INTRA:          -5.392
REMARK INTER:                  -5.249
REMARK INTRA:                  -0.144
REMARK UNBOUND:                -0.139
REMARK SMILES CC1=CC=C(C(C)C)CC1
REMARK SMILES IDX 1 1 2 2 3 3 4 4 5 5 9 6 10 7 6 8 7 9 8 10
REMARK H PARENT
REMARK Flexibility Score: inf
ROOT
ATOM      1  C   UNL     1       3.103  10.128  10.942  1.00  0.00     0.039 C 
ATOM      2  C   UNL     1       4.082   9.161  11.541  1.00  0.00    -0.073 C 
ATOM      3  C   UNL     1       5.336   9.101  11.071  1.00  0.00    -0.001 C 
ATOM      4  C   UNL     1       6.313   8.155  11.641  1.00  0.00    -0.001 C 
ATOM      5  C   UNL     1       5.921   7.177  12.480  1.00  0.00    -0.067 C 
ATOM      6  C   UNL     1       4.444   6.985  12.750  1.00  0.00     0.035 C 
ATOM      7  C   UNL     1       3.692   8.325  12.738  1.00  0.00     0.035 C 
ENDROOT
BRANCH   5   8
ATOM      8  C   UNL     1       6.922   6.210  13.087  1.00  0.00     0.009 C 
ATOM      9  C   UNL     1       6.263   4.875  13.455  1.00  0.00     0.012 C 
ATOM     10  C   UNL     1       8.122   5.997  12.156  1.00  0.00     0.012 C 
ENDBRANCH   5   8
TORSDOF 1
ENDMDL
MODEL 4
REMARK VINA RESULT:    -4.712      1.082      4.275
REMARK INTER + INTRA:          -5.127
REMARK INTER:                  -4.972
REMARK INTRA:                  -0.155
REMARK UNBOUND:                -0.139
REMARK SMILES CC1=CC=C(C(C)C)CC1
REMARK SMILES IDX 1 1 2 2 3 3 4 4 5 5 9 6 10 7 6 8 7 9 8 10
REMARK H PARENT
REMARK Flexibility Score: inf
ROOT
ATOM      1  C   UNL     1       2.847  10.199  11.111  1.00  0.00     0.039 C 
ATOM      2  C   UNL     1       3.978   9.325  11.569  1.00  0.00    -0.073 C 
ATOM      3  C   UNL     1       5.162   9.382  10.942  1.00  0.00    -0.001 C 
ATOM      4  C   UNL     1       6.286   8.529  11.371  1.00  0.00    -0.001 C 
ATOM      5  C   UNL     1       6.095   7.517  12.240  1.00  0.00    -0.067 C 
ATOM      6  C   UNL     1       4.688   7.189  12.691  1.00  0.00     0.035 C 
ATOM      7  C   UNL     1       3.822   8.454  12.793  1.00  0.00     0.035 C 
ENDROOT
BRANCH   5   8
ATOM      8  C   UNL     1       7.249   6.646  12.701  1.00  0.00     0.009 C 
ATOM      9  C   UNL     1       8.144   7.383  13.705  1.00  0.00     0.012 C 
ATOM     10  C   UNL     1       6.745   5.319  13.280  1.00  0.00     0.012 C 
ENDBRANCH   5   8
TORSDOF 1
ENDMDL
MODEL 5
REMARK VINA RESULT:    -4.106      1.171      2.282
REMARK INTER + INTRA:          -4.485
REMARK INTER:                  -4.341
REMARK INTRA:                  -0.144
REMARK UNBOUND:                -0.139
REMARK SMILES CC1=CC=C(C(C)C)CC1
REMARK SMILES IDX 1 1 2 2 3 3 4 4 5 5 9 6 10 7 6 8 7 9 8 10
REMARK H PARENT
REMARK Flexibility Score: inf
ROOT
ATOM      1  C   UNL     1       5.948   5.806  12.695  1.00  0.00     0.039 C 
ATOM      2  C   UNL     1       5.254   7.116  12.465  1.00  0.00    -0.073 C 
ATOM      3  C   UNL     1       4.082   7.366  13.066  1.00  0.00    -0.001 C 
ATOM      4  C   UNL     1       3.379   8.645  12.850  1.00  0.00    -0.001 C 
ATOM      5  C   UNL     1       3.769   9.494  11.880  1.00  0.00    -0.067 C 
ATOM      6  C   UNL     1       4.874   9.074  10.933  1.00  0.00     0.035 C 
ATOM      7  C   UNL     1       5.916   8.196  11.641  1.00  0.00     0.035 C 
ENDROOT
BRANCH   5   8
ATOM      8  C   UNL     1       3.064  10.821  11.663  1.00  0.00     0.009 C 
ATOM      9  C   UNL     1       3.974  11.832  10.955  1.00  0.00     0.012 C 
ATOM     10  C   UNL     1       1.748  10.631  10.900  1.00  0.00     0.012 C 
ENDBRANCH   5   8
TORSDOF 1
ENDMDL
MODEL 6
REMARK VINA RESULT:    -3.886      2.033      3.465
REMARK INTER + INTRA:          -4.252
REMARK INTER:                  -4.103
REMARK INTRA:                  -0.149
REMARK UNBOUND:                -0.139
REMARK SMILES CC1=CC=C(C(C)C)CC1
REMARK SMILES IDX 1 1 2 2 3 3 4 4 5 5 9 6 10 7 6 8 7 9 8 10
REMARK H PARENT
REMARK Flexibility Score: inf
ROOT
ATOM      1  C   UNL     1       9.705   8.264  13.882  1.00  0.00     0.039 C 
ATOM      2  C   UNL     1       8.286   7.892  13.567  1.00  0.00    -0.073 C 
ATOM      3  C   UNL     1       7.766   6.759  14.061  1.00  0.00    -0.001 C 
ATOM      4  C   UNL     1       6.375   6.372  13.760  1.00  0.00    -0.001 C 
ATOM      5  C   UNL     1       5.668   7.013  12.809  1.00  0.00    -0.067 C 
ATOM      6  C   UNL     1       6.352   8.069  11.968  1.00  0.00     0.035 C 
ATOM      7  C   UNL     1       7.408   8.836  12.779  1.00  0.00     0.035 C 
ENDROOT
BRANCH   5   8
ATOM      8  C   UNL     1       4.230   6.633  12.506  1.00  0.00     0.009 C 
ATOM      9  C   UNL     1       4.053   5.111  12.434  1.00  0.00     0.012 C 
ATOM     10  C   UNL     1       3.266   7.254  13.523  1.00  0.00     0.012 C 
ENDBRANCH   5   8
TORSDOF 1
ENDMDL
MODEL 7
REMARK VINA RESULT:    -3.817      3.419      6.457
REMARK INTER + INTRA:          -4.179
REMARK INTER:                  -4.022
REMARK INTRA:                  -0.157
REMARK UNBOUND:                -0.139
REMARK SMILES CC1=CC=C(C(C)C)CC1
REMARK SMILES IDX 1 1 2 2 3 3 4 4 5 5 9 6 10 7 6 8 7 9 8 10
REMARK H PARENT
REMARK Flexibility Score: inf
ROOT
ATOM      1  C   UNL     1       4.369  16.308  12.045  1.00  0.00     0.039 C 
ATOM      2  C   UNL     1       3.937  14.873  12.132  1.00  0.00    -0.073 C 
ATOM      3  C   UNL     1       3.659  14.331  13.327  1.00  0.00    -0.001 C 
ATOM      4  C   UNL     1       3.238  12.921  13.438  1.00  0.00    -0.001 C 
ATOM      5  C   UNL     1       3.341  12.084  12.388  1.00  0.00    -0.067 C 
ATOM      6  C   UNL     1       4.000  12.573  11.116  1.00  0.00     0.035 C 
ATOM      7  C   UNL     1       3.718  14.064  10.875  1.00  0.00     0.035 C 
ENDROOT
BRANCH   5   8
ATOM      8  C   UNL     1       2.893  10.636  12.487  1.00  0.00     0.009 C 
ATOM      9  C   UNL     1       1.365  10.526  12.572  1.00  0.00     0.012 C 
ATOM     10  C   UNL     1       3.444   9.804  11.324  1.00  0.00     0.012 C 
ENDBRANCH   5   8
TORSDOF 1
ENDMDL
MODEL 8
REMARK VINA RESULT:    -3.711      1.365      4.914
REMARK INTER + INTRA:          -4.067
REMARK INTER:                  -3.906
REMARK INTRA:                  -0.161
REMARK UNBOUND:                -0.139
REMARK SMILES CC1=CC=C(C(C)C)CC1
REMARK SMILES IDX 1 1 2 2 3 3 4 4 5 5 9 6 10 7 6 8 7 9 8 10
REMARK H PARENT
REMARK Flexibility Score: inf
ROOT
ATOM      1  C   UNL     1       2.016  13.084  11.821  1.00  0.00     0.039 C 
ATOM      2  C   UNL     1       2.793  11.800  11.845  1.00  0.00    -0.073 C 
ATOM      3  C   UNL     1       3.681  11.538  10.875  1.00  0.00    -0.001 C 
ATOM      4  C   UNL     1       4.452  10.281  10.876  1.00  0.00    -0.001 C 
ATOM      5  C   UNL     1       4.130   9.271  11.707  1.00  0.00    -0.067 C 
ATOM      6  C   UNL     1       2.892   9.394  12.570  1.00  0.00     0.035 C 
ATOM      7  C   UNL     1       2.655  10.847  13.009  1.00  0.00     0.035 C 
ENDROOT
BRANCH   5   8
ATOM      8  C   UNL     1       4.930   7.981  11.728  1.00  0.00     0.009 C 
ATOM      9  C   UNL     1       6.423   8.250  11.957  1.00  0.00     0.012 C 
ATOM     10  C   UNL     1       4.377   7.003  12.771  1.00  0.00     0.012 C 
ENDBRANCH   5   8
TORSDOF 1
ENDMDL
