MODEL 1
REMARK VINA RESULT:    -3.600      0.000      0.000
REMARK INTER + INTRA:          -5.837
REMARK INTER:                  -5.284
REMARK INTRA:                  -0.553
REMARK UNBOUND:                -0.553
REMARK SMILES C=C1C=C[C@H](C(C)C)CCC(C)=CCC1
REMARK SMILES IDX 3 1 4 2 5 3 9 4 10 5 11 6 12 7 13 8 6 10 7 11 8 12 2 13 1 14
REMARK SMILES IDX 15 15 14 16
REMARK H PARENT
REMARK Flexibility Score: 70.00
ROOT
ATOM      1  C   UNL     1     138.172 132.927 130.545  1.00  0.00    -0.001 C 
ATOM      2  C   UNL     1     137.378 132.618 131.585  1.00  0.00    -0.023 C 
ENDROOT
BRANCH   2   3
ATOM      3  C   UNL     1     136.703 133.544 132.587  1.00  0.00     0.014 C 
BRANCH   3   4
ATOM      4  C   UNL     1     135.198 133.818 132.322  1.00  0.00     0.012 C 
BRANCH   4   5
ATOM      5  C   UNL     1     134.827 135.225 131.828  1.00  0.00     0.031 C 
BRANCH   5   6
ATOM      6  C   UNL     1     134.417 135.166 130.373  1.00  0.00    -0.077 C 
ATOM      7  C   UNL     1     133.009 134.750 130.035  1.00  0.00     0.039 C 
ATOM      8  C   UNL     1     135.232 135.564 129.371  1.00  0.00    -0.028 CG0
ATOM      9  G   UNL     1     136.681 135.956 129.543  1.00  0.00     0.000 G0
ENDBRANCH   5   6
ENDBRANCH   4   5
ENDBRANCH   3   4
BRANCH   3  10
ATOM     10  C   UNL     1     137.134 133.340 134.081  1.00  0.00    -0.010 C 
ATOM     11  C   UNL     1     138.229 134.302 134.569  1.00  0.00     0.008 C 
ATOM     12  C   UNL     1     135.920 133.460 135.022  1.00  0.00     0.008 C 
ENDBRANCH   3  10
ENDBRANCH   2   3
BRANCH   1  13
ATOM     13  C   UNL     1     138.549 134.273 130.077  1.00  0.00    -0.055 C 
ATOM     14  C   UNL     1     139.298 135.020 130.897  1.00  0.00     0.012 C 
BRANCH  13  15
ATOM     15  C   UNL     1     137.714 134.942 129.001  1.00  0.00     0.039 C 
BRANCH  15  16
ATOM     16  C   UNL     1     136.695 135.980 129.532  1.00  0.00     0.032 CG0
ATOM     17  G   UNL     1     135.256 135.548 129.376  1.00  0.00     0.000 G0
ENDBRANCH  15  16
ENDBRANCH  13  15
ENDBRANCH   1  13
TORSDOF 1
ENDMDL
MODEL 2
REMARK VINA RESULT:    -3.585      4.397      6.115
REMARK INTER + INTRA:          -5.816
REMARK INTER:                  -5.266
REMARK INTRA:                  -0.550
REMARK UNBOUND:                -0.553
REMARK SMILES C=C1C=C[C@H](C(C)C)CCC(C)=CCC1
REMARK SMILES IDX 3 1 4 2 5 3 9 4 10 5 11 6 12 7 13 8 6 10 7 11 8 12 2 13 1 14
REMARK SMILES IDX 15 15 14 16
REMARK H PARENT
REMARK Flexibility Score: 70.00
ROOT
ATOM      1  C   UNL     1     135.529 141.076 130.888  1.00  0.00    -0.001 C 
ATOM      2  C   UNL     1     136.644 141.223 131.624  1.00  0.00    -0.023 C 
ENDROOT
BRANCH   2   3
ATOM      3  C   UNL     1     137.463 140.166 132.352  1.00  0.00     0.014 C 
BRANCH   3   4
ATOM      4  C   UNL     1     138.765 139.728 131.630  1.00  0.00     0.012 C 
BRANCH   4   5
ATOM      5  C   UNL     1     138.771 138.324 131.005  1.00  0.00     0.031 C 
BRANCH   5   6
ATOM      6  C   UNL     1     138.691 138.435 129.498  1.00  0.00    -0.077 C 
ATOM      7  C   UNL     1     139.952 138.730 128.727  1.00  0.00     0.039 C 
ATOM      8  C   UNL     1     137.555 138.185 128.809  1.00  0.00    -0.028 CG0
ATOM      9  G   UNL     1     136.206 137.929 129.438  1.00  0.00     0.000 G0
ENDBRANCH   5   6
ENDBRANCH   4   5
ENDBRANCH   3   4
BRANCH   3  10
ATOM     10  C   UNL     1     137.538 140.335 133.909  1.00  0.00    -0.010 C 
ATOM     11  C   UNL     1     136.177 140.307 134.624  1.00  0.00     0.008 C 
ATOM     12  C   UNL     1     138.442 139.255 134.534  1.00  0.00     0.008 C 
ENDBRANCH   3  10
ENDBRANCH   2   3
BRANCH   1  13
ATOM     13  C   UNL     1     134.840 139.816 130.552  1.00  0.00    -0.055 C 
ATOM     14  C   UNL     1     134.286 139.133 131.562  1.00  0.00     0.012 C 
BRANCH  13  15
ATOM     15  C   UNL     1     135.196 139.100 129.263  1.00  0.00     0.039 C 
BRANCH  15  16
ATOM     16  C   UNL     1     136.192 137.925 129.435  1.00  0.00     0.032 CG0
ATOM     17  G   UNL     1     137.539 138.179 128.801  1.00  0.00     0.000 G0
ENDBRANCH  15  16
ENDBRANCH  13  15
ENDBRANCH   1  13
TORSDOF 1
ENDMDL
MODEL 3
REMARK VINA RESULT:    -3.503      3.069      4.446
REMARK INTER + INTRA:          -5.695
REMARK INTER:                  -5.226
REMARK INTRA:                  -0.469
REMARK UNBOUND:                -0.553
REMARK SMILES C=C1C=C[C@H](C(C)C)CCC(C)=CCC1
REMARK SMILES IDX 3 1 4 2 5 3 9 4 10 5 11 6 12 7 13 8 6 10 7 11 8 12 2 13 1 14
REMARK SMILES IDX 15 15 14 16
REMARK H PARENT
REMARK Flexibility Score: 70.00
ROOT
ATOM      1  C   UNL     1     141.084 138.430 131.056  1.00  0.00    -0.001 C 
ATOM      2  C   UNL     1     141.262 137.372 131.866  1.00  0.00    -0.023 C 
ENDROOT
BRANCH   2   3
ATOM      3  C   UNL     1     140.226 136.419 132.446  1.00  0.00     0.014 C 
BRANCH   3   4
ATOM      4  C   UNL     1     140.012 135.108 131.643  1.00  0.00     0.012 C 
BRANCH   4   5
ATOM      5  C   UNL     1     138.650 134.933 130.954  1.00  0.00     0.031 C 
BRANCH   5   6
ATOM      6  C   UNL     1     138.833 134.918 129.452  1.00  0.00    -0.077 C 
ATOM      7  C   UNL     1     139.249 133.631 128.788  1.00  0.00     0.039 C 
ATOM      8  C   UNL     1     138.546 135.985 128.674  1.00  0.00    -0.028 CG0
ATOM      9  G   UNL     1     138.170 137.353 129.193  1.00  0.00     0.000 G0
ENDBRANCH   5   6
ENDBRANCH   4   5
ENDBRANCH   3   4
BRANCH   3  10
ATOM     10  C   UNL     1     140.230 136.299 134.010  1.00  0.00    -0.010 C 
ATOM     11  C   UNL     1     139.941 137.613 134.754  1.00  0.00     0.008 C 
ATOM     12  C   UNL     1     139.220 135.237 134.480  1.00  0.00     0.008 C 
ENDBRANCH   3  10
ENDBRANCH   2   3
BRANCH   1  13
ATOM     13  C   UNL     1     139.815 138.907 130.476  1.00  0.00    -0.055 C 
ATOM     14  C   UNL     1     138.914 139.430 131.316  1.00  0.00     0.012 C 
BRANCH  13  15
ATOM     15  C   UNL     1     139.366 138.360 129.134  1.00  0.00     0.039 C 
BRANCH  15  16
ATOM     16  C   UNL     1     138.189 137.355 129.211  1.00  0.00     0.032 CG0
ATOM     17  G   UNL     1     138.523 135.991 128.654  1.00  0.00     0.000 G0
ENDBRANCH  15  16
ENDBRANCH  13  15
ENDBRANCH   1  13
TORSDOF 1
ENDMDL
MODEL 4
REMARK VINA RESULT:    -3.459      2.920      4.575
REMARK INTER + INTRA:          -5.630
REMARK INTER:                  -5.143
REMARK INTRA:                  -0.488
REMARK UNBOUND:                -0.553
REMARK SMILES C=C1C=C[C@H](C(C)C)CCC(C)=CCC1
REMARK SMILES IDX 3 1 4 2 5 3 9 4 10 5 11 6 12 7 13 8 6 10 7 11 8 12 2 13 1 14
REMARK SMILES IDX 15 15 14 16
REMARK H PARENT
REMARK Flexibility Score: 70.00
ROOT
ATOM      1  C   UNL     1     132.409 135.882 130.869  1.00  0.00    -0.001 C 
ATOM      2  C   UNL     1     132.395 136.508 132.059  1.00  0.00    -0.023 C 
ENDROOT
BRANCH   2   3
ATOM      3  C   UNL     1     133.564 136.995 132.903  1.00  0.00     0.014 C 
BRANCH   3   4
ATOM      4  C   UNL     1     133.958 138.482 132.691  1.00  0.00     0.012 C 
BRANCH   4   5
ATOM      5  C   UNL     1     135.418 138.763 132.306  1.00  0.00     0.031 C 
BRANCH   5   6
ATOM      6  C   UNL     1     135.473 139.405 130.937  1.00  0.00    -0.077 C 
ATOM      7  C   UNL     1     135.497 140.908 130.843  1.00  0.00     0.039 C 
ATOM      8  C   UNL     1     135.597 138.684 129.800  1.00  0.00    -0.028 CG0
ATOM      9  G   UNL     1     135.536 137.176 129.725  1.00  0.00     0.000 G0
ENDBRANCH   5   6
ENDBRANCH   4   5
ENDBRANCH   3   4
BRANCH   3  10
ATOM     10  C   UNL     1     133.594 136.457 134.376  1.00  0.00    -0.010 C 
ATOM     11  C   UNL     1     134.743 135.481 134.679  1.00  0.00     0.008 C 
ATOM     12  C   UNL     1     133.662 137.621 135.382  1.00  0.00     0.008 C 
ENDBRANCH   3  10
ENDBRANCH   2   3
BRANCH   1  13
ATOM     13  C   UNL     1     133.587 135.552 130.047  1.00  0.00    -0.055 C 
ATOM     14  C   UNL     1     134.319 134.495 130.419  1.00  0.00     0.012 C 
BRANCH  13  15
ATOM     15  C   UNL     1     134.209 136.632 129.182  1.00  0.00     0.039 C 
BRANCH  15  16
ATOM     16  C   UNL     1     135.557 137.183 129.712  1.00  0.00     0.032 CG0
ATOM     17  G   UNL     1     135.601 138.690 129.800  1.00  0.00     0.000 G0
ENDBRANCH  15  16
ENDBRANCH  13  15
ENDBRANCH   1  13
TORSDOF 1
ENDMDL
MODEL 5
REMARK VINA RESULT:    -3.387      3.123      5.526
REMARK INTER + INTRA:          -5.525
REMARK INTER:                  -5.128
REMARK INTRA:                  -0.398
REMARK UNBOUND:                -0.553
REMARK SMILES C=C1C=C[C@H](C(C)C)CCC(C)=CCC1
REMARK SMILES IDX 3 1 4 2 5 3 9 4 10 5 11 6 12 7 13 8 6 10 7 11 8 12 2 13 1 14
REMARK SMILES IDX 15 15 14 16
REMARK H PARENT
REMARK Flexibility Score: 70.00
ROOT
ATOM      1  C   UNL     1     133.142 137.672 132.216  1.00  0.00    -0.001 C 
ATOM      2  C   UNL     1     133.761 138.863 132.147  1.00  0.00    -0.023 C 
ENDROOT
BRANCH   2   3
ATOM      3  C   UNL     1     134.987 139.265 131.339  1.00  0.00     0.014 C 
BRANCH   3   4
ATOM      4  C   UNL     1     134.734 139.494 129.825  1.00  0.00     0.012 C 
BRANCH   4   5
ATOM      5  C   UNL     1     134.954 138.289 128.897  1.00  0.00     0.031 C 
BRANCH   5   6
ATOM      6  C   UNL     1     136.348 137.737 129.095  1.00  0.00    -0.077 C 
ATOM      7  C   UNL     1     137.526 138.575 128.669  1.00  0.00     0.039 C 
ATOM      8  C   UNL     1     136.584 136.565 129.727  1.00  0.00    -0.028 CG0
ATOM      9  G   UNL     1     135.513 135.592 130.163  1.00  0.00     0.000 G0
ENDBRANCH   5   6
ENDBRANCH   4   5
ENDBRANCH   3   4
BRANCH   3  10
ATOM     10  C   UNL     1     135.960 140.266 132.054  1.00  0.00    -0.010 C 
ATOM     11  C   UNL     1     137.376 139.721 132.298  1.00  0.00     0.008 C 
ATOM     12  C   UNL     1     136.071 141.582 131.261  1.00  0.00     0.008 C 
ENDBRANCH   3  10
ENDBRANCH   2   3
BRANCH   1  13
ATOM     13  C   UNL     1     133.477 136.447 131.466  1.00  0.00    -0.055 C 
ATOM     14  C   UNL     1     132.465 135.636 131.134  1.00  0.00     0.012 C 
BRANCH  13  15
ATOM     15  C   UNL     1     134.889 135.898 131.542  1.00  0.00     0.039 C 
BRANCH  15  16
ATOM     16  C   UNL     1     135.524 135.569 130.168  1.00  0.00     0.032 CG0
ATOM     17  G   UNL     1     136.584 136.557 129.740  1.00  0.00     0.000 G0
ENDBRANCH  15  16
ENDBRANCH  13  15
ENDBRANCH   1  13
TORSDOF 1
ENDMDL
MODEL 6
REMARK VINA RESULT:    -3.254      2.262      5.151
REMARK INTER + INTRA:          -5.330
REMARK INTER:                  -5.017
REMARK INTRA:                  -0.312
REMARK UNBOUND:                -0.553
REMARK SMILES C=C1C=C[C@H](C(C)C)CCC(C)=CCC1
REMARK SMILES IDX 3 1 4 2 5 3 9 4 10 5 11 6 12 7 13 8 6 10 7 11 8 12 2 13 1 14
REMARK SMILES IDX 15 15 14 16
REMARK H PARENT
REMARK Flexibility Score: 70.00
ROOT
ATOM      1  C   UNL     1     137.399 132.491 131.538  1.00  0.00    -0.001 C 
ATOM      2  C   UNL     1     138.265 133.044 130.671  1.00  0.00    -0.023 C 
ENDROOT
BRANCH   2   3
ATOM      3  C   UNL     1     138.519 134.515 130.371  1.00  0.00     0.014 C 
BRANCH   3   4
ATOM      4  C   UNL     1     139.398 135.258 131.412  1.00  0.00     0.012 C 
BRANCH   4   5
ATOM      5  C   UNL     1     138.818 136.549 132.012  1.00  0.00     0.031 C 
BRANCH   5   6
ATOM      6  C   UNL     1     139.007 136.547 133.513  1.00  0.00    -0.077 C 
ATOM      7  C   UNL     1     140.220 137.229 134.090  1.00  0.00     0.039 C 
ATOM      8  C   UNL     1     138.084 136.042 134.362  1.00  0.00    -0.028 CG0
ATOM      9  G   UNL     1     136.848 135.283 133.938  1.00  0.00     0.000 G0
ENDBRANCH   5   6
ENDBRANCH   4   5
ENDBRANCH   3   4
BRANCH   3  10
ATOM     10  C   UNL     1     138.769 134.855 128.861  1.00  0.00    -0.010 C 
ATOM     11  C   UNL     1     139.607 136.121 128.619  1.00  0.00     0.008 C 
ATOM     12  C   UNL     1     139.444 133.675 128.138  1.00  0.00     0.008 C 
ENDBRANCH   3  10
ENDBRANCH   2   3
BRANCH   1  13
ATOM     13  C   UNL     1     136.499 133.193 132.472  1.00  0.00    -0.055 C 
ATOM     14  C   UNL     1     135.362 133.690 131.971  1.00  0.00     0.012 C 
BRANCH  13  15
ATOM     15  C   UNL     1     137.068 133.761 133.759  1.00  0.00     0.039 C 
BRANCH  15  16
ATOM     16  C   UNL     1     136.836 135.281 133.948  1.00  0.00     0.032 CG0
ATOM     17  G   UNL     1     138.079 136.036 134.355  1.00  0.00     0.000 G0
ENDBRANCH  15  16
ENDBRANCH  13  15
ENDBRANCH   1  13
TORSDOF 1
ENDMDL
MODEL 7
REMARK VINA RESULT:    -3.191      2.059      3.701
REMARK INTER + INTRA:          -5.237
REMARK INTER:                  -4.991
REMARK INTRA:                  -0.246
REMARK UNBOUND:                -0.553
REMARK SMILES C=C1C=C[C@H](C(C)C)CCC(C)=CCC1
REMARK SMILES IDX 3 1 4 2 5 3 9 4 10 5 11 6 12 7 13 8 6 10 7 11 8 12 2 13 1 14
REMARK SMILES IDX 15 15 14 16
REMARK H PARENT
REMARK Flexibility Score: 70.00
ROOT
ATOM      1  C   UNL     1     140.386 135.917 132.260  1.00  0.00    -0.001 C 
ATOM      2  C   UNL     1     139.646 134.835 131.963  1.00  0.00    -0.023 C 
ENDROOT
BRANCH   2   3
ATOM      3  C   UNL     1     138.571 134.667 130.899  1.00  0.00     0.014 C 
BRANCH   3   4
ATOM      4  C   UNL     1     139.084 134.686 129.434  1.00  0.00     0.012 C 
BRANCH   4   5
ATOM      5  C   UNL     1     138.909 136.000 128.656  1.00  0.00     0.031 C 
BRANCH   5   6
ATOM      6  C   UNL     1     137.562 136.610 128.978  1.00  0.00    -0.077 C 
ATOM      7  C   UNL     1     136.318 135.913 128.493  1.00  0.00     0.039 C 
ATOM      8  C   UNL     1     137.428 137.702 129.763  1.00  0.00    -0.028 CG0
ATOM      9  G   UNL     1     138.575 138.538 130.279  1.00  0.00     0.000 G0
ENDBRANCH   5   6
ENDBRANCH   4   5
ENDBRANCH   3   4
BRANCH   3  10
ATOM     10  C   UNL     1     137.446 133.630 131.243  1.00  0.00    -0.010 C 
ATOM     11  C   UNL     1     137.875 132.158 131.130  1.00  0.00     0.008 C 
ATOM     12  C   UNL     1     136.892 133.872 132.659  1.00  0.00     0.008 C 
ENDBRANCH   3  10
ENDBRANCH   2   3
BRANCH   1  13
ATOM     13  C   UNL     1     140.374 137.223 131.575  1.00  0.00    -0.055 C 
ATOM     14  C   UNL     1     141.559 137.787 131.310  1.00  0.00     0.012 C 
BRANCH  13  15
ATOM     15  C   UNL     1     139.129 138.085 131.653  1.00  0.00     0.039 C 
BRANCH  15  16
ATOM     16  C   UNL     1     138.579 138.546 130.279  1.00  0.00     0.032 CG0
ATOM     17  G   UNL     1     137.435 137.700 129.772  1.00  0.00     0.000 G0
ENDBRANCH  15  16
ENDBRANCH  13  15
ENDBRANCH   1  13
TORSDOF 1
ENDMDL
MODEL 8
REMARK VINA RESULT:    -3.176      3.439      5.344
REMARK INTER + INTRA:          -5.215
REMARK INTER:                  -4.773
REMARK INTRA:                  -0.442
REMARK UNBOUND:                -0.553
REMARK SMILES C=C1C=C[C@H](C(C)C)CCC(C)=CCC1
REMARK SMILES IDX 3 1 4 2 5 3 9 4 10 5 11 6 12 7 13 8 6 10 7 11 8 12 2 13 1 14
REMARK SMILES IDX 15 15 14 16
REMARK H PARENT
REMARK Flexibility Score: 70.00
ROOT
ATOM      1  C   UNL     1     136.596 140.019 129.364  1.00  0.00    -0.001 C 
ATOM      2  C   UNL     1     137.571 139.095 129.313  1.00  0.00    -0.023 C 
ENDROOT
BRANCH   2   3
ATOM      3  C   UNL     1     138.102 138.194 130.420  1.00  0.00     0.014 C 
BRANCH   3   4
ATOM      4  C   UNL     1     137.261 136.918 130.692  1.00  0.00     0.012 C 
BRANCH   4   5
ATOM      5  C   UNL     1     136.427 136.902 131.983  1.00  0.00     0.031 C 
BRANCH   5   6
ATOM      6  C   UNL     1     134.995 136.534 131.663  1.00  0.00    -0.077 C 
ATOM      7  C   UNL     1     134.667 135.095 131.362  1.00  0.00     0.039 C 
ATOM      8  C   UNL     1     133.982 137.427 131.731  1.00  0.00    -0.028 CG0
ATOM      9  G   UNL     1     134.156 138.909 131.967  1.00  0.00     0.000 G0
ENDBRANCH   5   6
ENDBRANCH   4   5
ENDBRANCH   3   4
BRANCH   3  10
ATOM     10  C   UNL     1     139.661 138.038 130.464  1.00  0.00    -0.010 C 
ATOM     11  C   UNL     1     140.444 139.269 129.979  1.00  0.00     0.008 C 
ATOM     12  C   UNL     1     140.136 137.684 131.885  1.00  0.00     0.008 C 
ENDBRANCH   3  10
ENDBRANCH   2   3
BRANCH   1  13
ATOM     13  C   UNL     1     135.744 140.356 130.520  1.00  0.00    -0.055 C 
ATOM     14  C   UNL     1     136.354 140.836 131.611  1.00  0.00     0.012 C 
BRANCH  13  15
ATOM     15  C   UNL     1     134.377 139.712 130.642  1.00  0.00     0.039 C 
BRANCH  15  16
ATOM     16  C   UNL     1     134.157 138.914 131.951  1.00  0.00     0.032 CG0
ATOM     17  G   UNL     1     133.972 137.431 131.731  1.00  0.00     0.000 G0
ENDBRANCH  15  16
ENDBRANCH  13  15
ENDBRANCH   1  13
TORSDOF 1
ENDMDL
MODEL 9
REMARK VINA RESULT:    -3.142      3.646      6.086
REMARK INTER + INTRA:          -5.165
REMARK INTER:                  -4.698
REMARK INTRA:                  -0.467
REMARK UNBOUND:                -0.553
REMARK SMILES C=C1C=C[C@H](C(C)C)CCC(C)=CCC1
REMARK SMILES IDX 3 1 4 2 5 3 9 4 10 5 11 6 12 7 13 8 6 10 7 11 8 12 2 13 1 14
REMARK SMILES IDX 15 15 14 16
REMARK H PARENT
REMARK Flexibility Score: 70.00
ROOT
ATOM      1  C   UNL     1     133.270 138.113 132.916  1.00  0.00    -0.001 C 
ATOM      2  C   UNL     1     133.884 138.600 131.824  1.00  0.00    -0.023 C 
ENDROOT
BRANCH   2   3
ATOM      3  C   UNL     1     135.372 138.788 131.561  1.00  0.00     0.014 C 
BRANCH   3   4
ATOM      4  C   UNL     1     136.146 137.494 131.192  1.00  0.00     0.012 C 
BRANCH   4   5
ATOM      5  C   UNL     1     137.215 137.020 132.189  1.00  0.00     0.031 C 
BRANCH   5   6
ATOM      6  C   UNL     1     137.079 135.530 132.416  1.00  0.00    -0.077 C 
ATOM      7  C   UNL     1     137.728 134.587 131.436  1.00  0.00     0.039 C 
ATOM      8  C   UNL     1     136.481 135.012 133.512  1.00  0.00    -0.028 CG0
ATOM      9  G   UNL     1     135.743 135.821 134.553  1.00  0.00     0.000 G0
ENDBRANCH   5   6
ENDBRANCH   4   5
ENDBRANCH   3   4
BRANCH   3  10
ATOM     10  C   UNL     1     135.752 140.090 130.773  1.00  0.00    -0.010 C 
ATOM     11  C   UNL     1     134.598 140.714 129.970  1.00  0.00     0.008 C 
ATOM     12  C   UNL     1     136.323 141.158 131.723  1.00  0.00     0.008 C 
ENDBRANCH   3  10
ENDBRANCH   2   3
BRANCH   1  13
ATOM     13  C   UNL     1     133.904 137.580 134.135  1.00  0.00    -0.055 C 
ATOM     14  C   UNL     1     134.535 138.452 134.930  1.00  0.00     0.012 C 
BRANCH  13  15
ATOM     15  C   UNL     1     134.265 136.108 134.196  1.00  0.00     0.039 C 
BRANCH  15  16
ATOM     16  C   UNL     1     135.743 135.823 134.562  1.00  0.00     0.032 CG0
ATOM     17  G   UNL     1     136.479 135.014 133.519  1.00  0.00     0.000 G0
ENDBRANCH  15  16
ENDBRANCH  13  15
ENDBRANCH   1  13
TORSDOF 1
ENDMDL
