MODEL 1
REMARK VINA RESULT:    -5.382      0.000      0.000
REMARK INTER + INTRA:          -6.802
REMARK INTER:                  -6.484
REMARK INTRA:                  -0.318
REMARK UNBOUND:                -0.318
REMARK SMILES O=c1c(O)c(-c2ccc(O)c(O)c2)oc2cc(O)cc(O)c12
REMARK SMILES IDX 5 1 3 2 2 3 1 4 22 5 20 6 19 7 17 8 16 9 15 10 14 11 6 12
REMARK SMILES IDX 7 13 8 14 9 15 13 16 11 17 10 18 12 20 4 22 21 24 18 26
REMARK H PARENT 10 19 12 21 4 23 21 25 18 27
REMARK Flexibility Score: inf
ROOT
ATOM      1  C   UNL     1      47.653  -8.280  -2.816  1.00  0.00     0.180 A 
ATOM      2  C   UNL     1      48.412  -9.189  -2.059  1.00  0.00     0.208 A 
ATOM      3  C   UNL     1      48.142  -9.326  -0.688  1.00  0.00     0.238 A 
ATOM      4  O   UNL     1      48.861 -10.101  -0.006  1.00  0.00    -0.285 OA
ATOM      5  C   UNL     1      47.106  -8.566  -0.095  1.00  0.00     0.111 A 
ATOM      6  C   UNL     1      46.719  -8.654   1.276  1.00  0.00     0.134 A 
ATOM      7  C   UNL     1      45.768  -7.760   1.785  1.00  0.00     0.093 A 
ATOM      8  C   UNL     1      45.143  -6.826   0.956  1.00  0.00     0.123 A 
ATOM      9  C   UNL     1      45.471  -6.771  -0.396  1.00  0.00     0.094 A 
ATOM     10  C   UNL     1      46.442  -7.626  -0.925  1.00  0.00     0.146 A 
ATOM     11  O   UNL     1      46.732  -7.533  -2.217  1.00  0.00    -0.452 OA
ENDROOT
BRANCH   1  12
ATOM     12  C   UNL     1      47.861  -8.098  -4.271  1.00  0.00     0.025 A 
ATOM     13  C   UNL     1      47.075  -8.782  -5.214  1.00  0.00     0.016 A 
ATOM     14  C   UNL     1      47.274  -8.576  -6.581  1.00  0.00     0.051 A 
ATOM     15  C   UNL     1      48.250  -7.679  -7.028  1.00  0.00     0.157 A 
ATOM     16  C   UNL     1      48.826  -7.181  -4.722  1.00  0.00     0.062 A 
ATOM     17  C   UNL     1      49.028  -6.975  -6.094  1.00  0.00     0.158 A 
BRANCH  15  18
ATOM     18  O   UNL     1      48.427  -7.497  -8.399  1.00  0.00    -0.504 OA
ATOM     19  H   UNL     1      48.671  -6.598  -8.795  1.00  0.00     0.293 HD
ENDBRANCH  15  18
BRANCH  17  20
ATOM     20  O   UNL     1      49.996  -6.074  -6.532  1.00  0.00    -0.504 OA
ATOM     21  H   UNL     1      50.696  -5.697  -5.902  1.00  0.00     0.293 HD
ENDBRANCH  17  20
ENDBRANCH   1  12
BRANCH   2  22
ATOM     22  O   UNL     1      49.445  -9.914  -2.661  1.00  0.00    -0.502 OA
ATOM     23  H   UNL     1      49.904 -10.690  -2.200  1.00  0.00     0.293 HD
ENDBRANCH   2  22
BRANCH   6  24
ATOM     24  O   UNL     1      47.214  -9.611   2.167  1.00  0.00    -0.507 OA
ATOM     25  H   UNL     1      46.952 -10.586   2.167  1.00  0.00     0.293 HD
ENDBRANCH   6  24
BRANCH   8  26
ATOM     26  O   UNL     1      44.187  -5.950   1.467  1.00  0.00    -0.508 OA
ATOM     27  H   UNL     1      44.398  -4.973   1.632  1.00  0.00     0.293 HD
ENDBRANCH   8  26
TORSDOF 6
ENDMDL
MODEL 2
REMARK VINA RESULT:    -5.297     11.331     14.220
REMARK INTER + INTRA:          -6.699
REMARK INTER:                  -6.398
REMARK INTRA:                  -0.301
REMARK UNBOUND:                -0.318
REMARK SMILES O=c1c(O)c(-c2ccc(O)c(O)c2)oc2cc(O)cc(O)c12
REMARK SMILES IDX 5 1 3 2 2 3 1 4 22 5 20 6 19 7 17 8 16 9 15 10 14 11 6 12
REMARK SMILES IDX 7 13 8 14 9 15 13 16 11 17 10 18 12 20 4 22 21 24 18 26
REMARK H PARENT 10 19 12 21 4 23 21 25 18 27
REMARK Flexibility Score: inf
ROOT
ATOM      1  C   UNL     1      59.141  -4.501  -7.986  1.00  0.00     0.180 A 
ATOM      2  C   UNL     1      60.219  -4.050  -8.768  1.00  0.00     0.208 A 
ATOM      3  C   UNL     1      61.467  -3.847  -8.155  1.00  0.00     0.238 A 
ATOM      4  O   UNL     1      62.412  -3.391  -8.849  1.00  0.00    -0.285 OA
ATOM      5  C   UNL     1      61.625  -4.116  -6.775  1.00  0.00     0.111 A 
ATOM      6  C   UNL     1      62.854  -3.986  -6.060  1.00  0.00     0.134 A 
ATOM      7  C   UNL     1      62.866  -4.152  -4.669  1.00  0.00     0.093 A 
ATOM      8  C   UNL     1      61.706  -4.508  -3.978  1.00  0.00     0.123 A 
ATOM      9  C   UNL     1      60.514  -4.696  -4.674  1.00  0.00     0.094 A 
ATOM     10  C   UNL     1      60.464  -4.502  -6.057  1.00  0.00     0.146 A 
ATOM     11  O   UNL     1      59.306  -4.681  -6.680  1.00  0.00    -0.452 OA
ENDROOT
BRANCH   1  12
ATOM     12  C   UNL     1      57.803  -4.762  -8.565  1.00  0.00     0.025 A 
ATOM     13  C   UNL     1      57.536  -5.934  -9.292  1.00  0.00     0.016 A 
ATOM     14  C   UNL     1      56.259  -6.169  -9.808  1.00  0.00     0.051 A 
ATOM     15  C   UNL     1      55.228  -5.247  -9.596  1.00  0.00     0.157 A 
ATOM     16  C   UNL     1      56.761  -3.847  -8.334  1.00  0.00     0.062 A 
ATOM     17  C   UNL     1      55.479  -4.082  -8.852  1.00  0.00     0.158 A 
BRANCH  15  18
ATOM     18  O   UNL     1      53.965  -5.508 -10.125  1.00  0.00    -0.504 OA
ATOM     19  H   UNL     1      53.578  -4.964 -10.885  1.00  0.00     0.293 HD
ENDBRANCH  15  18
BRANCH  17  20
ATOM     20  O   UNL     1      54.455  -3.162  -8.631  1.00  0.00    -0.504 OA
ATOM     21  H   UNL     1      54.231  -2.442  -9.308  1.00  0.00     0.293 HD
ENDBRANCH  17  20
ENDBRANCH   1  12
BRANCH   2  22
ATOM     22  O   UNL     1      60.034  -3.770 -10.125  1.00  0.00    -0.502 OA
ATOM     23  H   UNL     1      59.632  -4.442 -10.768  1.00  0.00     0.293 HD
ENDBRANCH   2  22
BRANCH   6  24
ATOM     24  O   UNL     1      64.086  -3.722  -6.667  1.00  0.00    -0.507 OA
ATOM     25  H   UNL     1      64.825  -4.399  -6.783  1.00  0.00     0.293 HD
ENDBRANCH   6  24
BRANCH   8  26
ATOM     26  O   UNL     1      61.728  -4.687  -2.596  1.00  0.00    -0.508 OA
ATOM     27  H   UNL     1      62.108  -3.980  -1.976  1.00  0.00     0.293 HD
ENDBRANCH   8  26
TORSDOF 6
ENDMDL
MODEL 3
REMARK VINA RESULT:    -5.274      1.396      3.079
REMARK INTER + INTRA:          -6.672
REMARK INTER:                  -6.378
REMARK INTRA:                  -0.294
REMARK UNBOUND:                -0.318
REMARK SMILES O=c1c(O)c(-c2ccc(O)c(O)c2)oc2cc(O)cc(O)c12
REMARK SMILES IDX 5 1 3 2 2 3 1 4 22 5 20 6 19 7 17 8 16 9 15 10 14 11 6 12
REMARK SMILES IDX 7 13 8 14 9 15 13 16 11 17 10 18 12 20 4 22 21 24 18 26
REMARK H PARENT 10 19 12 21 4 23 21 25 18 27
REMARK Flexibility Score: inf
ROOT
ATOM      1  C   UNL     1      46.716  -8.036  -1.802  1.00  0.00     0.180 A 
ATOM      2  C   UNL     1      45.578  -7.354  -1.338  1.00  0.00     0.208 A 
ATOM      3  C   UNL     1      45.327  -7.307   0.043  1.00  0.00     0.238 A 
ATOM      4  O   UNL     1      44.278  -6.742   0.447  1.00  0.00    -0.285 OA
ATOM      5  C   UNL     1      46.227  -7.926   0.943  1.00  0.00     0.111 A 
ATOM      6  C   UNL     1      46.093  -7.906   2.364  1.00  0.00     0.134 A 
ATOM      7  C   UNL     1      46.970  -8.663   3.152  1.00  0.00     0.093 A 
ATOM      8  C   UNL     1      48.014  -9.386   2.572  1.00  0.00     0.123 A 
ATOM      9  C   UNL     1      48.189  -9.365   1.191  1.00  0.00     0.094 A 
ATOM     10  C   UNL     1      47.309  -8.648   0.376  1.00  0.00     0.146 A 
ATOM     11  O   UNL     1      47.505  -8.663  -0.936  1.00  0.00    -0.452 OA
ENDROOT
BRANCH   1  12
ATOM     12  C   UNL     1      47.060  -8.108  -3.241  1.00  0.00     0.025 A 
ATOM     13  C   UNL     1      46.431  -9.025  -4.099  1.00  0.00     0.016 A 
ATOM     14  C   UNL     1      46.756  -9.059  -5.458  1.00  0.00     0.051 A 
ATOM     15  C   UNL     1      47.701  -8.171  -5.982  1.00  0.00     0.157 A 
ATOM     16  C   UNL     1      47.993  -7.202  -3.773  1.00  0.00     0.062 A 
ATOM     17  C   UNL     1      48.321  -7.235  -5.136  1.00  0.00     0.158 A 
BRANCH  15  18
ATOM     18  O   UNL     1      48.005  -8.229  -7.341  1.00  0.00    -0.504 OA
ATOM     19  H   UNL     1      48.918  -7.976  -7.699  1.00  0.00     0.293 HD
ENDBRANCH  15  18
BRANCH  17  20
ATOM     20  O   UNL     1      49.258  -6.342  -5.653  1.00  0.00    -0.504 OA
ATOM     21  H   UNL     1      49.280  -5.370  -5.367  1.00  0.00     0.293 HD
ENDBRANCH  17  20
ENDBRANCH   1  12
BRANCH   2  22
ATOM     22  O   UNL     1      44.692  -6.768  -2.247  1.00  0.00    -0.502 OA
ATOM     23  H   UNL     1      44.222  -5.890  -2.059  1.00  0.00     0.293 HD
ENDBRANCH   2  22
BRANCH   6  24
ATOM     24  O   UNL     1      45.141  -7.143   3.048  1.00  0.00    -0.507 OA
ATOM     25  H   UNL     1      44.351  -7.524   3.546  1.00  0.00     0.293 HD
ENDBRANCH   6  24
BRANCH   8  26
ATOM     26  O   UNL     1      48.892 -10.125   3.364  1.00  0.00    -0.508 OA
ATOM     27  H   UNL     1      49.734  -9.712   3.749  1.00  0.00     0.293 HD
ENDBRANCH   8  26
TORSDOF 6
ENDMDL
MODEL 4
REMARK VINA RESULT:    -5.122      1.702      7.336
REMARK INTER + INTRA:          -6.488
REMARK INTER:                  -6.171
REMARK INTRA:                  -0.317
REMARK UNBOUND:                -0.318
REMARK SMILES O=c1c(O)c(-c2ccc(O)c(O)c2)oc2cc(O)cc(O)c12
REMARK SMILES IDX 5 1 3 2 2 3 1 4 22 5 20 6 19 7 17 8 16 9 15 10 14 11 6 12
REMARK SMILES IDX 7 13 8 14 9 15 13 16 11 17 10 18 12 20 4 22 21 24 18 26
REMARK H PARENT 10 19 12 21 4 23 21 25 18 27
REMARK Flexibility Score: inf
ROOT
ATOM      1  C   UNL     1      47.568  -8.253  -4.282  1.00  0.00     0.180 A 
ATOM      2  C   UNL     1      46.802  -9.073  -5.130  1.00  0.00     0.208 A 
ATOM      3  C   UNL     1      47.091  -9.089  -6.504  1.00  0.00     0.238 A 
ATOM      4  O   UNL     1      46.367  -9.782  -7.264  1.00  0.00    -0.285 OA
ATOM      5  C   UNL     1      48.152  -8.302  -7.010  1.00  0.00     0.111 A 
ATOM      6  C   UNL     1      48.559  -8.273  -8.378  1.00  0.00     0.134 A 
ATOM      7  C   UNL     1      49.536  -7.358  -8.790  1.00  0.00     0.093 A 
ATOM      8  C   UNL     1      50.167  -6.517  -7.870  1.00  0.00     0.123 A 
ATOM      9  C   UNL     1      49.819  -6.579  -6.523  1.00  0.00     0.094 A 
ATOM     10  C   UNL     1      48.822  -7.456  -6.088  1.00  0.00     0.146 A 
ATOM     11  O   UNL     1      48.514  -7.476  -4.798  1.00  0.00    -0.452 OA
ENDROOT
BRANCH   1  12
ATOM     12  C   UNL     1      47.340  -8.201  -2.820  1.00  0.00     0.025 A 
ATOM     13  C   UNL     1      48.100  -8.982  -1.933  1.00  0.00     0.016 A 
ATOM     14  C   UNL     1      47.883  -8.898  -0.555  1.00  0.00     0.051 A 
ATOM     15  C   UNL     1      46.917  -8.027  -0.042  1.00  0.00     0.157 A 
ATOM     16  C   UNL     1      46.385  -7.311  -2.301  1.00  0.00     0.062 A 
ATOM     17  C   UNL     1      46.166  -7.226  -0.918  1.00  0.00     0.158 A 
BRANCH  15  18
ATOM     18  O   UNL     1      46.722  -7.967   1.337  1.00  0.00    -0.504 OA
ATOM     19  H   UNL     1      47.045  -7.185   1.893  1.00  0.00     0.293 HD
ENDBRANCH  15  18
BRANCH  17  20
ATOM     20  O   UNL     1      45.207  -6.350  -0.413  1.00  0.00    -0.504 OA
ATOM     21  H   UNL     1      45.388  -5.357  -0.324  1.00  0.00     0.293 HD
ENDBRANCH  17  20
ENDBRANCH   1  12
BRANCH   2  22
ATOM     22  O   UNL     1      45.745  -9.826  -4.611  1.00  0.00    -0.502 OA
ATOM     23  H   UNL     1      45.040  -9.426  -4.004  1.00  0.00     0.293 HD
ENDBRANCH   2  22
BRANCH   6  24
ATOM     24  O   UNL     1      48.058  -9.133  -9.360  1.00  0.00    -0.507 OA
ATOM     25  H   UNL     1      48.583  -9.465 -10.155  1.00  0.00     0.293 HD
ENDBRANCH   6  24
BRANCH   8  26
ATOM     26  O   UNL     1      51.149  -5.620  -8.285  1.00  0.00    -0.508 OA
ATOM     27  H   UNL     1      51.214  -5.313  -9.249  1.00  0.00     0.293 HD
ENDBRANCH   8  26
TORSDOF 6
ENDMDL
MODEL 5
REMARK VINA RESULT:    -5.099      1.675      7.009
REMARK INTER + INTRA:          -6.461
REMARK INTER:                  -6.139
REMARK INTRA:                  -0.322
REMARK UNBOUND:                -0.318
REMARK SMILES O=c1c(O)c(-c2ccc(O)c(O)c2)oc2cc(O)cc(O)c12
REMARK SMILES IDX 5 1 3 2 2 3 1 4 22 5 20 6 19 7 17 8 16 9 15 10 14 11 6 12
REMARK SMILES IDX 7 13 8 14 9 15 13 16 11 17 10 18 12 20 4 22 21 24 18 26
REMARK H PARENT 10 19 12 21 4 23 21 25 18 27
REMARK Flexibility Score: inf
ROOT
ATOM      1  C   UNL     1      46.274  -8.364  -2.027  1.00  0.00     0.180 A 
ATOM      2  C   UNL     1      45.461  -9.229  -2.780  1.00  0.00     0.208 A 
ATOM      3  C   UNL     1      45.723  -9.391  -4.150  1.00  0.00     0.238 A 
ATOM      4  O   UNL     1      44.958 -10.124  -4.828  1.00  0.00    -0.285 OA
ATOM      5  C   UNL     1      46.806  -8.701  -4.746  1.00  0.00     0.111 A 
ATOM      6  C   UNL     1      47.189  -8.822  -6.116  1.00  0.00     0.134 A 
ATOM      7  C   UNL     1      48.194  -7.993  -6.629  1.00  0.00     0.093 A 
ATOM      8  C   UNL     1      48.875  -7.095  -5.805  1.00  0.00     0.123 A 
ATOM      9  C   UNL     1      48.549  -7.011  -4.453  1.00  0.00     0.094 A 
ATOM     10  C   UNL     1      47.526  -7.799  -3.921  1.00  0.00     0.146 A 
ATOM     11  O   UNL     1      47.241  -7.681  -2.630  1.00  0.00    -0.452 OA
ENDROOT
BRANCH   1  12
ATOM     12  C   UNL     1      46.075  -8.161  -0.574  1.00  0.00     0.025 A 
ATOM     13  C   UNL     1      46.600  -9.060   0.369  1.00  0.00     0.016 A 
ATOM     14  C   UNL     1      46.420  -8.834   1.736  1.00  0.00     0.051 A 
ATOM     15  C   UNL     1      45.727  -7.705   2.183  1.00  0.00     0.157 A 
ATOM     16  C   UNL     1      45.398  -7.015  -0.123  1.00  0.00     0.062 A 
ATOM     17  C   UNL     1      45.216  -6.788   1.249  1.00  0.00     0.158 A 
BRANCH  15  18
ATOM     18  O   UNL     1      45.562  -7.508   3.553  1.00  0.00    -0.504 OA
ATOM     19  H   UNL     1      45.690  -6.602   3.985  1.00  0.00     0.293 HD
ENDBRANCH  15  18
BRANCH  17  20
ATOM     20  O   UNL     1      44.531  -5.656   1.686  1.00  0.00    -0.504 OA
ATOM     21  H   UNL     1      43.720  -5.726   2.291  1.00  0.00     0.293 HD
ENDBRANCH  17  20
ENDBRANCH   1  12
BRANCH   2  22
ATOM     22  O   UNL     1      44.384  -9.884  -2.175  1.00  0.00    -0.502 OA
ATOM     23  H   UNL     1      44.195  -9.817  -1.182  1.00  0.00     0.293 HD
ENDBRANCH   2  22
BRANCH   6  24
ATOM     24  O   UNL     1      46.635  -9.753  -7.001  1.00  0.00    -0.507 OA
ATOM     25  H   UNL     1      46.471  -9.584  -7.982  1.00  0.00     0.293 HD
ENDBRANCH   6  24
BRANCH   8  26
ATOM     26  O   UNL     1      49.885  -6.284  -6.319  1.00  0.00    -0.508 OA
ATOM     27  H   UNL     1      49.938  -5.297  -6.094  1.00  0.00     0.293 HD
ENDBRANCH   8  26
TORSDOF 6
ENDMDL
MODEL 6
REMARK VINA RESULT:    -4.857      1.888      2.698
REMARK INTER + INTRA:          -6.169
REMARK INTER:                  -5.845
REMARK INTRA:                  -0.324
REMARK UNBOUND:                -0.318
REMARK SMILES O=c1c(O)c(-c2ccc(O)c(O)c2)oc2cc(O)cc(O)c12
REMARK SMILES IDX 5 1 3 2 2 3 1 4 22 5 20 6 19 7 17 8 16 9 15 10 14 11 6 12
REMARK SMILES IDX 7 13 8 14 9 15 13 16 11 17 10 18 12 20 4 22 21 24 18 26
REMARK H PARENT 10 19 12 21 4 23 21 25 18 27
REMARK Flexibility Score: inf
ROOT
ATOM      1  C   UNL     1      47.100  -8.565  -1.892  1.00  0.00     0.180 A 
ATOM      2  C   UNL     1      45.759  -8.976  -1.805  1.00  0.00     0.208 A 
ATOM      3  C   UNL     1      45.110  -8.923  -0.560  1.00  0.00     0.238 A 
ATOM      4  O   UNL     1      43.927  -9.343  -0.478  1.00  0.00    -0.285 OA
ATOM      5  C   UNL     1      45.804  -8.442   0.576  1.00  0.00     0.111 A 
ATOM      6  C   UNL     1      45.233  -8.307   1.877  1.00  0.00     0.134 A 
ATOM      7  C   UNL     1      46.049  -7.946   2.956  1.00  0.00     0.093 A 
ATOM      8  C   UNL     1      47.402  -7.651   2.768  1.00  0.00     0.123 A 
ATOM      9  C   UNL     1      47.955  -7.723   1.492  1.00  0.00     0.094 A 
ATOM     10  C   UNL     1      47.174  -8.116   0.402  1.00  0.00     0.146 A 
ATOM     11  O   UNL     1      47.744  -8.181  -0.795  1.00  0.00    -0.452 OA
ENDROOT
BRANCH   1  12
ATOM     12  C   UNL     1      47.844  -8.568  -3.173  1.00  0.00     0.025 A 
ATOM     13  C   UNL     1      48.554  -9.701  -3.604  1.00  0.00     0.016 A 
ATOM     14  C   UNL     1      49.229  -9.688  -4.828  1.00  0.00     0.051 A 
ATOM     15  C   UNL     1      49.194  -8.553  -5.644  1.00  0.00     0.157 A 
ATOM     16  C   UNL     1      47.791  -7.437  -4.005  1.00  0.00     0.062 A 
ATOM     17  C   UNL     1      48.469  -7.422  -5.233  1.00  0.00     0.158 A 
BRANCH  15  18
ATOM     18  O   UNL     1      49.878  -8.570  -6.858  1.00  0.00    -0.504 OA
ATOM     19  H   UNL     1      50.590  -9.260  -7.065  1.00  0.00     0.293 HD
ENDBRANCH  15  18
BRANCH  17  20
ATOM     20  O   UNL     1      48.423  -6.290  -6.045  1.00  0.00    -0.504 OA
ATOM     21  H   UNL     1      48.028  -6.321  -6.978  1.00  0.00     0.293 HD
ENDBRANCH  17  20
ENDBRANCH   1  12
BRANCH   2  22
ATOM     22  O   UNL     1      45.099  -9.466  -2.935  1.00  0.00    -0.502 OA
ATOM     23  H   UNL     1      44.995 -10.458  -3.116  1.00  0.00     0.293 HD
ENDBRANCH   2  22
BRANCH   6  24
ATOM     24  O   UNL     1      43.875  -8.488   2.156  1.00  0.00    -0.507 OA
ATOM     25  H   UNL     1      43.358  -7.972   2.852  1.00  0.00     0.293 HD
ENDBRANCH   6  24
BRANCH   8  26
ATOM     26  O   UNL     1      48.204  -7.277   3.844  1.00  0.00    -0.508 OA
ATOM     27  H   UNL     1      47.901  -6.579   4.514  1.00  0.00     0.293 HD
ENDBRANCH   8  26
TORSDOF 6
ENDMDL
MODEL 7
REMARK VINA RESULT:    -4.015      2.000      7.140
REMARK INTER + INTRA:          -5.155
REMARK INTER:                  -4.907
REMARK INTRA:                  -0.247
REMARK UNBOUND:                -0.318
REMARK SMILES O=c1c(O)c(-c2ccc(O)c(O)c2)oc2cc(O)cc(O)c12
REMARK SMILES IDX 5 1 3 2 2 3 1 4 22 5 20 6 19 7 17 8 16 9 15 10 14 11 6 12
REMARK SMILES IDX 7 13 8 14 9 15 13 16 11 17 10 18 12 20 4 22 21 24 18 26
REMARK H PARENT 10 19 12 21 4 23 21 25 18 27
REMARK Flexibility Score: inf
ROOT
ATOM      1  C   UNL     1      46.379  -8.653  -1.154  1.00  0.00     0.180 A 
ATOM      2  C   UNL     1      45.241  -9.234  -1.741  1.00  0.00     0.208 A 
ATOM      3  C   UNL     1      45.228  -9.456  -3.128  1.00  0.00     0.238 A 
ATOM      4  O   UNL     1      44.186  -9.925  -3.654  1.00  0.00    -0.285 OA
ATOM      5  C   UNL     1      46.358  -9.111  -3.907  1.00  0.00     0.111 A 
ATOM      6  C   UNL     1      46.470  -9.329  -5.313  1.00  0.00     0.134 A 
ATOM      7  C   UNL     1      47.581  -8.829  -6.004  1.00  0.00     0.093 A 
ATOM      8  C   UNL     1      48.615  -8.177  -5.328  1.00  0.00     0.123 A 
ATOM      9  C   UNL     1      48.543  -8.011  -3.947  1.00  0.00     0.094 A 
ATOM     10  C   UNL     1      47.430  -8.468  -3.236  1.00  0.00     0.146 A 
ATOM     11  O   UNL     1      47.397  -8.280  -1.922  1.00  0.00    -0.452 OA
ENDROOT
BRANCH   1  12
ATOM     12  C   UNL     1      46.478  -8.411   0.303  1.00  0.00     0.025 A 
ATOM     13  C   UNL     1      45.756  -7.378   0.924  1.00  0.00     0.016 A 
ATOM     14  C   UNL     1      45.847  -7.184   2.305  1.00  0.00     0.051 A 
ATOM     15  C   UNL     1      46.646  -8.024   3.087  1.00  0.00     0.157 A 
ATOM     16  C   UNL     1      47.263  -9.267   1.094  1.00  0.00     0.062 A 
ATOM     17  C   UNL     1      47.356  -9.073   2.479  1.00  0.00     0.158 A 
BRANCH  15  18
ATOM     18  O   UNL     1      46.718  -7.804   4.462  1.00  0.00    -0.504 OA
ATOM     19  H   UNL     1      46.699  -8.565   5.130  1.00  0.00     0.293 HD
ENDBRANCH  15  18
BRANCH  17  20
ATOM     20  O   UNL     1      48.149  -9.919   3.254  1.00  0.00    -0.504 OA
ATOM     21  H   UNL     1      47.851 -10.859   3.489  1.00  0.00     0.293 HD
ENDBRANCH  17  20
ENDBRANCH   1  12
BRANCH   2  22
ATOM     22  O   UNL     1      44.128  -9.547  -0.956  1.00  0.00    -0.502 OA
ATOM     23  H   UNL     1      43.224  -9.113  -1.097  1.00  0.00     0.293 HD
ENDBRANCH   2  22
BRANCH   6  24
ATOM     24  O   UNL     1      45.538 -10.048  -6.068  1.00  0.00    -0.507 OA
ATOM     25  H   UNL     1      45.692 -10.375  -7.010  1.00  0.00     0.293 HD
ENDBRANCH   6  24
BRANCH   8  26
ATOM     26  O   UNL     1      49.725  -7.696  -6.020  1.00  0.00    -0.508 OA
ATOM     27  H   UNL     1      50.669  -7.881  -5.701  1.00  0.00     0.293 HD
ENDBRANCH   8  26
TORSDOF 6
ENDMDL
MODEL 8
REMARK VINA RESULT:    -3.957      2.002      6.771
REMARK INTER + INTRA:          -5.084
REMARK INTER:                  -4.784
REMARK INTRA:                  -0.300
REMARK UNBOUND:                -0.318
REMARK SMILES O=c1c(O)c(-c2ccc(O)c(O)c2)oc2cc(O)cc(O)c12
REMARK SMILES IDX 5 1 3 2 2 3 1 4 22 5 20 6 19 7 17 8 16 9 15 10 14 11 6 12
REMARK SMILES IDX 7 13 8 14 9 15 13 16 11 17 10 18 12 20 4 22 21 24 18 26
REMARK H PARENT 10 19 12 21 4 23 21 25 18 27
REMARK Flexibility Score: inf
ROOT
ATOM      1  C   UNL     1      47.303  -9.202  -2.680  1.00  0.00     0.180 A 
ATOM      2  C   UNL     1      48.670  -9.518  -2.759  1.00  0.00     0.208 A 
ATOM      3  C   UNL     1      49.235  -9.788  -4.016  1.00  0.00     0.238 A 
ATOM      4  O   UNL     1      50.446 -10.124  -4.073  1.00  0.00    -0.285 OA
ATOM      5  C   UNL     1      48.432  -9.720  -5.179  1.00  0.00     0.111 A 
ATOM      6  C   UNL     1      48.908  -9.934  -6.507  1.00  0.00     0.134 A 
ATOM      7  C   UNL     1      47.998  -9.971  -7.571  1.00  0.00     0.093 A 
ATOM      8  C   UNL     1      46.637  -9.737  -7.361  1.00  0.00     0.123 A 
ATOM      9  C   UNL     1      46.170  -9.469  -6.077  1.00  0.00     0.094 A 
ATOM     10  C   UNL     1      47.049  -9.461  -4.991  1.00  0.00     0.146 A 
ATOM     11  O   UNL     1      46.561  -9.211  -3.783  1.00  0.00    -0.452 OA
ENDROOT
BRANCH   1  12
ATOM     12  C   UNL     1      46.641  -8.881  -1.395  1.00  0.00     0.025 A 
ATOM     13  C   UNL     1      46.208  -9.894  -0.522  1.00  0.00     0.016 A 
ATOM     14  C   UNL     1      45.607  -9.566   0.697  1.00  0.00     0.051 A 
ATOM     15  C   UNL     1      45.441  -8.228   1.067  1.00  0.00     0.157 A 
ATOM     16  C   UNL     1      46.493  -7.538  -1.011  1.00  0.00     0.062 A 
ATOM     17  C   UNL     1      45.889  -7.208   0.211  1.00  0.00     0.158 A 
BRANCH  15  18
ATOM     18  O   UNL     1      44.837  -7.933   2.288  1.00  0.00    -0.504 OA
ATOM     19  H   UNL     1      43.864  -7.660   2.355  1.00  0.00     0.293 HD
ENDBRANCH  15  18
BRANCH  17  20
ATOM     20  O   UNL     1      45.734  -5.872   0.578  1.00  0.00    -0.504 OA
ATOM     21  H   UNL     1      45.782  -5.578   1.547  1.00  0.00     0.293 HD
ENDBRANCH  17  20
ENDBRANCH   1  12
BRANCH   2  22
ATOM     22  O   UNL     1      49.440  -9.601  -1.596  1.00  0.00    -0.502 OA
ATOM     23  H   UNL     1      49.857  -8.786  -1.161  1.00  0.00     0.293 HD
ENDBRANCH   2  22
BRANCH   6  24
ATOM     24  O   UNL     1      50.259 -10.087  -6.837  1.00  0.00    -0.507 OA
ATOM     25  H   UNL     1      50.771 -10.954  -6.772  1.00  0.00     0.293 HD
ENDBRANCH   6  24
BRANCH   8  26
ATOM     26  O   UNL     1      45.739  -9.760  -8.427  1.00  0.00    -0.508 OA
ATOM     27  H   UNL     1      44.739  -9.816  -8.276  1.00  0.00     0.293 HD
ENDBRANCH   8  26
TORSDOF 6
ENDMDL
MODEL 9
REMARK VINA RESULT:    -3.546     19.690     21.032
REMARK INTER + INTRA:          -4.589
REMARK INTER:                  -4.470
REMARK INTRA:                  -0.119
REMARK UNBOUND:                -0.318
REMARK SMILES O=c1c(O)c(-c2ccc(O)c(O)c2)oc2cc(O)cc(O)c12
REMARK SMILES IDX 5 1 3 2 2 3 1 4 22 5 20 6 19 7 17 8 16 9 15 10 14 11 6 12
REMARK SMILES IDX 7 13 8 14 9 15 13 16 11 17 10 18 12 20 4 22 21 24 18 26
REMARK H PARENT 10 19 12 21 4 23 21 25 18 27
REMARK Flexibility Score: inf
ROOT
ATOM      1  C   UNL     1      58.890   9.003  -6.287  1.00  0.00     0.180 A 
ATOM      2  C   UNL     1      58.602   9.144  -4.918  1.00  0.00     0.208 A 
ATOM      3  C   UNL     1      57.282   9.418  -4.525  1.00  0.00     0.238 A 
ATOM      4  O   UNL     1      57.041   9.596  -3.303  1.00  0.00    -0.285 OA
ATOM      5  C   UNL     1      56.264   9.529  -5.502  1.00  0.00     0.111 A 
ATOM      6  C   UNL     1      54.886   9.763  -5.215  1.00  0.00     0.134 A 
ATOM      7  C   UNL     1      53.988   9.986  -6.266  1.00  0.00     0.093 A 
ATOM      8  C   UNL     1      54.408   9.917  -7.596  1.00  0.00     0.123 A 
ATOM      9  C   UNL     1      55.739   9.631  -7.889  1.00  0.00     0.094 A 
ATOM     10  C   UNL     1      56.665   9.439  -6.861  1.00  0.00     0.146 A 
ATOM     11  O   UNL     1      57.925   9.179  -7.184  1.00  0.00    -0.452 OA
ENDROOT
BRANCH   1  12
ATOM     12  C   UNL     1      60.252   8.690  -6.778  1.00  0.00     0.025 A 
ATOM     13  C   UNL     1      61.334   9.552  -6.533  1.00  0.00     0.016 A 
ATOM     14  C   UNL     1      62.615   9.224  -6.986  1.00  0.00     0.051 A 
ATOM     15  C   UNL     1      62.837   8.027  -7.675  1.00  0.00     0.157 A 
ATOM     16  C   UNL     1      60.481   7.479  -7.451  1.00  0.00     0.062 A 
ATOM     17  C   UNL     1      61.766   7.148  -7.907  1.00  0.00     0.158 A 
BRANCH  15  18
ATOM     18  O   UNL     1      64.125   7.728  -8.116  1.00  0.00    -0.504 OA
ATOM     19  H   UNL     1      64.950   8.054  -7.628  1.00  0.00     0.293 HD
ENDBRANCH  15  18
BRANCH  17  20
ATOM     20  O   UNL     1      61.981   5.951  -8.586  1.00  0.00    -0.504 OA
ATOM     21  H   UNL     1      61.297   5.203  -8.577  1.00  0.00     0.293 HD
ENDBRANCH  17  20
ENDBRANCH   1  12
BRANCH   2  22
ATOM     22  O   UNL     1      59.626   9.051  -3.972  1.00  0.00    -0.502 OA
ATOM     23  H   UNL     1      60.473   9.604  -4.032  1.00  0.00     0.293 HD
ENDBRANCH   2  22
BRANCH   6  24
ATOM     24  O   UNL     1      54.347   9.760  -3.924  1.00  0.00    -0.507 OA
ATOM     25  H   UNL     1      54.829  10.086  -3.100  1.00  0.00     0.293 HD
ENDBRANCH   6  24
BRANCH   8  26
ATOM     26  O   UNL     1      53.505  10.125  -8.638  1.00  0.00    -0.508 OA
ATOM     27  H   UNL     1      52.561   9.758  -8.602  1.00  0.00     0.293 HD
ENDBRANCH   8  26
TORSDOF 6
ENDMDL
