MODEL 1
REMARK VINA RESULT:    -5.441      0.000      0.000
REMARK INTER + INTRA:          -6.524
REMARK INTER:                  -6.396
REMARK INTRA:                  -0.129
REMARK UNBOUND:                -0.129
REMARK SMILES O=C([O-])C=Cc1ccc(O)c(O)c1
REMARK SMILES IDX 6 1 13 2 7 3 11 4 8 5 9 6 5 7 4 8 2 9 1 10 3 11 12 12 10 14
REMARK H PARENT 12 13 10 15
REMARK Flexibility Score: inf
ROOT
ATOM      1  C   UNL     1      20.132  23.769  39.766  1.00  0.00    -0.022 A 
ATOM      2  C   UNL     1      19.649  23.775  38.442  1.00  0.00     0.058 A 
ATOM      3  C   UNL     1      20.725  22.598  40.264  1.00  0.00     0.012 A 
ATOM      4  C   UNL     1      19.781  22.639  37.628  1.00  0.00     0.157 A 
ATOM      5  C   UNL     1      20.859  21.468  39.456  1.00  0.00     0.051 A 
ATOM      6  C   UNL     1      20.392  21.482  38.138  1.00  0.00     0.157 A 
ENDROOT
BRANCH   1   7
ATOM      7  C   UNL     1      20.006  24.941  40.666  1.00  0.00     0.010 C 
ATOM      8  C   UNL     1      20.906  25.934  40.729  1.00  0.00     0.025 C 
BRANCH   8   9
ATOM      9  C   UNL     1      20.753  27.076  41.645  1.00  0.00     0.064 C 
ATOM     10  O   UNL     1      19.932  27.041  42.601  1.00  0.00    -0.545 OA
ATOM     11  O   UNL     1      21.525  28.214  41.451  1.00  0.00    -0.545 OA
ENDBRANCH   8   9
ENDBRANCH   1   7
BRANCH   4  12
ATOM     12  O   UNL     1      19.303  22.655  36.319  1.00  0.00    -0.504 OA
ATOM     13  H   UNL     1      19.215  23.519  35.796  1.00  0.00     0.293 HD
ENDBRANCH   4  12
BRANCH   6  14
ATOM     14  O   UNL     1      20.541  20.338  37.354  1.00  0.00    -0.504 OA
ATOM     15  H   UNL     1      20.029  19.485  37.544  1.00  0.00     0.293 HD
ENDBRANCH   6  14
TORSDOF 4
ENDMDL
MODEL 2
REMARK VINA RESULT:    -5.281      1.110      6.093
REMARK INTER + INTRA:          -6.336
REMARK INTER:                  -6.204
REMARK INTRA:                  -0.131
REMARK UNBOUND:                -0.129
REMARK SMILES O=C([O-])C=Cc1ccc(O)c(O)c1
REMARK SMILES IDX 6 1 13 2 7 3 11 4 8 5 9 6 5 7 4 8 2 9 1 10 3 11 12 12 10 14
REMARK H PARENT 12 13 10 15
REMARK Flexibility Score: inf
ROOT
ATOM      1  C   UNL     1      19.953  25.368  40.555  1.00  0.00    -0.022 A 
ATOM      2  C   UNL     1      21.065  26.230  40.629  1.00  0.00     0.058 A 
ATOM      3  C   UNL     1      19.006  25.394  41.592  1.00  0.00     0.012 A 
ATOM      4  C   UNL     1      21.209  27.118  41.707  1.00  0.00     0.157 A 
ATOM      5  C   UNL     1      19.148  26.277  42.664  1.00  0.00     0.051 A 
ATOM      6  C   UNL     1      20.244  27.142  42.726  1.00  0.00     0.157 A 
ENDROOT
BRANCH   1   7
ATOM      7  C   UNL     1      19.761  24.406  39.442  1.00  0.00     0.010 C 
ATOM      8  C   UNL     1      20.185  23.134  39.474  1.00  0.00     0.025 C 
BRANCH   8   9
ATOM      9  C   UNL     1      19.988  22.212  38.344  1.00  0.00     0.064 C 
ATOM     10  O   UNL     1      19.303  22.545  37.341  1.00  0.00    -0.545 OA
ATOM     11  O   UNL     1      20.565  20.949  38.386  1.00  0.00    -0.545 OA
ENDBRANCH   8   9
ENDBRANCH   1   7
BRANCH   4  12
ATOM     12  O   UNL     1      22.311  27.970  41.770  1.00  0.00    -0.504 OA
ATOM     13  H   UNL     1      22.622  28.373  42.647  1.00  0.00     0.293 HD
ENDBRANCH   4  12
BRANCH   6  14
ATOM     14  O   UNL     1      20.358  28.015  43.809  1.00  0.00    -0.504 OA
ATOM     15  H   UNL     1      19.815  27.895  44.656  1.00  0.00     0.293 HD
ENDBRANCH   6  14
TORSDOF 4
ENDMDL
MODEL 3
REMARK VINA RESULT:    -5.245      1.642      2.561
REMARK INTER + INTRA:          -6.294
REMARK INTER:                  -6.174
REMARK INTRA:                  -0.120
REMARK UNBOUND:                -0.129
REMARK SMILES O=C([O-])C=Cc1ccc(O)c(O)c1
REMARK SMILES IDX 6 1 13 2 7 3 11 4 8 5 9 6 5 7 4 8 2 9 1 10 3 11 12 12 10 14
REMARK H PARENT 12 13 10 15
REMARK Flexibility Score: inf
ROOT
ATOM      1  C   UNL     1      19.561  24.127  39.889  1.00  0.00    -0.022 A 
ATOM      2  C   UNL     1      20.392  23.138  40.454  1.00  0.00     0.058 A 
ATOM      3  C   UNL     1      19.167  23.996  38.548  1.00  0.00     0.012 A 
ATOM      4  C   UNL     1      20.797  22.029  39.695  1.00  0.00     0.157 A 
ATOM      5  C   UNL     1      19.569  22.892  37.793  1.00  0.00     0.051 A 
ATOM      6  C   UNL     1      20.380  21.905  38.360  1.00  0.00     0.157 A 
ENDROOT
BRANCH   1   7
ATOM      7  C   UNL     1      19.115  25.322  40.647  1.00  0.00     0.010 C 
ATOM      8  C   UNL     1      18.606  25.272  41.887  1.00  0.00     0.025 C 
BRANCH   8   9
ATOM      9  C   UNL     1      18.163  26.479  42.603  1.00  0.00     0.064 C 
ATOM     10  O   UNL     1      17.019  26.971  42.408  1.00  0.00    -0.545 OA
ATOM     11  O   UNL     1      19.021  27.089  43.509  1.00  0.00    -0.545 OA
ENDBRANCH   8   9
ENDBRANCH   1   7
BRANCH   4  12
ATOM     12  O   UNL     1      21.616  21.054  40.262  1.00  0.00    -0.504 OA
ATOM     13  H   UNL     1      22.451  20.721  39.792  1.00  0.00     0.293 HD
ENDBRANCH   4  12
BRANCH   6  14
ATOM     14  O   UNL     1      20.763  20.813  37.582  1.00  0.00    -0.504 OA
ATOM     15  H   UNL     1      21.736  20.592  37.407  1.00  0.00     0.293 HD
ENDBRANCH   6  14
TORSDOF 4
ENDMDL
MODEL 4
REMARK VINA RESULT:    -5.207      3.238      7.158
REMARK INTER + INTRA:          -6.249
REMARK INTER:                  -6.128
REMARK INTRA:                  -0.122
REMARK UNBOUND:                -0.129
REMARK SMILES O=C([O-])C=Cc1ccc(O)c(O)c1
REMARK SMILES IDX 6 1 13 2 7 3 11 4 8 5 9 6 5 7 4 8 2 9 1 10 3 11 12 12 10 14
REMARK H PARENT 12 13 10 15
REMARK Flexibility Score: inf
ROOT
ATOM      1  C   UNL     1      18.750  26.145  43.022  1.00  0.00    -0.022 A 
ATOM      2  C   UNL     1      19.766  26.998  43.498  1.00  0.00     0.058 A 
ATOM      3  C   UNL     1      17.496  26.167  43.653  1.00  0.00     0.012 A 
ATOM      4  C   UNL     1      19.520  27.871  44.569  1.00  0.00     0.157 A 
ATOM      5  C   UNL     1      17.250  27.036  44.718  1.00  0.00     0.051 A 
ATOM      6  C   UNL     1      18.255  27.892  45.178  1.00  0.00     0.157 A 
ENDROOT
BRANCH   1   7
ATOM      7  C   UNL     1      18.964  25.198  41.900  1.00  0.00     0.010 C 
ATOM      8  C   UNL     1      19.886  25.373  40.942  1.00  0.00     0.025 C 
BRANCH   8   9
ATOM      9  C   UNL     1      20.062  24.416  39.837  1.00  0.00     0.064 C 
ATOM     10  O   UNL     1      19.772  24.728  38.651  1.00  0.00    -0.545 OA
ATOM     11  O   UNL     1      20.553  23.145  40.106  1.00  0.00    -0.545 OA
ENDBRANCH   8   9
ENDBRANCH   1   7
BRANCH   4  12
ATOM     12  O   UNL     1      20.529  28.714  45.032  1.00  0.00    -0.504 OA
ATOM     13  H   UNL     1      20.704  29.618  44.608  1.00  0.00     0.293 HD
ENDBRANCH   4  12
BRANCH   6  14
ATOM     14  O   UNL     1      17.979  28.751  46.242  1.00  0.00    -0.504 OA
ATOM     15  H   UNL     1      17.918  29.755  46.120  1.00  0.00     0.293 HD
ENDBRANCH   6  14
TORSDOF 4
ENDMDL
MODEL 5
REMARK VINA RESULT:    -5.197      5.446      8.228
REMARK INTER + INTRA:          -6.237
REMARK INTER:                  -6.089
REMARK INTRA:                  -0.148
REMARK UNBOUND:                -0.129
REMARK SMILES O=C([O-])C=Cc1ccc(O)c(O)c1
REMARK SMILES IDX 6 1 13 2 7 3 11 4 8 5 9 6 5 7 4 8 2 9 1 10 3 11 12 12 10 14
REMARK H PARENT 12 13 10 15
REMARK Flexibility Score: inf
ROOT
ATOM      1  C   UNL     1      18.122  25.719  44.608  1.00  0.00    -0.022 A 
ATOM      2  C   UNL     1      19.236  26.475  44.188  1.00  0.00     0.058 A 
ATOM      3  C   UNL     1      17.180  26.318  45.459  1.00  0.00     0.012 A 
ATOM      4  C   UNL     1      19.386  27.810  44.594  1.00  0.00     0.157 A 
ATOM      5  C   UNL     1      17.328  27.647  45.863  1.00  0.00     0.051 A 
ATOM      6  C   UNL     1      18.426  28.398  45.432  1.00  0.00     0.157 A 
ENDROOT
BRANCH   1   7
ATOM      7  C   UNL     1      17.925  24.303  44.214  1.00  0.00     0.010 C 
ATOM      8  C   UNL     1      17.236  23.414  44.945  1.00  0.00     0.025 C 
BRANCH   8   9
ATOM      9  C   UNL     1      17.071  22.012  44.528  1.00  0.00     0.064 C 
ATOM     10  O   UNL     1      17.189  21.067  45.353  1.00  0.00    -0.545 OA
ATOM     11  O   UNL     1      16.786  21.725  43.199  1.00  0.00    -0.545 OA
ENDBRANCH   8   9
ENDBRANCH   1   7
BRANCH   4  12
ATOM     12  O   UNL     1      20.489  28.550  44.171  1.00  0.00    -0.504 OA
ATOM     13  H   UNL     1      20.964  28.346  43.299  1.00  0.00     0.293 HD
ENDBRANCH   4  12
BRANCH   6  14
ATOM     14  O   UNL     1      18.545  29.723  45.850  1.00  0.00    -0.504 OA
ATOM     15  H   UNL     1      19.355  30.055  46.361  1.00  0.00     0.293 HD
ENDBRANCH   6  14
TORSDOF 4
ENDMDL
MODEL 6
REMARK VINA RESULT:    -5.065      1.192      6.094
REMARK INTER + INTRA:          -6.082
REMARK INTER:                  -5.954
REMARK INTRA:                  -0.127
REMARK UNBOUND:                -0.129
REMARK SMILES O=C([O-])C=Cc1ccc(O)c(O)c1
REMARK SMILES IDX 6 1 13 2 7 3 11 4 8 5 9 6 5 7 4 8 2 9 1 10 3 11 12 12 10 14
REMARK H PARENT 12 13 10 15
REMARK Flexibility Score: inf
ROOT
ATOM      1  C   UNL     1      19.916  25.308  40.505  1.00  0.00    -0.022 A 
ATOM      2  C   UNL     1      18.970  25.421  41.544  1.00  0.00     0.058 A 
ATOM      3  C   UNL     1      21.042  26.145  40.521  1.00  0.00     0.012 A 
ATOM      4  C   UNL     1      19.165  26.336  42.590  1.00  0.00     0.157 A 
ATOM      5  C   UNL     1      21.238  27.055  41.562  1.00  0.00     0.051 A 
ATOM      6  C   UNL     1      20.306  27.154  42.599  1.00  0.00     0.157 A 
ENDROOT
BRANCH   1   7
ATOM      7  C   UNL     1      19.748  24.363  39.374  1.00  0.00     0.010 C 
ATOM      8  C   UNL     1      20.094  23.068  39.426  1.00  0.00     0.025 C 
BRANCH   8   9
ATOM      9  C   UNL     1      19.924  22.163  38.277  1.00  0.00     0.064 C 
ATOM     10  O   UNL     1      20.486  21.035  38.246  1.00  0.00    -0.545 OA
ATOM     11  O   UNL     1      19.135  22.560  37.206  1.00  0.00    -0.545 OA
ENDBRANCH   8   9
ENDBRANCH   1   7
BRANCH   4  12
ATOM     12  O   UNL     1      18.227  26.439  43.616  1.00  0.00    -0.504 OA
ATOM     13  H   UNL     1      17.231  26.464  43.425  1.00  0.00     0.293 HD
ENDBRANCH   4  12
BRANCH   6  14
ATOM     14  O   UNL     1      20.530  28.071  43.626  1.00  0.00    -0.504 OA
ATOM     15  H   UNL     1      21.435  28.503  43.773  1.00  0.00     0.293 HD
ENDBRANCH   6  14
TORSDOF 4
ENDMDL
MODEL 7
REMARK VINA RESULT:    -4.982      6.501      8.977
REMARK INTER + INTRA:          -5.984
REMARK INTER:                  -5.864
REMARK INTRA:                  -0.120
REMARK UNBOUND:                -0.129
REMARK SMILES O=C([O-])C=Cc1ccc(O)c(O)c1
REMARK SMILES IDX 6 1 13 2 7 3 11 4 8 5 9 6 5 7 4 8 2 9 1 10 3 11 12 12 10 14
REMARK H PARENT 12 13 10 15
REMARK Flexibility Score: inf
ROOT
ATOM      1  C   UNL     1      17.209  26.420  45.675  1.00  0.00    -0.022 A 
ATOM      2  C   UNL     1      17.385  27.788  45.968  1.00  0.00     0.058 A 
ATOM      3  C   UNL     1      18.154  25.776  44.861  1.00  0.00     0.012 A 
ATOM      4  C   UNL     1      18.498  28.486  45.476  1.00  0.00     0.157 A 
ATOM      5  C   UNL     1      19.263  26.470  44.371  1.00  0.00     0.051 A 
ATOM      6  C   UNL     1      19.442  27.822  44.676  1.00  0.00     0.157 A 
ENDROOT
BRANCH   1   7
ATOM      7  C   UNL     1      16.045  25.642  46.163  1.00  0.00     0.010 C 
ATOM      8  C   UNL     1      15.580  25.704  47.419  1.00  0.00     0.025 C 
BRANCH   8   9
ATOM      9  C   UNL     1      14.428  24.907  47.872  1.00  0.00     0.064 C 
ATOM     10  O   UNL     1      13.250  25.344  47.767  1.00  0.00    -0.545 OA
ATOM     11  O   UNL     1      14.642  23.652  48.427  1.00  0.00    -0.545 OA
ENDBRANCH   8   9
ENDBRANCH   1   7
BRANCH   4  12
ATOM     12  O   UNL     1      18.665  29.837  45.774  1.00  0.00    -0.504 OA
ATOM     13  H   UNL     1      18.660  30.176  46.730  1.00  0.00     0.293 HD
ENDBRANCH   4  12
BRANCH   6  14
ATOM     14  O   UNL     1      20.561  28.488  44.175  1.00  0.00    -0.504 OA
ATOM     15  H   UNL     1      21.326  27.994  43.732  1.00  0.00     0.293 HD
ENDBRANCH   6  14
TORSDOF 4
ENDMDL
MODEL 8
REMARK VINA RESULT:    -4.874      4.299      7.710
REMARK INTER + INTRA:          -5.858
REMARK INTER:                  -5.733
REMARK INTRA:                  -0.124
REMARK UNBOUND:                -0.129
REMARK SMILES O=C([O-])C=Cc1ccc(O)c(O)c1
REMARK SMILES IDX 6 1 13 2 7 3 11 4 8 5 9 6 5 7 4 8 2 9 1 10 3 11 12 12 10 14
REMARK H PARENT 12 13 10 15
REMARK Flexibility Score: inf
ROOT
ATOM      1  C   UNL     1      18.014  26.289  44.022  1.00  0.00    -0.022 A 
ATOM      2  C   UNL     1      18.454  27.538  44.504  1.00  0.00     0.058 A 
ATOM      3  C   UNL     1      17.050  25.582  44.757  1.00  0.00     0.012 A 
ATOM      4  C   UNL     1      17.920  28.077  45.685  1.00  0.00     0.157 A 
ATOM      5  C   UNL     1      16.516  26.117  45.932  1.00  0.00     0.051 A 
ATOM      6  C   UNL     1      16.944  27.363  46.399  1.00  0.00     0.157 A 
ENDROOT
BRANCH   1   7
ATOM      7  C   UNL     1      18.556  25.675  42.785  1.00  0.00     0.010 C 
ATOM      8  C   UNL     1      19.384  26.306  41.940  1.00  0.00     0.025 C 
BRANCH   8   9
ATOM      9  C   UNL     1      19.892  25.667  40.714  1.00  0.00     0.064 C 
ATOM     10  O   UNL     1      20.063  24.420  40.651  1.00  0.00    -0.545 OA
ATOM     11  O   UNL     1      20.192  26.453  39.610  1.00  0.00    -0.545 OA
ENDBRANCH   8   9
ENDBRANCH   1   7
BRANCH   4  12
ATOM     12  O   UNL     1      18.359  29.314  46.152  1.00  0.00    -0.504 OA
ATOM     13  H   UNL     1      18.317  30.146  45.574  1.00  0.00     0.293 HD
ENDBRANCH   4  12
BRANCH   6  14
ATOM     14  O   UNL     1      16.391  27.872  47.573  1.00  0.00    -0.504 OA
ATOM     15  H   UNL     1      16.531  27.425  48.472  1.00  0.00     0.293 HD
ENDBRANCH   6  14
TORSDOF 4
ENDMDL
MODEL 9
REMARK VINA RESULT:    -4.755      5.924      8.317
REMARK INTER + INTRA:          -5.717
REMARK INTER:                  -5.582
REMARK INTRA:                  -0.135
REMARK UNBOUND:                -0.129
REMARK SMILES O=C([O-])C=Cc1ccc(O)c(O)c1
REMARK SMILES IDX 6 1 13 2 7 3 11 4 8 5 9 6 5 7 4 8 2 9 1 10 3 11 12 12 10 14
REMARK H PARENT 12 13 10 15
REMARK Flexibility Score: inf
ROOT
ATOM      1  C   UNL     1      17.362  26.041  44.826  1.00  0.00    -0.022 A 
ATOM      2  C   UNL     1      17.292  27.269  45.516  1.00  0.00     0.058 A 
ATOM      3  C   UNL     1      18.475  25.787  44.009  1.00  0.00     0.012 A 
ATOM      4  C   UNL     1      18.329  28.208  45.407  1.00  0.00     0.157 A 
ATOM      5  C   UNL     1      19.508  26.721  43.902  1.00  0.00     0.051 A 
ATOM      6  C   UNL     1      19.443  27.930  44.599  1.00  0.00     0.157 A 
ENDROOT
BRANCH   1   7
ATOM      7  C   UNL     1      16.288  25.022  44.900  1.00  0.00     0.010 C 
ATOM      8  C   UNL     1      15.483  24.710  43.873  1.00  0.00     0.025 C 
BRANCH   8   9
ATOM      9  C   UNL     1      14.418  23.699  43.989  1.00  0.00     0.064 C 
ATOM     10  O   UNL     1      14.150  23.156  45.094  1.00  0.00    -0.545 OA
ATOM     11  O   UNL     1      13.698  23.335  42.858  1.00  0.00    -0.545 OA
ENDBRANCH   8   9
ENDBRANCH   1   7
BRANCH   4  12
ATOM     12  O   UNL     1      18.252  29.418  46.096  1.00  0.00    -0.504 OA
ATOM     13  H   UNL     1      18.380  29.467  47.101  1.00  0.00     0.293 HD
ENDBRANCH   4  12
BRANCH   6  14
ATOM     14  O   UNL     1      20.491  28.842  44.474  1.00  0.00    -0.504 OA
ATOM     15  H   UNL     1      20.472  29.748  44.927  1.00  0.00     0.293 HD
ENDBRANCH   6  14
TORSDOF 4
ENDMDL
