MODEL 1
REMARK VINA RESULT:    -4.812      0.000      0.000
REMARK INTER + INTRA:         -10.414
REMARK INTER:                  -8.750
REMARK INTRA:                  -1.664
REMARK UNBOUND:                -1.664
REMARK SMILES CCCCCC=CCC=CCCCCCCCC(=O)[O-]
REMARK SMILES IDX 11 1 12 2 13 3 14 4 15 5 16 6 17 7 18 8 19 9 20 10 10 11
REMARK SMILES IDX 9 12 8 13 7 14 6 15 5 16 4 17 3 18 2 19 1 20
REMARK H PARENT
REMARK Flexibility Score: inf
ROOT
ATOM      1  C   UNL     1      30.328   8.127  50.102  1.00  0.00     0.027 C 
ENDROOT
BRANCH   1   2
ATOM      2  C   UNL     1      30.302   6.623  49.807  1.00  0.00     0.004 C 
BRANCH   2   3
ATOM      3  C   UNL     1      29.917   6.319  48.349  1.00  0.00     0.000 C 
BRANCH   3   4
ATOM      4  C   UNL     1      31.153   6.151  47.441  1.00  0.00     0.000 C 
BRANCH   4   5
ATOM      5  C   UNL     1      32.357   5.504  48.152  1.00  0.00     0.000 C 
BRANCH   5   6
ATOM      6  C   UNL     1      33.710   6.180  47.873  1.00  0.00     0.006 C 
BRANCH   6   7
ATOM      7  C   UNL     1      34.228   5.908  46.455  1.00  0.00     0.053 C 
BRANCH   7   8
ATOM      8  C   UNL     1      35.236   4.805  46.470  1.00  0.00     0.041 C 
ATOM      9  O   UNL     1      35.914   4.581  47.507  1.00  0.00    -0.550 OA
ATOM     10  O   UNL     1      35.402   3.998  45.352  1.00  0.00    -0.550 OA
ENDBRANCH   7   8
ENDBRANCH   6   7
ENDBRANCH   5   6
ENDBRANCH   4   5
ENDBRANCH   3   4
ENDBRANCH   2   3
ENDBRANCH   1   2
BRANCH   1  11
ATOM     11  C   UNL     1      30.644   8.929  48.862  1.00  0.00    -0.031 C 
ATOM     12  C   UNL     1      31.840   9.472  48.561  1.00  0.00    -0.027 C 
BRANCH  12  13
ATOM     13  C   UNL     1      33.066   9.437  49.437  1.00  0.00     0.054 C 
BRANCH  13  14
ATOM     14  C   UNL     1      34.272   9.908  48.674  1.00  0.00    -0.027 C 
ATOM     15  C   UNL     1      34.183  10.323  47.401  1.00  0.00    -0.031 C 
BRANCH  15  16
ATOM     16  C   UNL     1      35.393  10.789  46.636  1.00  0.00     0.027 C 
BRANCH  16  17
ATOM     17  C   UNL     1      35.022  11.639  45.411  1.00  0.00     0.004 C 
BRANCH  17  18
ATOM     18  C   UNL     1      34.294  10.817  44.334  1.00  0.00     0.000 C 
BRANCH  18  19
ATOM     19  C   UNL     1      35.072   9.554  43.933  1.00  0.00    -0.003 C 
ATOM     20  C   UNL     1      34.233   8.281  44.054  1.00  0.00     0.004 C 
ENDBRANCH  18  19
ENDBRANCH  17  18
ENDBRANCH  16  17
ENDBRANCH  15  16
ENDBRANCH  13  14
ENDBRANCH  12  13
ENDBRANCH   1  11
TORSDOF 14
ENDMDL
MODEL 2
REMARK VINA RESULT:    -4.723      2.621      5.207
REMARK INTER + INTRA:         -10.252
REMARK INTER:                  -8.158
REMARK INTRA:                  -2.094
REMARK UNBOUND:                -1.664
REMARK SMILES CCCCCC=CCC=CCCCCCCCC(=O)[O-]
REMARK SMILES IDX 11 1 12 2 13 3 14 4 15 5 16 6 17 7 18 8 19 9 20 10 10 11
REMARK SMILES IDX 9 12 8 13 7 14 6 15 5 16 4 17 3 18 2 19 1 20
REMARK H PARENT
REMARK Flexibility Score: inf
ROOT
ATOM      1  C   UNL     1      34.833  11.245  48.219  1.00  0.00     0.027 C 
ENDROOT
BRANCH   1   2
ATOM      2  C   UNL     1      34.943   9.899  48.945  1.00  0.00     0.004 C 
BRANCH   2   3
ATOM      3  C   UNL     1      33.573   9.357  49.386  1.00  0.00     0.000 C 
BRANCH   3   4
ATOM      4  C   UNL     1      32.478   9.612  48.331  1.00  0.00     0.000 C 
BRANCH   4   5
ATOM      5  C   UNL     1      31.187   8.806  48.574  1.00  0.00     0.000 C 
BRANCH   5   6
ATOM      6  C   UNL     1      31.384   7.283  48.659  1.00  0.00     0.006 C 
BRANCH   6   7
ATOM      7  C   UNL     1      30.369   6.505  47.813  1.00  0.00     0.053 C 
BRANCH   7   8
ATOM      8  C   UNL     1      29.213   6.070  48.655  1.00  0.00     0.041 C 
ATOM      9  O   UNL     1      28.313   5.338  48.167  1.00  0.00    -0.550 OA
ATOM     10  O   UNL     1      29.147   6.441  49.992  1.00  0.00    -0.550 OA
ENDBRANCH   7   8
ENDBRANCH   6   7
ENDBRANCH   5   6
ENDBRANCH   4   5
ENDBRANCH   3   4
ENDBRANCH   2   3
ENDBRANCH   1   2
BRANCH   1  11
ATOM     11  C   UNL     1      36.028  11.495  47.331  1.00  0.00    -0.031 C 
ATOM     12  C   UNL     1      35.996  11.641  45.992  1.00  0.00    -0.027 C 
BRANCH  12  13
ATOM     13  C   UNL     1      34.770  11.515  45.125  1.00  0.00     0.054 C 
BRANCH  13  14
ATOM     14  C   UNL     1      34.732  10.167  44.462  1.00  0.00    -0.027 C 
ATOM     15  C   UNL     1      34.252   9.084  45.091  1.00  0.00    -0.031 C 
BRANCH  15  16
ATOM     16  C   UNL     1      34.222   7.733  44.428  1.00  0.00     0.027 C 
BRANCH  16  17
ATOM     17  C   UNL     1      33.562   6.661  45.308  1.00  0.00     0.004 C 
BRANCH  17  18
ATOM     18  C   UNL     1      34.288   6.489  46.653  1.00  0.00     0.000 C 
BRANCH  18  19
ATOM     19  C   UNL     1      34.699   5.033  46.920  1.00  0.00    -0.003 C 
ATOM     20  C   UNL     1      35.503   4.427  45.770  1.00  0.00     0.004 C 
ENDBRANCH  18  19
ENDBRANCH  17  18
ENDBRANCH  16  17
ENDBRANCH  15  16
ENDBRANCH  13  14
ENDBRANCH  12  13
ENDBRANCH   1  11
TORSDOF 14
ENDMDL
MODEL 3
REMARK VINA RESULT:    -4.708      2.305      5.045
REMARK INTER + INTRA:         -10.224
REMARK INTER:                  -8.493
REMARK INTRA:                  -1.731
REMARK UNBOUND:                -1.664
REMARK SMILES CCCCCC=CCC=CCCCCCCCC(=O)[O-]
REMARK SMILES IDX 11 1 12 2 13 3 14 4 15 5 16 6 17 7 18 8 19 9 20 10 10 11
REMARK SMILES IDX 9 12 8 13 7 14 6 15 5 16 4 17 3 18 2 19 1 20
REMARK H PARENT
REMARK Flexibility Score: inf
ROOT
ATOM      1  C   UNL     1      29.854   8.454  49.414  1.00  0.00     0.027 C 
ENDROOT
BRANCH   1   2
ATOM      2  C   UNL     1      31.237   8.914  49.891  1.00  0.00     0.004 C 
BRANCH   2   3
ATOM      3  C   UNL     1      31.918   9.858  48.886  1.00  0.00     0.000 C 
BRANCH   3   4
ATOM      4  C   UNL     1      33.372   9.439  48.585  1.00  0.00     0.000 C 
BRANCH   4   5
ATOM      5  C   UNL     1      34.332  10.630  48.399  1.00  0.00     0.000 C 
BRANCH   5   6
ATOM      6  C   UNL     1      34.766  10.887  46.946  1.00  0.00     0.006 C 
BRANCH   6   7
ATOM      7  C   UNL     1      34.143   9.894  45.957  1.00  0.00     0.053 C 
BRANCH   7   8
ATOM      8  C   UNL     1      34.611  10.180  44.567  1.00  0.00     0.041 C 
ATOM      9  O   UNL     1      35.168   9.278  43.887  1.00  0.00    -0.550 OA
ATOM     10  O   UNL     1      34.398  11.432  44.005  1.00  0.00    -0.550 OA
ENDBRANCH   7   8
ENDBRANCH   6   7
ENDBRANCH   5   6
ENDBRANCH   4   5
ENDBRANCH   3   4
ENDBRANCH   2   3
ENDBRANCH   1   2
BRANCH   1  11
ATOM     11  C   UNL     1      29.413   7.196  50.125  1.00  0.00    -0.031 C 
ATOM     12  C   UNL     1      29.416   5.955  49.600  1.00  0.00    -0.027 C 
BRANCH  12  13
ATOM     13  C   UNL     1      29.794   5.601  48.184  1.00  0.00     0.054 C 
BRANCH  13  14
ATOM     14  C   UNL     1      31.288   5.592  48.026  1.00  0.00    -0.027 C 
ATOM     15  C   UNL     1      31.912   6.414  47.167  1.00  0.00    -0.031 C 
BRANCH  15  16
ATOM     16  C   UNL     1      33.408   6.399  47.005  1.00  0.00     0.027 C 
BRANCH  16  17
ATOM     17  C   UNL     1      34.104   5.518  48.054  1.00  0.00     0.004 C 
BRANCH  17  18
ATOM     18  C   UNL     1      35.026   4.469  47.409  1.00  0.00     0.000 C 
BRANCH  18  19
ATOM     19  C   UNL     1      35.385   4.815  45.956  1.00  0.00    -0.003 C 
ATOM     20  C   UNL     1      35.423   3.584  45.049  1.00  0.00     0.004 C 
ENDBRANCH  18  19
ENDBRANCH  17  18
ENDBRANCH  16  17
ENDBRANCH  15  16
ENDBRANCH  13  14
ENDBRANCH  12  13
ENDBRANCH   1  11
TORSDOF 14
ENDMDL
MODEL 4
REMARK VINA RESULT:    -4.575      2.758      4.721
REMARK INTER + INTRA:          -9.983
REMARK INTER:                  -7.867
REMARK INTRA:                  -2.116
REMARK UNBOUND:                -1.664
REMARK SMILES CCCCCC=CCC=CCCCCCCCC(=O)[O-]
REMARK SMILES IDX 11 1 12 2 13 3 14 4 15 5 16 6 17 7 18 8 19 9 20 10 10 11
REMARK SMILES IDX 9 12 8 13 7 14 6 15 5 16 4 17 3 18 2 19 1 20
REMARK H PARENT
REMARK Flexibility Score: inf
ROOT
ATOM      1  C   UNL     1      30.220   7.858  49.510  1.00  0.00     0.027 C 
ENDROOT
BRANCH   1   2
ATOM      2  C   UNL     1      31.562   8.600  49.546  1.00  0.00     0.004 C 
BRANCH   2   3
ATOM      3  C   UNL     1      31.611   9.770  48.549  1.00  0.00     0.000 C 
BRANCH   3   4
ATOM      4  C   UNL     1      32.968   9.860  47.822  1.00  0.00     0.000 C 
BRANCH   4   5
ATOM      5  C   UNL     1      34.158   9.379  48.674  1.00  0.00     0.000 C 
BRANCH   5   6
ATOM      6  C   UNL     1      34.865  10.485  49.476  1.00  0.00     0.006 C 
BRANCH   6   7
ATOM      7  C   UNL     1      34.652  11.880  48.877  1.00  0.00     0.053 C 
BRANCH   7   8
ATOM      8  C   UNL     1      35.905  12.363  48.221  1.00  0.00     0.041 C 
ATOM      9  O   UNL     1      35.964  13.528  47.746  1.00  0.00    -0.550 OA
ATOM     10  O   UNL     1      37.023  11.541  48.166  1.00  0.00    -0.550 OA
ENDBRANCH   7   8
ENDBRANCH   6   7
ENDBRANCH   5   6
ENDBRANCH   4   5
ENDBRANCH   3   4
ENDBRANCH   2   3
ENDBRANCH   1   2
BRANCH   1  11
ATOM     11  C   UNL     1      30.029   7.122  48.205  1.00  0.00    -0.031 C 
ATOM     12  C   UNL     1      30.875   6.211  47.685  1.00  0.00    -0.027 C 
BRANCH  12  13
ATOM     13  C   UNL     1      32.201   5.805  48.277  1.00  0.00     0.054 C 
BRANCH  13  14
ATOM     14  C   UNL     1      33.319   6.123  47.326  1.00  0.00    -0.027 C 
ATOM     15  C   UNL     1      33.087   6.640  46.109  1.00  0.00    -0.031 C 
BRANCH  15  16
ATOM     16  C   UNL     1      34.209   6.950  45.155  1.00  0.00     0.027 C 
BRANCH  16  17
ATOM     17  C   UNL     1      33.827   8.031  44.132  1.00  0.00     0.004 C 
BRANCH  17  18
ATOM     18  C   UNL     1      34.825   9.201  44.126  1.00  0.00     0.000 C 
BRANCH  18  19
ATOM     19  C   UNL     1      34.129  10.569  44.063  1.00  0.00    -0.003 C 
ATOM     20  C   UNL     1      34.859  11.641  44.873  1.00  0.00     0.004 C 
ENDBRANCH  18  19
ENDBRANCH  17  18
ENDBRANCH  16  17
ENDBRANCH  15  16
ENDBRANCH  13  14
ENDBRANCH  12  13
ENDBRANCH   1  11
TORSDOF 14
ENDMDL
MODEL 5
REMARK VINA RESULT:    -4.554      2.296      4.273
REMARK INTER + INTRA:          -9.945
REMARK INTER:                  -8.128
REMARK INTRA:                  -1.816
REMARK UNBOUND:                -1.664
REMARK SMILES CCCCCC=CCC=CCCCCCCCC(=O)[O-]
REMARK SMILES IDX 11 1 12 2 13 3 14 4 15 5 16 6 17 7 18 8 19 9 20 10 10 11
REMARK SMILES IDX 9 12 8 13 7 14 6 15 5 16 4 17 3 18 2 19 1 20
REMARK H PARENT
REMARK Flexibility Score: inf
ROOT
ATOM      1  C   UNL     1      30.757   6.114  47.563  1.00  0.00     0.027 C 
ENDROOT
BRANCH   1   2
ATOM      2  C   UNL     1      29.517   6.087  48.464  1.00  0.00     0.004 C 
BRANCH   2   3
ATOM      3  C   UNL     1      29.715   6.893  49.759  1.00  0.00     0.000 C 
BRANCH   3   4
ATOM      4  C   UNL     1      30.021   8.379  49.480  1.00  0.00     0.000 C 
BRANCH   4   5
ATOM      5  C   UNL     1      31.478   8.777  49.784  1.00  0.00     0.000 C 
BRANCH   5   6
ATOM      6  C   UNL     1      32.209   9.481  48.629  1.00  0.00     0.006 C 
BRANCH   6   7
ATOM      7  C   UNL     1      32.708  10.881  49.008  1.00  0.00     0.053 C 
BRANCH   7   8
ATOM      8  C   UNL     1      34.170  11.007  48.729  1.00  0.00     0.041 C 
ATOM      9  O   UNL     1      34.706  12.143  48.654  1.00  0.00    -0.550 OA
ATOM     10  O   UNL     1      34.953   9.868  48.589  1.00  0.00    -0.550 OA
ENDBRANCH   7   8
ENDBRANCH   6   7
ENDBRANCH   5   6
ENDBRANCH   4   5
ENDBRANCH   3   4
ENDBRANCH   2   3
ENDBRANCH   1   2
BRANCH   1  11
ATOM     11  C   UNL     1      31.746   5.040  47.950  1.00  0.00    -0.031 C 
ATOM     12  C   UNL     1      33.080   5.200  48.053  1.00  0.00    -0.027 C 
BRANCH  12  13
ATOM     13  C   UNL     1      33.840   6.463  47.736  1.00  0.00     0.054 C 
BRANCH  13  14
ATOM     14  C   UNL     1      33.932   6.661  46.249  1.00  0.00    -0.027 C 
ATOM     15  C   UNL     1      34.048   7.883  45.706  1.00  0.00    -0.031 C 
BRANCH  15  16
ATOM     16  C   UNL     1      34.134   8.080  44.216  1.00  0.00     0.027 C 
BRANCH  16  17
ATOM     17  C   UNL     1      34.785   9.419  43.837  1.00  0.00     0.004 C 
BRANCH  17  18
ATOM     18  C   UNL     1      34.570  10.493  44.917  1.00  0.00     0.000 C 
BRANCH  18  19
ATOM     19  C   UNL     1      34.596  11.918  44.343  1.00  0.00    -0.003 C 
ATOM     20  C   UNL     1      35.274  12.919  45.279  1.00  0.00     0.004 C 
ENDBRANCH  18  19
ENDBRANCH  17  18
ENDBRANCH  16  17
ENDBRANCH  15  16
ENDBRANCH  13  14
ENDBRANCH  12  13
ENDBRANCH   1  11
TORSDOF 14
ENDMDL
MODEL 6
REMARK VINA RESULT:    -4.535      1.542      2.288
REMARK INTER + INTRA:          -9.910
REMARK INTER:                  -8.380
REMARK INTRA:                  -1.530
REMARK UNBOUND:                -1.664
REMARK SMILES CCCCCC=CCC=CCCCCCCCC(=O)[O-]
REMARK SMILES IDX 11 1 12 2 13 3 14 4 15 5 16 6 17 7 18 8 19 9 20 10 10 11
REMARK SMILES IDX 9 12 8 13 7 14 6 15 5 16 4 17 3 18 2 19 1 20
REMARK H PARENT
REMARK Flexibility Score: inf
ROOT
ATOM      1  C   UNL     1      30.114   8.322  49.465  1.00  0.00     0.027 C 
ENDROOT
BRANCH   1   2
ATOM      2  C   UNL     1      29.867   6.820  49.645  1.00  0.00     0.004 C 
BRANCH   2   3
ATOM      3  C   UNL     1      29.828   6.068  48.304  1.00  0.00     0.000 C 
BRANCH   3   4
ATOM      4  C   UNL     1      31.141   6.224  47.509  1.00  0.00     0.000 C 
BRANCH   4   5
ATOM      5  C   UNL     1      32.256   5.264  47.966  1.00  0.00     0.000 C 
BRANCH   5   6
ATOM      6  C   UNL     1      33.674   5.860  47.931  1.00  0.00     0.006 C 
BRANCH   6   7
ATOM      7  C   UNL     1      34.732   4.848  47.475  1.00  0.00     0.053 C 
BRANCH   7   8
ATOM      8  C   UNL     1      34.894   4.895  45.991  1.00  0.00     0.041 C 
ATOM      9  O   UNL     1      35.357   3.901  45.372  1.00  0.00    -0.550 OA
ATOM     10  O   UNL     1      34.497   6.022  45.282  1.00  0.00    -0.550 OA
ENDBRANCH   7   8
ENDBRANCH   6   7
ENDBRANCH   5   6
ENDBRANCH   4   5
ENDBRANCH   3   4
ENDBRANCH   2   3
ENDBRANCH   1   2
BRANCH   1  11
ATOM     11  C   UNL     1      31.418   8.748  50.096  1.00  0.00    -0.031 C 
ATOM     12  C   UNL     1      32.483   9.248  49.438  1.00  0.00    -0.027 C 
BRANCH  12  13
ATOM     13  C   UNL     1      32.594   9.411  47.944  1.00  0.00     0.054 C 
BRANCH  13  14
ATOM     14  C   UNL     1      33.935   9.980  47.576  1.00  0.00    -0.027 C 
ATOM     15  C   UNL     1      34.518  10.943  48.306  1.00  0.00    -0.031 C 
BRANCH  15  16
ATOM     16  C   UNL     1      35.859  11.517  47.932  1.00  0.00     0.027 C 
BRANCH  16  17
ATOM     17  C   UNL     1      36.109  11.484  46.417  1.00  0.00     0.004 C 
BRANCH  17  18
ATOM     18  C   UNL     1      35.446  12.669  45.694  1.00  0.00     0.000 C 
BRANCH  18  19
ATOM     19  C   UNL     1      36.227  13.980  45.873  1.00  0.00    -0.003 C 
ATOM     20  C   UNL     1      37.722  13.750  46.093  1.00  0.00     0.004 C 
ENDBRANCH  18  19
ENDBRANCH  17  18
ENDBRANCH  16  17
ENDBRANCH  15  16
ENDBRANCH  13  14
ENDBRANCH  12  13
ENDBRANCH   1  11
TORSDOF 14
ENDMDL
MODEL 7
REMARK VINA RESULT:    -4.499      1.247      2.155
REMARK INTER + INTRA:          -9.845
REMARK INTER:                  -8.006
REMARK INTRA:                  -1.840
REMARK UNBOUND:                -1.664
REMARK SMILES CCCCCC=CCC=CCCCCCCCC(=O)[O-]
REMARK SMILES IDX 11 1 12 2 13 3 14 4 15 5 16 6 17 7 18 8 19 9 20 10 10 11
REMARK SMILES IDX 9 12 8 13 7 14 6 15 5 16 4 17 3 18 2 19 1 20
REMARK H PARENT
REMARK Flexibility Score: inf
ROOT
ATOM      1  C   UNL     1      32.599   9.616  48.149  1.00  0.00     0.027 C 
ENDROOT
BRANCH   1   2
ATOM      2  C   UNL     1      31.480   9.527  49.194  1.00  0.00     0.004 C 
BRANCH   2   3
ATOM      3  C   UNL     1      31.158   8.074  49.584  1.00  0.00     0.000 C 
BRANCH   3   4
ATOM      4  C   UNL     1      30.113   7.437  48.645  1.00  0.00     0.000 C 
BRANCH   4   5
ATOM      5  C   UNL     1      30.680   6.302  47.771  1.00  0.00     0.000 C 
BRANCH   5   6
ATOM      6  C   UNL     1      32.054   5.772  48.214  1.00  0.00     0.006 C 
BRANCH   6   7
ATOM      7  C   UNL     1      33.152   6.029  47.174  1.00  0.00     0.053 C 
BRANCH   7   8
ATOM      8  C   UNL     1      34.399   5.290  47.538  1.00  0.00     0.041 C 
ATOM      9  O   UNL     1      34.936   5.468  48.663  1.00  0.00    -0.550 OA
ATOM     10  O   UNL     1      34.949   4.373  46.652  1.00  0.00    -0.550 OA
ENDBRANCH   7   8
ENDBRANCH   6   7
ENDBRANCH   5   6
ENDBRANCH   4   5
ENDBRANCH   3   4
ENDBRANCH   2   3
ENDBRANCH   1   2
BRANCH   1  11
ATOM     11  C   UNL     1      33.912   9.114  48.699  1.00  0.00    -0.031 C 
ATOM     12  C   UNL     1      34.740   9.802  49.510  1.00  0.00    -0.027 C 
BRANCH  12  13
ATOM     13  C   UNL     1      34.541  11.226  49.963  1.00  0.00     0.054 C 
BRANCH  13  14
ATOM     14  C   UNL     1      34.775  12.177  48.824  1.00  0.00    -0.027 C 
ATOM     15  C   UNL     1      35.729  11.958  47.905  1.00  0.00    -0.031 C 
BRANCH  15  16
ATOM     16  C   UNL     1      35.967  12.916  46.769  1.00  0.00     0.027 C 
BRANCH  16  17
ATOM     17  C   UNL     1      35.398  12.402  45.438  1.00  0.00     0.004 C 
BRANCH  17  18
ATOM     18  C   UNL     1      35.067  10.901  45.492  1.00  0.00     0.000 C 
BRANCH  18  19
ATOM     19  C   UNL     1      34.437  10.390  44.187  1.00  0.00    -0.003 C 
ATOM     20  C   UNL     1      34.503   8.868  44.056  1.00  0.00     0.004 C 
ENDBRANCH  18  19
ENDBRANCH  17  18
ENDBRANCH  16  17
ENDBRANCH  15  16
ENDBRANCH  13  14
ENDBRANCH  12  13
ENDBRANCH   1  11
TORSDOF 14
ENDMDL
MODEL 8
REMARK VINA RESULT:    -4.439      2.365      3.508
REMARK INTER + INTRA:          -9.737
REMARK INTER:                  -8.294
REMARK INTRA:                  -1.443
REMARK UNBOUND:                -1.664
REMARK SMILES CCCCCC=CCC=CCCCCCCCC(=O)[O-]
REMARK SMILES IDX 11 1 12 2 13 3 14 4 15 5 16 6 17 7 18 8 19 9 20 10 10 11
REMARK SMILES IDX 9 12 8 13 7 14 6 15 5 16 4 17 3 18 2 19 1 20
REMARK H PARENT
REMARK Flexibility Score: inf
ROOT
ATOM      1  C   UNL     1      32.012   9.403  49.738  1.00  0.00     0.027 C 
ENDROOT
BRANCH   1   2
ATOM      2  C   UNL     1      31.312   8.072  50.036  1.00  0.00     0.004 C 
BRANCH   2   3
ATOM      3  C   UNL     1      29.970   7.936  49.297  1.00  0.00     0.000 C 
BRANCH   3   4
ATOM      4  C   UNL     1      29.886   6.633  48.476  1.00  0.00     0.000 C 
BRANCH   4   5
ATOM      5  C   UNL     1      31.246   5.935  48.285  1.00  0.00     0.000 C 
BRANCH   5   6
ATOM      6  C   UNL     1      31.981   6.301  46.984  1.00  0.00     0.006 C 
BRANCH   6   7
ATOM      7  C   UNL     1      33.505   6.340  47.155  1.00  0.00     0.053 C 
BRANCH   7   8
ATOM      8  C   UNL     1      34.183   6.150  45.837  1.00  0.00     0.041 C 
ATOM      9  O   UNL     1      34.958   5.174  45.657  1.00  0.00    -0.550 OA
ATOM     10  O   UNL     1      33.929   7.028  44.791  1.00  0.00    -0.550 OA
ENDBRANCH   7   8
ENDBRANCH   6   7
ENDBRANCH   5   6
ENDBRANCH   4   5
ENDBRANCH   3   4
ENDBRANCH   2   3
ENDBRANCH   1   2
BRANCH   1  11
ATOM     11  C   UNL     1      32.045   9.691  48.256  1.00  0.00    -0.031 C 
ATOM     12  C   UNL     1      33.138  10.032  47.545  1.00  0.00    -0.027 C 
BRANCH  12  13
ATOM     13  C   UNL     1      34.517  10.257  48.111  1.00  0.00     0.054 C 
BRANCH  13  14
ATOM     14  C   UNL     1      35.090  11.549  47.602  1.00  0.00    -0.027 C 
ATOM     15  C   UNL     1      36.247  11.590  46.924  1.00  0.00    -0.031 C 
BRANCH  15  16
ATOM     16  C   UNL     1      36.823  12.887  46.421  1.00  0.00     0.027 C 
BRANCH  16  17
ATOM     17  C   UNL     1      35.746  13.832  45.867  1.00  0.00     0.004 C 
BRANCH  17  18
ATOM     18  C   UNL     1      36.333  15.183  45.425  1.00  0.00     0.000 C 
BRANCH  18  19
ATOM     19  C   UNL     1      35.689  16.372  46.156  1.00  0.00    -0.003 C 
ATOM     20  C   UNL     1      36.387  17.698  45.855  1.00  0.00     0.004 C 
ENDBRANCH  18  19
ENDBRANCH  17  18
ENDBRANCH  16  17
ENDBRANCH  15  16
ENDBRANCH  13  14
ENDBRANCH  12  13
ENDBRANCH   1  11
TORSDOF 14
ENDMDL
MODEL 9
REMARK VINA RESULT:    -4.427      3.187      5.346
REMARK INTER + INTRA:          -9.714
REMARK INTER:                  -7.966
REMARK INTRA:                  -1.748
REMARK UNBOUND:                -1.664
REMARK SMILES CCCCCC=CCC=CCCCCCCCC(=O)[O-]
REMARK SMILES IDX 11 1 12 2 13 3 14 4 15 5 16 6 17 7 18 8 19 9 20 10 10 11
REMARK SMILES IDX 9 12 8 13 7 14 6 15 5 16 4 17 3 18 2 19 1 20
REMARK H PARENT
REMARK Flexibility Score: inf
ROOT
ATOM      1  C   UNL     1      30.501   8.876  49.427  1.00  0.00     0.027 C 
ENDROOT
BRANCH   1   2
ATOM      2  C   UNL     1      31.984   9.094  49.751  1.00  0.00     0.004 C 
BRANCH   2   3
ATOM      3  C   UNL     1      32.522  10.413  49.171  1.00  0.00     0.000 C 
BRANCH   3   4
ATOM      4  C   UNL     1      33.459  10.182  47.968  1.00  0.00     0.000 C 
BRANCH   4   5
ATOM      5  C   UNL     1      34.766  10.995  48.039  1.00  0.00     0.000 C 
BRANCH   5   6
ATOM      6  C   UNL     1      35.522  11.117  46.705  1.00  0.00     0.006 C 
BRANCH   6   7
ATOM      7  C   UNL     1      36.446  12.341  46.657  1.00  0.00     0.053 C 
BRANCH   7   8
ATOM      8  C   UNL     1      35.894  13.374  45.729  1.00  0.00     0.041 C 
ATOM      9  O   UNL     1      36.307  14.562  45.785  1.00  0.00    -0.550 OA
ATOM     10  O   UNL     1      34.951  13.019  44.773  1.00  0.00    -0.550 OA
ENDBRANCH   7   8
ENDBRANCH   6   7
ENDBRANCH   5   6
ENDBRANCH   4   5
ENDBRANCH   3   4
ENDBRANCH   2   3
ENDBRANCH   1   2
BRANCH   1  11
ATOM     11  C   UNL     1      29.992   7.580  50.011  1.00  0.00    -0.031 C 
ATOM     12  C   UNL     1      29.860   6.416  49.346  1.00  0.00    -0.027 C 
BRANCH  12  13
ATOM     13  C   UNL     1      30.132   6.208  47.878  1.00  0.00     0.054 C 
BRANCH  13  14
ATOM     14  C   UNL     1      31.581   5.883  47.653  1.00  0.00    -0.027 C 
ATOM     15  C   UNL     1      32.421   6.760  47.080  1.00  0.00    -0.031 C 
BRANCH  15  16
ATOM     16  C   UNL     1      33.871   6.431  46.849  1.00  0.00     0.027 C 
BRANCH  16  17
ATOM     17  C   UNL     1      34.219   6.326  45.357  1.00  0.00     0.004 C 
BRANCH  17  18
ATOM     18  C   UNL     1      33.613   7.479  44.539  1.00  0.00     0.000 C 
BRANCH  18  19
ATOM     19  C   UNL     1      34.667   8.507  44.099  1.00  0.00    -0.003 C 
ATOM     20  C   UNL     1      34.056   9.861  43.738  1.00  0.00     0.004 C 
ENDBRANCH  18  19
ENDBRANCH  17  18
ENDBRANCH  16  17
ENDBRANCH  15  16
ENDBRANCH  13  14
ENDBRANCH  12  13
ENDBRANCH   1  11
TORSDOF 14
ENDMDL
