MODEL 1
REMARK VINA RESULT:    -3.622      0.000      0.000
REMARK INTER + INTRA:          -4.306
REMARK INTER:                  -4.257
REMARK INTRA:                  -0.049
REMARK UNBOUND:                -0.049
REMARK SMILES O=C([O-])CCC(=O)[O-]
REMARK SMILES IDX 4 1 2 2 1 3 3 4 5 5 6 6 7 7 8 8
REMARK H PARENT
REMARK Flexibility Score: inf
ROOT
ATOM      1  C   UNL     1      26.870  19.433  34.944  1.00  0.00     0.059 C 
ENDROOT
BRANCH   1   2
ATOM      2  C   UNL     1      26.093  18.197  35.270  1.00  0.00     0.042 C 
ATOM      3  O   UNL     1      25.993  17.807  36.463  1.00  0.00    -0.550 OA
ATOM      4  O   UNL     1      25.438  17.501  34.262  1.00  0.00    -0.550 OA
ENDBRANCH   1   2
BRANCH   1   5
ATOM      5  C   UNL     1      27.050  20.297  36.192  1.00  0.00     0.059 C 
BRANCH   5   6
ATOM      6  C   UNL     1      28.352  21.032  36.137  1.00  0.00     0.042 C 
ATOM      7  O   UNL     1      29.416  20.466  36.500  1.00  0.00    -0.550 OA
ATOM      8  O   UNL     1      28.384  22.359  35.729  1.00  0.00    -0.550 OA
ENDBRANCH   5   6
ENDBRANCH   1   5
TORSDOF 3
ENDMDL
MODEL 2
REMARK VINA RESULT:    -3.575      0.358      4.226
REMARK INTER + INTRA:          -4.251
REMARK INTER:                  -4.214
REMARK INTRA:                  -0.037
REMARK UNBOUND:                -0.049
REMARK SMILES O=C([O-])CCC(=O)[O-]
REMARK SMILES IDX 4 1 2 2 1 3 3 4 5 5 6 6 7 7 8 8
REMARK H PARENT
REMARK Flexibility Score: inf
ROOT
ATOM      1  C   UNL     1      26.876  20.157  36.316  1.00  0.00     0.059 C 
ENDROOT
BRANCH   1   2
ATOM      2  C   UNL     1      27.989  21.153  36.235  1.00  0.00     0.042 C 
ATOM      3  O   UNL     1      27.735  22.382  36.125  1.00  0.00    -0.550 OA
ATOM      4  O   UNL     1      29.309  20.730  36.328  1.00  0.00    -0.550 OA
ENDBRANCH   1   2
BRANCH   1   5
ATOM      5  C   UNL     1      26.807  19.326  35.035  1.00  0.00     0.059 C 
BRANCH   5   6
ATOM      6  C   UNL     1      25.995  18.089  35.257  1.00  0.00     0.042 C 
ATOM      7  O   UNL     1      25.887  17.600  36.412  1.00  0.00    -0.550 OA
ATOM      8  O   UNL     1      25.397  17.448  34.180  1.00  0.00    -0.550 OA
ENDBRANCH   5   6
ENDBRANCH   1   5
TORSDOF 3
ENDMDL
MODEL 3
REMARK VINA RESULT:    -3.530     16.212     16.557
REMARK INTER + INTRA:          -4.198
REMARK INTER:                  -4.130
REMARK INTRA:                  -0.067
REMARK UNBOUND:                -0.049
REMARK SMILES O=C([O-])CCC(=O)[O-]
REMARK SMILES IDX 4 1 2 2 1 3 3 4 5 5 6 6 7 7 8 8
REMARK H PARENT
REMARK Flexibility Score: inf
ROOT
ATOM      1  C   UNL     1      14.950   9.071  30.213  1.00  0.00     0.059 C 
ENDROOT
BRANCH   1   2
ATOM      2  C   UNL     1      15.296   8.990  31.666  1.00  0.00     0.042 C 
ATOM      3  O   UNL     1      14.830   9.834  32.477  1.00  0.00    -0.550 OA
ATOM      4  O   UNL     1      16.094   7.955  32.134  1.00  0.00    -0.550 OA
ENDBRANCH   1   2
BRANCH   1   5
ATOM      5  C   UNL     1      16.090   8.514  29.360  1.00  0.00     0.059 C 
BRANCH   5   6
ATOM      6  C   UNL     1      16.584   9.551  28.403  1.00  0.00     0.042 C 
ATOM      7  O   UNL     1      17.390   9.238  27.488  1.00  0.00    -0.550 OA
ATOM      8  O   UNL     1      16.191  10.876  28.550  1.00  0.00    -0.550 OA
ENDBRANCH   5   6
ENDBRANCH   1   5
TORSDOF 3
ENDMDL
MODEL 4
REMARK VINA RESULT:    -3.526     16.205     16.653
REMARK INTER + INTRA:          -4.193
REMARK INTER:                  -4.123
REMARK INTRA:                  -0.069
REMARK UNBOUND:                -0.049
REMARK SMILES O=C([O-])CCC(=O)[O-]
REMARK SMILES IDX 4 1 2 2 1 3 3 4 5 5 6 6 7 7 8 8
REMARK H PARENT
REMARK Flexibility Score: inf
ROOT
ATOM      1  C   UNL     1      16.050   8.604  29.350  1.00  0.00     0.059 C 
ENDROOT
BRANCH   1   2
ATOM      2  C   UNL     1      16.535   9.644  28.392  1.00  0.00     0.042 C 
ATOM      3  O   UNL     1      16.209  10.851  28.545  1.00  0.00    -0.550 OA
ATOM      4  O   UNL     1      17.388   9.290  27.354  1.00  0.00    -0.550 OA
ENDBRANCH   1   2
BRANCH   1   5
ATOM      5  C   UNL     1      14.918   9.159  30.214  1.00  0.00     0.059 C 
BRANCH   5   6
ATOM      6  C   UNL     1      15.254   9.027  31.666  1.00  0.00     0.042 C 
ATOM      7  O   UNL     1      14.780   9.840  32.503  1.00  0.00    -0.550 OA
ATOM      8  O   UNL     1      16.129   8.036  32.090  1.00  0.00    -0.550 OA
ENDBRANCH   5   6
ENDBRANCH   1   5
TORSDOF 3
ENDMDL
MODEL 5
REMARK VINA RESULT:    -3.509     16.223     16.636
REMARK INTER + INTRA:          -4.174
REMARK INTER:                  -4.101
REMARK INTRA:                  -0.073
REMARK UNBOUND:                -0.049
REMARK SMILES O=C([O-])CCC(=O)[O-]
REMARK SMILES IDX 4 1 2 2 1 3 3 4 5 5 6 6 7 7 8 8
REMARK H PARENT
REMARK Flexibility Score: inf
ROOT
ATOM      1  C   UNL     1      16.019   8.549  29.341  1.00  0.00     0.059 C 
ENDROOT
BRANCH   1   2
ATOM      2  C   UNL     1      16.557   9.584  28.405  1.00  0.00     0.042 C 
ATOM      3  O   UNL     1      16.230  10.793  28.539  1.00  0.00    -0.550 OA
ATOM      4  O   UNL     1      17.459   9.222  27.413  1.00  0.00    -0.550 OA
ENDBRANCH   1   2
BRANCH   1   5
ATOM      5  C   UNL     1      14.929   9.148  30.231  1.00  0.00     0.059 C 
BRANCH   5   6
ATOM      6  C   UNL     1      15.285   8.987  31.674  1.00  0.00     0.042 C 
ATOM      7  O   UNL     1      16.051   8.057  32.039  1.00  0.00    -0.550 OA
ATOM      8  O   UNL     1      14.734   9.836  32.625  1.00  0.00    -0.550 OA
ENDBRANCH   5   6
ENDBRANCH   1   5
TORSDOF 3
ENDMDL
MODEL 6
REMARK VINA RESULT:    -3.463     16.214     16.623
REMARK INTER + INTRA:          -4.120
REMARK INTER:                  -4.054
REMARK INTRA:                  -0.066
REMARK UNBOUND:                -0.049
REMARK SMILES O=C([O-])CCC(=O)[O-]
REMARK SMILES IDX 4 1 2 2 1 3 3 4 5 5 6 6 7 7 8 8
REMARK H PARENT
REMARK Flexibility Score: inf
ROOT
ATOM      1  C   UNL     1      14.950   9.153  30.185  1.00  0.00     0.059 C 
ENDROOT
BRANCH   1   2
ATOM      2  C   UNL     1      15.281   8.883  31.618  1.00  0.00     0.042 C 
ATOM      3  O   UNL     1      14.865   9.654  32.522  1.00  0.00    -0.550 OA
ATOM      4  O   UNL     1      16.009   7.751  31.962  1.00  0.00    -0.550 OA
ENDBRANCH   1   2
BRANCH   1   5
ATOM      5  C   UNL     1      16.013   8.549  29.267  1.00  0.00     0.059 C 
BRANCH   5   6
ATOM      6  C   UNL     1      16.596   9.600  28.378  1.00  0.00     0.042 C 
ATOM      7  O   UNL     1      16.244  10.803  28.501  1.00  0.00    -0.550 OA
ATOM      8  O   UNL     1      17.494   9.246  27.379  1.00  0.00    -0.550 OA
ENDBRANCH   5   6
ENDBRANCH   1   5
TORSDOF 3
ENDMDL
MODEL 7
REMARK VINA RESULT:    -3.116     16.463     17.387
REMARK INTER + INTRA:          -3.712
REMARK INTER:                  -3.677
REMARK INTRA:                  -0.034
REMARK UNBOUND:                -0.049
REMARK SMILES O=C([O-])CCC(=O)[O-]
REMARK SMILES IDX 4 1 2 2 1 3 3 4 5 5 6 6 7 7 8 8
REMARK H PARENT
REMARK Flexibility Score: inf
ROOT
ATOM      1  C   UNL     1      16.026   9.473  29.549  1.00  0.00     0.059 C 
ENDROOT
BRANCH   1   2
ATOM      2  C   UNL     1      16.102  10.088  28.187  1.00  0.00     0.042 C 
ATOM      3  O   UNL     1      15.244  10.935  27.825  1.00  0.00    -0.550 OA
ATOM      4  O   UNL     1      17.147   9.760  27.334  1.00  0.00    -0.550 OA
ENDBRANCH   1   2
BRANCH   1   5
ATOM      5  C   UNL     1      15.241   8.163  29.502  1.00  0.00     0.059 C 
BRANCH   5   6
ATOM      6  C   UNL     1      15.340   7.446  30.811  1.00  0.00     0.042 C 
ATOM      7  O   UNL     1      16.050   7.915  31.739  1.00  0.00    -0.550 OA
ATOM      8  O   UNL     1      14.686   6.234  30.991  1.00  0.00    -0.550 OA
ENDBRANCH   5   6
ENDBRANCH   1   5
TORSDOF 3
ENDMDL
MODEL 8
REMARK VINA RESULT:    -3.016     16.593     17.465
REMARK INTER + INTRA:          -3.594
REMARK INTER:                  -3.511
REMARK INTRA:                  -0.083
REMARK UNBOUND:                -0.049
REMARK SMILES O=C([O-])CCC(=O)[O-]
REMARK SMILES IDX 4 1 2 2 1 3 3 4 5 5 6 6 7 7 8 8
REMARK H PARENT
REMARK Flexibility Score: inf
ROOT
ATOM      1  C   UNL     1      15.061   9.458  31.833  1.00  0.00     0.059 C 
ENDROOT
BRANCH   1   2
ATOM      2  C   UNL     1      13.707   9.287  32.445  1.00  0.00     0.042 C 
ATOM      3  O   UNL     1      13.167  10.241  33.065  1.00  0.00    -0.550 OA
ATOM      4  O   UNL     1      13.019   8.091  32.289  1.00  0.00    -0.550 OA
ENDBRANCH   1   2
BRANCH   1   5
ATOM      5  C   UNL     1      15.633   8.104  31.414  1.00  0.00     0.059 C 
BRANCH   5   6
ATOM      6  C   UNL     1      15.700   8.002  29.923  1.00  0.00     0.042 C 
ATOM      7  O   UNL     1      15.347   6.941  29.343  1.00  0.00    -0.550 OA
ATOM      8  O   UNL     1      16.196   9.062  29.175  1.00  0.00    -0.550 OA
ENDBRANCH   5   6
ENDBRANCH   1   5
TORSDOF 3
ENDMDL
MODEL 9
REMARK VINA RESULT:    -3.015     16.611     17.513
REMARK INTER + INTRA:          -3.592
REMARK INTER:                  -3.502
REMARK INTRA:                  -0.090
REMARK UNBOUND:                -0.049
REMARK SMILES O=C([O-])CCC(=O)[O-]
REMARK SMILES IDX 4 1 2 2 1 3 3 4 5 5 6 6 7 7 8 8
REMARK H PARENT
REMARK Flexibility Score: inf
ROOT
ATOM      1  C   UNL     1      15.659   8.088  31.423  1.00  0.00     0.059 C 
ENDROOT
BRANCH   1   2
ATOM      2  C   UNL     1      15.731   7.924  29.938  1.00  0.00     0.042 C 
ATOM      3  O   UNL     1      15.234   6.907  29.387  1.00  0.00    -0.550 OA
ATOM      4  O   UNL     1      16.304   8.919  29.156  1.00  0.00    -0.550 OA
ENDBRANCH   1   2
BRANCH   1   5
ATOM      5  C   UNL     1      15.069   9.451  31.784  1.00  0.00     0.059 C 
BRANCH   5   6
ATOM      6  C   UNL     1      13.712   9.290  32.391  1.00  0.00     0.042 C 
ATOM      7  O   UNL     1      13.202  10.226  33.062  1.00  0.00    -0.550 OA
ATOM      8  O   UNL     1      13.029   8.089  32.258  1.00  0.00    -0.550 OA
ENDBRANCH   5   6
ENDBRANCH   1   5
TORSDOF 3
ENDMDL
