MODEL 1
REMARK VINA RESULT:    -6.074      0.000      0.000
REMARK INTER + INTRA:          -6.607
REMARK INTER:                  -6.607
REMARK INTRA:                   0.000
REMARK UNBOUND:                 0.000
REMARK SMILES Cc1cc(O)c2c(c1)C(=O)c1cc(O)cc(O)c1C2=O
REMARK SMILES IDX 1 1 2 2 8 3 7 4 6 5 4 6 3 7 19 8 20 9 18 10 11 11 9 12 10 13
REMARK SMILES IDX 12 14 13 15 15 16 16 17 5 18 17 20 14 22
REMARK H PARENT 5 19 17 21 14 23
REMARK Flexibility Score: inf
ROOT
ATOM      1  C   UNL     1       9.160  -4.737  -1.641  1.00  0.00     0.044 C 
ATOM      2  C   UNL     1       7.984  -4.425  -2.519  1.00  0.00    -0.047 A 
ATOM      3  C   UNL     1       7.853  -3.157  -3.098  1.00  0.00     0.016 A 
ATOM      4  C   UNL     1       6.735  -2.844  -3.892  1.00  0.00     0.038 A 
ATOM      5  C   UNL     1       5.732  -3.812  -4.105  1.00  0.00     0.076 A 
ATOM      6  C   UNL     1       5.855  -5.083  -3.497  1.00  0.00     0.127 A 
ATOM      7  C   UNL     1       6.975  -5.376  -2.708  1.00  0.00     0.050 A 
ATOM      8  C   UNL     1       4.578  -3.479  -4.980  1.00  0.00     0.201 C 
ATOM      9  O   UNL     1       3.883  -4.408  -5.471  1.00  0.00    -0.288 OA
ATOM     10  C   UNL     1       4.317  -2.064  -5.368  1.00  0.00     0.076 A 
ATOM     11  C   UNL     1       5.356  -1.119  -5.201  1.00  0.00     0.041 A 
ATOM     12  C   UNL     1       6.607  -1.502  -4.506  1.00  0.00     0.194 C 
ATOM     13  O   UNL     1       7.559  -0.678  -4.419  1.00  0.00    -0.289 OA
ATOM     14  C   UNL     1       5.197   0.190  -5.689  1.00  0.00     0.059 A 
ATOM     15  C   UNL     1       4.014   0.572  -6.324  1.00  0.00     0.120 A 
ATOM     16  C   UNL     1       2.969  -0.340  -6.449  1.00  0.00     0.093 A 
ATOM     17  C   UNL     1       3.089  -1.642  -5.949  1.00  0.00     0.131 A 
ENDROOT
BRANCH   6  18
ATOM     18  O   UNL     1       4.864  -6.050  -3.664  1.00  0.00    -0.507 OA
ATOM     19  H   UNL     1       4.947  -6.974  -3.256  1.00  0.00     0.293 HD
ENDBRANCH   6  18
BRANCH  17  20
ATOM     20  O   UNL     1       1.958  -2.458  -6.019  1.00  0.00    -0.507 OA
ATOM     21  H   UNL     1       1.949  -3.429  -5.737  1.00  0.00     0.293 HD
ENDBRANCH  17  20
BRANCH  15  22
ATOM     22  O   UNL     1       3.861   1.864  -6.824  1.00  0.00    -0.508 OA
ATOM     23  H   UNL     1       3.613   2.033  -7.791  1.00  0.00     0.293 HD
ENDBRANCH  15  22
TORSDOF 3
ENDMDL
MODEL 2
REMARK VINA RESULT:    -6.055     14.676     14.940
REMARK INTER + INTRA:          -6.586
REMARK INTER:                  -6.586
REMARK INTRA:                   0.000
REMARK UNBOUND:                 0.000
REMARK SMILES Cc1cc(O)c2c(c1)C(=O)c1cc(O)cc(O)c1C2=O
REMARK SMILES IDX 1 1 2 2 8 3 7 4 6 5 4 6 3 7 19 8 20 9 18 10 11 11 9 12 10 13
REMARK SMILES IDX 12 14 13 15 15 16 16 17 5 18 17 20 14 22
REMARK H PARENT 5 19 17 21 14 23
REMARK Flexibility Score: inf
ROOT
ATOM      1  C   UNL     1       1.119   0.299   9.754  1.00  0.00     0.044 C 
ATOM      2  C   UNL     1       0.388   1.256   8.859  1.00  0.00    -0.047 A 
ATOM      3  C   UNL     1       0.934   2.514   8.578  1.00  0.00     0.016 A 
ATOM      4  C   UNL     1       0.239   3.432   7.771  1.00  0.00     0.038 A 
ATOM      5  C   UNL     1      -1.023   3.087   7.242  1.00  0.00     0.076 A 
ATOM      6  C   UNL     1      -1.582   1.826   7.550  1.00  0.00     0.127 A 
ATOM      7  C   UNL     1      -0.875   0.925   8.358  1.00  0.00     0.050 A 
ATOM      8  C   UNL     1      -1.725   4.053   6.357  1.00  0.00     0.201 C 
ATOM      9  O   UNL     1      -2.644   3.644   5.599  1.00  0.00    -0.288 OA
ATOM     10  C   UNL     1      -1.268   5.469   6.282  1.00  0.00     0.076 A 
ATOM     11  C   UNL     1       0.024   5.784   6.765  1.00  0.00     0.041 A 
ATOM     12  C   UNL     1       0.826   4.759   7.473  1.00  0.00     0.194 C 
ATOM     13  O   UNL     1       2.004   5.022   7.842  1.00  0.00    -0.289 OA
ATOM     14  C   UNL     1       0.545   7.077   6.577  1.00  0.00     0.059 A 
ATOM     15  C   UNL     1      -0.208   8.060   5.933  1.00  0.00     0.120 A 
ATOM     16  C   UNL     1      -1.499   7.769   5.499  1.00  0.00     0.093 A 
ATOM     17  C   UNL     1      -2.053   6.499   5.695  1.00  0.00     0.131 A 
ENDROOT
BRANCH   6  18
ATOM     18  O   UNL     1      -2.841   1.469   7.067  1.00  0.00    -0.507 OA
ATOM     19  H   UNL     1      -3.050   0.522   6.772  1.00  0.00     0.293 HD
ENDBRANCH   6  18
BRANCH  17  20
ATOM     20  O   UNL     1      -3.389   6.323   5.327  1.00  0.00    -0.507 OA
ATOM     21  H   UNL     1      -4.108   7.016   5.479  1.00  0.00     0.293 HD
ENDBRANCH  17  20
BRANCH  15  22
ATOM     22  O   UNL     1       0.313   9.337   5.732  1.00  0.00    -0.508 OA
ATOM     23  H   UNL     1       0.732   9.864   6.489  1.00  0.00     0.293 HD
ENDBRANCH  15  22
TORSDOF 3
ENDMDL
MODEL 3
REMARK VINA RESULT:    -6.035      2.678      6.958
REMARK INTER + INTRA:          -6.564
REMARK INTER:                  -6.564
REMARK INTRA:                   0.000
REMARK UNBOUND:                 0.000
REMARK SMILES Cc1cc(O)c2c(c1)C(=O)c1cc(O)cc(O)c1C2=O
REMARK SMILES IDX 1 1 2 2 8 3 7 4 6 5 4 6 3 7 19 8 20 9 18 10 11 11 9 12 10 13
REMARK SMILES IDX 12 14 13 15 15 16 16 17 5 18 17 20 14 22
REMARK H PARENT 5 19 17 21 14 23
REMARK Flexibility Score: inf
ROOT
ATOM      1  C   UNL     1       4.187   6.082  -8.221  1.00  0.00     0.044 C 
ATOM      2  C   UNL     1       3.856   4.648  -7.932  1.00  0.00    -0.047 A 
ATOM      3  C   UNL     1       4.655   3.902  -7.058  1.00  0.00     0.016 A 
ATOM      4  C   UNL     1       4.375   2.547  -6.810  1.00  0.00     0.038 A 
ATOM      5  C   UNL     1       3.281   1.928  -7.450  1.00  0.00     0.076 A 
ATOM      6  C   UNL     1       2.493   2.677  -8.353  1.00  0.00     0.127 A 
ATOM      7  C   UNL     1       2.789   4.026  -8.589  1.00  0.00     0.050 A 
ATOM      8  C   UNL     1       2.974   0.506  -7.145  1.00  0.00     0.201 C 
ATOM      9  O   UNL     1       1.829   0.050  -7.405  1.00  0.00    -0.288 OA
ATOM     10  C   UNL     1       3.972  -0.339  -6.431  1.00  0.00     0.076 A 
ATOM     11  C   UNL     1       5.029   0.304  -5.745  1.00  0.00     0.041 A 
ATOM     12  C   UNL     1       5.222   1.767  -5.878  1.00  0.00     0.194 C 
ATOM     13  O   UNL     1       6.123   2.348  -5.211  1.00  0.00    -0.289 OA
ATOM     14  C   UNL     1       5.903  -0.450  -4.941  1.00  0.00     0.059 A 
ATOM     15  C   UNL     1       5.747  -1.832  -4.826  1.00  0.00     0.120 A 
ATOM     16  C   UNL     1       4.738  -2.477  -5.537  1.00  0.00     0.093 A 
ATOM     17  C   UNL     1       3.870  -1.756  -6.365  1.00  0.00     0.131 A 
ENDROOT
BRANCH   6  18
ATOM     18  O   UNL     1       1.424   2.084  -9.025  1.00  0.00    -0.507 OA
ATOM     19  H   UNL     1       0.501   2.503  -9.034  1.00  0.00     0.293 HD
ENDBRANCH   6  18
BRANCH  17  20
ATOM     20  O   UNL     1       2.957  -2.491  -7.124  1.00  0.00    -0.507 OA
ATOM     21  H   UNL     1       2.653  -3.425  -6.886  1.00  0.00     0.293 HD
ENDBRANCH  17  20
BRANCH  15  22
ATOM     22  O   UNL     1       6.602  -2.578  -4.017  1.00  0.00    -0.508 OA
ATOM     23  H   UNL     1       6.274  -3.027  -3.171  1.00  0.00     0.293 HD
ENDBRANCH  15  22
TORSDOF 3
ENDMDL
MODEL 4
REMARK VINA RESULT:    -6.031     14.679     15.289
REMARK INTER + INTRA:          -6.560
REMARK INTER:                  -6.560
REMARK INTRA:                   0.000
REMARK UNBOUND:                 0.000
REMARK SMILES Cc1cc(O)c2c(c1)C(=O)c1cc(O)cc(O)c1C2=O
REMARK SMILES IDX 1 1 2 2 8 3 7 4 6 5 4 6 3 7 19 8 20 9 18 10 11 11 9 12 10 13
REMARK SMILES IDX 12 14 13 15 15 16 16 17 5 18 17 20 14 22
REMARK H PARENT 5 19 17 21 14 23
REMARK Flexibility Score: inf
ROOT
ATOM      1  C   UNL     1       3.224   4.752   8.910  1.00  0.00     0.044 C 
ATOM      2  C   UNL     1       1.882   4.280   8.433  1.00  0.00    -0.047 A 
ATOM      3  C   UNL     1       1.432   2.994   8.754  1.00  0.00     0.016 A 
ATOM      4  C   UNL     1       0.193   2.530   8.280  1.00  0.00     0.038 A 
ATOM      5  C   UNL     1      -0.606   3.363   7.469  1.00  0.00     0.076 A 
ATOM      6  C   UNL     1      -0.135   4.651   7.124  1.00  0.00     0.127 A 
ATOM      7  C   UNL     1       1.104   5.096   7.605  1.00  0.00     0.050 A 
ATOM      8  C   UNL     1      -1.932   2.872   7.011  1.00  0.00     0.201 C 
ATOM      9  O   UNL     1      -2.795   3.698   6.611  1.00  0.00    -0.288 OA
ATOM     10  C   UNL     1      -2.279   1.428   7.133  1.00  0.00     0.076 A 
ATOM     11  C   UNL     1      -1.502   0.622   7.998  1.00  0.00     0.041 A 
ATOM     12  C   UNL     1      -0.279   1.170   8.630  1.00  0.00     0.194 C 
ATOM     13  O   UNL     1       0.373   0.472   9.454  1.00  0.00    -0.289 OA
ATOM     14  C   UNL     1      -1.888  -0.707   8.250  1.00  0.00     0.059 A 
ATOM     15  C   UNL     1      -3.023  -1.244   7.643  1.00  0.00     0.120 A 
ATOM     16  C   UNL     1      -3.765  -0.470   6.753  1.00  0.00     0.093 A 
ATOM     17  C   UNL     1      -3.390   0.847   6.463  1.00  0.00     0.131 A 
ENDROOT
BRANCH   6  18
ATOM     18  O   UNL     1      -0.888   5.486   6.299  1.00  0.00    -0.507 OA
ATOM     19  H   UNL     1      -1.891   5.585   6.412  1.00  0.00     0.293 HD
ENDBRANCH   6  18
BRANCH  17  20
ATOM     20  O   UNL     1      -4.123   1.516   5.481  1.00  0.00    -0.507 OA
ATOM     21  H   UNL     1      -4.789   1.062   4.871  1.00  0.00     0.293 HD
ENDBRANCH  17  20
BRANCH  15  22
ATOM     22  O   UNL     1      -3.417  -2.555   7.904  1.00  0.00    -0.508 OA
ATOM     23  H   UNL     1      -2.776  -3.232   8.300  1.00  0.00     0.293 HD
ENDBRANCH  15  22
TORSDOF 3
ENDMDL
MODEL 5
REMARK VINA RESULT:    -5.890      2.597      4.694
REMARK INTER + INTRA:          -6.407
REMARK INTER:                  -6.407
REMARK INTRA:                   0.000
REMARK UNBOUND:                 0.000
REMARK SMILES Cc1cc(O)c2c(c1)C(=O)c1cc(O)cc(O)c1C2=O
REMARK SMILES IDX 1 1 2 2 8 3 7 4 6 5 4 6 3 7 19 8 20 9 18 10 11 11 9 12 10 13
REMARK SMILES IDX 12 14 13 15 15 16 16 17 5 18 17 20 14 22
REMARK H PARENT 5 19 17 21 14 23
REMARK Flexibility Score: inf
ROOT
ATOM      1  C   UNL     1       6.689  -2.395  -4.012  1.00  0.00     0.044 C 
ATOM      2  C   UNL     1       5.782  -1.620  -4.922  1.00  0.00    -0.047 A 
ATOM      3  C   UNL     1       6.063  -0.283  -5.225  1.00  0.00     0.016 A 
ATOM      4  C   UNL     1       5.199   0.462  -6.047  1.00  0.00     0.038 A 
ATOM      5  C   UNL     1       4.034  -0.139  -6.568  1.00  0.00     0.076 A 
ATOM      6  C   UNL     1       3.740  -1.482  -6.237  1.00  0.00     0.127 A 
ATOM      7  C   UNL     1       4.613  -2.208  -5.415  1.00  0.00     0.050 A 
ATOM      8  C   UNL     1       3.153   0.650  -7.468  1.00  0.00     0.201 C 
ATOM      9  O   UNL     1       2.337   0.051  -8.218  1.00  0.00    -0.288 OA
ATOM     10  C   UNL     1       3.315   2.128  -7.568  1.00  0.00     0.076 A 
ATOM     11  C   UNL     1       4.516   2.705  -7.093  1.00  0.00     0.041 A 
ATOM     12  C   UNL     1       5.507   1.875  -6.368  1.00  0.00     0.194 C 
ATOM     13  O   UNL     1       6.607   2.376  -6.007  1.00  0.00    -0.289 OA
ATOM     14  C   UNL     1       4.766   4.073  -7.304  1.00  0.00     0.059 A 
ATOM     15  C   UNL     1       3.832   4.872  -7.963  1.00  0.00     0.120 A 
ATOM     16  C   UNL     1       2.627   4.319  -8.391  1.00  0.00     0.093 A 
ATOM     17  C   UNL     1       2.340   2.968  -8.172  1.00  0.00     0.131 A 
ENDROOT
BRANCH   6  18
ATOM     18  O   UNL     1       2.580  -2.094  -6.712  1.00  0.00    -0.507 OA
ATOM     19  H   UNL     1       2.580  -3.051  -7.046  1.00  0.00     0.293 HD
ENDBRANCH   6  18
BRANCH  17  20
ATOM     20  O   UNL     1       1.067   2.519  -8.535  1.00  0.00    -0.507 OA
ATOM     21  H   UNL     1       0.352   2.264  -7.869  1.00  0.00     0.293 HD
ENDBRANCH  17  20
BRANCH  15  22
ATOM     22  O   UNL     1       4.084   6.224  -8.187  1.00  0.00    -0.508 OA
ATOM     23  H   UNL     1       3.893   6.924  -7.480  1.00  0.00     0.293 HD
ENDBRANCH  15  22
TORSDOF 3
ENDMDL
MODEL 6
REMARK VINA RESULT:    -5.812      2.135      4.654
REMARK INTER + INTRA:          -6.321
REMARK INTER:                  -6.321
REMARK INTRA:                   0.000
REMARK UNBOUND:                 0.000
REMARK SMILES Cc1cc(O)c2c(c1)C(=O)c1cc(O)cc(O)c1C2=O
REMARK SMILES IDX 1 1 2 2 8 3 7 4 6 5 4 6 3 7 19 8 20 9 18 10 11 11 9 12 10 13
REMARK SMILES IDX 12 14 13 15 15 16 16 17 5 18 17 20 14 22
REMARK H PARENT 5 19 17 21 14 23
REMARK Flexibility Score: inf
ROOT
ATOM      1  C   UNL     1       6.541  -4.066  -4.138  1.00  0.00     0.044 C 
ATOM      2  C   UNL     1       6.261  -2.636  -4.495  1.00  0.00    -0.047 A 
ATOM      3  C   UNL     1       5.124  -2.305  -5.241  1.00  0.00     0.016 A 
ATOM      4  C   UNL     1       4.873  -0.972  -5.612  1.00  0.00     0.038 A 
ATOM      5  C   UNL     1       5.776   0.044  -5.235  1.00  0.00     0.076 A 
ATOM      6  C   UNL     1       6.938  -0.299  -4.504  1.00  0.00     0.127 A 
ATOM      7  C   UNL     1       7.171  -1.633  -4.145  1.00  0.00     0.050 A 
ATOM      8  C   UNL     1       5.475   1.452  -5.600  1.00  0.00     0.201 C 
ATOM      9  O   UNL     1       6.047   2.389  -4.981  1.00  0.00    -0.288 OA
ATOM     10  C   UNL     1       4.419   1.756  -6.606  1.00  0.00     0.076 A 
ATOM     11  C   UNL     1       3.486   0.742  -6.927  1.00  0.00     0.041 A 
ATOM     12  C   UNL     1       3.664  -0.630  -6.396  1.00  0.00     0.194 C 
ATOM     13  O   UNL     1       2.794  -1.514  -6.628  1.00  0.00    -0.289 OA
ATOM     14  C   UNL     1       2.391   1.037  -7.760  1.00  0.00     0.059 A 
ATOM     15  C   UNL     1       2.225   2.318  -8.287  1.00  0.00     0.120 A 
ATOM     16  C   UNL     1       3.166   3.307  -8.013  1.00  0.00     0.093 A 
ATOM     17  C   UNL     1       4.279   3.036  -7.209  1.00  0.00     0.131 A 
ENDROOT
BRANCH   6  18
ATOM     18  O   UNL     1       7.865   0.679  -4.144  1.00  0.00    -0.507 OA
ATOM     19  H   UNL     1       8.146   0.818  -3.180  1.00  0.00     0.293 HD
ENDBRANCH   6  18
BRANCH  17  20
ATOM     20  O   UNL     1       5.229   4.051  -7.073  1.00  0.00    -0.507 OA
ATOM     21  H   UNL     1       5.013   4.979  -6.738  1.00  0.00     0.293 HD
ENDBRANCH  17  20
BRANCH  15  22
ATOM     22  O   UNL     1       1.132   2.616  -9.099  1.00  0.00    -0.508 OA
ATOM     23  H   UNL     1       0.224   2.837  -8.707  1.00  0.00     0.293 HD
ENDBRANCH  15  22
TORSDOF 3
ENDMDL
MODEL 7
REMARK VINA RESULT:    -5.766      6.966      9.835
REMARK INTER + INTRA:          -6.272
REMARK INTER:                  -6.272
REMARK INTRA:                   0.000
REMARK UNBOUND:                 0.000
REMARK SMILES Cc1cc(O)c2c(c1)C(=O)c1cc(O)cc(O)c1C2=O
REMARK SMILES IDX 1 1 2 2 8 3 7 4 6 5 4 6 3 7 19 8 20 9 18 10 11 11 9 12 10 13
REMARK SMILES IDX 12 14 13 15 15 16 16 17 5 18 17 20 14 22
REMARK H PARENT 5 19 17 21 14 23
REMARK Flexibility Score: inf
ROOT
ATOM      1  C   UNL     1       7.388   1.822  -6.502  1.00  0.00     0.044 C 
ATOM      2  C   UNL     1       6.907   3.187  -6.105  1.00  0.00    -0.047 A 
ATOM      3  C   UNL     1       7.494   3.854  -5.024  1.00  0.00     0.016 A 
ATOM      4  C   UNL     1       7.025   5.117  -4.621  1.00  0.00     0.038 A 
ATOM      5  C   UNL     1       5.949   5.718  -5.308  1.00  0.00     0.076 A 
ATOM      6  C   UNL     1       5.342   5.029  -6.382  1.00  0.00     0.127 A 
ATOM      7  C   UNL     1       5.822   3.770  -6.768  1.00  0.00     0.050 A 
ATOM      8  C   UNL     1       5.493   7.071  -4.896  1.00  0.00     0.201 C 
ATOM      9  O   UNL     1       4.809   7.764  -5.694  1.00  0.00    -0.288 OA
ATOM     10  C   UNL     1       5.940   7.649  -3.597  1.00  0.00     0.076 A 
ATOM     11  C   UNL     1       7.058   7.068  -2.953  1.00  0.00     0.041 A 
ATOM     12  C   UNL     1       7.656   5.819  -3.480  1.00  0.00     0.194 C 
ATOM     13  O   UNL     1       8.695   5.342  -2.945  1.00  0.00    -0.289 OA
ATOM     14  C   UNL     1       7.597   7.675  -1.804  1.00  0.00     0.059 A 
ATOM     15  C   UNL     1       7.028   8.838  -1.282  1.00  0.00     0.120 A 
ATOM     16  C   UNL     1       5.899   9.387  -1.885  1.00  0.00     0.093 A 
ATOM     17  C   UNL     1       5.325   8.790  -3.013  1.00  0.00     0.131 A 
ENDROOT
BRANCH   6  18
ATOM     18  O   UNL     1       4.257   5.584  -7.061  1.00  0.00    -0.507 OA
ATOM     19  H   UNL     1       3.780   6.410  -6.718  1.00  0.00     0.293 HD
ENDBRANCH   6  18
BRANCH  17  20
ATOM     20  O   UNL     1       4.134   9.342  -3.489  1.00  0.00    -0.507 OA
ATOM     21  H   UNL     1       3.996   9.636  -4.446  1.00  0.00     0.293 HD
ENDBRANCH  17  20
BRANCH  15  22
ATOM     22  O   UNL     1       7.571   9.449  -0.154  1.00  0.00    -0.508 OA
ATOM     23  H   UNL     1       6.983   9.876   0.552  1.00  0.00     0.293 HD
ENDBRANCH  15  22
TORSDOF 3
ENDMDL
MODEL 8
REMARK VINA RESULT:    -5.754      3.457      7.147
REMARK INTER + INTRA:          -6.258
REMARK INTER:                  -6.258
REMARK INTRA:                   0.000
REMARK UNBOUND:                 0.000
REMARK SMILES Cc1cc(O)c2c(c1)C(=O)c1cc(O)cc(O)c1C2=O
REMARK SMILES IDX 1 1 2 2 8 3 7 4 6 5 4 6 3 7 19 8 20 9 18 10 11 11 9 12 10 13
REMARK SMILES IDX 12 14 13 15 15 16 16 17 5 18 17 20 14 22
REMARK H PARENT 5 19 17 21 14 23
REMARK Flexibility Score: inf
ROOT
ATOM      1  C   UNL     1       1.738   4.713  -9.458  1.00  0.00     0.044 C 
ATOM      2  C   UNL     1       2.366   3.647  -8.608  1.00  0.00    -0.047 A 
ATOM      3  C   UNL     1       3.526   3.923  -7.875  1.00  0.00     0.016 A 
ATOM      4  C   UNL     1       4.143   2.920  -7.106  1.00  0.00     0.038 A 
ATOM      5  C   UNL     1       3.592   1.621  -7.074  1.00  0.00     0.076 A 
ATOM      6  C   UNL     1       2.436   1.341  -7.838  1.00  0.00     0.127 A 
ATOM      7  C   UNL     1       1.836   2.352  -8.599  1.00  0.00     0.050 A 
ATOM      8  C   UNL     1       4.233   0.585  -6.224  1.00  0.00     0.201 C 
ATOM      9  O   UNL     1       3.577  -0.440  -5.896  1.00  0.00    -0.288 OA
ATOM     10  C   UNL     1       5.597   0.810  -5.667  1.00  0.00     0.076 A 
ATOM     11  C   UNL     1       6.107   2.129  -5.654  1.00  0.00     0.041 A 
ATOM     12  C   UNL     1       5.366   3.222  -6.328  1.00  0.00     0.194 C 
ATOM     13  O   UNL     1       5.789   4.409  -6.256  1.00  0.00    -0.289 OA
ATOM     14  C   UNL     1       7.325   2.402  -5.006  1.00  0.00     0.059 A 
ATOM     15  C   UNL     1       8.045   1.379  -4.389  1.00  0.00     0.120 A 
ATOM     16  C   UNL     1       7.571   0.070  -4.440  1.00  0.00     0.093 A 
ATOM     17  C   UNL     1       6.376  -0.235  -5.100  1.00  0.00     0.131 A 
ENDROOT
BRANCH   6  18
ATOM     18  O   UNL     1       1.887   0.058  -7.851  1.00  0.00    -0.507 OA
ATOM     19  H   UNL     1       2.255  -0.673  -8.448  1.00  0.00     0.293 HD
ENDBRANCH   6  18
BRANCH  17  20
ATOM     20  O   UNL     1       6.028  -1.584  -5.197  1.00  0.00    -0.507 OA
ATOM     21  H   UNL     1       5.883  -2.065  -6.074  1.00  0.00     0.293 HD
ENDBRANCH  17  20
BRANCH  15  22
ATOM     22  O   UNL     1       9.244   1.649  -3.732  1.00  0.00    -0.508 OA
ATOM     23  H   UNL     1       9.305   2.356  -3.008  1.00  0.00     0.293 HD
ENDBRANCH  15  22
TORSDOF 3
ENDMDL
MODEL 9
REMARK VINA RESULT:    -5.722      6.900      8.960
REMARK INTER + INTRA:          -6.224
REMARK INTER:                  -6.224
REMARK INTRA:                   0.000
REMARK UNBOUND:                 0.000
REMARK SMILES Cc1cc(O)c2c(c1)C(=O)c1cc(O)cc(O)c1C2=O
REMARK SMILES IDX 1 1 2 2 8 3 7 4 6 5 4 6 3 7 19 8 20 9 18 10 11 11 9 12 10 13
REMARK SMILES IDX 12 14 13 15 15 16 16 17 5 18 17 20 14 22
REMARK H PARENT 5 19 17 21 14 23
REMARK Flexibility Score: inf
ROOT
ATOM      1  C   UNL     1      10.125   1.155  -3.780  1.00  0.00     0.044 C 
ATOM      2  C   UNL     1       9.189   2.323  -3.893  1.00  0.00    -0.047 A 
ATOM      3  C   UNL     1       9.418   3.484  -3.146  1.00  0.00     0.016 A 
ATOM      4  C   UNL     1       8.526   4.569  -3.216  1.00  0.00     0.038 A 
ATOM      5  C   UNL     1       7.386   4.488  -4.043  1.00  0.00     0.076 A 
ATOM      6  C   UNL     1       7.145   3.303  -4.775  1.00  0.00     0.127 A 
ATOM      7  C   UNL     1       8.044   2.231  -4.691  1.00  0.00     0.050 A 
ATOM      8  C   UNL     1       6.476   5.659  -4.137  1.00  0.00     0.201 C 
ATOM      9  O   UNL     1       5.685   5.752  -5.113  1.00  0.00    -0.288 OA
ATOM     10  C   UNL     1       6.581   6.771  -3.151  1.00  0.00     0.076 A 
ATOM     11  C   UNL     1       7.758   6.869  -2.372  1.00  0.00     0.041 A 
ATOM     12  C   UNL     1       8.780   5.797  -2.427  1.00  0.00     0.194 C 
ATOM     13  O   UNL     1       9.859   5.919  -1.785  1.00  0.00    -0.289 OA
ATOM     14  C   UNL     1       7.955   7.985  -1.539  1.00  0.00     0.059 A 
ATOM     15  C   UNL     1       6.991   8.990  -1.459  1.00  0.00     0.120 A 
ATOM     16  C   UNL     1       5.809   8.875  -2.187  1.00  0.00     0.093 A 
ATOM     17  C   UNL     1       5.574   7.764  -3.004  1.00  0.00     0.131 A 
ENDROOT
BRANCH   6  18
ATOM     18  O   UNL     1       6.009   3.182  -5.577  1.00  0.00    -0.507 OA
ATOM     19  H   UNL     1       5.664   2.278  -5.879  1.00  0.00     0.293 HD
ENDBRANCH   6  18
BRANCH  17  20
ATOM     20  O   UNL     1       4.321   7.674  -3.613  1.00  0.00    -0.507 OA
ATOM     21  H   UNL     1       3.451   7.620  -3.102  1.00  0.00     0.293 HD
ENDBRANCH  17  20
BRANCH  15  22
ATOM     22  O   UNL     1       7.191  10.104  -0.646  1.00  0.00    -0.508 OA
ATOM     23  H   UNL     1       6.447  10.766  -0.460  1.00  0.00     0.293 HD
ENDBRANCH  15  22
TORSDOF 3
ENDMDL
