MODEL 1
REMARK VINA RESULT:    -2.707      0.000      0.000
REMARK INTER + INTRA:          -3.324
REMARK INTER:                  -3.261
REMARK INTRA:                  -0.064
REMARK UNBOUND:                -0.064
REMARK SMILES Oc1cc(O)c2c(c1)O[C@H](c1ccc(O)c(O)c1)[C@H](O)C2
REMARK SMILES IDX 21 1 19 2 10 3 9 4 7 5 8 6 2 7 3 8 4 9 6 10 20 11 11 13
REMARK SMILES IDX 18 14 12 15 16 16 13 17 14 18 17 19 15 21 5 23 1 25
REMARK H PARENT 20 12 17 20 15 22 5 24 1 26
REMARK Flexibility Score: inf
ROOT
ATOM      1  C   UNL     1       7.064  -1.407  11.481  1.00  0.00     0.079 C 
ATOM      2  C   UNL     1       5.941  -1.808  10.505  1.00  0.00     0.164 C 
ATOM      3  C   UNL     1       5.911  -3.333  10.257  1.00  0.00     0.232 C 
ATOM      4  O   UNL     1       5.875  -4.034  11.503  1.00  0.00    -0.482 OA
ATOM      5  C   UNL     1       6.467  -3.552  12.680  1.00  0.00     0.131 A 
ATOM      6  C   UNL     1       6.454  -4.360  13.819  1.00  0.00     0.093 A 
ATOM      7  C   UNL     1       7.059  -3.928  15.000  1.00  0.00     0.122 A 
ATOM      8  C   UNL     1       7.693  -2.681  15.040  1.00  0.00     0.092 A 
ATOM      9  C   UNL     1       7.720  -1.858  13.908  1.00  0.00     0.126 A 
ATOM     10  C   UNL     1       7.068  -2.273  12.722  1.00  0.00     0.039 A 
ENDROOT
BRANCH   2  11
ATOM     11  O   UNL     1       6.015  -1.085   9.300  1.00  0.00    -0.389 OA
ATOM     12  H   UNL     1       6.847  -0.544   9.316  1.00  0.00     0.211 HD
ENDBRANCH   2  11
BRANCH   3  13
ATOM     13  C   UNL     1       7.055  -3.825   9.387  1.00  0.00    -0.001 A 
ATOM     14  C   UNL     1       8.388  -3.820   9.841  1.00  0.00     0.057 A 
ATOM     15  C   UNL     1       6.787  -4.260   8.077  1.00  0.00     0.012 A 
ATOM     16  C   UNL     1       9.428  -4.253   9.010  1.00  0.00     0.157 A 
ATOM     17  C   UNL     1       7.824  -4.691   7.246  1.00  0.00     0.050 A 
ATOM     18  C   UNL     1       9.146  -4.692   7.706  1.00  0.00     0.157 A 
BRANCH  16  19
ATOM     19  O   UNL     1      10.734  -4.237   9.498  1.00  0.00    -0.504 OA
ATOM     20  H   UNL     1      11.483  -3.756   9.014  1.00  0.00     0.293 HD
ENDBRANCH  16  19
BRANCH  18  21
ATOM     21  O   UNL     1      10.178  -5.124   6.875  1.00  0.00    -0.504 OA
ATOM     22  H   UNL     1      10.128  -5.020   5.869  1.00  0.00     0.293 HD
ENDBRANCH  18  21
ENDBRANCH   3  13
BRANCH   9  23
ATOM     23  O   UNL     1       8.414  -0.649  13.994  1.00  0.00    -0.507 OA
ATOM     24  H   UNL     1       9.357  -0.522  13.651  1.00  0.00     0.293 HD
ENDBRANCH   9  23
BRANCH   7  25
ATOM     25  O   UNL     1       7.032  -4.747  16.126  1.00  0.00    -0.508 OA
ATOM     26  H   UNL     1       7.186  -4.375  17.056  1.00  0.00     0.293 HD
ENDBRANCH   7  25
TORSDOF 6
ENDMDL
MODEL 2
REMARK VINA RESULT:    -2.286      1.838      6.150
REMARK INTER + INTRA:          -2.817
REMARK INTER:                  -2.706
REMARK INTRA:                  -0.111
REMARK UNBOUND:                -0.064
REMARK SMILES Oc1cc(O)c2c(c1)O[C@H](c1ccc(O)c(O)c1)[C@H](O)C2
REMARK SMILES IDX 21 1 19 2 10 3 9 4 7 5 8 6 2 7 3 8 4 9 6 10 20 11 11 13
REMARK SMILES IDX 18 14 12 15 16 16 13 17 14 18 17 19 15 21 5 23 1 25
REMARK H PARENT 20 12 17 20 15 22 5 24 1 26
REMARK Flexibility Score: inf
ROOT
ATOM      1  C   UNL     1       8.936  -4.361  11.975  1.00  0.00     0.079 C 
ATOM      2  C   UNL     1       8.055  -4.924  13.107  1.00  0.00     0.164 C 
ATOM      3  C   UNL     1       6.586  -4.461  12.978  1.00  0.00     0.232 C 
ATOM      4  O   UNL     1       6.095  -4.742  11.665  1.00  0.00    -0.482 OA
ATOM      5  C   UNL     1       6.904  -4.748  10.520  1.00  0.00     0.131 A 
ATOM      6  C   UNL     1       6.304  -4.942   9.273  1.00  0.00     0.093 A 
ATOM      7  C   UNL     1       7.072  -4.925   8.109  1.00  0.00     0.122 A 
ATOM      8  C   UNL     1       8.451  -4.699   8.188  1.00  0.00     0.092 A 
ATOM      9  C   UNL     1       9.070  -4.497   9.427  1.00  0.00     0.126 A 
ATOM     10  C   UNL     1       8.302  -4.560  10.615  1.00  0.00     0.039 A 
ENDROOT
BRANCH   2  11
ATOM     11  O   UNL     1       8.586  -4.629  14.375  1.00  0.00    -0.389 OA
ATOM     12  H   UNL     1       7.837  -4.366  14.970  1.00  0.00     0.211 HD
ENDBRANCH   2  11
BRANCH   3  13
ATOM     13  C   UNL     1       6.381  -2.998  13.336  1.00  0.00    -0.001 A 
ATOM     14  C   UNL     1       6.562  -1.971  12.391  1.00  0.00     0.057 A 
ATOM     15  C   UNL     1       6.042  -2.653  14.656  1.00  0.00     0.012 A 
ATOM     16  C   UNL     1       6.395  -0.629  12.753  1.00  0.00     0.157 A 
ATOM     17  C   UNL     1       5.875  -1.315  15.019  1.00  0.00     0.050 A 
ATOM     18  C   UNL     1       6.048  -0.297  14.072  1.00  0.00     0.157 A 
BRANCH  16  19
ATOM     19  O   UNL     1       6.578   0.359  11.786  1.00  0.00    -0.504 OA
ATOM     20  H   UNL     1       6.800   0.135  10.823  1.00  0.00     0.293 HD
ENDBRANCH  16  19
BRANCH  18  21
ATOM     21  O   UNL     1       5.879   1.037  14.437  1.00  0.00    -0.504 OA
ATOM     22  H   UNL     1       5.253   1.307  15.186  1.00  0.00     0.293 HD
ENDBRANCH  18  21
ENDBRANCH   3  13
BRANCH   9  23
ATOM     23  O   UNL     1      10.439  -4.223   9.439  1.00  0.00    -0.507 OA
ATOM     24  H   UNL     1      10.935  -3.828   8.651  1.00  0.00     0.293 HD
ENDBRANCH   9  23
BRANCH   7  25
ATOM     25  O   UNL     1       6.455  -5.125   6.875  1.00  0.00    -0.508 OA
ATOM     26  H   UNL     1       5.508  -4.809   6.699  1.00  0.00     0.293 HD
ENDBRANCH   7  25
TORSDOF 6
ENDMDL
MODEL 3
REMARK VINA RESULT:    -2.099      7.532     10.655
REMARK INTER + INTRA:          -2.592
REMARK INTER:                  -2.846
REMARK INTRA:                   0.254
REMARK UNBOUND:                -0.064
REMARK SMILES Oc1cc(O)c2c(c1)O[C@H](c1ccc(O)c(O)c1)[C@H](O)C2
REMARK SMILES IDX 21 1 19 2 10 3 9 4 7 5 8 6 2 7 3 8 4 9 6 10 20 11 11 13
REMARK SMILES IDX 18 14 12 15 16 16 13 17 14 18 17 19 15 21 5 23 1 25
REMARK H PARENT 20 12 17 20 15 22 5 24 1 26
REMARK Flexibility Score: inf
ROOT
ATOM      1  C   UNL     1       7.855   5.070  11.686  1.00  0.00     0.079 C 
ATOM      2  C   UNL     1       9.164   5.536  12.354  1.00  0.00     0.164 C 
ATOM      3  C   UNL     1       9.049   5.555  13.894  1.00  0.00     0.232 C 
ATOM      4  O   UNL     1       8.572   4.292  14.368  1.00  0.00    -0.482 OA
ATOM      5  C   UNL     1       7.706   3.468  13.636  1.00  0.00     0.131 A 
ATOM      6  C   UNL     1       7.226   2.299  14.232  1.00  0.00     0.093 A 
ATOM      7  C   UNL     1       6.339   1.469  13.547  1.00  0.00     0.122 A 
ATOM      8  C   UNL     1       5.917   1.815  12.259  1.00  0.00     0.092 A 
ATOM      9  C   UNL     1       6.382   2.984  11.646  1.00  0.00     0.126 A 
ATOM     10  C   UNL     1       7.318   3.806  12.319  1.00  0.00     0.039 A 
ENDROOT
BRANCH   2  11
ATOM     11  O   UNL     1       9.595   6.775  11.846  1.00  0.00    -0.389 OA
ATOM     12  H   UNL     1       8.795   7.283  11.553  1.00  0.00     0.211 HD
ENDBRANCH   2  11
BRANCH   3  13
ATOM     13  C   UNL     1       8.194   6.695  14.421  1.00  0.00    -0.001 A 
ATOM     14  C   UNL     1       8.035   7.896  13.704  1.00  0.00     0.057 A 
ATOM     15  C   UNL     1       7.575   6.568  15.677  1.00  0.00     0.012 A 
ATOM     16  C   UNL     1       7.263   8.942  14.224  1.00  0.00     0.157 A 
ATOM     17  C   UNL     1       6.806   7.611  16.198  1.00  0.00     0.050 A 
ATOM     18  C   UNL     1       6.644   8.801  15.477  1.00  0.00     0.157 A 
BRANCH  16  19
ATOM     19  O   UNL     1       7.127  10.114  13.482  1.00  0.00    -0.504 OA
ATOM     20  H   UNL     1       7.913  10.549  13.013  1.00  0.00     0.293 HD
ENDBRANCH  16  19
BRANCH  18  21
ATOM     21  O   UNL     1       5.875   9.838  15.999  1.00  0.00    -0.504 OA
ATOM     22  H   UNL     1       5.774   9.974  16.997  1.00  0.00     0.293 HD
ENDBRANCH  18  21
ENDBRANCH   3  13
BRANCH   9  23
ATOM     23  O   UNL     1       5.884   3.304  10.381  1.00  0.00    -0.507 OA
ATOM     24  H   UNL     1       6.024   2.724   9.564  1.00  0.00     0.293 HD
ENDBRANCH   9  23
BRANCH   7  25
ATOM     25  O   UNL     1       5.875   0.305  14.158  1.00  0.00    -0.508 OA
ATOM     26  H   UNL     1       4.994  -0.118  13.890  1.00  0.00     0.293 HD
ENDBRANCH   7  25
TORSDOF 6
ENDMDL
MODEL 4
REMARK VINA RESULT:    -0.580      6.530      8.885
REMARK INTER + INTRA:          -0.762
REMARK INTER:                  -0.658
REMARK INTRA:                  -0.104
REMARK UNBOUND:                -0.064
REMARK SMILES Oc1cc(O)c2c(c1)O[C@H](c1ccc(O)c(O)c1)[C@H](O)C2
REMARK SMILES IDX 21 1 19 2 10 3 9 4 7 5 8 6 2 7 3 8 4 9 6 10 20 11 11 13
REMARK SMILES IDX 18 14 12 15 16 16 13 17 14 18 17 19 15 21 5 23 1 25
REMARK H PARENT 20 12 17 20 15 22 5 24 1 26
REMARK Flexibility Score: inf
ROOT
ATOM      1  C   UNL     1       8.719   4.891  12.572  1.00  0.00     0.079 C 
ATOM      2  C   UNL     1       7.736   4.546  11.436  1.00  0.00     0.164 C 
ATOM      3  C   UNL     1       6.322   4.233  11.973  1.00  0.00     0.232 C 
ATOM      4  O   UNL     1       5.875   5.290  12.827  1.00  0.00    -0.482 OA
ATOM      5  C   UNL     1       6.738   6.071  13.610  1.00  0.00     0.131 A 
ATOM      6  C   UNL     1       6.188   7.015  14.480  1.00  0.00     0.093 A 
ATOM      7  C   UNL     1       7.012   7.789  15.296  1.00  0.00     0.122 A 
ATOM      8  C   UNL     1       8.399   7.611  15.253  1.00  0.00     0.092 A 
ATOM      9  C   UNL     1       8.970   6.667  14.392  1.00  0.00     0.126 A 
ATOM     10  C   UNL     1       8.141   5.911  13.528  1.00  0.00     0.039 A 
ENDROOT
BRANCH   2  11
ATOM     11  O   UNL     1       8.227   3.509  10.622  1.00  0.00    -0.389 OA
ATOM     12  H   UNL     1       7.451   2.989  10.284  1.00  0.00     0.211 HD
ENDBRANCH   2  11
BRANCH   3  13
ATOM     13  C   UNL     1       6.226   2.888  12.674  1.00  0.00    -0.001 A 
ATOM     14  C   UNL     1       6.119   1.683  11.954  1.00  0.00     0.057 A 
ATOM     15  C   UNL     1       6.202   2.843  14.079  1.00  0.00     0.012 A 
ATOM     16  C   UNL     1       6.004   0.459  12.624  1.00  0.00     0.157 A 
ATOM     17  C   UNL     1       6.086   1.623  14.749  1.00  0.00     0.050 A 
ATOM     18  C   UNL     1       5.989   0.426  14.027  1.00  0.00     0.157 A 
BRANCH  16  19
ATOM     19  O   UNL     1       5.905  -0.714  11.875  1.00  0.00    -0.504 OA
ATOM     20  H   UNL     1       5.977  -1.631  12.300  1.00  0.00     0.293 HD
ENDBRANCH  16  19
BRANCH  18  21
ATOM     21  O   UNL     1       5.875  -0.790  14.698  1.00  0.00    -0.504 OA
ATOM     22  H   UNL     1       5.163  -0.943  15.402  1.00  0.00     0.293 HD
ENDBRANCH  18  21
ENDBRANCH   3  13
BRANCH   9  23
ATOM     23  O   UNL     1      10.355   6.497  14.431  1.00  0.00    -0.507 OA
ATOM     24  H   UNL     1      10.874   6.345  15.286  1.00  0.00     0.293 HD
ENDBRANCH   9  23
BRANCH   7  25
ATOM     25  O   UNL     1       6.444   8.729  16.155  1.00  0.00    -0.508 OA
ATOM     26  H   UNL     1       6.679   8.757  17.140  1.00  0.00     0.293 HD
ENDBRANCH   7  25
TORSDOF 6
ENDMDL
