MODEL 1
REMARK VINA RESULT:     0.377      0.000      0.000
REMARK INTER + INTRA:          -1.796
REMARK INTER:                   0.896
REMARK INTRA:                  -2.692
REMARK UNBOUND:                -2.692
REMARK SMILES O=C(OC[C@@H]1O[C@@H](OC(=O)c2cc(O)c(O)c(O)c2)[C@@H](OC(=O)c2cc(O)c(O)c(O)c2)[C@H](OC(=O)c2cc(O)c(O)c(O)c2)[C@@H]1OC(=O)c1cc(O)c(O)c(O)c1)c1cc(O)c(O)c(O)c1
REMARK SMILES IDX 5 1 46 2 33 3 20 4 7 5 6 6 4 7 3 8 2 9 1 10 59 11 60 12
REMARK SMILES IDX 61 13 67 14 63 15 65 16 62 17 64 19 66 21 47 23 48 24 49 25
REMARK SMILES IDX 50 26 58 27 51 28 56 29 52 30 54 31 57 32 53 34 55 36 34 38
REMARK SMILES IDX 35 39 36 40 37 41 45 42 38 43 43 44 39 45 41 46 44 47 40 49
REMARK SMILES IDX 42 51 8 53 9 54 10 55 11 56 19 57 12 58 17 59 13 60 15 61
REMARK SMILES IDX 18 62 14 64 16 66 21 68 22 69 23 70 24 71 32 72 25 73 30 74
REMARK SMILES IDX 26 75 28 76 31 77 27 79 29 81
REMARK H PARENT 62 18 64 20 66 22 57 33 53 35 55 37 44 48 40 50 42 52 18 63
REMARK H PARENT 14 65 16 67 31 78 27 80 29 82
REMARK Flexibility Score: inf
ROOT
ATOM      1  C   UNL     1     -21.455  14.632 -30.128  1.00  0.00     0.205 C 
ATOM      2  C   UNL     1     -22.470  13.473 -30.021  1.00  0.00     0.254 C 
ATOM      3  C   UNL     1     -21.793  12.271 -29.331  1.00  0.00     0.267 C 
ATOM      4  C   UNL     1     -20.473  11.926 -30.045  1.00  0.00     0.290 C 
ATOM      5  C   UNL     1     -19.607  13.189 -30.196  1.00  0.00     0.357 C 
ATOM      6  O   UNL     1     -20.311  14.225 -30.863  1.00  0.00    -0.329 OA
ENDROOT
BRANCH   1   7
ATOM      7  C   UNL     1     -22.085  15.857 -30.812  1.00  0.00     0.269 C 
BRANCH   7   8
ATOM      8  O   UNL     1     -23.414  16.071 -30.338  1.00  0.00    -0.459 OA
BRANCH   8   9
ATOM      9  C   UNL     1     -24.317  16.972 -30.914  1.00  0.00     0.338 C 
ATOM     10  O   UNL     1     -25.554  16.856 -30.697  1.00  0.00    -0.246 OA
BRANCH   9  11
ATOM     11  C   UNL     1     -23.810  18.082 -31.749  1.00  0.00     0.067 A 
ATOM     12  C   UNL     1     -23.638  17.905 -33.129  1.00  0.00     0.066 A 
ATOM     13  C   UNL     1     -23.144  18.940 -33.926  1.00  0.00     0.162 A 
ATOM     14  C   UNL     1     -23.488  19.321 -31.176  1.00  0.00     0.066 A 
ATOM     15  C   UNL     1     -22.811  20.178 -33.349  1.00  0.00     0.200 A 
ATOM     16  C   UNL     1     -22.994  20.371 -31.957  1.00  0.00     0.162 A 
BRANCH  13  17
ATOM     17  O   UNL     1     -22.973  18.713 -35.293  1.00  0.00    -0.504 OA
ATOM     18  H   UNL     1     -22.325  19.251 -35.856  1.00  0.00     0.293 HD
ENDBRANCH  13  17
BRANCH  15  19
ATOM     19  O   UNL     1     -22.299  21.181 -34.179  1.00  0.00    -0.502 OA
ATOM     20  H   UNL     1     -21.413  21.639 -34.031  1.00  0.00     0.293 HD
ENDBRANCH  15  19
BRANCH  16  21
ATOM     21  O   UNL     1     -22.708  21.580 -31.317  1.00  0.00    -0.504 OA
ATOM     22  H   UNL     1     -23.255  22.419 -31.418  1.00  0.00     0.293 HD
ENDBRANCH  16  21
ENDBRANCH   9  11
ENDBRANCH   8   9
ENDBRANCH   7   8
ENDBRANCH   1   7
BRANCH   2  23
ATOM     23  O   UNL     1     -22.904  13.099 -31.329  1.00  0.00    -0.452 OA
BRANCH  23  24
ATOM     24  C   UNL     1     -24.019  13.653 -31.972  1.00  0.00     0.338 C 
ATOM     25  O   UNL     1     -23.875  14.328 -33.029  1.00  0.00    -0.246 OA
BRANCH  24  26
ATOM     26  C   UNL     1     -25.367  13.439 -31.407  1.00  0.00     0.067 A 
ATOM     27  C   UNL     1     -25.625  13.701 -30.050  1.00  0.00     0.066 A 
ATOM     28  C   UNL     1     -26.408  12.978 -32.226  1.00  0.00     0.066 A 
ATOM     29  C   UNL     1     -26.903  13.507 -29.519  1.00  0.00     0.162 A 
ATOM     30  C   UNL     1     -27.688  12.775 -31.702  1.00  0.00     0.162 A 
ATOM     31  C   UNL     1     -27.940  13.037 -30.343  1.00  0.00     0.200 A 
BRANCH  29  32
ATOM     32  O   UNL     1     -27.130  13.805 -28.175  1.00  0.00    -0.504 OA
ATOM     33  H   UNL     1     -27.831  14.477 -27.887  1.00  0.00     0.293 HD
ENDBRANCH  29  32
BRANCH  30  34
ATOM     34  O   UNL     1     -28.714  12.305 -32.524  1.00  0.00    -0.504 OA
ATOM     35  H   UNL     1     -29.639  12.112 -32.152  1.00  0.00     0.293 HD
ENDBRANCH  30  34
BRANCH  31  36
ATOM     36  O   UNL     1     -29.214  12.844 -29.806  1.00  0.00    -0.502 OA
ATOM     37  H   UNL     1     -30.035  12.718 -30.391  1.00  0.00     0.293 HD
ENDBRANCH  31  36
ENDBRANCH  24  26
ENDBRANCH  23  24
ENDBRANCH   2  23
BRANCH   3  38
ATOM     38  O   UNL     1     -22.647  11.127 -29.355  1.00  0.00    -0.450 OA
BRANCH  38  39
ATOM     39  C   UNL     1     -23.446  10.713 -28.284  1.00  0.00     0.338 C 
ATOM     40  O   UNL     1     -22.937  10.546 -27.142  1.00  0.00    -0.246 OA
BRANCH  39  41
ATOM     41  C   UNL     1     -24.890  10.463 -28.504  1.00  0.00     0.067 A 
ATOM     42  C   UNL     1     -25.406  10.260 -29.796  1.00  0.00     0.066 A 
ATOM     43  C   UNL     1     -25.769  10.433 -27.410  1.00  0.00     0.066 A 
ATOM     44  C   UNL     1     -26.780  10.065 -29.997  1.00  0.00     0.162 A 
ATOM     45  C   UNL     1     -27.140  10.241 -27.599  1.00  0.00     0.162 A 
ATOM     46  C   UNL     1     -27.652  10.062 -28.895  1.00  0.00     0.200 A 
BRANCH  44  47
ATOM     47  O   UNL     1     -27.283   9.876 -31.287  1.00  0.00    -0.504 OA
ATOM     48  H   UNL     1     -27.336   8.956 -31.711  1.00  0.00     0.293 HD
ENDBRANCH  44  47
BRANCH  45  49
ATOM     49  O   UNL     1     -27.983  10.227 -26.487  1.00  0.00    -0.504 OA
ATOM     50  H   UNL     1     -28.944   9.919 -26.547  1.00  0.00     0.293 HD
ENDBRANCH  45  49
BRANCH  46  51
ATOM     51  O   UNL     1     -29.023   9.879 -29.071  1.00  0.00    -0.502 OA
ATOM     52  H   UNL     1     -29.701  10.607 -28.873  1.00  0.00     0.293 HD
ENDBRANCH  46  51
ENDBRANCH  39  41
ENDBRANCH  38  39
ENDBRANCH   3  38
BRANCH   5  53
ATOM     53  O   UNL     1     -19.135  13.637 -28.923  1.00  0.00    -0.428 OA
BRANCH  53  54
ATOM     54  C   UNL     1     -17.784  13.630 -28.555  1.00  0.00     0.340 C 
ATOM     55  O   UNL     1     -17.454  13.401 -27.359  1.00  0.00    -0.246 OA
BRANCH  54  56
ATOM     56  C   UNL     1     -16.750  13.921 -29.573  1.00  0.00     0.067 A 
ATOM     57  C   UNL     1     -16.941  13.519 -30.906  1.00  0.00     0.066 A 
ATOM     58  C   UNL     1     -15.577  14.609 -29.224  1.00  0.00     0.066 A 
ATOM     59  C   UNL     1     -15.967  13.793 -31.878  1.00  0.00     0.162 A 
ATOM     60  C   UNL     1     -14.604  14.893 -30.192  1.00  0.00     0.162 A 
ATOM     61  C   UNL     1     -14.793  14.478 -31.520  1.00  0.00     0.200 A 
BRANCH  59  62
ATOM     62  O   UNL     1     -16.161  13.388 -33.196  1.00  0.00    -0.504 OA
ATOM     63  H   UNL     1     -17.054  13.034 -33.518  1.00  0.00     0.293 HD
ENDBRANCH  59  62
BRANCH  60  64
ATOM     64  O   UNL     1     -13.446  15.575 -29.821  1.00  0.00    -0.504 OA
ATOM     65  H   UNL     1     -12.574  15.090 -29.638  1.00  0.00     0.293 HD
ENDBRANCH  60  64
BRANCH  61  66
ATOM     66  O   UNL     1     -13.809  14.758 -32.472  1.00  0.00    -0.502 OA
ATOM     67  H   UNL     1     -13.823  14.336 -33.400  1.00  0.00     0.293 HD
ENDBRANCH  61  66
ENDBRANCH  54  56
ENDBRANCH  53  54
ENDBRANCH   5  53
BRANCH   4  68
ATOM     68  O   UNL     1     -19.750  10.940 -29.301  1.00  0.00    -0.448 OA
BRANCH  68  69
ATOM     69  C   UNL     1     -18.566  10.340 -29.756  1.00  0.00     0.339 C 
ATOM     70  O   UNL     1     -18.471   9.962 -30.954  1.00  0.00    -0.246 OA
BRANCH  69  71
ATOM     71  C   UNL     1     -17.415  10.188 -28.841  1.00  0.00     0.067 A 
ATOM     72  C   UNL     1     -16.104  10.127 -29.346  1.00  0.00     0.066 A 
ATOM     73  C   UNL     1     -17.617  10.106 -27.454  1.00  0.00     0.066 A 
ATOM     74  C   UNL     1     -15.010  10.020 -28.476  1.00  0.00     0.162 A 
ATOM     75  C   UNL     1     -16.534   9.982 -26.574  1.00  0.00     0.162 A 
ATOM     76  C   UNL     1     -15.213   9.959 -27.089  1.00  0.00     0.200 A 
BRANCH  74  77
ATOM     77  O   UNL     1     -13.710   9.987 -28.979  1.00  0.00    -0.504 OA
ATOM     78  H   UNL     1     -12.910  10.148 -28.386  1.00  0.00     0.293 HD
ENDBRANCH  74  77
BRANCH  75  79
ATOM     79  O   UNL     1     -16.818   9.877 -25.209  1.00  0.00    -0.504 OA
ATOM     80  H   UNL     1     -17.742   9.733 -24.834  1.00  0.00     0.293 HD
ENDBRANCH  75  79
BRANCH  76  81
ATOM     81  O   UNL     1     -14.091   9.888 -26.261  1.00  0.00    -0.502 OA
ATOM     82  H   UNL     1     -13.227  10.362 -26.457  1.00  0.00     0.293 HD
ENDBRANCH  76  81
ENDBRANCH  69  71
ENDBRANCH  68  69
ENDBRANCH   4  68
TORSDOF 31
ENDMDL
MODEL 2
REMARK VINA RESULT:     1.602      2.001      9.997
REMARK INTER + INTRA:           1.110
REMARK INTER:                  -2.463
REMARK INTRA:                   3.573
REMARK UNBOUND:                -2.692
REMARK SMILES O=C(OC[C@@H]1O[C@@H](OC(=O)c2cc(O)c(O)c(O)c2)[C@@H](OC(=O)c2cc(O)c(O)c(O)c2)[C@H](OC(=O)c2cc(O)c(O)c(O)c2)[C@@H]1OC(=O)c1cc(O)c(O)c(O)c1)c1cc(O)c(O)c(O)c1
REMARK SMILES IDX 5 1 46 2 33 3 20 4 7 5 6 6 4 7 3 8 2 9 1 10 59 11 60 12
REMARK SMILES IDX 61 13 67 14 63 15 65 16 62 17 64 19 66 21 47 23 48 24 49 25
REMARK SMILES IDX 50 26 58 27 51 28 56 29 52 30 54 31 57 32 53 34 55 36 34 38
REMARK SMILES IDX 35 39 36 40 37 41 45 42 38 43 43 44 39 45 41 46 44 47 40 49
REMARK SMILES IDX 42 51 8 53 9 54 10 55 11 56 19 57 12 58 17 59 13 60 15 61
REMARK SMILES IDX 18 62 14 64 16 66 21 68 22 69 23 70 24 71 32 72 25 73 30 74
REMARK SMILES IDX 26 75 28 76 31 77 27 79 29 81
REMARK H PARENT 62 18 64 20 66 22 57 33 53 35 55 37 44 48 40 50 42 52 18 63
REMARK H PARENT 14 65 16 67 31 78 27 80 29 82
REMARK Flexibility Score: inf
ROOT
ATOM      1  C   UNL     1     -21.048  11.073 -28.463  1.00  0.00     0.205 C 
ATOM      2  C   UNL     1     -19.640  11.139 -27.831  1.00  0.00     0.254 C 
ATOM      3  C   UNL     1     -18.883  12.352 -28.409  1.00  0.00     0.267 C 
ATOM      4  C   UNL     1     -18.912  12.310 -29.947  1.00  0.00     0.290 C 
ATOM      5  C   UNL     1     -20.356  12.120 -30.445  1.00  0.00     0.357 C 
ATOM      6  O   UNL     1     -20.953  10.967 -29.875  1.00  0.00    -0.329 OA
ENDROOT
BRANCH   1   7
ATOM      7  C   UNL     1     -21.843   9.875 -27.918  1.00  0.00     0.269 C 
BRANCH   7   8
ATOM      8  O   UNL     1     -23.246  10.121 -28.003  1.00  0.00    -0.459 OA
BRANCH   8   9
ATOM      9  C   UNL     1     -23.919  10.422 -29.192  1.00  0.00     0.338 C 
ATOM     10  O   UNL     1     -23.274  10.593 -30.262  1.00  0.00    -0.246 OA
BRANCH   9  11
ATOM     11  C   UNL     1     -25.396  10.506 -29.194  1.00  0.00     0.067 A 
ATOM     12  C   UNL     1     -26.117  10.273 -28.015  1.00  0.00     0.066 A 
ATOM     13  C   UNL     1     -27.512  10.332 -28.007  1.00  0.00     0.162 A 
ATOM     14  C   UNL     1     -26.095  10.812 -30.371  1.00  0.00     0.066 A 
ATOM     15  C   UNL     1     -28.214  10.628 -29.190  1.00  0.00     0.200 A 
ATOM     16  C   UNL     1     -27.492  10.879 -30.384  1.00  0.00     0.162 A 
BRANCH  13  17
ATOM     17  O   UNL     1     -28.190  10.075 -26.813  1.00  0.00    -0.504 OA
ATOM     18  H   UNL     1     -27.909   9.337 -26.178  1.00  0.00     0.293 HD
ENDBRANCH  13  17
BRANCH  15  19
ATOM     19  O   UNL     1     -29.611  10.657 -29.144  1.00  0.00    -0.502 OA
ATOM     20  H   UNL     1     -30.168  11.457 -29.399  1.00  0.00     0.293 HD
ENDBRANCH  15  19
BRANCH  16  21
ATOM     21  O   UNL     1     -28.117  11.202 -31.591  1.00  0.00    -0.504 OA
ATOM     22  H   UNL     1     -28.860  10.665 -32.008  1.00  0.00     0.293 HD
ENDBRANCH  16  21
ENDBRANCH   9  11
ENDBRANCH   8   9
ENDBRANCH   7   8
ENDBRANCH   1   7
BRANCH   2  23
ATOM     23  O   UNL     1     -18.928   9.938 -28.130  1.00  0.00    -0.452 OA
BRANCH  23  24
ATOM     24  C   UNL     1     -17.606   9.906 -28.597  1.00  0.00     0.338 C 
ATOM     25  O   UNL     1     -17.369   9.890 -29.836  1.00  0.00    -0.246 OA
BRANCH  24  26
ATOM     26  C   UNL     1     -16.492   9.894 -27.628  1.00  0.00     0.067 A 
ATOM     27  C   UNL     1     -15.157   9.877 -28.070  1.00  0.00     0.066 A 
ATOM     28  C   UNL     1     -16.756   9.909 -26.251  1.00  0.00     0.066 A 
ATOM     29  C   UNL     1     -14.104   9.875 -27.152  1.00  0.00     0.162 A 
ATOM     30  C   UNL     1     -15.709   9.900 -25.325  1.00  0.00     0.162 A 
ATOM     31  C   UNL     1     -14.376   9.882 -25.773  1.00  0.00     0.200 A 
BRANCH  29  32
ATOM     32  O   UNL     1     -12.791   9.887 -27.627  1.00  0.00    -0.504 OA
ATOM     33  H   UNL     1     -12.452   9.191 -28.280  1.00  0.00     0.293 HD
ENDBRANCH  29  32
BRANCH  30  34
ATOM     34  O   UNL     1     -15.985   9.904 -23.957  1.00  0.00    -0.504 OA
ATOM     35  H   UNL     1     -16.151  10.771 -23.456  1.00  0.00     0.293 HD
ENDBRANCH  30  34
BRANCH  31  36
ATOM     36  O   UNL     1     -13.319   9.879 -24.862  1.00  0.00    -0.502 OA
ATOM     37  H   UNL     1     -13.208   9.149 -24.164  1.00  0.00     0.293 HD
ENDBRANCH  31  36
ENDBRANCH  24  26
ENDBRANCH  23  24
ENDBRANCH   2  23
BRANCH   3  38
ATOM     38  O   UNL     1     -17.524  12.358 -27.970  1.00  0.00    -0.450 OA
BRANCH  38  39
ATOM     39  C   UNL     1     -16.610  13.383 -28.236  1.00  0.00     0.338 C 
ATOM     40  O   UNL     1     -17.022  14.540 -28.524  1.00  0.00    -0.246 OA
BRANCH  39  41
ATOM     41  C   UNL     1     -15.157  13.096 -28.188  1.00  0.00     0.067 A 
ATOM     42  C   UNL     1     -14.443  13.155 -26.979  1.00  0.00     0.066 A 
ATOM     43  C   UNL     1     -14.470  12.767 -29.366  1.00  0.00     0.066 A 
ATOM     44  C   UNL     1     -13.061  12.923 -26.950  1.00  0.00     0.162 A 
ATOM     45  C   UNL     1     -13.092  12.535 -29.349  1.00  0.00     0.162 A 
ATOM     46  C   UNL     1     -12.380  12.618 -28.141  1.00  0.00     0.200 A 
BRANCH  44  47
ATOM     47  O   UNL     1     -12.358  12.995 -25.743  1.00  0.00    -0.504 OA
ATOM     48  H   UNL     1     -11.408  13.348 -25.697  1.00  0.00     0.293 HD
ENDBRANCH  44  47
BRANCH  45  49
ATOM     49  O   UNL     1     -12.442  12.218 -30.543  1.00  0.00    -0.504 OA
ATOM     50  H   UNL     1     -12.820  12.478 -31.444  1.00  0.00     0.293 HD
ENDBRANCH  45  49
BRANCH  46  51
ATOM     51  O   UNL     1     -11.004  12.391 -28.139  1.00  0.00    -0.502 OA
ATOM     52  H   UNL     1     -10.535  11.873 -28.874  1.00  0.00     0.293 HD
ENDBRANCH  46  51
ENDBRANCH  39  41
ENDBRANCH  38  39
ENDBRANCH   3  38
BRANCH   5  53
ATOM     53  O   UNL     1     -21.144  13.282 -30.176  1.00  0.00    -0.428 OA
BRANCH  53  54
ATOM     54  C   UNL     1     -21.830  13.995 -31.167  1.00  0.00     0.340 C 
ATOM     55  O   UNL     1     -21.326  14.130 -32.315  1.00  0.00    -0.246 OA
BRANCH  54  56
ATOM     56  C   UNL     1     -23.136  14.614 -30.847  1.00  0.00     0.067 A 
ATOM     57  C   UNL     1     -23.419  15.923 -31.271  1.00  0.00     0.066 A 
ATOM     58  C   UNL     1     -24.108  13.899 -30.129  1.00  0.00     0.066 A 
ATOM     59  C   UNL     1     -24.654  16.516 -30.974  1.00  0.00     0.162 A 
ATOM     60  C   UNL     1     -25.348  14.483 -29.836  1.00  0.00     0.162 A 
ATOM     61  C   UNL     1     -25.622  15.796 -30.251  1.00  0.00     0.200 A 
BRANCH  59  62
ATOM     62  O   UNL     1     -24.926  17.815 -31.394  1.00  0.00    -0.504 OA
ATOM     63  H   UNL     1     -24.426  18.612 -31.017  1.00  0.00     0.293 HD
ENDBRANCH  59  62
BRANCH  60  64
ATOM     64  O   UNL     1     -26.296  13.754 -29.118  1.00  0.00    -0.504 OA
ATOM     65  H   UNL     1     -27.286  13.809 -29.330  1.00  0.00     0.293 HD
ENDBRANCH  60  64
BRANCH  61  66
ATOM     66  O   UNL     1     -26.858  16.369 -29.941  1.00  0.00    -0.502 OA
ATOM     67  H   UNL     1     -26.972  17.007 -29.154  1.00  0.00     0.293 HD
ENDBRANCH  61  66
ENDBRANCH  54  56
ENDBRANCH  53  54
ENDBRANCH   5  53
BRANCH   4  68
ATOM     68  O   UNL     1     -18.380  13.525 -30.487  1.00  0.00    -0.448 OA
BRANCH  68  69
ATOM     69  C   UNL     1     -17.723  13.601 -31.724  1.00  0.00     0.339 C 
ATOM     70  O   UNL     1     -18.353  13.356 -32.789  1.00  0.00    -0.246 OA
BRANCH  69  71
ATOM     71  C   UNL     1     -16.303  14.006 -31.786  1.00  0.00     0.067 A 
ATOM     72  C   UNL     1     -15.412  13.359 -32.660  1.00  0.00     0.066 A 
ATOM     73  C   UNL     1     -15.827  15.048 -30.974  1.00  0.00     0.066 A 
ATOM     74  C   UNL     1     -14.074  13.769 -32.745  1.00  0.00     0.162 A 
ATOM     75  C   UNL     1     -14.489  15.458 -31.037  1.00  0.00     0.162 A 
ATOM     76  C   UNL     1     -13.606  14.824 -31.947  1.00  0.00     0.200 A 
BRANCH  74  77
ATOM     77  O   UNL     1     -13.200  13.142 -33.633  1.00  0.00    -0.504 OA
ATOM     78  H   UNL     1     -12.207  13.317 -33.606  1.00  0.00     0.293 HD
ENDBRANCH  74  77
BRANCH  75  79
ATOM     79  O   UNL     1     -14.084  16.482 -30.175  1.00  0.00    -0.504 OA
ATOM     80  H   UNL     1     -14.615  16.791 -29.377  1.00  0.00     0.293 HD
ENDBRANCH  75  79
BRANCH  76  81
ATOM     81  O   UNL     1     -12.275  15.219 -32.092  1.00  0.00    -0.502 OA
ATOM     82  H   UNL     1     -11.641  14.802 -32.751  1.00  0.00     0.293 HD
ENDBRANCH  76  81
ENDBRANCH  69  71
ENDBRANCH  68  69
ENDBRANCH   4  68
TORSDOF 31
ENDMDL
MODEL 3
REMARK VINA RESULT:     1.729      1.968      9.949
REMARK INTER + INTRA:           1.413
REMARK INTER:                   0.764
REMARK INTRA:                   0.649
REMARK UNBOUND:                -2.692
REMARK SMILES O=C(OC[C@@H]1O[C@@H](OC(=O)c2cc(O)c(O)c(O)c2)[C@@H](OC(=O)c2cc(O)c(O)c(O)c2)[C@H](OC(=O)c2cc(O)c(O)c(O)c2)[C@@H]1OC(=O)c1cc(O)c(O)c(O)c1)c1cc(O)c(O)c(O)c1
REMARK SMILES IDX 5 1 46 2 33 3 20 4 7 5 6 6 4 7 3 8 2 9 1 10 59 11 60 12
REMARK SMILES IDX 61 13 67 14 63 15 65 16 62 17 64 19 66 21 47 23 48 24 49 25
REMARK SMILES IDX 50 26 58 27 51 28 56 29 52 30 54 31 57 32 53 34 55 36 34 38
REMARK SMILES IDX 35 39 36 40 37 41 45 42 38 43 43 44 39 45 41 46 44 47 40 49
REMARK SMILES IDX 42 51 8 53 9 54 10 55 11 56 19 57 12 58 17 59 13 60 15 61
REMARK SMILES IDX 18 62 14 64 16 66 21 68 22 69 23 70 24 71 32 72 25 73 30 74
REMARK SMILES IDX 26 75 28 76 31 77 27 79 29 81
REMARK H PARENT 62 18 64 20 66 22 57 33 53 35 55 37 44 48 40 50 42 52 18 63
REMARK H PARENT 14 65 16 67 31 78 27 80 29 82
REMARK Flexibility Score: inf
ROOT
ATOM      1  C   UNL     1     -21.146  11.091 -28.489  1.00  0.00     0.205 C 
ATOM      2  C   UNL     1     -19.709  11.137 -27.923  1.00  0.00     0.254 C 
ATOM      3  C   UNL     1     -18.972  12.355 -28.516  1.00  0.00     0.267 C 
ATOM      4  C   UNL     1     -19.073  12.338 -30.052  1.00  0.00     0.290 C 
ATOM      5  C   UNL     1     -20.540  12.166 -30.485  1.00  0.00     0.357 C 
ATOM      6  O   UNL     1     -21.119  11.007 -29.906  1.00  0.00    -0.329 OA
ENDROOT
BRANCH   1   7
ATOM      7  C   UNL     1     -21.924   9.890 -27.926  1.00  0.00     0.269 C 
BRANCH   7   8
ATOM      8  O   UNL     1     -23.329  10.131 -27.976  1.00  0.00    -0.459 OA
BRANCH   8   9
ATOM      9  C   UNL     1     -24.094  10.075 -29.147  1.00  0.00     0.338 C 
ATOM     10  O   UNL     1     -23.537   9.876 -30.260  1.00  0.00    -0.246 OA
BRANCH   9  11
ATOM     11  C   UNL     1     -25.564  10.216 -29.067  1.00  0.00     0.067 A 
ATOM     12  C   UNL     1     -26.300  10.586 -30.200  1.00  0.00     0.066 A 
ATOM     13  C   UNL     1     -27.686  10.739 -30.134  1.00  0.00     0.162 A 
ATOM     14  C   UNL     1     -26.241   9.990 -27.859  1.00  0.00     0.066 A 
ATOM     15  C   UNL     1     -28.363  10.524 -28.920  1.00  0.00     0.200 A 
ATOM     16  C   UNL     1     -27.629  10.136 -27.772  1.00  0.00     0.162 A 
BRANCH  13  17
ATOM     17  O   UNL     1     -28.377  11.125 -31.285  1.00  0.00    -0.504 OA
ATOM     18  H   UNL     1     -28.216  12.016 -31.741  1.00  0.00     0.293 HD
ENDBRANCH  13  17
BRANCH  15  19
ATOM     19  O   UNL     1     -29.749  10.708 -28.891  1.00  0.00    -0.502 OA
ATOM     20  H   UNL     1     -30.420   9.955 -28.904  1.00  0.00     0.293 HD
ENDBRANCH  15  19
BRANCH  16  21
ATOM     21  O   UNL     1     -28.234   9.881 -26.538  1.00  0.00    -0.504 OA
ATOM     22  H   UNL     1     -28.195  10.503 -25.747  1.00  0.00     0.293 HD
ENDBRANCH  16  21
ENDBRANCH   9  11
ENDBRANCH   8   9
ENDBRANCH   7   8
ENDBRANCH   1   7
BRANCH   2  23
ATOM     23  O   UNL     1     -19.021   9.937 -28.274  1.00  0.00    -0.452 OA
BRANCH  23  24
ATOM     24  C   UNL     1     -17.725   9.903 -28.808  1.00  0.00     0.338 C 
ATOM     25  O   UNL     1     -17.551   9.878 -30.057  1.00  0.00    -0.246 OA
BRANCH  24  26
ATOM     26  C   UNL     1     -16.563   9.902 -27.897  1.00  0.00     0.067 A 
ATOM     27  C   UNL     1     -15.253   9.878 -28.406  1.00  0.00     0.066 A 
ATOM     28  C   UNL     1     -16.757   9.934 -26.508  1.00  0.00     0.066 A 
ATOM     29  C   UNL     1     -14.153   9.886 -27.543  1.00  0.00     0.162 A 
ATOM     30  C   UNL     1     -15.663   9.936 -25.637  1.00  0.00     0.162 A 
ATOM     31  C   UNL     1     -14.355   9.910 -26.152  1.00  0.00     0.200 A 
BRANCH  29  32
ATOM     32  O   UNL     1     -12.867   9.891 -28.085  1.00  0.00    -0.504 OA
ATOM     33  H   UNL     1     -12.679   9.550 -29.020  1.00  0.00     0.293 HD
ENDBRANCH  29  32
BRANCH  30  34
ATOM     34  O   UNL     1     -15.869   9.956 -24.256  1.00  0.00    -0.504 OA
ATOM     35  H   UNL     1     -15.330   9.361 -23.636  1.00  0.00     0.293 HD
ENDBRANCH  30  34
BRANCH  31  36
ATOM     36  O   UNL     1     -13.253   9.917 -25.296  1.00  0.00    -0.502 OA
ATOM     37  H   UNL     1     -12.716   9.077 -25.098  1.00  0.00     0.293 HD
ENDBRANCH  31  36
ENDBRANCH  24  26
ENDBRANCH  23  24
ENDBRANCH   2  23
BRANCH   3  38
ATOM     38  O   UNL     1     -17.594  12.345 -28.141  1.00  0.00    -0.450 OA
BRANCH  38  39
ATOM     39  C   UNL     1     -16.743  13.452 -28.221  1.00  0.00     0.338 C 
ATOM     40  O   UNL     1     -17.221  14.605 -28.405  1.00  0.00    -0.246 OA
BRANCH  39  41
ATOM     41  C   UNL     1     -15.279  13.260 -28.096  1.00  0.00     0.067 A 
ATOM     42  C   UNL     1     -14.471  13.067 -29.230  1.00  0.00     0.066 A 
ATOM     43  C   UNL     1     -14.680  13.259 -26.827  1.00  0.00     0.066 A 
ATOM     44  C   UNL     1     -13.093  12.845 -29.098  1.00  0.00     0.162 A 
ATOM     45  C   UNL     1     -13.308  13.036 -26.685  1.00  0.00     0.162 A 
ATOM     46  C   UNL     1     -12.509  12.823 -27.820  1.00  0.00     0.200 A 
BRANCH  44  47
ATOM     47  O   UNL     1     -12.300  12.644 -30.232  1.00  0.00    -0.504 OA
ATOM     48  H   UNL     1     -11.293  12.764 -30.209  1.00  0.00     0.293 HD
ENDBRANCH  44  47
BRANCH  45  49
ATOM     49  O   UNL     1     -12.750  13.035 -25.406  1.00  0.00    -0.504 OA
ATOM     50  H   UNL     1     -12.588  13.890 -24.890  1.00  0.00     0.293 HD
ENDBRANCH  45  49
BRANCH  46  51
ATOM     51  O   UNL     1     -11.142  12.595 -27.665  1.00  0.00    -0.502 OA
ATOM     52  H   UNL     1     -10.557  13.172 -27.070  1.00  0.00     0.293 HD
ENDBRANCH  46  51
ENDBRANCH  39  41
ENDBRANCH  38  39
ENDBRANCH   3  38
BRANCH   5  53
ATOM     53  O   UNL     1     -21.306  13.328 -30.160  1.00  0.00    -0.428 OA
BRANCH  53  54
ATOM     54  C   UNL     1     -21.808  14.214 -31.122  1.00  0.00     0.340 C 
ATOM     55  O   UNL     1     -21.110  14.519 -32.128  1.00  0.00    -0.246 OA
BRANCH  54  56
ATOM     56  C   UNL     1     -23.148  14.812 -30.932  1.00  0.00     0.067 A 
ATOM     57  C   UNL     1     -24.206  14.029 -30.443  1.00  0.00     0.066 A 
ATOM     58  C   UNL     1     -23.374  16.167 -31.226  1.00  0.00     0.066 A 
ATOM     59  C   UNL     1     -25.479  14.588 -30.257  1.00  0.00     0.162 A 
ATOM     60  C   UNL     1     -24.641  16.734 -31.035  1.00  0.00     0.162 A 
ATOM     61  C   UNL     1     -25.700  15.944 -30.557  1.00  0.00     0.200 A 
BRANCH  59  62
ATOM     62  O   UNL     1     -26.525  13.805 -29.776  1.00  0.00    -0.504 OA
ATOM     63  H   UNL     1     -26.427  13.244 -28.938  1.00  0.00     0.293 HD
ENDBRANCH  59  62
BRANCH  60  64
ATOM     64  O   UNL     1     -24.843  18.080 -31.337  1.00  0.00    -0.504 OA
ATOM     65  H   UNL     1     -24.613  18.817 -30.680  1.00  0.00     0.293 HD
ENDBRANCH  60  64
BRANCH  61  66
ATOM     66  O   UNL     1     -26.961  16.520 -30.384  1.00  0.00    -0.502 OA
ATOM     67  H   UNL     1     -27.086  17.529 -30.311  1.00  0.00     0.293 HD
ENDBRANCH  61  66
ENDBRANCH  54  56
ENDBRANCH  53  54
ENDBRANCH   5  53
BRANCH   4  68
ATOM     68  O   UNL     1     -18.558  13.557 -30.597  1.00  0.00    -0.448 OA
BRANCH  68  69
ATOM     69  C   UNL     1     -17.891  13.635 -31.828  1.00  0.00     0.339 C 
ATOM     70  O   UNL     1     -18.495  13.334 -32.893  1.00  0.00    -0.246 OA
BRANCH  69  71
ATOM     71  C   UNL     1     -16.492  14.108 -31.884  1.00  0.00     0.067 A 
ATOM     72  C   UNL     1     -16.072  15.194 -31.096  1.00  0.00     0.066 A 
ATOM     73  C   UNL     1     -15.561  13.474 -32.723  1.00  0.00     0.066 A 
ATOM     74  C   UNL     1     -14.736  15.619 -31.122  1.00  0.00     0.162 A 
ATOM     75  C   UNL     1     -14.226  13.898 -32.770  1.00  0.00     0.162 A 
ATOM     76  C   UNL     1     -13.804  14.970 -31.946  1.00  0.00     0.200 A 
BRANCH  74  77
ATOM     77  O   UNL     1     -14.318  16.680 -30.318  1.00  0.00    -0.504 OA
ATOM     78  H   UNL     1     -13.462  16.633 -29.787  1.00  0.00     0.293 HD
ENDBRANCH  74  77
BRANCH  75  79
ATOM     79  O   UNL     1     -13.368  13.235 -33.653  1.00  0.00    -0.504 OA
ATOM     80  H   UNL     1     -12.674  12.562 -33.368  1.00  0.00     0.293 HD
ENDBRANCH  75  79
BRANCH  76  81
ATOM     81  O   UNL     1     -12.478  15.406 -31.911  1.00  0.00    -0.502 OA
ATOM     82  H   UNL     1     -11.697  14.827 -32.165  1.00  0.00     0.293 HD
ENDBRANCH  76  81
ENDBRANCH  69  71
ENDBRANCH  68  69
ENDBRANCH   4  68
TORSDOF 31
ENDMDL
MODEL 4
REMARK VINA RESULT:     1.981      1.381      8.065
REMARK INTER + INTRA:           2.011
REMARK INTER:                  -3.780
REMARK INTRA:                   5.792
REMARK UNBOUND:                -2.692
REMARK SMILES O=C(OC[C@@H]1O[C@@H](OC(=O)c2cc(O)c(O)c(O)c2)[C@@H](OC(=O)c2cc(O)c(O)c(O)c2)[C@H](OC(=O)c2cc(O)c(O)c(O)c2)[C@@H]1OC(=O)c1cc(O)c(O)c(O)c1)c1cc(O)c(O)c(O)c1
REMARK SMILES IDX 5 1 46 2 33 3 20 4 7 5 6 6 4 7 3 8 2 9 1 10 59 11 60 12
REMARK SMILES IDX 61 13 67 14 63 15 65 16 62 17 64 19 66 21 47 23 48 24 49 25
REMARK SMILES IDX 50 26 58 27 51 28 56 29 52 30 54 31 57 32 53 34 55 36 34 38
REMARK SMILES IDX 35 39 36 40 37 41 45 42 38 43 43 44 39 45 41 46 44 47 40 49
REMARK SMILES IDX 42 51 8 53 9 54 10 55 11 56 19 57 12 58 17 59 13 60 15 61
REMARK SMILES IDX 18 62 14 64 16 66 21 68 22 69 23 70 24 71 32 72 25 73 30 74
REMARK SMILES IDX 26 75 28 76 31 77 27 79 29 81
REMARK H PARENT 62 18 64 20 66 22 57 33 53 35 55 37 44 48 40 50 42 52 18 63
REMARK H PARENT 14 65 16 67 31 78 27 80 29 82
REMARK Flexibility Score: inf
ROOT
ATOM      1  C   UNL     1     -20.566  11.489 -29.643  1.00  0.00     0.205 C 
ATOM      2  C   UNL     1     -22.075  11.680 -29.912  1.00  0.00     0.254 C 
ATOM      3  C   UNL     1     -22.287  12.993 -30.692  1.00  0.00     0.267 C 
ATOM      4  C   UNL     1     -21.596  14.159 -29.962  1.00  0.00     0.290 C 
ATOM      5  C   UNL     1     -20.135  13.795 -29.645  1.00  0.00     0.357 C 
ATOM      6  O   UNL     1     -20.050  12.587 -28.906  1.00  0.00    -0.329 OA
ENDROOT
BRANCH   1   7
ATOM      7  C   UNL     1     -20.303  10.189 -28.864  1.00  0.00     0.269 C 
BRANCH   7   8
ATOM      8  O   UNL     1     -19.081  10.279 -28.134  1.00  0.00    -0.459 OA
BRANCH   8   9
ATOM      9  C   UNL     1     -17.813  10.105 -28.700  1.00  0.00     0.338 C 
ATOM     10  O   UNL     1     -17.695   9.876 -29.934  1.00  0.00    -0.246 OA
BRANCH   9  11
ATOM     11  C   UNL     1     -16.609  10.226 -27.848  1.00  0.00     0.067 A 
ATOM     12  C   UNL     1     -16.702  10.028 -26.464  1.00  0.00     0.066 A 
ATOM     13  C   UNL     1     -15.578  10.156 -25.647  1.00  0.00     0.162 A 
ATOM     14  C   UNL     1     -15.364  10.544 -28.409  1.00  0.00     0.066 A 
ATOM     15  C   UNL     1     -14.331  10.487 -26.207  1.00  0.00     0.200 A 
ATOM     16  C   UNL     1     -14.224  10.675 -27.608  1.00  0.00     0.162 A 
BRANCH  13  17
ATOM     17  O   UNL     1     -15.721   9.967 -24.270  1.00  0.00    -0.504 OA
ATOM     18  H   UNL     1     -15.137   9.325 -23.747  1.00  0.00     0.293 HD
ENDBRANCH  13  17
BRANCH  15  19
ATOM     19  O   UNL     1     -13.233  10.626 -25.352  1.00  0.00    -0.502 OA
ATOM     20  H   UNL     1     -12.545  11.358 -25.430  1.00  0.00     0.293 HD
ENDBRANCH  15  19
BRANCH  16  21
ATOM     21  O   UNL     1     -13.016  10.981 -28.240  1.00  0.00    -0.504 OA
ATOM     22  H   UNL     1     -12.933  11.251 -29.207  1.00  0.00     0.293 HD
ENDBRANCH  16  21
ENDBRANCH   9  11
ENDBRANCH   8   9
ENDBRANCH   7   8
ENDBRANCH   1   7
BRANCH   2  23
ATOM     23  O   UNL     1     -22.775  11.737 -28.669  1.00  0.00    -0.452 OA
BRANCH  23  24
ATOM     24  C   UNL     1     -23.489  10.661 -28.122  1.00  0.00     0.338 C 
ATOM     25  O   UNL     1     -22.932   9.877 -27.305  1.00  0.00    -0.246 OA
BRANCH  24  26
ATOM     26  C   UNL     1     -24.900  10.453 -28.506  1.00  0.00     0.067 A 
ATOM     27  C   UNL     1     -25.904  10.363 -27.526  1.00  0.00     0.066 A 
ATOM     28  C   UNL     1     -25.254  10.352 -29.859  1.00  0.00     0.066 A 
ATOM     29  C   UNL     1     -27.240  10.175 -27.891  1.00  0.00     0.162 A 
ATOM     30  C   UNL     1     -26.586  10.157 -30.234  1.00  0.00     0.162 A 
ATOM     31  C   UNL     1     -27.586  10.066 -29.249  1.00  0.00     0.200 A 
BRANCH  29  32
ATOM     32  O   UNL     1     -28.213  10.120 -26.892  1.00  0.00    -0.504 OA
ATOM     33  H   UNL     1     -29.203  10.132 -27.109  1.00  0.00     0.293 HD
ENDBRANCH  29  32
BRANCH  30  34
ATOM     34  O   UNL     1     -26.924  10.047 -31.584  1.00  0.00    -0.504 OA
ATOM     35  H   UNL     1     -27.452   9.252 -31.930  1.00  0.00     0.293 HD
ENDBRANCH  30  34
BRANCH  31  36
ATOM     36  O   UNL     1     -28.922   9.878 -29.606  1.00  0.00    -0.502 OA
ATOM     37  H   UNL     1     -29.529  10.652 -29.860  1.00  0.00     0.293 HD
ENDBRANCH  31  36
ENDBRANCH  24  26
ENDBRANCH  23  24
ENDBRANCH   2  23
BRANCH   3  38
ATOM     38  O   UNL     1     -23.678  13.285 -30.824  1.00  0.00    -0.450 OA
BRANCH  38  39
ATOM     39  C   UNL     1     -24.452  13.911 -29.841  1.00  0.00     0.338 C 
ATOM     40  O   UNL     1     -23.930  14.249 -28.743  1.00  0.00    -0.246 OA
BRANCH  39  41
ATOM     41  C   UNL     1     -25.890  14.165 -30.095  1.00  0.00     0.067 A 
ATOM     42  C   UNL     1     -26.876  13.256 -29.673  1.00  0.00     0.066 A 
ATOM     43  C   UNL     1     -26.285  15.327 -30.775  1.00  0.00     0.066 A 
ATOM     44  C   UNL     1     -28.230  13.485 -29.955  1.00  0.00     0.162 A 
ATOM     45  C   UNL     1     -27.632  15.564 -31.062  1.00  0.00     0.162 A 
ATOM     46  C   UNL     1     -28.610  14.641 -30.658  1.00  0.00     0.200 A 
BRANCH  44  47
ATOM     47  O   UNL     1     -29.201  12.569 -29.540  1.00  0.00    -0.504 OA
ATOM     48  H   UNL     1     -28.976  11.788 -28.933  1.00  0.00     0.293 HD
ENDBRANCH  44  47
BRANCH  45  49
ATOM     49  O   UNL     1     -27.984  16.727 -31.748  1.00  0.00    -0.504 OA
ATOM     50  H   UNL     1     -27.734  16.875 -32.717  1.00  0.00     0.293 HD
ENDBRANCH  45  49
BRANCH  46  51
ATOM     51  O   UNL     1     -29.950  14.886 -30.957  1.00  0.00    -0.502 OA
ATOM     52  H   UNL     1     -30.642  15.079 -30.241  1.00  0.00     0.293 HD
ENDBRANCH  46  51
ENDBRANCH  39  41
ENDBRANCH  38  39
ENDBRANCH   3  38
BRANCH   5  53
ATOM     53  O   UNL     1     -19.360  13.709 -30.844  1.00  0.00    -0.428 OA
BRANCH  53  54
ATOM     54  C   UNL     1     -18.382  12.730 -31.061  1.00  0.00     0.340 C 
ATOM     55  O   UNL     1     -18.715  11.522 -31.204  1.00  0.00    -0.246 OA
BRANCH  54  56
ATOM     56  C   UNL     1     -16.955  13.122 -31.091  1.00  0.00     0.067 A 
ATOM     57  C   UNL     1     -16.264  13.357 -29.891  1.00  0.00     0.066 A 
ATOM     58  C   UNL     1     -16.274  13.250 -32.312  1.00  0.00     0.066 A 
ATOM     59  C   UNL     1     -14.911  13.726 -29.909  1.00  0.00     0.162 A 
ATOM     60  C   UNL     1     -14.920  13.610 -32.337  1.00  0.00     0.162 A 
ATOM     61  C   UNL     1     -14.237  13.857 -31.136  1.00  0.00     0.200 A 
BRANCH  59  62
ATOM     62  O   UNL     1     -14.233  13.962 -28.717  1.00  0.00    -0.504 OA
ATOM     63  H   UNL     1     -14.483  13.485 -27.858  1.00  0.00     0.293 HD
ENDBRANCH  59  62
BRANCH  60  64
ATOM     64  O   UNL     1     -14.267  13.735 -33.563  1.00  0.00    -0.504 OA
ATOM     65  H   UNL     1     -14.712  13.473 -34.436  1.00  0.00     0.293 HD
ENDBRANCH  60  64
BRANCH  61  66
ATOM     66  O   UNL     1     -12.890  14.227 -31.178  1.00  0.00    -0.502 OA
ATOM     67  H   UNL     1     -12.502  14.916 -30.534  1.00  0.00     0.293 HD
ENDBRANCH  61  66
ENDBRANCH  54  56
ENDBRANCH  53  54
ENDBRANCH   5  53
BRANCH   4  68
ATOM     68  O   UNL     1     -21.627  15.338 -30.773  1.00  0.00    -0.448 OA
BRANCH  68  69
ATOM     69  C   UNL     1     -22.704  15.680 -31.604  1.00  0.00     0.339 C 
ATOM     70  O   UNL     1     -23.420  14.776 -32.113  1.00  0.00    -0.246 OA
BRANCH  69  71
ATOM     71  C   UNL     1     -23.026  17.101 -31.852  1.00  0.00     0.067 A 
ATOM     72  C   UNL     1     -23.803  17.475 -32.964  1.00  0.00     0.066 A 
ATOM     73  C   UNL     1     -22.564  18.097 -30.977  1.00  0.00     0.066 A 
ATOM     74  C   UNL     1     -24.140  18.819 -33.178  1.00  0.00     0.162 A 
ATOM     75  C   UNL     1     -22.879  19.446 -31.188  1.00  0.00     0.162 A 
ATOM     76  C   UNL     1     -23.693  19.809 -32.290  1.00  0.00     0.200 A 
BRANCH  74  77
ATOM     77  O   UNL     1     -24.932  19.182 -34.266  1.00  0.00    -0.504 OA
ATOM     78  H   UNL     1     -25.831  18.755 -34.429  1.00  0.00     0.293 HD
ENDBRANCH  74  77
BRANCH  75  79
ATOM     79  O   UNL     1     -22.357  20.381 -30.289  1.00  0.00    -0.504 OA
ATOM     80  H   UNL     1     -21.769  20.144 -29.505  1.00  0.00     0.293 HD
ENDBRANCH  75  79
BRANCH  76  81
ATOM     81  O   UNL     1     -24.083  21.129 -32.525  1.00  0.00    -0.502 OA
ATOM     82  H   UNL     1     -23.747  21.911 -31.990  1.00  0.00     0.293 HD
ENDBRANCH  76  81
ENDBRANCH  69  71
ENDBRANCH  68  69
ENDBRANCH   4  68
TORSDOF 31
ENDMDL
MODEL 5
REMARK VINA RESULT:     3.258      1.504      9.192
REMARK INTER + INTRA:           5.042
REMARK INTER:                   4.751
REMARK INTRA:                   0.291
REMARK UNBOUND:                -2.692
REMARK SMILES O=C(OC[C@@H]1O[C@@H](OC(=O)c2cc(O)c(O)c(O)c2)[C@@H](OC(=O)c2cc(O)c(O)c(O)c2)[C@H](OC(=O)c2cc(O)c(O)c(O)c2)[C@@H]1OC(=O)c1cc(O)c(O)c(O)c1)c1cc(O)c(O)c(O)c1
REMARK SMILES IDX 5 1 46 2 33 3 20 4 7 5 6 6 4 7 3 8 2 9 1 10 59 11 60 12
REMARK SMILES IDX 61 13 67 14 63 15 65 16 62 17 64 19 66 21 47 23 48 24 49 25
REMARK SMILES IDX 50 26 58 27 51 28 56 29 52 30 54 31 57 32 53 34 55 36 34 38
REMARK SMILES IDX 35 39 36 40 37 41 45 42 38 43 43 44 39 45 41 46 44 47 40 49
REMARK SMILES IDX 42 51 8 53 9 54 10 55 11 56 19 57 12 58 17 59 13 60 15 61
REMARK SMILES IDX 18 62 14 64 16 66 21 68 22 69 23 70 24 71 32 72 25 73 30 74
REMARK SMILES IDX 26 75 28 76 31 77 27 79 29 81
REMARK H PARENT 62 18 64 20 66 22 57 33 53 35 55 37 44 48 40 50 42 52 18 63
REMARK H PARENT 14 65 16 67 31 78 27 80 29 82
REMARK Flexibility Score: inf
ROOT
ATOM      1  C   UNL     1     -19.819  13.287 -30.875  1.00  0.00     0.205 C 
ATOM      2  C   UNL     1     -20.610  12.137 -30.214  1.00  0.00     0.254 C 
ATOM      3  C   UNL     1     -22.116  12.466 -30.262  1.00  0.00     0.267 C 
ATOM      4  C   UNL     1     -22.371  13.865 -29.671  1.00  0.00     0.290 C 
ATOM      5  C   UNL     1     -21.436  14.897 -30.327  1.00  0.00     0.357 C 
ATOM      6  O   UNL     1     -20.075  14.514 -30.207  1.00  0.00    -0.329 OA
ENDROOT
BRANCH   1   7
ATOM      7  C   UNL     1     -18.307  13.005 -30.850  1.00  0.00     0.269 C 
BRANCH   7   8
ATOM      8  O   UNL     1     -17.720  13.513 -29.653  1.00  0.00    -0.459 OA
BRANCH   8   9
ATOM      9  C   UNL     1     -16.557  14.291 -29.617  1.00  0.00     0.338 C 
ATOM     10  O   UNL     1     -16.491  15.299 -28.863  1.00  0.00    -0.246 OA
BRANCH   9  11
ATOM     11  C   UNL     1     -15.394  13.905 -30.445  1.00  0.00     0.067 A 
ATOM     12  C   UNL     1     -15.483  13.933 -31.843  1.00  0.00     0.066 A 
ATOM     13  C   UNL     1     -14.397  13.555 -32.636  1.00  0.00     0.162 A 
ATOM     14  C   UNL     1     -14.191  13.501 -29.846  1.00  0.00     0.066 A 
ATOM     15  C   UNL     1     -13.195  13.138 -32.036  1.00  0.00     0.200 A 
ATOM     16  C   UNL     1     -13.092  13.120 -30.622  1.00  0.00     0.162 A 
BRANCH  13  17
ATOM     17  O   UNL     1     -14.537  13.582 -34.025  1.00  0.00    -0.504 OA
ATOM     18  H   UNL     1     -14.824  12.769 -34.557  1.00  0.00     0.293 HD
ENDBRANCH  13  17
BRANCH  15  19
ATOM     19  O   UNL     1     -12.139  12.748 -32.865  1.00  0.00    -0.502 OA
ATOM     20  H   UNL     1     -11.399  12.125 -32.581  1.00  0.00     0.293 HD
ENDBRANCH  15  19
BRANCH  16  21
ATOM     21  O   UNL     1     -11.924  12.742 -29.955  1.00  0.00    -0.504 OA
ATOM     22  H   UNL     1     -11.838  11.919 -29.382  1.00  0.00     0.293 HD
ENDBRANCH  16  21
ENDBRANCH   9  11
ENDBRANCH   8   9
ENDBRANCH   7   8
ENDBRANCH   1   7
BRANCH   2  23
ATOM     23  O   UNL     1     -20.190  11.990 -28.857  1.00  0.00    -0.452 OA
BRANCH  23  24
ATOM     24  C   UNL     1     -19.810  10.769 -28.283  1.00  0.00     0.338 C 
ATOM     25  O   UNL     1     -20.672   9.875 -28.057  1.00  0.00    -0.246 OA
BRANCH  24  26
ATOM     26  C   UNL     1     -18.392  10.532 -27.948  1.00  0.00     0.067 A 
ATOM     27  C   UNL     1     -17.418  10.457 -28.960  1.00  0.00     0.066 A 
ATOM     28  C   UNL     1     -17.999  10.389 -26.609  1.00  0.00     0.066 A 
ATOM     29  C   UNL     1     -16.075  10.243 -28.640  1.00  0.00     0.162 A 
ATOM     30  C   UNL     1     -16.659  10.168 -26.280  1.00  0.00     0.162 A 
ATOM     31  C   UNL     1     -15.690  10.092 -27.297  1.00  0.00     0.200 A 
BRANCH  29  32
ATOM     32  O   UNL     1     -15.132  10.202 -29.669  1.00  0.00    -0.504 OA
ATOM     33  H   UNL     1     -15.015   9.385 -30.255  1.00  0.00     0.293 HD
ENDBRANCH  29  32
BRANCH  30  34
ATOM     34  O   UNL     1     -16.282  10.015 -24.945  1.00  0.00    -0.504 OA
ATOM     35  H   UNL     1     -15.320  10.149 -24.652  1.00  0.00     0.293 HD
ENDBRANCH  30  34
BRANCH  31  36
ATOM     36  O   UNL     1     -14.347   9.877 -26.985  1.00  0.00    -0.502 OA
ATOM     37  H   UNL     1     -13.772  10.589 -26.544  1.00  0.00     0.293 HD
ENDBRANCH  31  36
ENDBRANCH  24  26
ENDBRANCH  23  24
ENDBRANCH   2  23
BRANCH   3  38
ATOM     38  O   UNL     1     -22.869  11.505 -29.524  1.00  0.00    -0.450 OA
BRANCH  38  39
ATOM     39  C   UNL     1     -23.726  10.560 -30.097  1.00  0.00     0.338 C 
ATOM     40  O   UNL     1     -23.356   9.898 -31.104  1.00  0.00    -0.246 OA
BRANCH  39  41
ATOM     41  C   UNL     1     -25.074  10.350 -29.518  1.00  0.00     0.067 A 
ATOM     42  C   UNL     1     -26.214  10.270 -30.336  1.00  0.00     0.066 A 
ATOM     43  C   UNL     1     -25.228  10.235 -28.127  1.00  0.00     0.066 A 
ATOM     44  C   UNL     1     -27.490  10.112 -29.776  1.00  0.00     0.162 A 
ATOM     45  C   UNL     1     -26.494  10.080 -27.558  1.00  0.00     0.162 A 
ATOM     46  C   UNL     1     -27.632  10.023 -28.380  1.00  0.00     0.200 A 
BRANCH  44  47
ATOM     47  O   UNL     1     -28.618  10.045 -30.598  1.00  0.00    -0.504 OA
ATOM     48  H   UNL     1     -29.428   9.486 -30.352  1.00  0.00     0.293 HD
ENDBRANCH  44  47
BRANCH  45  49
ATOM     49  O   UNL     1     -26.607   9.978 -26.171  1.00  0.00    -0.504 OA
ATOM     50  H   UNL     1     -26.705  10.792 -25.580  1.00  0.00     0.293 HD
ENDBRANCH  45  49
BRANCH  46  51
ATOM     51  O   UNL     1     -28.891   9.875 -27.800  1.00  0.00    -0.502 OA
ATOM     52  H   UNL     1     -29.021   9.500 -26.867  1.00  0.00     0.293 HD
ENDBRANCH  46  51
ENDBRANCH  39  41
ENDBRANCH  38  39
ENDBRANCH   3  38
BRANCH   5  53
ATOM     53  O   UNL     1     -21.784  15.099 -31.699  1.00  0.00    -0.428 OA
BRANCH  53  54
ATOM     54  C   UNL     1     -22.963  15.733 -32.110  1.00  0.00     0.340 C 
ATOM     55  O   UNL     1     -23.953  15.049 -32.489  1.00  0.00    -0.246 OA
BRANCH  54  56
ATOM     56  C   UNL     1     -23.028  17.212 -32.123  1.00  0.00     0.067 A 
ATOM     57  C   UNL     1     -22.713  17.941 -30.964  1.00  0.00     0.066 A 
ATOM     58  C   UNL     1     -23.390  17.901 -33.292  1.00  0.00     0.066 A 
ATOM     59  C   UNL     1     -22.769  19.342 -30.969  1.00  0.00     0.162 A 
ATOM     60  C   UNL     1     -23.440  19.301 -33.305  1.00  0.00     0.162 A 
ATOM     61  C   UNL     1     -23.137  20.026 -32.141  1.00  0.00     0.200 A 
BRANCH  59  62
ATOM     62  O   UNL     1     -22.460  20.059 -29.815  1.00  0.00    -0.504 OA
ATOM     63  H   UNL     1     -21.720  19.765 -29.188  1.00  0.00     0.293 HD
ENDBRANCH  59  62
BRANCH  60  64
ATOM     64  O   UNL     1     -23.806  19.963 -34.476  1.00  0.00    -0.504 OA
ATOM     65  H   UNL     1     -23.628  20.952 -34.611  1.00  0.00     0.293 HD
ENDBRANCH  60  64
BRANCH  61  66
ATOM     66  O   UNL     1     -23.203  21.421 -32.165  1.00  0.00    -0.502 OA
ATOM     67  H   UNL     1     -22.396  21.993 -32.412  1.00  0.00     0.293 HD
ENDBRANCH  61  66
ENDBRANCH  54  56
ENDBRANCH  53  54
ENDBRANCH   5  53
BRANCH   4  68
ATOM     68  O   UNL     1     -23.731  14.253 -29.885  1.00  0.00    -0.448 OA
BRANCH  68  69
ATOM     69  C   UNL     1     -24.820  13.649 -29.238  1.00  0.00     0.339 C 
ATOM     70  O   UNL     1     -24.624  12.852 -28.282  1.00  0.00    -0.246 OA
BRANCH  69  71
ATOM     71  C   UNL     1     -26.201  13.976 -29.652  1.00  0.00     0.067 A 
ATOM     72  C   UNL     1     -26.457  15.086 -30.477  1.00  0.00     0.066 A 
ATOM     73  C   UNL     1     -27.277  13.179 -29.228  1.00  0.00     0.066 A 
ATOM     74  C   UNL     1     -27.762  15.374 -30.899  1.00  0.00     0.162 A 
ATOM     75  C   UNL     1     -28.589  13.465 -29.629  1.00  0.00     0.162 A 
ATOM     76  C   UNL     1     -28.832  14.564 -30.491  1.00  0.00     0.200 A 
BRANCH  74  77
ATOM     77  O   UNL     1     -28.007  16.460 -31.740  1.00  0.00    -0.504 OA
ATOM     78  H   UNL     1     -27.284  16.844 -32.330  1.00  0.00     0.293 HD
ENDBRANCH  74  77
BRANCH  75  79
ATOM     79  O   UNL     1     -29.608  12.642 -29.141  1.00  0.00    -0.504 OA
ATOM     80  H   UNL     1     -30.163  12.028 -29.716  1.00  0.00     0.293 HD
ENDBRANCH  75  79
BRANCH  76  81
ATOM     81  O   UNL     1     -30.109  14.871 -30.965  1.00  0.00    -0.502 OA
ATOM     82  H   UNL     1     -30.522  15.784 -30.896  1.00  0.00     0.293 HD
ENDBRANCH  76  81
ENDBRANCH  69  71
ENDBRANCH  68  69
ENDBRANCH   4  68
TORSDOF 31
ENDMDL
