MODEL 1
REMARK VINA RESULT:    -2.225      0.000      0.000
REMARK INTER + INTRA:          -2.225
REMARK INTER:                  -2.225
REMARK INTRA:                   0.000
REMARK UNBOUND:                 0.000
REMARK SMILES CC(=O)[O-]
REMARK SMILES IDX 1 1 2 2 3 3 4 4
REMARK H PARENT
REMARK Flexibility Score: inf
ROOT
ATOM      1  C   UNL     1      19.225  -8.419  14.726  1.00  0.00     0.063 C 
ATOM      2  C   UNL     1      17.788  -8.558  14.352  1.00  0.00     0.038 C 
ATOM      3  O   UNL     1      16.947  -7.712  14.753  1.00  0.00    -0.550 OA
ATOM      4  O   UNL     1      17.366  -9.650  13.606  1.00  0.00    -0.550 OA
ENDROOT
TORSDOF 0
ENDMDL
MODEL 2
REMARK VINA RESULT:    -2.215      1.596      1.968
REMARK INTER + INTRA:          -2.215
REMARK INTER:                  -2.215
REMARK INTRA:                   0.000
REMARK UNBOUND:                 0.000
REMARK SMILES CC(=O)[O-]
REMARK SMILES IDX 1 1 2 2 3 3 4 4
REMARK H PARENT
REMARK Flexibility Score: inf
ROOT
ATOM      1  C   UNL     1      18.567  -9.362  13.156  1.00  0.00     0.063 C 
ATOM      2  C   UNL     1      18.484  -8.438  14.323  1.00  0.00     0.038 C 
ATOM      3  O   UNL     1      19.503  -8.219  15.029  1.00  0.00    -0.550 OA
ATOM      4  O   UNL     1      17.270  -7.860  14.667  1.00  0.00    -0.550 OA
ENDROOT
TORSDOF 0
ENDMDL
MODEL 3
REMARK VINA RESULT:    -2.205      1.946      2.676
REMARK INTER + INTRA:          -2.205
REMARK INTER:                  -2.205
REMARK INTRA:                   0.000
REMARK UNBOUND:                 0.000
REMARK SMILES CC(=O)[O-]
REMARK SMILES IDX 1 1 2 2 3 3 4 4
REMARK H PARENT
REMARK Flexibility Score: inf
ROOT
ATOM      1  C   UNL     1      17.716  -8.338  14.407  1.00  0.00     0.063 C 
ATOM      2  C   UNL     1      19.170  -8.667  14.394  1.00  0.00     0.038 C 
ATOM      3  O   UNL     1      19.603  -9.584  13.649  1.00  0.00    -0.550 OA
ATOM      4  O   UNL     1      20.041  -8.001  15.245  1.00  0.00    -0.550 OA
ENDROOT
TORSDOF 0
ENDMDL
MODEL 4
REMARK VINA RESULT:    -2.153      4.824      5.478
REMARK INTER + INTRA:          -2.153
REMARK INTER:                  -2.153
REMARK INTRA:                   0.000
REMARK UNBOUND:                 0.000
REMARK SMILES CC(=O)[O-]
REMARK SMILES IDX 1 1 2 2 3 3 4 4
REMARK H PARENT
REMARK Flexibility Score: inf
ROOT
ATOM      1  C   UNL     1      15.671  -3.659  17.515  1.00  0.00     0.063 C 
ATOM      2  C   UNL     1      15.276  -5.042  17.124  1.00  0.00     0.038 C 
ATOM      3  O   UNL     1      15.885  -5.634  16.196  1.00  0.00    -0.550 OA
ATOM      4  O   UNL     1      14.199  -5.660  17.747  1.00  0.00    -0.550 OA
ENDROOT
TORSDOF 0
ENDMDL
MODEL 5
REMARK VINA RESULT:    -2.149      5.705      6.288
REMARK INTER + INTRA:          -2.149
REMARK INTER:                  -2.149
REMARK INTRA:                   0.000
REMARK UNBOUND:                 0.000
REMARK SMILES CC(=O)[O-]
REMARK SMILES IDX 1 1 2 2 3 3 4 4
REMARK H PARENT
REMARK Flexibility Score: inf
ROOT
ATOM      1  C   UNL     1      21.406  -4.413  18.632  1.00  0.00     0.063 C 
ATOM      2  C   UNL     1      21.710  -5.171  17.385  1.00  0.00     0.038 C 
ATOM      3  O   UNL     1      20.989  -6.145  17.046  1.00  0.00    -0.550 OA
ATOM      4  O   UNL     1      22.822  -4.839  16.623  1.00  0.00    -0.550 OA
ENDROOT
TORSDOF 0
ENDMDL
MODEL 6
REMARK VINA RESULT:    -2.107      5.476      5.918
REMARK INTER + INTRA:          -2.107
REMARK INTER:                  -2.107
REMARK INTRA:                   0.000
REMARK UNBOUND:                 0.000
REMARK SMILES CC(=O)[O-]
REMARK SMILES IDX 1 1 2 2 3 3 4 4
REMARK H PARENT
REMARK Flexibility Score: inf
ROOT
ATOM      1  C   UNL     1      14.907  -5.321  17.434  1.00  0.00     0.063 C 
ATOM      2  C   UNL     1      15.824  -4.149  17.343  1.00  0.00     0.038 C 
ATOM      3  O   UNL     1      15.386  -2.987  17.548  1.00  0.00    -0.550 OA
ATOM      4  O   UNL     1      17.151  -4.331  16.978  1.00  0.00    -0.550 OA
ENDROOT
TORSDOF 0
ENDMDL
MODEL 7
REMARK VINA RESULT:    -2.094      5.929      6.641
REMARK INTER + INTRA:          -2.094
REMARK INTER:                  -2.094
REMARK INTRA:                   0.000
REMARK UNBOUND:                 0.000
REMARK SMILES CC(=O)[O-]
REMARK SMILES IDX 1 1 2 2 3 3 4 4
REMARK H PARENT
REMARK Flexibility Score: inf
ROOT
ATOM      1  C   UNL     1      22.157  -4.885  17.033  1.00  0.00     0.063 C 
ATOM      2  C   UNL     1      21.237  -4.784  18.202  1.00  0.00     0.038 C 
ATOM      3  O   UNL     1      20.061  -5.223  18.120  1.00  0.00    -0.550 OA
ATOM      4  O   UNL     1      21.659  -4.155  19.366  1.00  0.00    -0.550 OA
ENDROOT
TORSDOF 0
ENDMDL
MODEL 8
REMARK VINA RESULT:    -2.092      1.518      2.011
REMARK INTER + INTRA:          -2.092
REMARK INTER:                  -2.092
REMARK INTRA:                   0.000
REMARK UNBOUND:                 0.000
REMARK SMILES CC(=O)[O-]
REMARK SMILES IDX 1 1 2 2 3 3 4 4
REMARK H PARENT
REMARK Flexibility Score: inf
ROOT
ATOM      1  C   UNL     1      18.252  -8.370  14.388  1.00  0.00     0.063 C 
ATOM      2  C   UNL     1      17.927  -9.722  13.851  1.00  0.00     0.038 C 
ATOM      3  O   UNL     1      18.814 -10.614  13.806  1.00  0.00    -0.550 OA
ATOM      4  O   UNL     1      16.660  -9.984  13.347  1.00  0.00    -0.550 OA
ENDROOT
TORSDOF 0
ENDMDL
MODEL 9
REMARK VINA RESULT:    -2.090      8.841      9.260
REMARK INTER + INTRA:          -2.090
REMARK INTER:                  -2.090
REMARK INTRA:                   0.000
REMARK UNBOUND:                 0.000
REMARK SMILES CC(=O)[O-]
REMARK SMILES IDX 1 1 2 2 3 3 4 4
REMARK H PARENT
REMARK Flexibility Score: inf
ROOT
ATOM      1  C   UNL     1       8.200  -9.687  16.215  1.00  0.00     0.063 C 
ATOM      2  C   UNL     1       9.224 -10.727  15.914  1.00  0.00     0.038 C 
ATOM      3  O   UNL     1       9.654 -10.870  14.740  1.00  0.00    -0.550 OA
ATOM      4  O   UNL     1       9.666 -11.579  16.918  1.00  0.00    -0.550 OA
ENDROOT
TORSDOF 0
ENDMDL
