MODEL 1
REMARK VINA RESULT:    -3.753      0.000      0.000
REMARK INTER + INTRA:          -4.110
REMARK INTER:                  -4.082
REMARK INTRA:                  -0.028
REMARK UNBOUND:                -0.028
REMARK SMILES O=C([O-])c1ccc(O)cc1
REMARK SMILES IDX 7 1 6 2 9 3 5 4 10 5 4 6 8 7 2 9 1 10 3 11
REMARK H PARENT 8 8
REMARK Flexibility Score: inf
ROOT
ATOM      1  C   UNL     1       9.765  12.914  18.880  1.00  0.00     0.115 A 
ATOM      2  C   UNL     1      10.619  11.875  19.262  1.00  0.00     0.047 A 
ATOM      3  C   UNL     1      10.236  14.234  18.876  1.00  0.00     0.047 A 
ATOM      4  C   UNL     1      11.937  12.149  19.638  1.00  0.00     0.014 A 
ATOM      5  C   UNL     1      11.554  14.511  19.250  1.00  0.00     0.014 A 
ATOM      6  C   UNL     1      12.419  13.471  19.636  1.00  0.00    -0.003 A 
ENDROOT
BRANCH   1   7
ATOM      7  O   UNL     1       8.454  12.626  18.508  1.00  0.00    -0.508 OA
ATOM      8  H   UNL     1       8.242  12.155  17.637  1.00  0.00     0.293 HD
ENDBRANCH   1   7
BRANCH   6   9
ATOM      9  C   UNL     1      13.813  13.768  20.032  1.00  0.00     0.071 C 
ATOM     10  O   UNL     1      14.055  14.469  21.051  1.00  0.00    -0.545 OA
ATOM     11  O   UNL     1      14.877  13.278  19.284  1.00  0.00    -0.545 OA
ENDBRANCH   6   9
TORSDOF 2
ENDMDL
MODEL 2
REMARK VINA RESULT:    -3.726      0.553      1.811
REMARK INTER + INTRA:          -4.081
REMARK INTER:                  -4.046
REMARK INTRA:                  -0.035
REMARK UNBOUND:                -0.028
REMARK SMILES O=C([O-])c1ccc(O)cc1
REMARK SMILES IDX 7 1 6 2 9 3 5 4 10 5 4 6 8 7 2 9 1 10 3 11
REMARK H PARENT 8 8
REMARK Flexibility Score: inf
ROOT
ATOM      1  C   UNL     1       9.952  12.816  19.121  1.00  0.00     0.115 A 
ATOM      2  C   UNL     1      10.374  14.126  18.874  1.00  0.00     0.047 A 
ATOM      3  C   UNL     1      10.864  11.875  19.618  1.00  0.00     0.047 A 
ATOM      4  C   UNL     1      11.699  14.498  19.121  1.00  0.00     0.014 A 
ATOM      5  C   UNL     1      12.190  12.243  19.867  1.00  0.00     0.014 A 
ATOM      6  C   UNL     1      12.621  13.559  19.620  1.00  0.00    -0.003 A 
ENDROOT
BRANCH   1   7
ATOM      7  O   UNL     1       8.630  12.459  18.871  1.00  0.00    -0.508 OA
ATOM      8  H   UNL     1       8.037  13.015  18.266  1.00  0.00     0.293 HD
ENDBRANCH   1   7
BRANCH   6   9
ATOM      9  C   UNL     1      14.025  13.947  19.884  1.00  0.00     0.071 C 
ATOM     10  O   UNL     1      14.929  13.072  19.953  1.00  0.00    -0.545 OA
ATOM     11  O   UNL     1      14.365  15.283  20.060  1.00  0.00    -0.545 OA
ENDBRANCH   6   9
TORSDOF 2
ENDMDL
MODEL 3
REMARK VINA RESULT:    -3.701      1.616      2.355
REMARK INTER + INTRA:          -4.053
REMARK INTER:                  -4.023
REMARK INTRA:                  -0.030
REMARK UNBOUND:                -0.028
REMARK SMILES O=C([O-])c1ccc(O)cc1
REMARK SMILES IDX 7 1 6 2 9 3 5 4 10 5 4 6 8 7 2 9 1 10 3 11
REMARK H PARENT 8 8
REMARK Flexibility Score: inf
ROOT
ATOM      1  C   UNL     1      10.507  13.922  18.884  1.00  0.00     0.115 A 
ATOM      2  C   UNL     1      11.789  14.480  18.878  1.00  0.00     0.047 A 
ATOM      3  C   UNL     1      10.248  12.786  19.662  1.00  0.00     0.047 A 
ATOM      4  C   UNL     1      12.809  13.909  19.644  1.00  0.00     0.014 A 
ATOM      5  C   UNL     1      11.266  12.212  20.429  1.00  0.00     0.014 A 
ATOM      6  C   UNL     1      12.558  12.768  20.428  1.00  0.00    -0.003 A 
ENDROOT
BRANCH   1   7
ATOM      7  O   UNL     1       9.500  14.502  18.116  1.00  0.00    -0.508 OA
ATOM      8  H   UNL     1       8.798  15.103  18.530  1.00  0.00     0.293 HD
ENDBRANCH   1   7
BRANCH   6   9
ATOM      9  C   UNL     1      13.634  12.159  21.241  1.00  0.00     0.071 C 
ATOM     10  O   UNL     1      14.747  11.876  20.723  1.00  0.00    -0.545 OA
ATOM     11  O   UNL     1      13.430  11.889  22.590  1.00  0.00    -0.545 OA
ENDBRANCH   6   9
TORSDOF 2
ENDMDL
MODEL 4
REMARK VINA RESULT:    -3.583      1.845      2.089
REMARK INTER + INTRA:          -3.925
REMARK INTER:                  -3.892
REMARK INTRA:                  -0.033
REMARK UNBOUND:                -0.028
REMARK SMILES O=C([O-])c1ccc(O)cc1
REMARK SMILES IDX 7 1 6 2 9 3 5 4 10 5 4 6 8 7 2 9 1 10 3 11
REMARK H PARENT 8 8
REMARK Flexibility Score: inf
ROOT
ATOM      1  C   UNL     1      10.512  13.019  20.213  1.00  0.00     0.115 A 
ATOM      2  C   UNL     1      11.138  13.086  21.461  1.00  0.00     0.047 A 
ATOM      3  C   UNL     1      10.910  13.888  19.189  1.00  0.00     0.047 A 
ATOM      4  C   UNL     1      12.157  14.016  21.689  1.00  0.00     0.014 A 
ATOM      5  C   UNL     1      11.930  14.819  19.412  1.00  0.00     0.014 A 
ATOM      6  C   UNL     1      12.564  14.893  20.666  1.00  0.00    -0.003 A 
ENDROOT
BRANCH   1   7
ATOM      7  O   UNL     1       9.499  12.088  20.000  1.00  0.00    -0.508 OA
ATOM      8  H   UNL     1       8.758  11.948  20.677  1.00  0.00     0.293 HD
ENDBRANCH   1   7
BRANCH   6   9
ATOM      9  C   UNL     1      13.642  15.878  20.900  1.00  0.00     0.071 C 
ATOM     10  O   UNL     1      13.807  16.389  22.040  1.00  0.00    -0.545 OA
ATOM     11  O   UNL     1      14.488  16.257  19.864  1.00  0.00    -0.545 OA
ENDBRANCH   6   9
TORSDOF 2
ENDMDL
MODEL 5
REMARK VINA RESULT:    -3.446      3.088      3.911
REMARK INTER + INTRA:          -3.777
REMARK INTER:                  -3.749
REMARK INTRA:                  -0.028
REMARK UNBOUND:                -0.028
REMARK SMILES O=C([O-])c1ccc(O)cc1
REMARK SMILES IDX 7 1 6 2 9 3 5 4 10 5 4 6 8 7 2 9 1 10 3 11
REMARK H PARENT 8 8
REMARK Flexibility Score: inf
ROOT
ATOM      1  C   UNL     1      11.748  14.349  19.357  1.00  0.00     0.115 A 
ATOM      2  C   UNL     1      12.495  14.652  20.499  1.00  0.00     0.047 A 
ATOM      3  C   UNL     1      10.624  13.519  19.462  1.00  0.00     0.047 A 
ATOM      4  C   UNL     1      12.123  14.132  21.742  1.00  0.00     0.014 A 
ATOM      5  C   UNL     1      10.249  12.997  20.703  1.00  0.00     0.014 A 
ATOM      6  C   UNL     1      10.996  13.297  21.857  1.00  0.00    -0.003 A 
ENDROOT
BRANCH   1   7
ATOM      7  O   UNL     1      12.130  14.875  18.125  1.00  0.00    -0.508 OA
ATOM      8  H   UNL     1      12.774  14.384  17.516  1.00  0.00     0.293 HD
ENDBRANCH   1   7
BRANCH   6   9
ATOM      9  C   UNL     1      10.597  12.743  23.170  1.00  0.00     0.071 C 
ATOM     10  O   UNL     1      11.309  11.875  23.742  1.00  0.00    -0.545 OA
ATOM     11  O   UNL     1       9.429  13.173  23.790  1.00  0.00    -0.545 OA
ENDBRANCH   6   9
TORSDOF 2
ENDMDL
MODEL 6
REMARK VINA RESULT:    -3.275      1.964      4.431
REMARK INTER + INTRA:          -3.591
REMARK INTER:                  -3.564
REMARK INTRA:                  -0.027
REMARK UNBOUND:                -0.028
REMARK SMILES O=C([O-])c1ccc(O)cc1
REMARK SMILES IDX 7 1 6 2 9 3 5 4 10 5 4 6 8 7 2 9 1 10 3 11
REMARK H PARENT 8 8
REMARK Flexibility Score: inf
ROOT
ATOM      1  C   UNL     1      13.976  15.784  21.013  1.00  0.00     0.115 A 
ATOM      2  C   UNL     1      13.031  15.133  21.811  1.00  0.00     0.047 A 
ATOM      3  C   UNL     1      13.920  15.648  19.619  1.00  0.00     0.047 A 
ATOM      4  C   UNL     1      12.033  14.349  21.224  1.00  0.00     0.014 A 
ATOM      5  C   UNL     1      12.923  14.866  19.028  1.00  0.00     0.014 A 
ATOM      6  C   UNL     1      11.969  14.207  19.825  1.00  0.00    -0.003 A 
ENDROOT
BRANCH   1   7
ATOM      7  O   UNL     1      14.964  16.562  21.612  1.00  0.00    -0.508 OA
ATOM      8  H   UNL     1      15.020  16.665  22.618  1.00  0.00     0.293 HD
ENDBRANCH   1   7
BRANCH   6   9
ATOM      9  C   UNL     1      10.916  13.380  19.197  1.00  0.00     0.071 C 
ATOM     10  O   UNL     1       9.919  13.920  18.647  1.00  0.00    -0.545 OA
ATOM     11  O   UNL     1      11.010  11.993  19.207  1.00  0.00    -0.545 OA
ENDBRANCH   6   9
TORSDOF 2
ENDMDL
MODEL 7
REMARK VINA RESULT:    -2.927      1.624      2.026
REMARK INTER + INTRA:          -3.213
REMARK INTER:                  -3.182
REMARK INTRA:                  -0.030
REMARK UNBOUND:                -0.028
REMARK SMILES O=C([O-])c1ccc(O)cc1
REMARK SMILES IDX 7 1 6 2 9 3 5 4 10 5 4 6 8 7 2 9 1 10 3 11
REMARK H PARENT 8 8
REMARK Flexibility Score: inf
ROOT
ATOM      1  C   UNL     1      10.516  13.932  18.893  1.00  0.00     0.115 A 
ATOM      2  C   UNL     1      10.243  12.813  19.687  1.00  0.00     0.047 A 
ATOM      3  C   UNL     1      11.809  14.470  18.874  1.00  0.00     0.047 A 
ATOM      4  C   UNL     1      11.254  12.233  20.458  1.00  0.00     0.014 A 
ATOM      5  C   UNL     1      12.823  13.892  19.643  1.00  0.00     0.014 A 
ATOM      6  C   UNL     1      12.556  12.767  20.445  1.00  0.00    -0.003 A 
ENDROOT
BRANCH   1   7
ATOM      7  O   UNL     1       9.499  14.499  18.130  1.00  0.00    -0.508 OA
ATOM      8  H   UNL     1       9.384  15.503  18.064  1.00  0.00     0.293 HD
ENDBRANCH   1   7
BRANCH   6   9
ATOM      9  C   UNL     1      13.631  12.157  21.258  1.00  0.00     0.071 C 
ATOM     10  O   UNL     1      14.745  11.875  20.740  1.00  0.00    -0.545 OA
ATOM     11  O   UNL     1      13.427  11.885  22.606  1.00  0.00    -0.545 OA
ENDBRANCH   6   9
TORSDOF 2
ENDMDL
MODEL 8
REMARK VINA RESULT:    -2.491      1.722      4.353
REMARK INTER + INTRA:          -2.738
REMARK INTER:                  -2.705
REMARK INTRA:                  -0.033
REMARK UNBOUND:                -0.028
REMARK SMILES O=C([O-])c1ccc(O)cc1
REMARK SMILES IDX 7 1 6 2 9 3 5 4 10 5 4 6 8 7 2 9 1 10 3 11
REMARK H PARENT 8 8
REMARK Flexibility Score: inf
ROOT
ATOM      1  C   UNL     1      13.542  15.509  20.491  1.00  0.00     0.115 A 
ATOM      2  C   UNL     1      13.196  15.222  19.167  1.00  0.00     0.047 A 
ATOM      3  C   UNL     1      12.827  14.917  21.540  1.00  0.00     0.047 A 
ATOM      4  C   UNL     1      12.141  14.348  18.889  1.00  0.00     0.014 A 
ATOM      5  C   UNL     1      11.772  14.042  21.266  1.00  0.00     0.014 A 
ATOM      6  C   UNL     1      11.417  13.749  19.936  1.00  0.00    -0.003 A 
ENDROOT
BRANCH   1   7
ATOM      7  O   UNL     1      14.596  16.382  20.753  1.00  0.00    -0.508 OA
ATOM      8  H   UNL     1      14.580  17.342  20.432  1.00  0.00     0.293 HD
ENDBRANCH   1   7
BRANCH   6   9
ATOM      9  C   UNL     1      10.300  12.823  19.649  1.00  0.00     0.071 C 
ATOM     10  O   UNL     1      10.034  11.875  20.436  1.00  0.00    -0.545 OA
ATOM     11  O   UNL     1       9.527  12.984  18.504  1.00  0.00    -0.545 OA
ENDBRANCH   6   9
TORSDOF 2
ENDMDL
MODEL 9
REMARK VINA RESULT:    -1.290      1.719      4.276
REMARK INTER + INTRA:          -1.432
REMARK INTER:                  -1.398
REMARK INTRA:                  -0.034
REMARK UNBOUND:                -0.028
REMARK SMILES O=C([O-])c1ccc(O)cc1
REMARK SMILES IDX 7 1 6 2 9 3 5 4 10 5 4 6 8 7 2 9 1 10 3 11
REMARK H PARENT 8 8
REMARK Flexibility Score: inf
ROOT
ATOM      1  C   UNL     1      13.561  15.508  20.459  1.00  0.00     0.115 A 
ATOM      2  C   UNL     1      12.889  14.883  21.515  1.00  0.00     0.047 A 
ATOM      3  C   UNL     1      13.170  15.250  19.139  1.00  0.00     0.047 A 
ATOM      4  C   UNL     1      11.833  14.005  21.256  1.00  0.00     0.014 A 
ATOM      5  C   UNL     1      12.114  14.374  18.876  1.00  0.00     0.014 A 
ATOM      6  C   UNL     1      11.434  13.741  19.932  1.00  0.00    -0.003 A 
ENDROOT
BRANCH   1   7
ATOM      7  O   UNL     1      14.612  16.380  20.732  1.00  0.00    -0.508 OA
ATOM      8  H   UNL     1      15.537  16.038  20.964  1.00  0.00     0.293 HD
ENDBRANCH   1   7
BRANCH   6   9
ATOM      9  C   UNL     1      10.316  12.813  19.652  1.00  0.00     0.071 C 
ATOM     10  O   UNL     1      10.046  11.875  20.448  1.00  0.00    -0.545 OA
ATOM     11  O   UNL     1       9.547  12.964  18.503  1.00  0.00    -0.545 OA
ENDBRANCH   6   9
TORSDOF 2
ENDMDL
