MODEL 1
REMARK VINA RESULT:    -1.709      0.000      0.000
REMARK INTER + INTRA:          -5.779
REMARK INTER:                  -4.306
REMARK INTRA:                  -1.473
REMARK UNBOUND:                -1.473
REMARK SMILES CCCCCCCCCCCCCCCCCCCCCCCCCCCC(=O)[O-]
REMARK SMILES IDX 15 1 16 2 17 3 18 4 19 5 20 6 21 7 22 8 23 9 24 10 25 11
REMARK SMILES IDX 26 12 27 13 28 14 29 15 30 16 14 17 13 18 12 19 11 20 10 21
REMARK SMILES IDX 9 22 8 23 7 24 6 25 5 26 4 27 3 28 2 29 1 30
REMARK H PARENT
REMARK Flexibility Score: inf
ROOT
ATOM      1  C   UNL     1      -0.246 -22.533  16.409  1.00  0.00     0.000 C 
ENDROOT
BRANCH   1   2
ATOM      2  C   UNL     1       0.864 -22.043  15.463  1.00  0.00     0.000 C 
BRANCH   2   3
ATOM      3  C   UNL     1       1.878 -23.119  15.016  1.00  0.00     0.000 C 
BRANCH   3   4
ATOM      4  C   UNL     1       3.341 -22.849  15.412  1.00  0.00     0.000 C 
BRANCH   4   5
ATOM      5  C   UNL     1       3.530 -21.922  16.629  1.00  0.00     0.000 C 
BRANCH   5   6
ATOM      6  C   UNL     1       5.005 -21.626  16.970  1.00  0.00     0.000 C 
BRANCH   6   7
ATOM      7  C   UNL     1       5.989 -22.420  16.093  1.00  0.00     0.000 C 
BRANCH   7   8
ATOM      8  C   UNL     1       7.371 -22.591  16.750  1.00  0.00     0.000 C 
BRANCH   8   9
ATOM      9  C   UNL     1       8.524 -21.985  15.922  1.00  0.00     0.000 C 
BRANCH   9  10
ATOM     10  C   UNL     1       8.039 -20.869  14.986  1.00  0.00     0.000 C 
BRANCH  10  11
ATOM     11  C   UNL     1       8.856 -20.845  13.685  1.00  0.00     0.000 C 
BRANCH  11  12
ATOM     12  C   UNL     1       8.851 -22.198  12.956  1.00  0.00     0.006 C 
BRANCH  12  13
ATOM     13  C   UNL     1       8.886 -22.042  11.429  1.00  0.00     0.053 C 
BRANCH  13  14
ATOM     14  C   UNL     1       7.535 -22.312  10.845  1.00  0.00     0.041 C 
ATOM     15  O   UNL     1       6.559 -22.573  11.596  1.00  0.00    -0.550 OA
ATOM     16  O   UNL     1       7.367 -22.328   9.466  1.00  0.00    -0.550 OA
ENDBRANCH  13  14
ENDBRANCH  12  13
ENDBRANCH  11  12
ENDBRANCH  10  11
ENDBRANCH   9  10
ENDBRANCH   8   9
ENDBRANCH   7   8
ENDBRANCH   6   7
ENDBRANCH   5   6
ENDBRANCH   4   5
ENDBRANCH   3   4
ENDBRANCH   2   3
ENDBRANCH   1   2
BRANCH   1  17
ATOM     17  C   UNL     1      -1.504 -21.647  16.369  1.00  0.00     0.000 C 
BRANCH  17  18
ATOM     18  C   UNL     1      -2.684 -22.348  15.677  1.00  0.00     0.000 C 
BRANCH  18  19
ATOM     19  C   UNL     1      -3.745 -22.842  16.676  1.00  0.00     0.000 C 
BRANCH  19  20
ATOM     20  C   UNL     1      -5.177 -22.476  16.231  1.00  0.00     0.000 C 
BRANCH  20  21
ATOM     21  C   UNL     1      -6.280 -23.121  17.089  1.00  0.00     0.000 C 
BRANCH  21  22
ATOM     22  C   UNL     1      -7.022 -22.106  17.974  1.00  0.00    -0.000 C 
BRANCH  22  23
ATOM     23  C   UNL     1      -8.450 -21.823  17.469  1.00  0.00    -0.000 C 
BRANCH  23  24
ATOM     24  C   UNL     1      -9.511 -22.782  18.041  1.00  0.00    -0.000 C 
BRANCH  24  25
ATOM     25  C   UNL     1     -10.729 -22.032  18.613  1.00  0.00    -0.000 C 
BRANCH  25  26
ATOM     26  C   UNL     1     -10.340 -21.004  19.688  1.00  0.00    -0.000 C 
BRANCH  26  27
ATOM     27  C   UNL     1      -9.799 -21.664  20.967  1.00  0.00    -0.000 C 
BRANCH  27  28
ATOM     28  C   UNL     1     -10.085 -20.830  22.226  1.00  0.00    -0.000 C 
BRANCH  28  29
ATOM     29  C   UNL     1     -10.765 -19.491  21.909  1.00  0.00    -0.003 C 
ATOM     30  C   UNL     1     -10.383 -18.426  22.933  1.00  0.00     0.004 C 
ENDBRANCH  28  29
ENDBRANCH  27  28
ENDBRANCH  26  27
ENDBRANCH  25  26
ENDBRANCH  24  25
ENDBRANCH  23  24
ENDBRANCH  22  23
ENDBRANCH  21  22
ENDBRANCH  20  21
ENDBRANCH  19  20
ENDBRANCH  18  19
ENDBRANCH  17  18
ENDBRANCH   1  17
TORSDOF 26
ENDMDL
MODEL 2
REMARK VINA RESULT:    -1.265      5.459     15.810
REMARK INTER + INTRA:          -4.661
REMARK INTER:                  -3.792
REMARK INTRA:                  -0.869
REMARK UNBOUND:                -1.473
REMARK SMILES CCCCCCCCCCCCCCCCCCCCCCCCCCCC(=O)[O-]
REMARK SMILES IDX 15 1 16 2 17 3 18 4 19 5 20 6 21 7 22 8 23 9 24 10 25 11
REMARK SMILES IDX 26 12 27 13 28 14 29 15 30 16 14 17 13 18 12 19 11 20 10 21
REMARK SMILES IDX 9 22 8 23 7 24 6 25 5 26 4 27 3 28 2 29 1 30
REMARK H PARENT
REMARK Flexibility Score: inf
ROOT
ATOM      1  C   UNL     1      -3.786 -22.398  16.028  1.00  0.00     0.000 C 
ENDROOT
BRANCH   1   2
ATOM      2  C   UNL     1      -4.306 -21.212  15.196  1.00  0.00     0.000 C 
BRANCH   2   3
ATOM      3  C   UNL     1      -5.800 -20.871  15.391  1.00  0.00     0.000 C 
BRANCH   3   4
ATOM      4  C   UNL     1      -6.650 -21.980  16.036  1.00  0.00     0.000 C 
BRANCH   4   5
ATOM      5  C   UNL     1      -6.592 -22.037  17.575  1.00  0.00     0.000 C 
BRANCH   5   6
ATOM      6  C   UNL     1      -7.945 -22.363  18.243  1.00  0.00     0.000 C 
BRANCH   6   7
ATOM      7  C   UNL     1      -9.143 -22.114  17.310  1.00  0.00     0.000 C 
BRANCH   7   8
ATOM      8  C   UNL     1     -10.494 -22.426  17.979  1.00  0.00     0.000 C 
BRANCH   8   9
ATOM      9  C   UNL     1     -11.122 -21.210  18.694  1.00  0.00     0.000 C 
BRANCH   9  10
ATOM     10  C   UNL     1     -10.058 -20.209  19.171  1.00  0.00     0.000 C 
BRANCH  10  11
ATOM     11  C   UNL     1     -10.396 -19.672  20.570  1.00  0.00     0.000 C 
BRANCH  11  12
ATOM     12  C   UNL     1     -11.028 -20.737  21.479  1.00  0.00     0.006 C 
BRANCH  12  13
ATOM     13  C   UNL     1     -10.578 -20.605  22.941  1.00  0.00     0.053 C 
BRANCH  13  14
ATOM     14  C   UNL     1     -10.066 -21.916  23.450  1.00  0.00     0.041 C 
ATOM     15  O   UNL     1      -8.868 -22.030  23.818  1.00  0.00    -0.550 OA
ATOM     16  O   UNL     1     -10.902 -23.026  23.468  1.00  0.00    -0.550 OA
ENDBRANCH  13  14
ENDBRANCH  12  13
ENDBRANCH  11  12
ENDBRANCH  10  11
ENDBRANCH   9  10
ENDBRANCH   8   9
ENDBRANCH   7   8
ENDBRANCH   6   7
ENDBRANCH   5   6
ENDBRANCH   4   5
ENDBRANCH   3   4
ENDBRANCH   2   3
ENDBRANCH   1   2
BRANCH   1  17
ATOM     17  C   UNL     1      -2.351 -22.809  15.655  1.00  0.00     0.000 C 
BRANCH  17  18
ATOM     18  C   UNL     1      -1.317 -21.755  16.080  1.00  0.00     0.000 C 
BRANCH  18  19
ATOM     19  C   UNL     1       0.051 -22.373  16.419  1.00  0.00     0.000 C 
BRANCH  19  20
ATOM     20  C   UNL     1       1.039 -22.285  15.236  1.00  0.00     0.000 C 
BRANCH  20  21
ATOM     21  C   UNL     1       2.314 -23.125  15.426  1.00  0.00     0.000 C 
BRANCH  21  22
ATOM     22  C   UNL     1       3.602 -22.294  15.303  1.00  0.00    -0.000 C 
BRANCH  22  23
ATOM     23  C   UNL     1       3.977 -21.597  16.626  1.00  0.00    -0.000 C 
BRANCH  23  24
ATOM     24  C   UNL     1       5.215 -22.202  17.315  1.00  0.00    -0.000 C 
BRANCH  24  25
ATOM     25  C   UNL     1       6.418 -21.240  17.304  1.00  0.00    -0.000 C 
BRANCH  25  26
ATOM     26  C   UNL     1       7.626 -21.811  16.545  1.00  0.00    -0.000 C 
BRANCH  26  27
ATOM     27  C   UNL     1       7.557 -21.538  15.033  1.00  0.00    -0.000 C 
BRANCH  27  28
ATOM     28  C   UNL     1       8.822 -20.844  14.501  1.00  0.00    -0.000 C 
BRANCH  28  29
ATOM     29  C   UNL     1       8.528 -19.882  13.342  1.00  0.00    -0.003 C 
ATOM     30  C   UNL     1       8.528 -20.618  12.005  1.00  0.00     0.004 C 
ENDBRANCH  28  29
ENDBRANCH  27  28
ENDBRANCH  26  27
ENDBRANCH  25  26
ENDBRANCH  24  25
ENDBRANCH  23  24
ENDBRANCH  22  23
ENDBRANCH  21  22
ENDBRANCH  20  21
ENDBRANCH  19  20
ENDBRANCH  18  19
ENDBRANCH  17  18
ENDBRANCH   1  17
TORSDOF 26
ENDMDL
MODEL 3
REMARK VINA RESULT:    -1.109      1.312      2.533
REMARK INTER + INTRA:          -4.269
REMARK INTER:                  -2.689
REMARK INTRA:                  -1.579
REMARK UNBOUND:                -1.473
REMARK SMILES CCCCCCCCCCCCCCCCCCCCCCCCCCCC(=O)[O-]
REMARK SMILES IDX 15 1 16 2 17 3 18 4 19 5 20 6 21 7 22 8 23 9 24 10 25 11
REMARK SMILES IDX 26 12 27 13 28 14 29 15 30 16 14 17 13 18 12 19 11 20 10 21
REMARK SMILES IDX 9 22 8 23 7 24 6 25 5 26 4 27 3 28 2 29 1 30
REMARK H PARENT
REMARK Flexibility Score: inf
ROOT
ATOM      1  C   UNL     1      -2.498 -21.546  15.708  1.00  0.00     0.000 C 
ENDROOT
BRANCH   1   2
ATOM      2  C   UNL     1      -1.602 -22.287  16.716  1.00  0.00     0.000 C 
BRANCH   2   3
ATOM      3  C   UNL     1      -0.461 -23.125  16.099  1.00  0.00     0.000 C 
BRANCH   3   4
ATOM      4  C   UNL     1       0.235 -22.491  14.881  1.00  0.00     0.000 C 
BRANCH   4   5
ATOM      5  C   UNL     1       1.727 -22.841  14.724  1.00  0.00     0.000 C 
BRANCH   5   6
ATOM      6  C   UNL     1       2.635 -22.223  15.808  1.00  0.00     0.000 C 
BRANCH   6   7
ATOM      7  C   UNL     1       4.010 -22.908  15.894  1.00  0.00     0.000 C 
BRANCH   7   8
ATOM      8  C   UNL     1       5.118 -21.961  16.390  1.00  0.00     0.000 C 
BRANCH   8   9
ATOM      9  C   UNL     1       6.499 -22.642  16.513  1.00  0.00     0.000 C 
BRANCH   9  10
ATOM     10  C   UNL     1       7.647 -21.622  16.513  1.00  0.00     0.000 C 
BRANCH  10  11
ATOM     11  C   UNL     1       8.902 -22.205  15.845  1.00  0.00     0.000 C 
BRANCH  11  12
ATOM     12  C   UNL     1       9.125 -21.662  14.424  1.00  0.00     0.006 C 
BRANCH  12  13
ATOM     13  C   UNL     1       8.055 -20.642  14.010  1.00  0.00     0.053 C 
BRANCH  13  14
ATOM     14  C   UNL     1       7.833 -20.690  12.531  1.00  0.00     0.041 C 
ATOM     15  O   UNL     1       7.039 -21.531  12.035  1.00  0.00    -0.550 OA
ATOM     16  O   UNL     1       8.545 -19.839  11.696  1.00  0.00    -0.550 OA
ENDBRANCH  13  14
ENDBRANCH  12  13
ENDBRANCH  11  12
ENDBRANCH  10  11
ENDBRANCH   9  10
ENDBRANCH   8   9
ENDBRANCH   7   8
ENDBRANCH   6   7
ENDBRANCH   5   6
ENDBRANCH   4   5
ENDBRANCH   3   4
ENDBRANCH   2   3
ENDBRANCH   1   2
BRANCH   1  17
ATOM     17  C   UNL     1      -3.723 -22.370  15.273  1.00  0.00     0.000 C 
BRANCH  17  18
ATOM     18  C   UNL     1      -4.576 -22.815  16.471  1.00  0.00     0.000 C 
BRANCH  18  19
ATOM     19  C   UNL     1      -6.037 -22.340  16.365  1.00  0.00     0.000 C 
BRANCH  19  20
ATOM     20  C   UNL     1      -6.859 -22.701  17.620  1.00  0.00     0.000 C 
BRANCH  20  21
ATOM     21  C   UNL     1      -8.339 -22.290  17.535  1.00  0.00     0.000 C 
BRANCH  21  22
ATOM     22  C   UNL     1      -8.942 -21.937  18.904  1.00  0.00    -0.000 C 
BRANCH  22  23
ATOM     23  C   UNL     1      -8.837 -23.101  19.909  1.00  0.00    -0.000 C 
BRANCH  23  24
ATOM     24  C   UNL     1      -7.777 -22.881  21.005  1.00  0.00    -0.000 C 
BRANCH  24  25
ATOM     25  C   UNL     1      -8.406 -22.498  22.357  1.00  0.00    -0.000 C 
BRANCH  25  26
ATOM     26  C   UNL     1      -9.923 -22.740  22.395  1.00  0.00    -0.000 C 
BRANCH  26  27
ATOM     27  C   UNL     1     -10.679 -21.634  23.149  1.00  0.00    -0.000 C 
BRANCH  27  28
ATOM     28  C   UNL     1     -10.228 -20.224  22.736  1.00  0.00    -0.000 C 
BRANCH  28  29
ATOM     29  C   UNL     1     -10.784 -19.799  21.370  1.00  0.00    -0.003 C 
ATOM     30  C   UNL     1     -10.516 -18.321  21.104  1.00  0.00     0.004 C 
ENDBRANCH  28  29
ENDBRANCH  27  28
ENDBRANCH  26  27
ENDBRANCH  25  26
ENDBRANCH  24  25
ENDBRANCH  23  24
ENDBRANCH  22  23
ENDBRANCH  21  22
ENDBRANCH  20  21
ENDBRANCH  19  20
ENDBRANCH  18  19
ENDBRANCH  17  18
ENDBRANCH   1  17
TORSDOF 26
ENDMDL
MODEL 4
REMARK VINA RESULT:    -1.066      5.394     16.072
REMARK INTER + INTRA:          -4.161
REMARK INTER:                  -2.769
REMARK INTRA:                  -1.391
REMARK UNBOUND:                -1.473
REMARK SMILES CCCCCCCCCCCCCCCCCCCCCCCCCCCC(=O)[O-]
REMARK SMILES IDX 15 1 16 2 17 3 18 4 19 5 20 6 21 7 22 8 23 9 24 10 25 11
REMARK SMILES IDX 26 12 27 13 28 14 29 15 30 16 14 17 13 18 12 19 11 20 10 21
REMARK SMILES IDX 9 22 8 23 7 24 6 25 5 26 4 27 3 28 2 29 1 30
REMARK H PARENT
REMARK Flexibility Score: inf
ROOT
ATOM      1  C   UNL     1      -0.849 -21.545  16.739  1.00  0.00     0.000 C 
ENDROOT
BRANCH   1   2
ATOM      2  C   UNL     1      -1.861 -22.122  15.733  1.00  0.00     0.000 C 
BRANCH   2   3
ATOM      3  C   UNL     1      -3.116 -22.774  16.355  1.00  0.00     0.000 C 
BRANCH   3   4
ATOM      4  C   UNL     1      -4.459 -22.306  15.766  1.00  0.00     0.000 C 
BRANCH   4   5
ATOM      5  C   UNL     1      -5.710 -22.946  16.401  1.00  0.00     0.000 C 
BRANCH   5   6
ATOM      6  C   UNL     1      -6.507 -21.993  17.315  1.00  0.00     0.000 C 
BRANCH   6   7
ATOM      7  C   UNL     1      -7.536 -22.731  18.190  1.00  0.00     0.000 C 
BRANCH   7   8
ATOM      8  C   UNL     1      -8.888 -22.932  17.480  1.00  0.00     0.000 C 
BRANCH   8   9
ATOM      9  C   UNL     1     -10.089 -22.979  18.449  1.00  0.00     0.000 C 
BRANCH   9  10
ATOM     10  C   UNL     1     -10.181 -21.715  19.317  1.00  0.00     0.000 C 
BRANCH  10  11
ATOM     11  C   UNL     1     -11.110 -21.939  20.519  1.00  0.00     0.000 C 
BRANCH  11  12
ATOM     12  C   UNL     1     -10.670 -23.119  21.399  1.00  0.00     0.006 C 
BRANCH  12  13
ATOM     13  C   UNL     1      -9.491 -22.762  22.316  1.00  0.00     0.053 C 
BRANCH  13  14
ATOM     14  C   UNL     1      -9.804 -21.535  23.114  1.00  0.00     0.041 C 
ATOM     15  O   UNL     1      -9.073 -20.514  23.022  1.00  0.00    -0.550 OA
ATOM     16  O   UNL     1     -10.873 -21.540  24.001  1.00  0.00    -0.550 OA
ENDBRANCH  13  14
ENDBRANCH  12  13
ENDBRANCH  11  12
ENDBRANCH  10  11
ENDBRANCH   9  10
ENDBRANCH   8   9
ENDBRANCH   7   8
ENDBRANCH   6   7
ENDBRANCH   5   6
ENDBRANCH   4   5
ENDBRANCH   3   4
ENDBRANCH   2   3
ENDBRANCH   1   2
BRANCH   1  17
ATOM     17  C   UNL     1       0.591 -22.025  16.485  1.00  0.00     0.000 C 
BRANCH  17  18
ATOM     18  C   UNL     1       0.685 -22.953  15.263  1.00  0.00     0.000 C 
BRANCH  18  19
ATOM     19  C   UNL     1       2.131 -23.125  14.762  1.00  0.00     0.000 C 
BRANCH  19  20
ATOM     20  C   UNL     1       3.084 -22.071  15.365  1.00  0.00     0.000 C 
BRANCH  20  21
ATOM     21  C   UNL     1       4.052 -22.637  16.418  1.00  0.00     0.000 C 
BRANCH  21  22
ATOM     22  C   UNL     1       5.464 -22.035  16.319  1.00  0.00    -0.000 C 
BRANCH  22  23
ATOM     23  C   UNL     1       6.451 -22.976  15.601  1.00  0.00    -0.000 C 
BRANCH  23  24
ATOM     24  C   UNL     1       7.850 -23.015  16.246  1.00  0.00    -0.000 C 
BRANCH  24  25
ATOM     25  C   UNL     1       8.881 -22.187  15.456  1.00  0.00    -0.000 C 
BRANCH  25  26
ATOM     26  C   UNL     1       8.283 -20.897  14.872  1.00  0.00    -0.000 C 
BRANCH  26  27
ATOM     27  C   UNL     1       8.635 -20.702  13.388  1.00  0.00    -0.000 C 
BRANCH  27  28
ATOM     28  C   UNL     1       8.045 -21.803  12.492  1.00  0.00    -0.000 C 
BRANCH  28  29
ATOM     29  C   UNL     1       8.919 -22.102  11.266  1.00  0.00    -0.003 C 
ATOM     30  C   UNL     1       8.342 -21.452  10.011  1.00  0.00     0.004 C 
ENDBRANCH  28  29
ENDBRANCH  27  28
ENDBRANCH  26  27
ENDBRANCH  25  26
ENDBRANCH  24  25
ENDBRANCH  23  24
ENDBRANCH  22  23
ENDBRANCH  21  22
ENDBRANCH  20  21
ENDBRANCH  19  20
ENDBRANCH  18  19
ENDBRANCH  17  18
ENDBRANCH   1  17
TORSDOF 26
ENDMDL
MODEL 5
REMARK VINA RESULT:    -1.016      5.433     15.849
REMARK INTER + INTRA:          -4.035
REMARK INTER:                  -2.699
REMARK INTRA:                  -1.336
REMARK UNBOUND:                -1.473
REMARK SMILES CCCCCCCCCCCCCCCCCCCCCCCCCCCC(=O)[O-]
REMARK SMILES IDX 15 1 16 2 17 3 18 4 19 5 20 6 21 7 22 8 23 9 24 10 25 11
REMARK SMILES IDX 26 12 27 13 28 14 29 15 30 16 14 17 13 18 12 19 11 20 10 21
REMARK SMILES IDX 9 22 8 23 7 24 6 25 5 26 4 27 3 28 2 29 1 30
REMARK H PARENT
REMARK Flexibility Score: inf
ROOT
ATOM      1  C   UNL     1      -4.001 -20.888  14.965  1.00  0.00     0.000 C 
ENDROOT
BRANCH   1   2
ATOM      2  C   UNL     1      -4.942 -22.063  15.283  1.00  0.00     0.000 C 
BRANCH   2   3
ATOM      3  C   UNL     1      -6.239 -21.690  16.034  1.00  0.00     0.000 C 
BRANCH   3   4
ATOM      4  C   UNL     1      -6.236 -21.993  17.543  1.00  0.00     0.000 C 
BRANCH   4   5
ATOM      5  C   UNL     1      -7.630 -22.140  18.184  1.00  0.00     0.000 C 
BRANCH   5   6
ATOM      6  C   UNL     1      -8.797 -22.021  17.183  1.00  0.00     0.000 C 
BRANCH   6   7
ATOM      7  C   UNL     1     -10.172 -21.986  17.873  1.00  0.00     0.000 C 
BRANCH   7   8
ATOM      8  C   UNL     1     -10.188 -22.750  19.209  1.00  0.00     0.000 C 
BRANCH   8   9
ATOM      9  C   UNL     1     -10.157 -21.826  20.446  1.00  0.00     0.000 C 
BRANCH   9  10
ATOM     10  C   UNL     1     -11.026 -20.574  20.253  1.00  0.00     0.000 C 
BRANCH  10  11
ATOM     11  C   UNL     1     -10.174 -19.376  19.806  1.00  0.00     0.000 C 
BRANCH  11  12
ATOM     12  C   UNL     1     -10.311 -18.167  20.745  1.00  0.00     0.006 C 
BRANCH  12  13
ATOM     13  C   UNL     1     -10.750 -18.567  22.160  1.00  0.00     0.053 C 
BRANCH  13  14
ATOM     14  C   UNL     1      -9.789 -18.033  23.176  1.00  0.00     0.041 C 
ATOM     15  O   UNL     1      -8.570 -18.340  23.119  1.00  0.00    -0.550 OA
ATOM     16  O   UNL     1     -10.253 -17.239  24.217  1.00  0.00    -0.550 OA
ENDBRANCH  13  14
ENDBRANCH  12  13
ENDBRANCH  11  12
ENDBRANCH  10  11
ENDBRANCH   9  10
ENDBRANCH   8   9
ENDBRANCH   7   8
ENDBRANCH   6   7
ENDBRANCH   5   6
ENDBRANCH   4   5
ENDBRANCH   3   4
ENDBRANCH   2   3
ENDBRANCH   1   2
BRANCH   1  17
ATOM     17  C   UNL     1      -2.516 -21.238  15.161  1.00  0.00     0.000 C 
BRANCH  17  18
ATOM     18  C   UNL     1      -2.323 -22.449  16.088  1.00  0.00     0.000 C 
BRANCH  18  19
ATOM     19  C   UNL     1      -0.924 -23.076  15.956  1.00  0.00     0.000 C 
BRANCH  19  20
ATOM     20  C   UNL     1       0.194 -22.012  15.957  1.00  0.00     0.000 C 
BRANCH  20  21
ATOM     21  C   UNL     1       1.607 -22.592  15.773  1.00  0.00     0.000 C 
BRANCH  21  22
ATOM     22  C   UNL     1       2.084 -22.557  14.312  1.00  0.00    -0.000 C 
BRANCH  22  23
ATOM     23  C   UNL     1       3.507 -23.124  14.146  1.00  0.00    -0.000 C 
BRANCH  23  24
ATOM     24  C   UNL     1       4.477 -22.701  15.265  1.00  0.00    -0.000 C 
BRANCH  24  25
ATOM     25  C   UNL     1       5.946 -22.997  14.908  1.00  0.00    -0.000 C 
BRANCH  25  26
ATOM     26  C   UNL     1       6.922 -21.988  15.533  1.00  0.00    -0.000 C 
BRANCH  26  27
ATOM     27  C   UNL     1       8.118 -21.678  14.617  1.00  0.00    -0.000 C 
BRANCH  27  28
ATOM     28  C   UNL     1       8.148 -22.569  13.365  1.00  0.00    -0.000 C 
BRANCH  28  29
ATOM     29  C   UNL     1       8.799 -21.877  12.159  1.00  0.00    -0.003 C 
ATOM     30  C   UNL     1       7.832 -20.894  11.505  1.00  0.00     0.004 C 
ENDBRANCH  28  29
ENDBRANCH  27  28
ENDBRANCH  26  27
ENDBRANCH  25  26
ENDBRANCH  24  25
ENDBRANCH  23  24
ENDBRANCH  22  23
ENDBRANCH  21  22
ENDBRANCH  20  21
ENDBRANCH  19  20
ENDBRANCH  18  19
ENDBRANCH  17  18
ENDBRANCH   1  17
TORSDOF 26
ENDMDL
MODEL 6
REMARK VINA RESULT:    -0.945      5.384     15.811
REMARK INTER + INTRA:          -3.856
REMARK INTER:                  -2.448
REMARK INTRA:                  -1.408
REMARK UNBOUND:                -1.473
REMARK SMILES CCCCCCCCCCCCCCCCCCCCCCCCCCCC(=O)[O-]
REMARK SMILES IDX 15 1 16 2 17 3 18 4 19 5 20 6 21 7 22 8 23 9 24 10 25 11
REMARK SMILES IDX 26 12 27 13 28 14 29 15 30 16 14 17 13 18 12 19 11 20 10 21
REMARK SMILES IDX 9 22 8 23 7 24 6 25 5 26 4 27 3 28 2 29 1 30
REMARK H PARENT
REMARK Flexibility Score: inf
ROOT
ATOM      1  C   UNL     1      -3.200 -22.251  15.399  1.00  0.00     0.000 C 
ENDROOT
BRANCH   1   2
ATOM      2  C   UNL     1      -3.641 -22.329  16.871  1.00  0.00     0.000 C 
BRANCH   2   3
ATOM      3  C   UNL     1      -4.969 -23.075  17.127  1.00  0.00     0.000 C 
BRANCH   3   4
ATOM      4  C   UNL     1      -6.172 -22.577  16.307  1.00  0.00     0.000 C 
BRANCH   4   5
ATOM      5  C   UNL     1      -7.543 -22.740  16.991  1.00  0.00     0.000 C 
BRANCH   5   6
ATOM      6  C   UNL     1      -8.316 -21.417  17.171  1.00  0.00     0.000 C 
BRANCH   6   7
ATOM      7  C   UNL     1      -9.595 -21.354  16.318  1.00  0.00     0.000 C 
BRANCH   7   8
ATOM      8  C   UNL     1     -10.853 -21.784  17.095  1.00  0.00     0.000 C 
BRANCH   8   9
ATOM      9  C   UNL     1     -10.682 -23.120  17.850  1.00  0.00     0.000 C 
BRANCH   9  10
ATOM     10  C   UNL     1     -11.110 -23.012  19.321  1.00  0.00     0.000 C 
BRANCH  10  11
ATOM     11  C   UNL     1     -10.802 -21.616  19.883  1.00  0.00     0.000 C 
BRANCH  11  12
ATOM     12  C   UNL     1      -9.964 -21.666  21.170  1.00  0.00     0.006 C 
BRANCH  12  13
ATOM     13  C   UNL     1     -10.706 -22.343  22.330  1.00  0.00     0.053 C 
BRANCH  13  14
ATOM     14  C   UNL     1      -9.809 -22.472  23.522  1.00  0.00     0.041 C 
ATOM     15  O   UNL     1     -10.253 -22.936  24.604  1.00  0.00    -0.550 OA
ATOM     16  O   UNL     1      -8.495 -22.028  23.450  1.00  0.00    -0.550 OA
ENDBRANCH  13  14
ENDBRANCH  12  13
ENDBRANCH  11  12
ENDBRANCH  10  11
ENDBRANCH   9  10
ENDBRANCH   8   9
ENDBRANCH   7   8
ENDBRANCH   6   7
ENDBRANCH   5   6
ENDBRANCH   4   5
ENDBRANCH   3   4
ENDBRANCH   2   3
ENDBRANCH   1   2
BRANCH   1  17
ATOM     17  C   UNL     1      -1.815 -22.875  15.153  1.00  0.00     0.000 C 
BRANCH  17  18
ATOM     18  C   UNL     1      -0.691 -22.080  15.836  1.00  0.00     0.000 C 
BRANCH  18  19
ATOM     19  C   UNL     1       0.565 -22.932  16.089  1.00  0.00     0.000 C 
BRANCH  19  20
ATOM     20  C   UNL     1       1.847 -22.247  15.569  1.00  0.00     0.000 C 
BRANCH  20  21
ATOM     21  C   UNL     1       2.489 -22.957  14.366  1.00  0.00     0.000 C 
BRANCH  21  22
ATOM     22  C   UNL     1       4.013 -23.107  14.502  1.00  0.00    -0.000 C 
BRANCH  22  23
ATOM     23  C   UNL     1       4.740 -22.944  13.153  1.00  0.00    -0.000 C 
BRANCH  23  24
ATOM     24  C   UNL     1       5.901 -21.932  13.193  1.00  0.00    -0.000 C 
BRANCH  24  25
ATOM     25  C   UNL     1       7.103 -22.387  12.343  1.00  0.00    -0.000 C 
BRANCH  25  26
ATOM     26  C   UNL     1       8.445 -22.201  13.067  1.00  0.00    -0.000 C 
BRANCH  26  27
ATOM     27  C   UNL     1       8.499 -22.944  14.413  1.00  0.00    -0.000 C 
BRANCH  27  28
ATOM     28  C   UNL     1       8.343 -21.999  15.615  1.00  0.00    -0.000 C 
BRANCH  28  29
ATOM     29  C   UNL     1       7.498 -22.608  16.742  1.00  0.00    -0.003 C 
ATOM     30  C   UNL     1       6.706 -21.529  17.477  1.00  0.00     0.004 C 
ENDBRANCH  28  29
ENDBRANCH  27  28
ENDBRANCH  26  27
ENDBRANCH  25  26
ENDBRANCH  24  25
ENDBRANCH  23  24
ENDBRANCH  22  23
ENDBRANCH  21  22
ENDBRANCH  20  21
ENDBRANCH  19  20
ENDBRANCH  18  19
ENDBRANCH  17  18
ENDBRANCH   1  17
TORSDOF 26
ENDMDL
