MODEL 1
REMARK VINA RESULT:    -4.741      0.000      0.000
REMARK INTER + INTRA:          -8.095
REMARK INTER:                  -6.819
REMARK INTRA:                  -1.276
REMARK UNBOUND:                -1.276
REMARK SMILES CC(C)=CCCC(C)=CCCC(C)=CCO
REMARK SMILES IDX 10 1 9 2 7 3 8 4 6 5 5 6 4 7 1 8 2 9 3 10 11 11 12 12 14 13
REMARK SMILES IDX 13 14 15 15 16 16
REMARK H PARENT 16 17
REMARK Flexibility Score: inf
ROOT
ATOM      1  C   UNL     1      30.300  22.363  33.414  1.00  0.00     0.032 C 
ENDROOT
BRANCH   1   2
ATOM      2  C   UNL     1      30.147  21.076  32.642  1.00  0.00    -0.028 C 
ATOM      3  C   UNL     1      30.744  19.909  32.975  1.00  0.00    -0.077 C 
ATOM      4  C   UNL     1      31.707  19.806  34.134  1.00  0.00     0.039 C 
BRANCH   3   5
ATOM      5  C   UNL     1      30.502  18.682  32.121  1.00  0.00     0.034 C 
BRANCH   5   6
ATOM      6  C   UNL     1      29.322  17.849  32.642  1.00  0.00     0.032 C 
BRANCH   6   7
ATOM      7  C   UNL     1      28.295  17.588  31.566  1.00  0.00    -0.028 C 
ATOM      8  C   UNL     1      26.240  17.932  30.265  1.00  0.00     0.039 C 
ATOM      9  C   UNL     1      27.145  18.281  31.418  1.00  0.00    -0.080 C 
ATOM     10  C   UNL     1      26.737  19.373  32.379  1.00  0.00     0.039 C 
ENDBRANCH   6   7
ENDBRANCH   5   6
ENDBRANCH   3   5
ENDBRANCH   1   2
BRANCH   1  11
ATOM     11  C   UNL     1      31.175  23.358  32.643  1.00  0.00     0.034 C 
BRANCH  11  12
ATOM     12  C   UNL     1      32.569  23.411  33.236  1.00  0.00    -0.075 C 
ATOM     13  C   UNL     1      33.612  22.719  32.721  1.00  0.00    -0.000 C 
ATOM     14  C   UNL     1      32.788  24.211  34.493  1.00  0.00     0.039 C 
BRANCH  13  15
ATOM     15  C   UNL     1      33.539  21.866  31.485  1.00  0.00     0.183 C 
BRANCH  15  16
ATOM     16  O   UNL     1      34.494  22.295  30.556  1.00  0.00    -0.392 OA
ATOM     17  H   UNL     1      35.116  22.886  31.053  1.00  0.00     0.210 HD
ENDBRANCH  15  16
ENDBRANCH  13  15
ENDBRANCH  11  12
ENDBRANCH   1  11
TORSDOF 8
ENDMDL
MODEL 2
REMARK VINA RESULT:    -4.738      2.210      3.025
REMARK INTER + INTRA:          -8.091
REMARK INTER:                  -7.372
REMARK INTRA:                  -0.719
REMARK UNBOUND:                -1.276
REMARK SMILES CC(C)=CCCC(C)=CCCC(C)=CCO
REMARK SMILES IDX 10 1 9 2 7 3 8 4 6 5 5 6 4 7 1 8 2 9 3 10 11 11 12 12 14 13
REMARK SMILES IDX 13 14 15 15 16 16
REMARK H PARENT 16 17
REMARK Flexibility Score: inf
ROOT
ATOM      1  C   UNL     1      33.287  22.872  31.818  1.00  0.00     0.032 C 
ENDROOT
BRANCH   1   2
ATOM      2  C   UNL     1      32.728  21.499  32.098  1.00  0.00    -0.028 C 
ATOM      3  C   UNL     1      31.477  21.261  32.553  1.00  0.00    -0.077 C 
ATOM      4  C   UNL     1      30.529  22.381  32.907  1.00  0.00     0.039 C 
BRANCH   3   5
ATOM      5  C   UNL     1      31.033  19.832  32.787  1.00  0.00     0.034 C 
BRANCH   5   6
ATOM      6  C   UNL     1      29.616  19.765  33.375  1.00  0.00     0.032 C 
BRANCH   6   7
ATOM      7  C   UNL     1      28.695  18.911  32.537  1.00  0.00    -0.028 C 
ATOM      8  C   UNL     1      26.643  18.302  31.332  1.00  0.00     0.039 C 
ATOM      9  C   UNL     1      27.423  19.238  32.218  1.00  0.00    -0.080 C 
ATOM     10  C   UNL     1      26.764  20.495  32.736  1.00  0.00     0.039 C 
ENDBRANCH   6   7
ENDBRANCH   5   6
ENDBRANCH   3   5
ENDBRANCH   1   2
BRANCH   1  11
ATOM     11  C   UNL     1      34.286  22.824  30.656  1.00  0.00     0.034 C 
BRANCH  11  12
ATOM     12  C   UNL     1      34.069  23.996  29.719  1.00  0.00    -0.075 C 
ATOM     13  C   UNL     1      34.987  24.384  28.805  1.00  0.00    -0.000 C 
ATOM     14  C   UNL     1      32.807  24.807  29.859  1.00  0.00     0.039 C 
BRANCH  13  15
ATOM     15  C   UNL     1      36.296  23.684  28.565  1.00  0.00     0.183 C 
BRANCH  15  16
ATOM     16  O   UNL     1      36.134  22.697  27.587  1.00  0.00    -0.392 OA
ATOM     17  H   UNL     1      36.988  22.663  27.085  1.00  0.00     0.210 HD
ENDBRANCH  15  16
ENDBRANCH  13  15
ENDBRANCH  11  12
ENDBRANCH   1  11
TORSDOF 8
ENDMDL
MODEL 3
REMARK VINA RESULT:    -4.734      2.576      4.923
REMARK INTER + INTRA:          -8.086
REMARK INTER:                  -6.358
REMARK INTRA:                  -1.728
REMARK UNBOUND:                -1.276
REMARK SMILES CC(C)=CCCC(C)=CCCC(C)=CCO
REMARK SMILES IDX 10 1 9 2 7 3 8 4 6 5 5 6 4 7 1 8 2 9 3 10 11 11 12 12 14 13
REMARK SMILES IDX 13 14 15 15 16 16
REMARK H PARENT 16 17
REMARK Flexibility Score: inf
ROOT
ATOM      1  C   UNL     1      31.301  20.059  32.845  1.00  0.00     0.032 C 
ENDROOT
BRANCH   1   2
ATOM      2  C   UNL     1      30.187  21.058  32.649  1.00  0.00    -0.028 C 
ATOM      3  C   UNL     1      29.446  21.583  33.652  1.00  0.00    -0.077 C 
ATOM      4  C   UNL     1      29.617  21.144  35.087  1.00  0.00     0.039 C 
BRANCH   3   5
ATOM      5  C   UNL     1      28.360  22.586  33.323  1.00  0.00     0.034 C 
BRANCH   5   6
ATOM      6  C   UNL     1      28.946  23.932  32.873  1.00  0.00     0.032 C 
BRANCH   6   7
ATOM      7  C   UNL     1      30.093  24.372  33.752  1.00  0.00    -0.028 C 
ATOM      8  C   UNL     1      32.188  25.511  34.339  1.00  0.00     0.039 C 
ATOM      9  C   UNL     1      31.144  25.110  33.331  1.00  0.00    -0.080 C 
ATOM     10  C   UNL     1      31.307  25.521  31.886  1.00  0.00     0.039 C 
ENDBRANCH   6   7
ENDBRANCH   5   6
ENDBRANCH   3   5
ENDBRANCH   1   2
BRANCH   1  11
ATOM     11  C   UNL     1      32.586  20.539  32.162  1.00  0.00     0.034 C 
BRANCH  11  12
ATOM     12  C   UNL     1      33.151  21.749  32.878  1.00  0.00    -0.075 C 
ATOM     13  C   UNL     1      33.734  22.782  32.227  1.00  0.00    -0.000 C 
ATOM     14  C   UNL     1      33.126  21.772  34.384  1.00  0.00     0.039 C 
BRANCH  13  15
ATOM     15  C   UNL     1      33.848  22.888  30.732  1.00  0.00     0.183 C 
BRANCH  15  16
ATOM     16  O   UNL     1      35.151  22.574  30.332  1.00  0.00    -0.392 OA
ATOM     17  H   UNL     1      35.670  23.417  30.398  1.00  0.00     0.210 HD
ENDBRANCH  15  16
ENDBRANCH  13  15
ENDBRANCH  11  12
ENDBRANCH   1  11
TORSDOF 8
ENDMDL
MODEL 4
REMARK VINA RESULT:    -4.710      1.954      2.755
REMARK INTER + INTRA:          -8.051
REMARK INTER:                  -7.143
REMARK INTRA:                  -0.907
REMARK UNBOUND:                -1.276
REMARK SMILES CC(C)=CCCC(C)=CCCC(C)=CCO
REMARK SMILES IDX 10 1 9 2 7 3 8 4 6 5 5 6 4 7 1 8 2 9 3 10 11 11 12 12 14 13
REMARK SMILES IDX 13 14 15 15 16 16
REMARK H PARENT 16 17
REMARK Flexibility Score: inf
ROOT
ATOM      1  C   UNL     1      32.081  23.157  32.872  1.00  0.00     0.032 C 
ENDROOT
BRANCH   1   2
ATOM      2  C   UNL     1      30.608  22.869  33.019  1.00  0.00    -0.028 C 
ATOM      3  C   UNL     1      30.058  21.635  32.939  1.00  0.00    -0.077 C 
ATOM      4  C   UNL     1      30.881  20.413  32.608  1.00  0.00     0.039 C 
BRANCH   3   5
ATOM      5  C   UNL     1      28.562  21.479  33.114  1.00  0.00     0.034 C 
BRANCH   5   6
ATOM      6  C   UNL     1      28.169  20.018  33.376  1.00  0.00     0.032 C 
BRANCH   6   7
ATOM      7  C   UNL     1      27.207  19.495  32.335  1.00  0.00    -0.028 C 
ATOM      8  C   UNL     1      26.319  17.951  30.645  1.00  0.00     0.039 C 
ATOM      9  C   UNL     1      27.394  18.368  31.615  1.00  0.00    -0.080 C 
ATOM     10  C   UNL     1      28.647  17.534  31.741  1.00  0.00     0.039 C 
ENDBRANCH   6   7
ENDBRANCH   5   6
ENDBRANCH   3   5
ENDBRANCH   1   2
BRANCH   1  11
ATOM     11  C   UNL     1      32.336  24.092  31.685  1.00  0.00     0.034 C 
BRANCH  11  12
ATOM     12  C   UNL     1      33.417  23.528  30.784  1.00  0.00    -0.075 C 
ATOM     13  C   UNL     1      33.719  24.061  29.578  1.00  0.00    -0.000 C 
ATOM     14  C   UNL     1      34.137  22.278  31.218  1.00  0.00     0.039 C 
BRANCH  13  15
ATOM     15  C   UNL     1      33.073  25.293  29.007  1.00  0.00     0.183 C 
BRANCH  15  16
ATOM     16  O   UNL     1      32.496  24.994  27.768  1.00  0.00    -0.392 OA
ATOM     17  H   UNL     1      33.115  24.361  27.321  1.00  0.00     0.210 HD
ENDBRANCH  15  16
ENDBRANCH  13  15
ENDBRANCH  11  12
ENDBRANCH   1  11
TORSDOF 8
ENDMDL
MODEL 5
REMARK VINA RESULT:    -4.675      3.378      7.180
REMARK INTER + INTRA:          -8.001
REMARK INTER:                  -7.013
REMARK INTRA:                  -0.988
REMARK UNBOUND:                -1.276
REMARK SMILES CC(C)=CCCC(C)=CCCC(C)=CCO
REMARK SMILES IDX 10 1 9 2 7 3 8 4 6 5 5 6 4 7 1 8 2 9 3 10 11 11 12 12 14 13
REMARK SMILES IDX 13 14 15 15 16 16
REMARK H PARENT 16 17
REMARK Flexibility Score: inf
ROOT
ATOM      1  C   UNL     1      32.798  23.025  32.590  1.00  0.00     0.032 C 
ENDROOT
BRANCH   1   2
ATOM      2  C   UNL     1      32.689  23.890  31.359  1.00  0.00    -0.028 C 
ATOM      3  C   UNL     1      31.949  25.020  31.281  1.00  0.00    -0.077 C 
ATOM      4  C   UNL     1      31.079  25.486  32.424  1.00  0.00     0.039 C 
BRANCH   3   5
ATOM      5  C   UNL     1      31.931  25.805  29.986  1.00  0.00     0.034 C 
BRANCH   5   6
ATOM      6  C   UNL     1      32.690  25.077  28.868  1.00  0.00     0.032 C 
BRANCH   6   7
ATOM      7  C   UNL     1      33.959  25.799  28.481  1.00  0.00    -0.028 C 
ATOM      8  C   UNL     1      36.358  26.087  28.046  1.00  0.00     0.039 C 
ATOM      9  C   UNL     1      35.193  25.251  28.507  1.00  0.00    -0.080 C 
ATOM     10  C   UNL     1      35.436  23.844  29.001  1.00  0.00     0.039 C 
ENDBRANCH   6   7
ENDBRANCH   5   6
ENDBRANCH   3   5
ENDBRANCH   1   2
BRANCH   1  11
ATOM     11  C   UNL     1      32.687  21.541  32.223  1.00  0.00     0.034 C 
BRANCH  11  12
ATOM     12  C   UNL     1      31.341  20.987  32.645  1.00  0.00    -0.075 C 
ATOM     13  C   UNL     1      31.025  19.675  32.551  1.00  0.00    -0.000 C 
ATOM     14  C   UNL     1      30.283  21.948  33.122  1.00  0.00     0.039 C 
BRANCH  13  15
ATOM     15  C   UNL     1      31.970  18.605  32.076  1.00  0.00     0.183 C 
BRANCH  15  16
ATOM     16  O   UNL     1      31.276  17.671  31.300  1.00  0.00    -0.392 OA
ATOM     17  H   UNL     1      30.595  18.184  30.793  1.00  0.00     0.210 HD
ENDBRANCH  15  16
ENDBRANCH  13  15
ENDBRANCH  11  12
ENDBRANCH   1  11
TORSDOF 8
ENDMDL
MODEL 6
REMARK VINA RESULT:    -4.660      4.370      7.175
REMARK INTER + INTRA:          -7.978
REMARK INTER:                  -7.380
REMARK INTRA:                  -0.599
REMARK UNBOUND:                -1.276
REMARK SMILES CC(C)=CCCC(C)=CCCC(C)=CCO
REMARK SMILES IDX 10 1 9 2 7 3 8 4 6 5 5 6 4 7 1 8 2 9 3 10 11 11 12 12 14 13
REMARK SMILES IDX 13 14 15 15 16 16
REMARK H PARENT 16 17
REMARK Flexibility Score: inf
ROOT
ATOM      1  C   UNL     1      33.874  22.359  31.197  1.00  0.00     0.032 C 
ENDROOT
BRANCH   1   2
ATOM      2  C   UNL     1      33.573  23.600  30.395  1.00  0.00    -0.028 C 
ATOM      3  C   UNL     1      34.348  24.070  29.391  1.00  0.00    -0.077 C 
ATOM      4  C   UNL     1      35.663  23.422  29.027  1.00  0.00     0.039 C 
BRANCH   3   5
ATOM      5  C   UNL     1      33.929  25.326  28.656  1.00  0.00     0.034 C 
BRANCH   5   6
ATOM      6  C   UNL     1      32.403  25.496  28.646  1.00  0.00     0.032 C 
BRANCH   6   7
ATOM      7  C   UNL     1      31.950  26.603  29.568  1.00  0.00    -0.028 C 
ATOM      8  C   UNL     1      31.406  28.897  30.255  1.00  0.00     0.039 C 
ATOM      9  C   UNL     1      31.930  27.914  29.241  1.00  0.00    -0.080 C 
ATOM     10  C   UNL     1      32.431  28.416  27.908  1.00  0.00     0.039 C 
ENDBRANCH   6   7
ENDBRANCH   5   6
ENDBRANCH   3   5
ENDBRANCH   1   2
BRANCH   1  11
ATOM     11  C   UNL     1      32.830  22.158  32.301  1.00  0.00     0.034 C 
BRANCH  11  12
ATOM     12  C   UNL     1      33.248  22.878  33.567  1.00  0.00    -0.075 C 
ATOM     13  C   UNL     1      34.095  22.337  34.474  1.00  0.00    -0.000 C 
ATOM     14  C   UNL     1      32.641  24.224  33.866  1.00  0.00     0.039 C 
BRANCH  13  15
ATOM     15  C   UNL     1      34.762  20.998  34.320  1.00  0.00     0.183 C 
BRANCH  15  16
ATOM     16  O   UNL     1      36.010  21.158  33.707  1.00  0.00    -0.392 OA
ATOM     17  H   UNL     1      36.155  20.345  33.159  1.00  0.00     0.210 HD
ENDBRANCH  15  16
ENDBRANCH  13  15
ENDBRANCH  11  12
ENDBRANCH   1  11
TORSDOF 8
ENDMDL
MODEL 7
REMARK VINA RESULT:    -4.603      3.565      6.428
REMARK INTER + INTRA:          -7.897
REMARK INTER:                  -6.543
REMARK INTRA:                  -1.354
REMARK UNBOUND:                -1.276
REMARK SMILES CC(C)=CCCC(C)=CCCC(C)=CCO
REMARK SMILES IDX 10 1 9 2 7 3 8 4 6 5 5 6 4 7 1 8 2 9 3 10 11 11 12 12 14 13
REMARK SMILES IDX 13 14 15 15 16 16
REMARK H PARENT 16 17
REMARK Flexibility Score: inf
ROOT
ATOM      1  C   UNL     1      32.092  20.938  32.689  1.00  0.00     0.032 C 
ENDROOT
BRANCH   1   2
ATOM      2  C   UNL     1      33.220  21.426  31.815  1.00  0.00    -0.028 C 
ATOM      3  C   UNL     1      33.430  22.723  31.489  1.00  0.00    -0.077 C 
ATOM      4  C   UNL     1      32.481  23.817  31.917  1.00  0.00     0.039 C 
BRANCH   3   5
ATOM      5  C   UNL     1      34.607  23.084  30.609  1.00  0.00     0.034 C 
BRANCH   5   6
ATOM      6  C   UNL     1      34.159  23.496  29.199  1.00  0.00     0.032 C 
BRANCH   6   7
ATOM      7  C   UNL     1      34.474  24.943  28.905  1.00  0.00    -0.028 C 
ATOM      8  C   UNL     1      34.017  27.309  28.427  1.00  0.00     0.039 C 
ATOM      9  C   UNL     1      33.548  25.896  28.658  1.00  0.00    -0.080 C 
ATOM     10  C   UNL     1      32.072  25.581  28.589  1.00  0.00     0.039 C 
ENDBRANCH   6   7
ENDBRANCH   5   6
ENDBRANCH   3   5
ENDBRANCH   1   2
BRANCH   1  11
ATOM     11  C   UNL     1      32.628  20.427  34.031  1.00  0.00     0.034 C 
BRANCH  11  12
ATOM     12  C   UNL     1      33.115  21.581  34.884  1.00  0.00    -0.075 C 
ATOM     13  C   UNL     1      34.404  21.712  35.276  1.00  0.00    -0.000 C 
ATOM     14  C   UNL     1      32.109  22.588  35.378  1.00  0.00     0.039 C 
BRANCH  13  15
ATOM     15  C   UNL     1      35.512  20.776  34.877  1.00  0.00     0.183 C 
BRANCH  15  16
ATOM     16  O   UNL     1      36.129  21.242  33.711  1.00  0.00    -0.392 OA
ATOM     17  H   UNL     1      35.855  22.190  33.613  1.00  0.00     0.210 HD
ENDBRANCH  15  16
ENDBRANCH  13  15
ENDBRANCH  11  12
ENDBRANCH   1  11
TORSDOF 8
ENDMDL
MODEL 8
REMARK VINA RESULT:    -4.580      3.286      5.218
REMARK INTER + INTRA:          -7.863
REMARK INTER:                  -6.149
REMARK INTRA:                  -1.715
REMARK UNBOUND:                -1.276
REMARK SMILES CC(C)=CCCC(C)=CCCC(C)=CCO
REMARK SMILES IDX 10 1 9 2 7 3 8 4 6 5 5 6 4 7 1 8 2 9 3 10 11 11 12 12 14 13
REMARK SMILES IDX 13 14 15 15 16 16
REMARK H PARENT 16 17
REMARK Flexibility Score: inf
ROOT
ATOM      1  C   UNL     1      31.868  21.414  32.729  1.00  0.00     0.032 C 
ENDROOT
BRANCH   1   2
ATOM      2  C   UNL     1      30.541  22.131  32.715  1.00  0.00    -0.028 C 
ATOM      3  C   UNL     1      29.750  22.298  33.800  1.00  0.00    -0.077 C 
ATOM      4  C   UNL     1      30.097  21.697  35.141  1.00  0.00     0.039 C 
BRANCH   3   5
ATOM      5  C   UNL     1      28.442  23.046  33.655  1.00  0.00     0.034 C 
BRANCH   5   6
ATOM      6  C   UNL     1      28.572  24.241  32.700  1.00  0.00     0.032 C 
BRANCH   6   7
ATOM      7  C   UNL     1      29.285  25.406  33.343  1.00  0.00    -0.028 C 
ATOM      8  C   UNL     1      30.938  27.209  33.561  1.00  0.00     0.039 C 
ATOM      9  C   UNL     1      30.365  26.028  32.822  1.00  0.00    -0.080 C 
ATOM     10  C   UNL     1      31.019  25.563  31.542  1.00  0.00     0.039 C 
ENDBRANCH   6   7
ENDBRANCH   5   6
ENDBRANCH   3   5
ENDBRANCH   1   2
BRANCH   1  11
ATOM     11  C   UNL     1      33.024  22.411  32.586  1.00  0.00     0.034 C 
BRANCH  11  12
ATOM     12  C   UNL     1      33.481  22.895  33.947  1.00  0.00    -0.075 C 
ATOM     13  C   UNL     1      34.335  22.194  34.728  1.00  0.00    -0.000 C 
ATOM     14  C   UNL     1      32.905  24.179  34.486  1.00  0.00     0.039 C 
BRANCH  13  15
ATOM     15  C   UNL     1      34.973  20.891  34.331  1.00  0.00     0.183 C 
BRANCH  15  16
ATOM     16  O   UNL     1      36.120  21.139  33.568  1.00  0.00    -0.392 OA
ATOM     17  H   UNL     1      36.387  22.073  33.766  1.00  0.00     0.210 HD
ENDBRANCH  15  16
ENDBRANCH  13  15
ENDBRANCH  11  12
ENDBRANCH   1  11
TORSDOF 8
ENDMDL
MODEL 9
REMARK VINA RESULT:    -4.569      3.349      4.992
REMARK INTER + INTRA:          -7.848
REMARK INTER:                  -7.071
REMARK INTRA:                  -0.777
REMARK UNBOUND:                -1.276
REMARK SMILES CC(C)=CCCC(C)=CCCC(C)=CCO
REMARK SMILES IDX 10 1 9 2 7 3 8 4 6 5 5 6 4 7 1 8 2 9 3 10 11 11 12 12 14 13
REMARK SMILES IDX 13 14 15 15 16 16
REMARK H PARENT 16 17
REMARK Flexibility Score: inf
ROOT
ATOM      1  C   UNL     1      33.890  23.439  29.940  1.00  0.00     0.032 C 
ENDROOT
BRANCH   1   2
ATOM      2  C   UNL     1      33.937  22.415  31.046  1.00  0.00    -0.028 C 
ATOM      3  C   UNL     1      33.300  22.541  32.233  1.00  0.00    -0.077 C 
ATOM      4  C   UNL     1      32.530  23.788  32.598  1.00  0.00     0.039 C 
BRANCH   3   5
ATOM      5  C   UNL     1      33.420  21.435  33.260  1.00  0.00     0.034 C 
BRANCH   5   6
ATOM      6  C   UNL     1      32.695  20.159  32.809  1.00  0.00     0.032 C 
BRANCH   6   7
ATOM      7  C   UNL     1      31.245  20.419  32.478  1.00  0.00    -0.028 C 
ATOM      8  C   UNL     1      28.847  20.743  32.902  1.00  0.00     0.039 C 
ATOM      9  C   UNL     1      30.239  20.419  33.380  1.00  0.00    -0.080 C 
ATOM     10  C   UNL     1      30.468  20.088  34.836  1.00  0.00     0.039 C 
ENDBRANCH   6   7
ENDBRANCH   5   6
ENDBRANCH   3   5
ENDBRANCH   1   2
BRANCH   1  11
ATOM     11  C   UNL     1      35.293  23.701  29.382  1.00  0.00     0.034 C 
BRANCH  11  12
ATOM     12  C   UNL     1      35.321  24.996  28.595  1.00  0.00    -0.075 C 
ATOM     13  C   UNL     1      36.444  25.479  28.015  1.00  0.00    -0.000 C 
ATOM     14  C   UNL     1      34.061  25.818  28.516  1.00  0.00     0.039 C 
BRANCH  13  15
ATOM     15  C   UNL     1      37.775  24.780  28.028  1.00  0.00     0.183 C 
BRANCH  15  16
ATOM     16  O   UNL     1      38.766  25.656  28.483  1.00  0.00    -0.392 OA
ATOM     17  H   UNL     1      38.528  26.551  28.129  1.00  0.00     0.210 HD
ENDBRANCH  15  16
ENDBRANCH  13  15
ENDBRANCH  11  12
ENDBRANCH   1  11
TORSDOF 8
ENDMDL
