MODEL 1
REMARK VINA RESULT:    -3.615      0.000      0.000
REMARK INTER + INTRA:          -4.330
REMARK INTER:                  -4.249
REMARK INTRA:                  -0.081
REMARK UNBOUND:                -0.081
REMARK SMILES O=C([O-])CCC(=O)[O-]
REMARK SMILES IDX 4 1 2 2 1 3 3 4 5 5 6 6 7 7 8 8
REMARK H PARENT
REMARK Flexibility Score: inf
ROOT
ATOM      1  C   UNL     1     -12.857   9.132   6.882  1.00  0.00     0.059 C 
ENDROOT
BRANCH   1   2
ATOM      2  C   UNL     1     -13.813   8.132   7.456  1.00  0.00     0.042 C 
ATOM      3  O   UNL     1     -14.424   8.381   8.529  1.00  0.00    -0.550 OA
ATOM      4  O   UNL     1     -13.998   6.907   6.828  1.00  0.00    -0.550 OA
ENDBRANCH   1   2
BRANCH   1   5
ATOM      5  C   UNL     1     -12.412  10.155   7.931  1.00  0.00     0.059 C 
BRANCH   5   6
ATOM      6  C   UNL     1     -12.978  11.513   7.651  1.00  0.00     0.042 C 
ATOM      7  O   UNL     1     -13.189  11.880   6.465  1.00  0.00    -0.550 OA
ATOM      8  O   UNL     1     -13.236  12.389   8.698  1.00  0.00    -0.550 OA
ENDBRANCH   5   6
ENDBRANCH   1   5
TORSDOF 3
ENDMDL
MODEL 2
REMARK VINA RESULT:    -3.605      1.480      2.059
REMARK INTER + INTRA:          -4.318
REMARK INTER:                  -4.267
REMARK INTRA:                  -0.051
REMARK UNBOUND:                -0.081
REMARK SMILES O=C([O-])CCC(=O)[O-]
REMARK SMILES IDX 4 1 2 2 1 3 3 4 5 5 6 6 7 7 8 8
REMARK H PARENT
REMARK Flexibility Score: inf
ROOT
ATOM      1  C   UNL     1     -12.567   9.832   7.886  1.00  0.00     0.059 C 
ENDROOT
BRANCH   1   2
ATOM      2  C   UNL     1     -13.055   9.136   6.653  1.00  0.00     0.042 C 
ATOM      3  O   UNL     1     -12.814   9.617   5.515  1.00  0.00    -0.550 OA
ATOM      4  O   UNL     1     -13.813   7.976   6.763  1.00  0.00    -0.550 OA
ENDBRANCH   1   2
BRANCH   1   5
ATOM      5  C   UNL     1     -11.739  11.074   7.542  1.00  0.00     0.059 C 
BRANCH   5   6
ATOM      6  C   UNL     1     -11.936  12.164   8.550  1.00  0.00     0.042 C 
ATOM      7  O   UNL     1     -13.087  12.629   8.766  1.00  0.00    -0.550 OA
ATOM      8  O   UNL     1     -10.844  12.695   9.224  1.00  0.00    -0.550 OA
ENDBRANCH   5   6
ENDBRANCH   1   5
TORSDOF 3
ENDMDL
MODEL 3
REMARK VINA RESULT:    -3.579      1.446      4.043
REMARK INTER + INTRA:          -4.287
REMARK INTER:                  -4.225
REMARK INTRA:                  -0.062
REMARK UNBOUND:                -0.081
REMARK SMILES O=C([O-])CCC(=O)[O-]
REMARK SMILES IDX 4 1 2 2 1 3 3 4 5 5 6 6 7 7 8 8
REMARK H PARENT
REMARK Flexibility Score: inf
ROOT
ATOM      1  C   UNL     1     -11.839  10.811   7.588  1.00  0.00     0.059 C 
ENDROOT
BRANCH   1   2
ATOM      2  C   UNL     1     -12.082  12.030   8.423  1.00  0.00     0.042 C 
ATOM      3  O   UNL     1     -11.113  12.690   8.880  1.00  0.00    -0.550 OA
ATOM      4  O   UNL     1     -13.382  12.414   8.731  1.00  0.00    -0.550 OA
ENDBRANCH   1   2
BRANCH   1   5
ATOM      5  C   UNL     1     -12.624   9.603   8.110  1.00  0.00     0.059 C 
BRANCH   5   6
ATOM      6  C   UNL     1     -13.374   8.916   7.010  1.00  0.00     0.042 C 
ATOM      7  O   UNL     1     -14.184   7.989   7.278  1.00  0.00    -0.550 OA
ATOM      8  O   UNL     1     -13.149   9.272   5.687  1.00  0.00    -0.550 OA
ENDBRANCH   5   6
ENDBRANCH   1   5
TORSDOF 3
ENDMDL
MODEL 4
REMARK VINA RESULT:    -3.569      2.575      4.084
REMARK INTER + INTRA:          -4.275
REMARK INTER:                  -4.240
REMARK INTRA:                  -0.035
REMARK UNBOUND:                -0.081
REMARK SMILES O=C([O-])CCC(=O)[O-]
REMARK SMILES IDX 4 1 2 2 1 3 3 4 5 5 6 6 7 7 8 8
REMARK H PARENT
REMARK Flexibility Score: inf
ROOT
ATOM      1  C   UNL     1     -11.800  10.713   5.670  1.00  0.00     0.059 C 
ENDROOT
BRANCH   1   2
ATOM      2  C   UNL     1     -10.962  11.329   4.592  1.00  0.00     0.042 C 
ATOM      3  O   UNL     1     -11.007  10.878   3.417  1.00  0.00    -0.550 OA
ATOM      4  O   UNL     1     -10.099  12.375   4.895  1.00  0.00    -0.550 OA
ENDBRANCH   1   2
BRANCH   1   5
ATOM      5  C   UNL     1     -11.549  11.376   7.028  1.00  0.00     0.059 C 
BRANCH   5   6
ATOM      6  C   UNL     1     -12.738  11.251   7.930  1.00  0.00     0.042 C 
ATOM      7  O   UNL     1     -13.306  10.137   8.081  1.00  0.00    -0.550 OA
ATOM      8  O   UNL     1     -13.244  12.373   8.574  1.00  0.00    -0.550 OA
ENDBRANCH   5   6
ENDBRANCH   1   5
TORSDOF 3
ENDMDL
MODEL 5
REMARK VINA RESULT:    -3.566      3.401      5.186
REMARK INTER + INTRA:          -4.271
REMARK INTER:                  -4.241
REMARK INTRA:                  -0.031
REMARK UNBOUND:                -0.081
REMARK SMILES O=C([O-])CCC(=O)[O-]
REMARK SMILES IDX 4 1 2 2 1 3 3 4 5 5 6 6 7 7 8 8
REMARK H PARENT
REMARK Flexibility Score: inf
ROOT
ATOM      1  C   UNL     1     -11.040  11.067   4.528  1.00  0.00     0.059 C 
ENDROOT
BRANCH   1   2
ATOM      2  C   UNL     1     -10.445  12.283   3.887  1.00  0.00     0.042 C 
ATOM      3  O   UNL     1     -10.825  12.647   2.743  1.00  0.00    -0.550 OA
ATOM      4  O   UNL     1      -9.440  12.990   4.536  1.00  0.00    -0.550 OA
ENDBRANCH   1   2
BRANCH   1   5
ATOM      5  C   UNL     1     -11.454  11.339   5.978  1.00  0.00     0.059 C 
BRANCH   5   6
ATOM      6  C   UNL     1     -12.272  10.216   6.537  1.00  0.00     0.042 C 
ATOM      7  O   UNL     1     -12.206   9.933   7.763  1.00  0.00    -0.550 OA
ATOM      8  O   UNL     1     -13.076   9.455   5.698  1.00  0.00    -0.550 OA
ENDBRANCH   5   6
ENDBRANCH   1   5
TORSDOF 3
ENDMDL
MODEL 6
REMARK VINA RESULT:    -3.505      3.410      4.085
REMARK INTER + INTRA:          -4.201
REMARK INTER:                  -4.166
REMARK INTRA:                  -0.034
REMARK UNBOUND:                -0.081
REMARK SMILES O=C([O-])CCC(=O)[O-]
REMARK SMILES IDX 4 1 2 2 1 3 3 4 5 5 6 6 7 7 8 8
REMARK H PARENT
REMARK Flexibility Score: inf
ROOT
ATOM      1  C   UNL     1     -11.284  11.459   6.031  1.00  0.00     0.059 C 
ENDROOT
BRANCH   1   2
ATOM      2  C   UNL     1     -12.068  10.378   6.709  1.00  0.00     0.042 C 
ATOM      3  O   UNL     1     -12.760   9.574   6.031  1.00  0.00    -0.550 OA
ATOM      4  O   UNL     1     -12.067  10.284   8.096  1.00  0.00    -0.550 OA
ENDBRANCH   1   2
BRANCH   1   5
ATOM      5  C   UNL     1     -11.089  11.163   4.540  1.00  0.00     0.059 C 
BRANCH   5   6
ATOM      6  C   UNL     1     -10.494  12.334   3.820  1.00  0.00     0.042 C 
ATOM      7  O   UNL     1     -10.880  12.626   2.657  1.00  0.00    -0.550 OA
ATOM      8  O   UNL     1      -9.485  13.079   4.416  1.00  0.00    -0.550 OA
ENDBRANCH   5   6
ENDBRANCH   1   5
TORSDOF 3
ENDMDL
MODEL 7
REMARK VINA RESULT:    -3.503      1.286      3.970
REMARK INTER + INTRA:          -4.198
REMARK INTER:                  -4.165
REMARK INTRA:                  -0.033
REMARK UNBOUND:                -0.081
REMARK SMILES O=C([O-])CCC(=O)[O-]
REMARK SMILES IDX 4 1 2 2 1 3 3 4 5 5 6 6 7 7 8 8
REMARK H PARENT
REMARK Flexibility Score: inf
ROOT
ATOM      1  C   UNL     1     -12.560  10.178   7.644  1.00  0.00     0.059 C 
ENDROOT
BRANCH   1   2
ATOM      2  C   UNL     1     -11.627  11.107   6.929  1.00  0.00     0.042 C 
ATOM      3  O   UNL     1     -10.889  11.891   7.581  1.00  0.00    -0.550 OA
ATOM      4  O   UNL     1     -11.604  11.135   5.540  1.00  0.00    -0.550 OA
ENDBRANCH   1   2
BRANCH   1   5
ATOM      5  C   UNL     1     -13.089   9.083   6.713  1.00  0.00     0.059 C 
BRANCH   5   6
ATOM      6  C   UNL     1     -13.868   8.048   7.466  1.00  0.00     0.042 C 
ATOM      7  O   UNL     1     -14.015   6.892   6.987  1.00  0.00    -0.550 OA
ATOM      8  O   UNL     1     -14.464   8.372   8.677  1.00  0.00    -0.550 OA
ENDBRANCH   5   6
ENDBRANCH   1   5
TORSDOF 3
ENDMDL
MODEL 8
REMARK VINA RESULT:    -3.421      8.813      9.893
REMARK INTER + INTRA:          -4.101
REMARK INTER:                  -4.051
REMARK INTRA:                  -0.050
REMARK UNBOUND:                -0.081
REMARK SMILES O=C([O-])CCC(=O)[O-]
REMARK SMILES IDX 4 1 2 2 1 3 3 4 5 5 6 6 7 7 8 8
REMARK H PARENT
REMARK Flexibility Score: inf
ROOT
ATOM      1  C   UNL     1      -4.341   8.724   6.974  1.00  0.00     0.059 C 
ENDROOT
BRANCH   1   2
ATOM      2  C   UNL     1      -3.768   9.992   7.530  1.00  0.00     0.042 C 
ATOM      3  O   UNL     1      -3.375  10.041   8.725  1.00  0.00    -0.550 OA
ATOM      4  O   UNL     1      -3.708  11.133   6.738  1.00  0.00    -0.550 OA
ENDBRANCH   1   2
BRANCH   1   5
ATOM      5  C   UNL     1      -5.238   8.016   7.994  1.00  0.00     0.059 C 
BRANCH   5   6
ATOM      6  C   UNL     1      -5.204   6.529   7.819  1.00  0.00     0.042 C 
ATOM      7  O   UNL     1      -6.238   5.841   8.028  1.00  0.00    -0.550 OA
ATOM      8  O   UNL     1      -4.019   5.897   7.463  1.00  0.00    -0.550 OA
ENDBRANCH   5   6
ENDBRANCH   1   5
TORSDOF 3
ENDMDL
MODEL 9
REMARK VINA RESULT:    -3.402      8.935      9.259
REMARK INTER + INTRA:          -4.079
REMARK INTER:                  -4.017
REMARK INTRA:                  -0.061
REMARK UNBOUND:                -0.081
REMARK SMILES O=C([O-])CCC(=O)[O-]
REMARK SMILES IDX 4 1 2 2 1 3 3 4 5 5 6 6 7 7 8 8
REMARK H PARENT
REMARK Flexibility Score: inf
ROOT
ATOM      1  C   UNL     1      -5.200   7.967   7.786  1.00  0.00     0.059 C 
ENDROOT
BRANCH   1   2
ATOM      2  C   UNL     1      -4.952   6.490   7.745  1.00  0.00     0.042 C 
ATOM      3  O   UNL     1      -5.889   5.682   7.979  1.00  0.00    -0.550 OA
ATOM      4  O   UNL     1      -3.674   6.007   7.488  1.00  0.00    -0.550 OA
ENDBRANCH   1   2
BRANCH   1   5
ATOM      5  C   UNL     1      -4.227   8.728   6.880  1.00  0.00     0.059 C 
BRANCH   5   6
ATOM      6  C   UNL     1      -3.771  10.007   7.512  1.00  0.00     0.042 C 
ATOM      7  O   UNL     1      -3.324  10.008   8.690  1.00  0.00    -0.550 OA
ATOM      8  O   UNL     1      -3.877  11.204   6.816  1.00  0.00    -0.550 OA
ENDBRANCH   5   6
ENDBRANCH   1   5
TORSDOF 3
ENDMDL
