MODEL 1
REMARK VINA RESULT:    -3.885      0.000      0.000
REMARK INTER + INTRA:          -8.442
REMARK INTER:                  -6.837
REMARK INTRA:                  -1.605
REMARK UNBOUND:                -1.605
REMARK SMILES CCCCCCCCCCCCCCC(=O)[O-]
REMARK SMILES IDX 9 1 10 2 11 3 12 4 13 5 14 6 15 7 16 8 17 9 8 10 7 11 6 12
REMARK SMILES IDX 5 13 4 14 3 15 2 16 1 17
REMARK H PARENT
REMARK Flexibility Score: inf
ROOT
ATOM      1  C   UNL     1     -13.915 -16.874  19.204  1.00  0.00     0.000 C 
ENDROOT
BRANCH   1   2
ATOM      2  C   UNL     1     -14.563 -15.527  19.573  1.00  0.00     0.000 C 
BRANCH   2   3
ATOM      3  C   UNL     1     -13.820 -14.329  18.960  1.00  0.00     0.000 C 
BRANCH   3   4
ATOM      4  C   UNL     1     -12.293 -14.424  19.133  1.00  0.00     0.000 C 
BRANCH   4   5
ATOM      5  C   UNL     1     -11.662 -13.085  19.543  1.00  0.00     0.006 C 
BRANCH   5   6
ATOM      6  C   UNL     1     -10.982 -12.370  18.369  1.00  0.00     0.053 C 
BRANCH   6   7
ATOM      7  C   UNL     1     -11.904 -11.355  17.770  1.00  0.00     0.041 C 
ATOM      8  O   UNL     1     -13.138 -11.395  18.019  1.00  0.00    -0.550 OA
ATOM      9  O   UNL     1     -11.409 -10.394  16.897  1.00  0.00    -0.550 OA
ENDBRANCH   6   7
ENDBRANCH   5   6
ENDBRANCH   4   5
ENDBRANCH   3   4
ENDBRANCH   2   3
ENDBRANCH   1   2
BRANCH   1  10
ATOM     10  C   UNL     1     -14.296 -17.998  20.180  1.00  0.00     0.000 C 
BRANCH  10  11
ATOM     11  C   UNL     1     -15.125 -17.490  21.373  1.00  0.00    -0.000 C 
BRANCH  11  12
ATOM     12  C   UNL     1     -14.692 -18.122  22.706  1.00  0.00    -0.000 C 
BRANCH  12  13
ATOM     13  C   UNL     1     -14.090 -17.098  23.680  1.00  0.00    -0.000 C 
BRANCH  13  14
ATOM     14  C   UNL     1     -14.241 -15.668  23.137  1.00  0.00    -0.000 C 
BRANCH  14  15
ATOM     15  C   UNL     1     -12.880 -14.961  22.965  1.00  0.00    -0.000 C 
BRANCH  15  16
ATOM     16  C   UNL     1     -12.989 -13.430  22.869  1.00  0.00    -0.003 C 
ATOM     17  C   UNL     1     -14.365 -12.956  22.404  1.00  0.00     0.004 C 
ENDBRANCH  15  16
ENDBRANCH  14  15
ENDBRANCH  13  14
ENDBRANCH  12  13
ENDBRANCH  11  12
ENDBRANCH  10  11
ENDBRANCH   1  10
TORSDOF 13
ENDMDL
MODEL 2
REMARK VINA RESULT:    -3.830      2.299      5.766
REMARK INTER + INTRA:          -8.345
REMARK INTER:                  -7.184
REMARK INTRA:                  -1.161
REMARK UNBOUND:                -1.605
REMARK SMILES CCCCCCCCCCCCCCC(=O)[O-]
REMARK SMILES IDX 9 1 10 2 11 3 12 4 13 5 14 6 15 7 16 8 17 9 8 10 7 11 6 12
REMARK SMILES IDX 5 13 4 14 3 15 2 16 1 17
REMARK H PARENT
REMARK Flexibility Score: inf
ROOT
ATOM      1  C   UNL     1     -12.915 -13.665  22.993  1.00  0.00     0.000 C 
ENDROOT
BRANCH   1   2
ATOM      2  C   UNL     1     -12.935 -15.203  23.044  1.00  0.00     0.000 C 
BRANCH   2   3
ATOM      3  C   UNL     1     -14.293 -15.760  23.502  1.00  0.00     0.000 C 
BRANCH   3   4
ATOM      4  C   UNL     1     -14.423 -17.276  23.268  1.00  0.00     0.000 C 
BRANCH   4   5
ATOM      5  C   UNL     1     -15.099 -17.610  21.930  1.00  0.00     0.006 C 
BRANCH   5   6
ATOM      6  C   UNL     1     -14.088 -17.831  20.797  1.00  0.00     0.053 C 
BRANCH   6   7
ATOM      7  C   UNL     1     -14.198 -16.741  19.779  1.00  0.00     0.041 C 
ATOM      8  O   UNL     1     -13.424 -16.721  18.785  1.00  0.00    -0.550 OA
ATOM      9  O   UNL     1     -15.121 -15.717  19.952  1.00  0.00    -0.550 OA
ENDBRANCH   6   7
ENDBRANCH   5   6
ENDBRANCH   4   5
ENDBRANCH   3   4
ENDBRANCH   2   3
ENDBRANCH   1   2
BRANCH   1  10
ATOM     10  C   UNL     1     -14.295 -13.048  23.269  1.00  0.00     0.000 C 
BRANCH  10  11
ATOM     11  C   UNL     1     -14.888 -12.351  22.032  1.00  0.00    -0.000 C 
BRANCH  11  12
ATOM     12  C   UNL     1     -14.054 -12.588  20.763  1.00  0.00    -0.000 C 
BRANCH  12  13
ATOM     13  C   UNL     1     -14.808 -12.214  19.478  1.00  0.00    -0.000 C 
BRANCH  13  14
ATOM     14  C   UNL     1     -13.829 -11.951  18.323  1.00  0.00    -0.000 C 
BRANCH  14  15
ATOM     15  C   UNL     1     -12.565 -12.833  18.415  1.00  0.00    -0.000 C 
BRANCH  15  16
ATOM     16  C   UNL     1     -11.329 -12.209  17.747  1.00  0.00    -0.003 C 
ATOM     17  C   UNL     1     -11.580 -10.795  17.226  1.00  0.00     0.004 C 
ENDBRANCH  15  16
ENDBRANCH  14  15
ENDBRANCH  13  14
ENDBRANCH  12  13
ENDBRANCH  11  12
ENDBRANCH  10  11
ENDBRANCH   1  10
TORSDOF 13
ENDMDL
MODEL 3
REMARK VINA RESULT:    -3.764      2.984      6.178
REMARK INTER + INTRA:          -8.230
REMARK INTER:                  -7.039
REMARK INTRA:                  -1.192
REMARK UNBOUND:                -1.605
REMARK SMILES CCCCCCCCCCCCCCC(=O)[O-]
REMARK SMILES IDX 9 1 10 2 11 3 12 4 13 5 14 6 15 7 16 8 17 9 8 10 7 11 6 12
REMARK SMILES IDX 5 13 4 14 3 15 2 16 1 17
REMARK H PARENT
REMARK Flexibility Score: inf
ROOT
ATOM      1  C   UNL     1     -15.074 -11.905  20.277  1.00  0.00     0.000 C 
ENDROOT
BRANCH   1   2
ATOM      2  C   UNL     1     -15.125 -12.857  21.486  1.00  0.00     0.000 C 
BRANCH   2   3
ATOM      3  C   UNL     1     -14.105 -12.481  22.574  1.00  0.00     0.000 C 
BRANCH   3   4
ATOM      4  C   UNL     1     -13.217 -13.667  22.991  1.00  0.00     0.000 C 
BRANCH   4   5
ATOM      5  C   UNL     1     -13.691 -14.329  24.294  1.00  0.00     0.006 C 
BRANCH   5   6
ATOM      6  C   UNL     1     -14.869 -15.286  24.075  1.00  0.00     0.053 C 
BRANCH   6   7
ATOM      7  C   UNL     1     -14.422 -16.503  23.330  1.00  0.00     0.041 C 
ATOM      8  O   UNL     1     -14.250 -16.455  22.083  1.00  0.00    -0.550 OA
ATOM      9  O   UNL     1     -14.243 -17.706  24.003  1.00  0.00    -0.550 OA
ENDBRANCH   6   7
ENDBRANCH   5   6
ENDBRANCH   4   5
ENDBRANCH   3   4
ENDBRANCH   2   3
ENDBRANCH   1   2
BRANCH   1  10
ATOM     10  C   UNL     1     -14.606 -12.608  18.992  1.00  0.00     0.000 C 
BRANCH  10  11
ATOM     11  C   UNL     1     -14.170 -14.063  19.240  1.00  0.00    -0.000 C 
BRANCH  11  12
ATOM     12  C   UNL     1     -12.701 -14.312  18.861  1.00  0.00    -0.000 C 
BRANCH  12  13
ATOM     13  C   UNL     1     -11.716 -13.659  19.842  1.00  0.00    -0.000 C 
BRANCH  13  14
ATOM     14  C   UNL     1     -10.908 -12.549  19.151  1.00  0.00    -0.000 C 
BRANCH  14  15
ATOM     15  C   UNL     1     -11.207 -12.463  17.639  1.00  0.00    -0.000 C 
BRANCH  15  16
ATOM     16  C   UNL     1     -12.006 -11.211  17.240  1.00  0.00    -0.003 C 
ATOM     17  C   UNL     1     -11.118 -10.008  16.926  1.00  0.00     0.004 C 
ENDBRANCH  15  16
ENDBRANCH  14  15
ENDBRANCH  13  14
ENDBRANCH  12  13
ENDBRANCH  11  12
ENDBRANCH  10  11
ENDBRANCH   1  10
TORSDOF 13
ENDMDL
MODEL 4
REMARK VINA RESULT:    -3.679      1.624      3.621
REMARK INTER + INTRA:          -8.080
REMARK INTER:                  -6.480
REMARK INTRA:                  -1.599
REMARK UNBOUND:                -1.605
REMARK SMILES CCCCCCCCCCCCCCC(=O)[O-]
REMARK SMILES IDX 9 1 10 2 11 3 12 4 13 5 14 6 15 7 16 8 17 9 8 10 7 11 6 12
REMARK SMILES IDX 5 13 4 14 3 15 2 16 1 17
REMARK H PARENT
REMARK Flexibility Score: inf
ROOT
ATOM      1  C   UNL     1     -15.073 -12.351  20.876  1.00  0.00     0.000 C 
ENDROOT
BRANCH   1   2
ATOM      2  C   UNL     1     -15.105 -13.408  19.758  1.00  0.00     0.000 C 
BRANCH   2   3
ATOM      3  C   UNL     1     -14.510 -12.887  18.439  1.00  0.00     0.000 C 
BRANCH   3   4
ATOM      4  C   UNL     1     -13.667 -11.613  18.630  1.00  0.00     0.000 C 
BRANCH   4   5
ATOM      5  C   UNL     1     -12.432 -11.581  17.718  1.00  0.00     0.006 C 
BRANCH   5   6
ATOM      6  C   UNL     1     -11.608 -12.872  17.795  1.00  0.00     0.053 C 
BRANCH   6   7
ATOM      7  C   UNL     1     -11.108 -13.091  19.188  1.00  0.00     0.041 C 
ATOM      8  O   UNL     1     -10.354 -12.241  19.732  1.00  0.00    -0.550 OA
ATOM      9  O   UNL     1     -11.434 -14.257  19.870  1.00  0.00    -0.550 OA
ENDBRANCH   6   7
ENDBRANCH   5   6
ENDBRANCH   4   5
ENDBRANCH   3   4
ENDBRANCH   2   3
ENDBRANCH   1   2
BRANCH   1  10
ATOM     10  C   UNL     1     -14.964 -12.977  22.276  1.00  0.00     0.000 C 
BRANCH  10  11
ATOM     11  C   UNL     1     -13.515 -13.338  22.650  1.00  0.00    -0.000 C 
BRANCH  11  12
ATOM     12  C   UNL     1     -13.298 -14.855  22.777  1.00  0.00    -0.000 C 
BRANCH  12  13
ATOM     13  C   UNL     1     -14.600 -15.656  22.627  1.00  0.00    -0.000 C 
BRANCH  13  14
ATOM     14  C   UNL     1     -14.338 -17.163  22.774  1.00  0.00    -0.000 C 
BRANCH  14  15
ATOM     15  C   UNL     1     -14.538 -17.923  21.445  1.00  0.00    -0.000 C 
BRANCH  15  16
ATOM     16  C   UNL     1     -14.843 -17.004  20.251  1.00  0.00    -0.003 C 
ATOM     17  C   UNL     1     -13.678 -16.893  19.268  1.00  0.00     0.004 C 
ENDBRANCH  15  16
ENDBRANCH  14  15
ENDBRANCH  13  14
ENDBRANCH  12  13
ENDBRANCH  11  12
ENDBRANCH  10  11
ENDBRANCH   1  10
TORSDOF 13
ENDMDL
MODEL 5
REMARK VINA RESULT:    -3.665      1.480      2.010
REMARK INTER + INTRA:          -8.055
REMARK INTER:                  -6.603
REMARK INTRA:                  -1.451
REMARK UNBOUND:                -1.605
REMARK SMILES CCCCCCCCCCCCCCC(=O)[O-]
REMARK SMILES IDX 9 1 10 2 11 3 12 4 13 5 14 6 15 7 16 8 17 9 8 10 7 11 6 12
REMARK SMILES IDX 5 13 4 14 3 15 2 16 1 17
REMARK H PARENT
REMARK Flexibility Score: inf
ROOT
ATOM      1  C   UNL     1     -13.773 -15.536  18.751  1.00  0.00     0.000 C 
ENDROOT
BRANCH   1   2
ATOM      2  C   UNL     1     -15.084 -14.799  19.079  1.00  0.00     0.000 C 
BRANCH   2   3
ATOM      3  C   UNL     1     -14.944 -13.857  20.286  1.00  0.00     0.000 C 
BRANCH   3   4
ATOM      4  C   UNL     1     -14.461 -12.450  19.888  1.00  0.00     0.000 C 
BRANCH   4   5
ATOM      5  C   UNL     1     -14.034 -12.367  18.415  1.00  0.00     0.006 C 
BRANCH   5   6
ATOM      6  C   UNL     1     -12.746 -11.557  18.219  1.00  0.00     0.053 C 
BRANCH   6   7
ATOM      7  C   UNL     1     -11.555 -12.462  18.222  1.00  0.00     0.041 C 
ATOM      8  O   UNL     1     -11.048 -12.846  17.134  1.00  0.00    -0.550 OA
ATOM      9  O   UNL     1     -11.033 -12.922  19.424  1.00  0.00    -0.550 OA
ENDBRANCH   6   7
ENDBRANCH   5   6
ENDBRANCH   4   5
ENDBRANCH   3   4
ENDBRANCH   2   3
ENDBRANCH   1   2
BRANCH   1  10
ATOM     10  C   UNL     1     -13.405 -16.585  19.813  1.00  0.00     0.000 C 
BRANCH  10  11
ATOM     11  C   UNL     1     -14.572 -17.537  20.133  1.00  0.00    -0.000 C 
BRANCH  11  12
ATOM     12  C   UNL     1     -14.484 -18.125  21.550  1.00  0.00    -0.000 C 
BRANCH  12  13
ATOM     13  C   UNL     1     -15.116 -17.212  22.612  1.00  0.00    -0.000 C 
BRANCH  13  14
ATOM     14  C   UNL     1     -14.034 -16.505  23.443  1.00  0.00    -0.000 C 
BRANCH  14  15
ATOM     15  C   UNL     1     -14.535 -15.175  24.045  1.00  0.00    -0.000 C 
BRANCH  15  16
ATOM     16  C   UNL     1     -13.694 -13.956  23.632  1.00  0.00    -0.003 C 
ATOM     17  C   UNL     1     -12.441 -14.333  22.843  1.00  0.00     0.004 C 
ENDBRANCH  15  16
ENDBRANCH  14  15
ENDBRANCH  13  14
ENDBRANCH  12  13
ENDBRANCH  11  12
ENDBRANCH  10  11
ENDBRANCH   1  10
TORSDOF 13
ENDMDL
MODEL 6
REMARK VINA RESULT:    -3.597      2.296      5.440
REMARK INTER + INTRA:          -7.935
REMARK INTER:                  -6.500
REMARK INTRA:                  -1.436
REMARK UNBOUND:                -1.605
REMARK SMILES CCCCCCCCCCCCCCC(=O)[O-]
REMARK SMILES IDX 9 1 10 2 11 3 12 4 13 5 14 6 15 7 16 8 17 9 8 10 7 11 6 12
REMARK SMILES IDX 5 13 4 14 3 15 2 16 1 17
REMARK H PARENT
REMARK Flexibility Score: inf
ROOT
ATOM      1  C   UNL     1     -14.101 -16.745  18.901  1.00  0.00     0.000 C 
ENDROOT
BRANCH   1   2
ATOM      2  C   UNL     1     -13.850 -17.698  20.083  1.00  0.00     0.000 C 
BRANCH   2   3
ATOM      3  C   UNL     1     -15.082 -17.846  20.991  1.00  0.00     0.000 C 
BRANCH   3   4
ATOM      4  C   UNL     1     -14.740 -17.698  22.485  1.00  0.00     0.000 C 
BRANCH   4   5
ATOM      5  C   UNL     1     -14.898 -16.254  22.986  1.00  0.00     0.006 C 
BRANCH   5   6
ATOM      6  C   UNL     1     -13.558 -15.512  23.078  1.00  0.00     0.053 C 
BRANCH   6   7
ATOM      7  C   UNL     1     -13.757 -14.142  23.643  1.00  0.00     0.041 C 
ATOM      8  O   UNL     1     -13.919 -13.985  24.883  1.00  0.00    -0.550 OA
ATOM      9  O   UNL     1     -13.815 -13.041  22.798  1.00  0.00    -0.550 OA
ENDBRANCH   6   7
ENDBRANCH   5   6
ENDBRANCH   4   5
ENDBRANCH   3   4
ENDBRANCH   2   3
ENDBRANCH   1   2
BRANCH   1  10
ATOM     10  C   UNL     1     -14.908 -15.501  19.307  1.00  0.00     0.000 C 
BRANCH  10  11
ATOM     11  C   UNL     1     -14.019 -14.265  19.525  1.00  0.00    -0.000 C 
BRANCH  11  12
ATOM     12  C   UNL     1     -12.557 -14.508  19.113  1.00  0.00    -0.000 C 
BRANCH  12  13
ATOM     13  C   UNL     1     -11.554 -13.831  20.060  1.00  0.00    -0.000 C 
BRANCH  13  14
ATOM     14  C   UNL     1     -10.914 -12.603  19.393  1.00  0.00    -0.000 C 
BRANCH  14  15
ATOM     15  C   UNL     1     -11.287 -12.487  17.900  1.00  0.00    -0.000 C 
BRANCH  15  16
ATOM     16  C   UNL     1     -12.166 -11.268  17.578  1.00  0.00    -0.003 C 
ATOM     17  C   UNL     1     -11.407 -10.155  16.858  1.00  0.00     0.004 C 
ENDBRANCH  15  16
ENDBRANCH  14  15
ENDBRANCH  13  14
ENDBRANCH  12  13
ENDBRANCH  11  12
ENDBRANCH  10  11
ENDBRANCH   1  10
TORSDOF 13
ENDMDL
MODEL 7
REMARK VINA RESULT:    -3.500      1.348      1.901
REMARK INTER + INTRA:          -7.765
REMARK INTER:                  -6.206
REMARK INTRA:                  -1.559
REMARK UNBOUND:                -1.605
REMARK SMILES CCCCCCCCCCCCCCC(=O)[O-]
REMARK SMILES IDX 9 1 10 2 11 3 12 4 13 5 14 6 15 7 16 8 17 9 8 10 7 11 6 12
REMARK SMILES IDX 5 13 4 14 3 15 2 16 1 17
REMARK H PARENT
REMARK Flexibility Score: inf
ROOT
ATOM      1  C   UNL     1     -13.756 -16.354  21.123  1.00  0.00     0.000 C 
ENDROOT
BRANCH   1   2
ATOM      2  C   UNL     1     -14.429 -16.045  19.774  1.00  0.00     0.000 C 
BRANCH   2   3
ATOM      3  C   UNL     1     -13.785 -14.848  19.055  1.00  0.00     0.000 C 
BRANCH   3   4
ATOM      4  C   UNL     1     -14.750 -13.659  18.899  1.00  0.00     0.000 C 
BRANCH   4   5
ATOM      5  C   UNL     1     -14.015 -12.331  18.659  1.00  0.00     0.006 C 
BRANCH   5   6
ATOM      6  C   UNL     1     -12.519 -12.417  18.986  1.00  0.00     0.053 C 
BRANCH   6   7
ATOM      7  C   UNL     1     -11.701 -12.021  17.798  1.00  0.00     0.041 C 
ATOM      8  O   UNL     1     -10.950 -12.862  17.237  1.00  0.00    -0.550 OA
ATOM      9  O   UNL     1     -11.728 -10.710  17.340  1.00  0.00    -0.550 OA
ENDBRANCH   6   7
ENDBRANCH   5   6
ENDBRANCH   4   5
ENDBRANCH   3   4
ENDBRANCH   2   3
ENDBRANCH   1   2
BRANCH   1  10
ATOM     10  C   UNL     1     -14.211 -17.697  21.715  1.00  0.00     0.000 C 
BRANCH  10  11
ATOM     11  C   UNL     1     -14.507 -17.608  23.223  1.00  0.00    -0.000 C 
BRANCH  11  12
ATOM     12  C   UNL     1     -14.039 -16.280  23.840  1.00  0.00    -0.000 C 
BRANCH  12  13
ATOM     13  C   UNL     1     -15.111 -15.627  24.725  1.00  0.00    -0.000 C 
BRANCH  13  14
ATOM     14  C   UNL     1     -15.125 -14.101  24.535  1.00  0.00    -0.000 C 
BRANCH  14  15
ATOM     15  C   UNL     1     -15.051 -13.697  23.047  1.00  0.00    -0.000 C 
BRANCH  15  16
ATOM     16  C   UNL     1     -13.852 -12.793  22.714  1.00  0.00    -0.003 C 
ATOM     17  C   UNL     1     -12.534 -13.559  22.615  1.00  0.00     0.004 C 
ENDBRANCH  15  16
ENDBRANCH  14  15
ENDBRANCH  13  14
ENDBRANCH  12  13
ENDBRANCH  11  12
ENDBRANCH  10  11
ENDBRANCH   1  10
TORSDOF 13
ENDMDL
MODEL 8
REMARK VINA RESULT:    -3.439      1.222      3.123
REMARK INTER + INTRA:          -7.657
REMARK INTER:                  -6.002
REMARK INTRA:                  -1.655
REMARK UNBOUND:                -1.605
REMARK SMILES CCCCCCCCCCCCCCC(=O)[O-]
REMARK SMILES IDX 9 1 10 2 11 3 12 4 13 5 14 6 15 7 16 8 17 9 8 10 7 11 6 12
REMARK SMILES IDX 5 13 4 14 3 15 2 16 1 17
REMARK H PARENT
REMARK Flexibility Score: inf
ROOT
ATOM      1  C   UNL     1     -15.104 -14.162  21.218  1.00  0.00     0.000 C 
ENDROOT
BRANCH   1   2
ATOM      2  C   UNL     1     -15.125 -14.163  19.679  1.00  0.00     0.000 C 
BRANCH   2   3
ATOM      3  C   UNL     1     -13.792 -14.631  19.073  1.00  0.00     0.000 C 
BRANCH   3   4
ATOM      4  C   UNL     1     -12.595 -14.390  20.010  1.00  0.00     0.000 C 
BRANCH   4   5
ATOM      5  C   UNL     1     -11.884 -13.058  19.729  1.00  0.00     0.006 C 
BRANCH   5   6
ATOM      6  C   UNL     1     -12.578 -12.239  18.633  1.00  0.00     0.053 C 
BRANCH   6   7
ATOM      7  C   UNL     1     -11.606 -11.879  17.555  1.00  0.00     0.041 C 
ATOM      8  O   UNL     1     -10.969 -12.781  16.948  1.00  0.00    -0.550 OA
ATOM      9  O   UNL     1     -11.363 -10.545  17.254  1.00  0.00    -0.550 OA
ENDBRANCH   6   7
ENDBRANCH   5   6
ENDBRANCH   4   5
ENDBRANCH   3   4
ENDBRANCH   2   3
ENDBRANCH   1   2
BRANCH   1  10
ATOM     10  C   UNL     1     -15.106 -12.742  21.807  1.00  0.00     0.000 C 
BRANCH  10  11
ATOM     11  C   UNL     1     -14.234 -12.626  23.070  1.00  0.00    -0.000 C 
BRANCH  11  12
ATOM     12  C   UNL     1     -13.729 -13.990  23.568  1.00  0.00    -0.000 C 
BRANCH  12  13
ATOM     13  C   UNL     1     -14.564 -14.541  24.734  1.00  0.00    -0.000 C 
BRANCH  13  14
ATOM     14  C   UNL     1     -14.930 -16.015  24.497  1.00  0.00    -0.000 C 
BRANCH  14  15
ATOM     15  C   UNL     1     -14.011 -16.686  23.454  1.00  0.00    -0.000 C 
BRANCH  15  16
ATOM     16  C   UNL     1     -14.700 -17.804  22.654  1.00  0.00    -0.003 C 
ATOM     17  C   UNL     1     -14.341 -17.787  21.169  1.00  0.00     0.004 C 
ENDBRANCH  15  16
ENDBRANCH  14  15
ENDBRANCH  13  14
ENDBRANCH  12  13
ENDBRANCH  11  12
ENDBRANCH  10  11
ENDBRANCH   1  10
TORSDOF 13
ENDMDL
MODEL 9
REMARK VINA RESULT:    -3.371      2.446      5.460
REMARK INTER + INTRA:          -7.538
REMARK INTER:                  -6.022
REMARK INTRA:                  -1.516
REMARK UNBOUND:                -1.605
REMARK SMILES CCCCCCCCCCCCCCC(=O)[O-]
REMARK SMILES IDX 9 1 10 2 11 3 12 4 13 5 14 6 15 7 16 8 17 9 8 10 7 11 6 12
REMARK SMILES IDX 5 13 4 14 3 15 2 16 1 17
REMARK H PARENT
REMARK Flexibility Score: inf
ROOT
ATOM      1  C   UNL     1     -13.662 -15.507  19.086  1.00  0.00     0.000 C 
ENDROOT
BRANCH   1   2
ATOM      2  C   UNL     1     -13.667 -16.973  19.556  1.00  0.00     0.000 C 
BRANCH   2   3
ATOM      3  C   UNL     1     -14.865 -17.295  20.465  1.00  0.00     0.000 C 
BRANCH   3   4
ATOM      4  C   UNL     1     -14.441 -17.642  21.904  1.00  0.00     0.000 C 
BRANCH   4   5
ATOM      5  C   UNL     1     -14.544 -16.441  22.856  1.00  0.00     0.006 C 
BRANCH   5   6
ATOM      6  C   UNL     1     -13.259 -15.605  22.891  1.00  0.00     0.053 C 
BRANCH   6   7
ATOM      7  C   UNL     1     -13.546 -14.225  23.393  1.00  0.00     0.041 C 
ATOM      8  O   UNL     1     -12.748 -13.282  23.146  1.00  0.00    -0.550 OA
ATOM      9  O   UNL     1     -14.669 -13.989  24.175  1.00  0.00    -0.550 OA
ENDBRANCH   6   7
ENDBRANCH   5   6
ENDBRANCH   4   5
ENDBRANCH   3   4
ENDBRANCH   2   3
ENDBRANCH   1   2
BRANCH   1  10
ATOM     10  C   UNL     1     -15.031 -14.828  19.257  1.00  0.00     0.000 C 
BRANCH  10  11
ATOM     11  C   UNL     1     -15.015 -13.731  20.335  1.00  0.00    -0.000 C 
BRANCH  11  12
ATOM     12  C   UNL     1     -15.111 -12.316  19.740  1.00  0.00    -0.000 C 
BRANCH  12  13
ATOM     13  C   UNL     1     -14.422 -12.199  18.372  1.00  0.00    -0.000 C 
BRANCH  13  14
ATOM     14  C   UNL     1     -13.125 -11.382  18.479  1.00  0.00    -0.000 C 
BRANCH  14  15
ATOM     15  C   UNL     1     -12.069 -11.825  17.443  1.00  0.00    -0.000 C 
BRANCH  15  16
ATOM     16  C   UNL     1     -11.079 -12.870  17.983  1.00  0.00    -0.003 C 
ATOM     17  C   UNL     1     -10.999 -12.889  19.508  1.00  0.00     0.004 C 
ENDBRANCH  15  16
ENDBRANCH  14  15
ENDBRANCH  13  14
ENDBRANCH  12  13
ENDBRANCH  11  12
ENDBRANCH  10  11
ENDBRANCH   1  10
TORSDOF 13
ENDMDL
