MODEL 1
REMARK VINA RESULT:    32.901      0.000      0.000
REMARK INTER + INTRA:          38.407
REMARK INTER:                  38.671
REMARK INTRA:                  -0.264
REMARK UNBOUND:                -0.264
REMARK SMILES O=c1cc(-c2ccc(O)c(O)c2)oc2cc(O)cc(O)c12
REMARK SMILES IDX 4 1 3 2 2 3 1 4 21 5 19 6 18 7 16 8 15 9 14 10 13 11 5 12
REMARK SMILES IDX 6 13 7 14 8 15 12 16 10 17 9 18 11 20 20 22 17 24
REMARK H PARENT 9 19 11 21 20 23 17 25
REMARK Flexibility Score: inf
ROOT
ATOM      1  C   UNL     1      16.034  49.750  58.873  1.00  0.00     0.138 A 
ATOM      2  C   UNL     1      15.080  50.645  58.372  1.00  0.00     0.100 A 
ATOM      3  C   UNL     1      14.962  51.916  58.939  1.00  0.00     0.197 A 
ATOM      4  O   UNL     1      14.140  52.720  58.428  1.00  0.00    -0.289 OA
ATOM      5  C   UNL     1      15.784  52.276  60.033  1.00  0.00     0.107 A 
ATOM      6  C   UNL     1      15.723  53.528  60.717  1.00  0.00     0.134 A 
ATOM      7  C   UNL     1      16.665  53.817  61.711  1.00  0.00     0.093 A 
ATOM      8  C   UNL     1      17.626  52.879  62.089  1.00  0.00     0.123 A 
ATOM      9  C   UNL     1      17.660  51.632  61.464  1.00  0.00     0.094 A 
ATOM     10  C   UNL     1      16.756  51.327  60.445  1.00  0.00     0.146 A 
ATOM     11  O   UNL     1      16.831  50.133  59.866  1.00  0.00    -0.456 OA
ENDROOT
BRANCH   1  12
ATOM     12  C   UNL     1      16.202  48.386  58.308  1.00  0.00     0.021 A 
ATOM     13  C   UNL     1      17.346  48.029  57.569  1.00  0.00     0.016 A 
ATOM     14  C   UNL     1      17.474  46.742  57.039  1.00  0.00     0.051 A 
ATOM     15  C   UNL     1      16.464  45.794  57.229  1.00  0.00     0.157 A 
ATOM     16  C   UNL     1      15.184  47.433  58.484  1.00  0.00     0.062 A 
ATOM     17  C   UNL     1      15.312  46.140  57.955  1.00  0.00     0.158 A 
BRANCH  15  18
ATOM     18  O   UNL     1      16.621  44.518  56.690  1.00  0.00    -0.504 OA
ATOM     19  H   UNL     1      16.033  43.741  56.967  1.00  0.00     0.293 HD
ENDBRANCH  15  18
BRANCH  17  20
ATOM     20  O   UNL     1      14.299  45.202  58.144  1.00  0.00    -0.504 OA
ATOM     21  H   UNL     1      14.462  44.211  58.008  1.00  0.00     0.293 HD
ENDBRANCH  17  20
ENDBRANCH   1  12
BRANCH   6  22
ATOM     22  O   UNL     1      14.750  54.503  60.477  1.00  0.00    -0.507 OA
ATOM     23  H   UNL     1      13.781  54.428  60.741  1.00  0.00     0.293 HD
ENDBRANCH   6  22
BRANCH   8  24
ATOM     24  O   UNL     1      18.537  53.196  63.094  1.00  0.00    -0.508 OA
ATOM     25  H   UNL     1      18.235  53.389  64.042  1.00  0.00     0.293 HD
ENDBRANCH   8  24
TORSDOF 5
ENDMDL
MODEL 2
REMARK VINA RESULT:    33.297      1.860      2.911
REMARK INTER + INTRA:          38.873
REMARK INTER:                  39.185
REMARK INTRA:                  -0.312
REMARK UNBOUND:                -0.264
REMARK SMILES O=c1cc(-c2ccc(O)c(O)c2)oc2cc(O)cc(O)c12
REMARK SMILES IDX 4 1 3 2 2 3 1 4 21 5 19 6 18 7 16 8 15 9 14 10 13 11 5 12
REMARK SMILES IDX 6 13 7 14 8 15 12 16 10 17 9 18 11 20 20 22 17 24
REMARK H PARENT 9 19 11 21 20 23 17 25
REMARK Flexibility Score: inf
ROOT
ATOM      1  C   UNL     1      15.856  49.176  59.337  1.00  0.00     0.138 A 
ATOM      2  C   UNL     1      15.503  48.948  60.673  1.00  0.00     0.100 A 
ATOM      3  C   UNL     1      15.159  50.027  61.490  1.00  0.00     0.197 A 
ATOM      4  O   UNL     1      14.785  49.786  62.667  1.00  0.00    -0.289 OA
ATOM      5  C   UNL     1      15.200  51.343  60.970  1.00  0.00     0.107 A 
ATOM      6  C   UNL     1      14.911  52.522  61.720  1.00  0.00     0.134 A 
ATOM      7  C   UNL     1      14.871  53.761  61.070  1.00  0.00     0.093 A 
ATOM      8  C   UNL     1      15.170  53.873  59.712  1.00  0.00     0.123 A 
ATOM      9  C   UNL     1      15.507  52.733  58.981  1.00  0.00     0.094 A 
ATOM     10  C   UNL     1      15.521  51.478  59.594  1.00  0.00     0.146 A 
ATOM     11  O   UNL     1      15.834  50.416  58.859  1.00  0.00    -0.456 OA
ENDROOT
BRANCH   1  12
ATOM     12  C   UNL     1      16.231  48.065  58.424  1.00  0.00     0.021 A 
ATOM     13  C   UNL     1      15.887  46.730  58.706  1.00  0.00     0.016 A 
ATOM     14  C   UNL     1      16.261  45.703  57.836  1.00  0.00     0.051 A 
ATOM     15  C   UNL     1      16.990  45.986  56.677  1.00  0.00     0.157 A 
ATOM     16  C   UNL     1      16.976  48.343  57.265  1.00  0.00     0.062 A 
ATOM     17  C   UNL     1      17.351  47.313  56.390  1.00  0.00     0.158 A 
BRANCH  15  18
ATOM     18  O   UNL     1      17.348  44.940  55.828  1.00  0.00    -0.504 OA
ATOM     19  H   UNL     1      16.668  44.456  55.255  1.00  0.00     0.293 HD
ENDBRANCH  15  18
BRANCH  17  20
ATOM     20  O   UNL     1      18.082  47.602  55.239  1.00  0.00    -0.504 OA
ATOM     21  H   UNL     1      18.321  46.883  54.566  1.00  0.00     0.293 HD
ENDBRANCH  17  20
ENDBRANCH   1  12
BRANCH   6  22
ATOM     22  O   UNL     1      14.681  52.534  63.100  1.00  0.00    -0.507 OA
ATOM     23  H   UNL     1      15.328  52.883  63.789  1.00  0.00     0.293 HD
ENDBRANCH   6  22
BRANCH   8  24
ATOM     24  O   UNL     1      15.136  55.125  59.102  1.00  0.00    -0.508 OA
ATOM     25  H   UNL     1      15.860  55.419  58.456  1.00  0.00     0.293 HD
ENDBRANCH   8  24
TORSDOF 5
ENDMDL
MODEL 3
REMARK VINA RESULT:    33.542      1.649      2.409
REMARK INTER + INTRA:          39.161
REMARK INTER:                  39.479
REMARK INTRA:                  -0.318
REMARK UNBOUND:                -0.264
REMARK SMILES O=c1cc(-c2ccc(O)c(O)c2)oc2cc(O)cc(O)c12
REMARK SMILES IDX 4 1 3 2 2 3 1 4 21 5 19 6 18 7 16 8 15 9 14 10 13 11 5 12
REMARK SMILES IDX 6 13 7 14 8 15 12 16 10 17 9 18 11 20 20 22 17 24
REMARK H PARENT 9 19 11 21 20 23 17 25
REMARK Flexibility Score: inf
ROOT
ATOM      1  C   UNL     1      16.559  49.326  59.365  1.00  0.00     0.138 A 
ATOM      2  C   UNL     1      17.681  50.163  59.416  1.00  0.00     0.100 A 
ATOM      3  C   UNL     1      17.649  51.313  60.208  1.00  0.00     0.197 A 
ATOM      4  O   UNL     1      18.693  52.011  60.283  1.00  0.00    -0.289 OA
ATOM      5  C   UNL     1      16.474  51.639  60.926  1.00  0.00     0.107 A 
ATOM      6  C   UNL     1      16.313  52.806  61.732  1.00  0.00     0.134 A 
ATOM      7  C   UNL     1      15.146  52.965  62.490  1.00  0.00     0.093 A 
ATOM      8  C   UNL     1      14.111  52.032  62.425  1.00  0.00     0.123 A 
ATOM      9  C   UNL     1      14.236  50.914  61.598  1.00  0.00     0.094 A 
ATOM     10  C   UNL     1      15.402  50.710  60.857  1.00  0.00     0.146 A 
ATOM     11  O   UNL     1      15.488  49.627  60.092  1.00  0.00    -0.456 OA
ENDROOT
BRANCH   1  12
ATOM     12  C   UNL     1      16.538  48.092  58.539  1.00  0.00     0.021 A 
ATOM     13  C   UNL     1      17.675  47.658  57.831  1.00  0.00     0.016 A 
ATOM     14  C   UNL     1      17.625  46.498  57.053  1.00  0.00     0.051 A 
ATOM     15  C   UNL     1      16.443  45.757  56.960  1.00  0.00     0.157 A 
ATOM     16  C   UNL     1      15.349  47.350  58.431  1.00  0.00     0.062 A 
ATOM     17  C   UNL     1      15.298  46.185  57.652  1.00  0.00     0.158 A 
BRANCH  15  18
ATOM     18  O   UNL     1      16.425  44.604  56.177  1.00  0.00    -0.504 OA
ATOM     19  H   UNL     1      15.566  44.228  55.793  1.00  0.00     0.293 HD
ENDBRANCH  15  18
BRANCH  17  20
ATOM     20  O   UNL     1      14.115  45.454  57.560  1.00  0.00    -0.504 OA
ATOM     21  H   UNL     1      13.243  45.887  57.277  1.00  0.00     0.293 HD
ENDBRANCH  17  20
ENDBRANCH   1  12
BRANCH   6  22
ATOM     22  O   UNL     1      17.249  53.842  61.804  1.00  0.00    -0.507 OA
ATOM     23  H   UNL     1      17.319  54.603  61.147  1.00  0.00     0.293 HD
ENDBRANCH   6  22
BRANCH   8  24
ATOM     24  O   UNL     1      12.959  52.231  63.181  1.00  0.00    -0.508 OA
ATOM     25  H   UNL     1      12.753  51.661  63.994  1.00  0.00     0.293 HD
ENDBRANCH   8  24
TORSDOF 5
ENDMDL
MODEL 4
REMARK VINA RESULT:    33.726      1.663      7.356
REMARK INTER + INTRA:          39.377
REMARK INTER:                  39.640
REMARK INTRA:                  -0.263
REMARK UNBOUND:                -0.264
REMARK SMILES O=c1cc(-c2ccc(O)c(O)c2)oc2cc(O)cc(O)c12
REMARK SMILES IDX 4 1 3 2 2 3 1 4 21 5 19 6 18 7 16 8 15 9 14 10 13 11 5 12
REMARK SMILES IDX 6 13 7 14 8 15 12 16 10 17 9 18 11 20 20 22 17 24
REMARK H PARENT 9 19 11 21 20 23 17 25
REMARK Flexibility Score: inf
ROOT
ATOM      1  C   UNL     1      15.946  48.021  58.603  1.00  0.00     0.138 A 
ATOM      2  C   UNL     1      14.848  47.180  58.380  1.00  0.00     0.100 A 
ATOM      3  C   UNL     1      15.017  46.001  57.652  1.00  0.00     0.197 A 
ATOM      4  O   UNL     1      14.027  45.236  57.522  1.00  0.00    -0.289 OA
ATOM      5  C   UNL     1      16.289  45.680  57.120  1.00  0.00     0.107 A 
ATOM      6  C   UNL     1      16.571  44.526  56.329  1.00  0.00     0.134 A 
ATOM      7  C   UNL     1      17.892  44.252  55.956  1.00  0.00     0.093 A 
ATOM      8  C   UNL     1      18.931  45.120  56.292  1.00  0.00     0.123 A 
ATOM      9  C   UNL     1      18.659  46.279  57.019  1.00  0.00     0.094 A 
ATOM     10  C   UNL     1      17.356  46.562  57.436  1.00  0.00     0.146 A 
ATOM     11  O   UNL     1      17.141  47.669  58.139  1.00  0.00    -0.456 OA
ENDROOT
BRANCH   1  12
ATOM     12  C   UNL     1      15.822  49.287  59.369  1.00  0.00     0.021 A 
ATOM     13  C   UNL     1      16.001  49.326  60.765  1.00  0.00     0.016 A 
ATOM     14  C   UNL     1      15.867  50.530  61.463  1.00  0.00     0.051 A 
ATOM     15  C   UNL     1      15.547  51.710  60.785  1.00  0.00     0.157 A 
ATOM     16  C   UNL     1      15.486  50.474  58.695  1.00  0.00     0.062 A 
ATOM     17  C   UNL     1      15.353  51.683  59.394  1.00  0.00     0.158 A 
BRANCH  15  18
ATOM     18  O   UNL     1      15.422  52.895  61.509  1.00  0.00    -0.504 OA
ATOM     19  H   UNL     1      15.028  53.734  61.102  1.00  0.00     0.293 HD
ENDBRANCH  15  18
BRANCH  17  20
ATOM     20  O   UNL     1      15.029  52.855  58.713  1.00  0.00    -0.504 OA
ATOM     21  H   UNL     1      14.067  53.106  58.518  1.00  0.00     0.293 HD
ENDBRANCH  17  20
ENDBRANCH   1  12
BRANCH   6  22
ATOM     22  O   UNL     1      15.595  43.638  55.867  1.00  0.00    -0.507 OA
ATOM     23  H   UNL     1      15.343  42.773  56.318  1.00  0.00     0.293 HD
ENDBRANCH   6  22
BRANCH   8  24
ATOM     24  O   UNL     1      20.231  44.822  55.889  1.00  0.00    -0.508 OA
ATOM     25  H   UNL     1      20.997  44.789  56.552  1.00  0.00     0.293 HD
ENDBRANCH   8  24
TORSDOF 5
ENDMDL
