MODEL 1
REMARK VINA RESULT:    -3.400      0.000      0.000
REMARK INTER + INTRA:          -7.134
REMARK INTER:                  -5.984
REMARK INTRA:                  -1.150
REMARK UNBOUND:                -1.150
REMARK SMILES CCCCCCC=CCCCCCCCC(=O)[O-]
REMARK SMILES IDX 10 1 11 2 12 3 13 4 14 5 15 6 16 7 17 8 18 9 9 10 8 11 7 12
REMARK SMILES IDX 6 13 5 14 4 15 3 16 2 17 1 18
REMARK H PARENT
REMARK Flexibility Score: inf
ROOT
ATOM      1  C   UNL     1     -21.130   2.119   7.712  1.00  0.00     0.004 C 
ENDROOT
BRANCH   1   2
ATOM      2  C   UNL     1     -21.245   2.756   9.108  1.00  0.00     0.000 C 
BRANCH   2   3
ATOM      3  C   UNL     1     -22.085   1.910  10.077  1.00  0.00     0.000 C 
BRANCH   3   4
ATOM      4  C   UNL     1     -21.224   1.116  11.070  1.00  0.00     0.000 C 
BRANCH   4   5
ATOM      5  C   UNL     1     -21.561   1.501  12.519  1.00  0.00     0.006 C 
BRANCH   5   6
ATOM      6  C   UNL     1     -20.685   0.759  13.536  1.00  0.00     0.053 C 
BRANCH   6   7
ATOM      7  C   UNL     1     -21.224  -0.604  13.843  1.00  0.00     0.041 C 
ATOM      8  O   UNL     1     -22.118  -0.751  14.718  1.00  0.00    -0.550 OA
ATOM      9  O   UNL     1     -20.715  -1.718  13.186  1.00  0.00    -0.550 OA
ENDBRANCH   6   7
ENDBRANCH   5   6
ENDBRANCH   4   5
ENDBRANCH   3   4
ENDBRANCH   2   3
ENDBRANCH   1   2
BRANCH   1  10
ATOM     10  C   UNL     1     -19.950   1.140   7.613  1.00  0.00     0.027 C 
BRANCH  10  11
ATOM     11  C   UNL     1     -20.337  -0.201   7.037  1.00  0.00    -0.031 C 
ATOM     12  C   UNL     1     -20.403  -1.356   7.725  1.00  0.00    -0.031 C 
BRANCH  12  13
ATOM     13  C   UNL     1     -20.135  -1.514   9.204  1.00  0.00     0.027 C 
BRANCH  13  14
ATOM     14  C   UNL     1     -19.345  -2.798   9.513  1.00  0.00     0.004 C 
BRANCH  14  15
ATOM     15  C   UNL     1     -19.312  -3.824   8.365  1.00  0.00     0.000 C 
BRANCH  15  16
ATOM     16  C   UNL     1     -19.221  -5.277   8.864  1.00  0.00    -0.000 C 
BRANCH  16  17
ATOM     17  C   UNL     1     -20.414  -6.131   8.407  1.00  0.00    -0.003 C 
ATOM     18  C   UNL     1     -21.537  -6.178   9.443  1.00  0.00     0.004 C 
ENDBRANCH  16  17
ENDBRANCH  15  16
ENDBRANCH  14  15
ENDBRANCH  13  14
ENDBRANCH  12  13
ENDBRANCH  10  11
ENDBRANCH   1  10
TORSDOF 13
ENDMDL
MODEL 2
REMARK VINA RESULT:    -3.289      2.586      4.621
REMARK INTER + INTRA:          -6.938
REMARK INTER:                  -5.522
REMARK INTRA:                  -1.416
REMARK UNBOUND:                -1.150
REMARK SMILES CCCCCCC=CCCCCCCCC(=O)[O-]
REMARK SMILES IDX 10 1 11 2 12 3 13 4 14 5 15 6 16 7 17 8 18 9 9 10 8 11 7 12
REMARK SMILES IDX 6 13 5 14 4 15 3 16 2 17 1 18
REMARK H PARENT
REMARK Flexibility Score: inf
ROOT
ATOM      1  C   UNL     1     -21.802   1.089  13.019  1.00  0.00     0.004 C 
ENDROOT
BRANCH   1   2
ATOM      2  C   UNL     1     -21.202   1.865  11.832  1.00  0.00     0.000 C 
BRANCH   2   3
ATOM      3  C   UNL     1     -21.779   1.416  10.481  1.00  0.00     0.000 C 
BRANCH   3   4
ATOM      4  C   UNL     1     -21.779   2.540   9.434  1.00  0.00     0.000 C 
BRANCH   4   5
ATOM      5  C   UNL     1     -20.885   2.176   8.239  1.00  0.00     0.006 C 
BRANCH   5   6
ATOM      6  C   UNL     1     -20.401   0.721   8.298  1.00  0.00     0.053 C 
BRANCH   6   7
ATOM      7  C   UNL     1     -20.487   0.052   6.961  1.00  0.00     0.041 C 
ATOM      8  O   UNL     1     -19.934  -1.064   6.772  1.00  0.00    -0.550 OA
ATOM      9  O   UNL     1     -21.152   0.676   5.912  1.00  0.00    -0.550 OA
ENDBRANCH   6   7
ENDBRANCH   5   6
ENDBRANCH   4   5
ENDBRANCH   3   4
ENDBRANCH   2   3
ENDBRANCH   1   2
BRANCH   1  10
ATOM     10  C   UNL     1     -20.764   0.197  13.716  1.00  0.00     0.027 C 
BRANCH  10  11
ATOM     11  C   UNL     1     -21.063  -1.277  13.582  1.00  0.00    -0.031 C 
ATOM     12  C   UNL     1     -20.671  -2.063  12.561  1.00  0.00    -0.031 C 
BRANCH  12  13
ATOM     13  C   UNL     1     -19.833  -1.620  11.385  1.00  0.00     0.027 C 
BRANCH  13  14
ATOM     14  C   UNL     1     -20.169  -2.409  10.107  1.00  0.00     0.004 C 
BRANCH  14  15
ATOM     15  C   UNL     1     -18.970  -3.130   9.462  1.00  0.00     0.000 C 
BRANCH  15  16
ATOM     16  C   UNL     1     -19.382  -4.074   8.320  1.00  0.00    -0.000 C 
BRANCH  16  17
ATOM     17  C   UNL     1     -19.410  -5.547   8.756  1.00  0.00    -0.003 C 
ATOM     18  C   UNL     1     -20.826  -6.051   9.039  1.00  0.00     0.004 C 
ENDBRANCH  16  17
ENDBRANCH  15  16
ENDBRANCH  14  15
ENDBRANCH  13  14
ENDBRANCH  12  13
ENDBRANCH  10  11
ENDBRANCH   1  10
TORSDOF 13
ENDMDL
MODEL 3
REMARK VINA RESULT:    -3.108      2.297      5.646
REMARK INTER + INTRA:          -6.620
REMARK INTER:                  -5.369
REMARK INTRA:                  -1.251
REMARK UNBOUND:                -1.150
REMARK SMILES CCCCCCC=CCCCCCCCC(=O)[O-]
REMARK SMILES IDX 10 1 11 2 12 3 13 4 14 5 15 6 16 7 17 8 18 9 9 10 8 11 7 12
REMARK SMILES IDX 6 13 5 14 4 15 3 16 2 17 1 18
REMARK H PARENT
REMARK Flexibility Score: inf
ROOT
ATOM      1  C   UNL     1     -20.751   0.793   6.796  1.00  0.00     0.004 C 
ENDROOT
BRANCH   1   2
ATOM      2  C   UNL     1     -19.823  -0.434   6.805  1.00  0.00     0.000 C 
BRANCH   2   3
ATOM      3  C   UNL     1     -20.401  -1.607   7.611  1.00  0.00     0.000 C 
BRANCH   3   4
ATOM      4  C   UNL     1     -20.013  -1.554   9.096  1.00  0.00     0.000 C 
BRANCH   4   5
ATOM      5  C   UNL     1     -19.621  -2.948   9.610  1.00  0.00     0.006 C 
BRANCH   5   6
ATOM      6  C   UNL     1     -19.051  -3.838   8.498  1.00  0.00     0.053 C 
BRANCH   6   7
ATOM      7  C   UNL     1     -19.484  -5.263   8.650  1.00  0.00     0.041 C 
ATOM      8  O   UNL     1     -18.838  -6.187   8.087  1.00  0.00    -0.550 OA
ATOM      9  O   UNL     1     -20.621  -5.570   9.387  1.00  0.00    -0.550 OA
ENDBRANCH   6   7
ENDBRANCH   5   6
ENDBRANCH   4   5
ENDBRANCH   3   4
ENDBRANCH   2   3
ENDBRANCH   1   2
BRANCH   1  10
ATOM     10  C   UNL     1     -20.271   1.895   7.754  1.00  0.00     0.027 C 
BRANCH  10  11
ATOM     11  C   UNL     1     -21.405   2.639   8.418  1.00  0.00    -0.031 C 
ATOM     12  C   UNL     1     -21.912   2.364   9.635  1.00  0.00    -0.031 C 
BRANCH  12  13
ATOM     13  C   UNL     1     -21.417   1.283  10.568  1.00  0.00     0.027 C 
BRANCH  13  14
ATOM     14  C   UNL     1     -20.831   1.866  11.866  1.00  0.00     0.004 C 
BRANCH  14  15
ATOM     15  C   UNL     1     -21.539   1.405  13.154  1.00  0.00     0.000 C 
BRANCH  15  16
ATOM     16  C   UNL     1     -20.734   0.354  13.937  1.00  0.00    -0.000 C 
BRANCH  16  17
ATOM     17  C   UNL     1     -21.337  -1.054  13.824  1.00  0.00    -0.003 C 
ATOM     18  C   UNL     1     -20.635  -1.914  12.772  1.00  0.00     0.004 C 
ENDBRANCH  16  17
ENDBRANCH  15  16
ENDBRANCH  14  15
ENDBRANCH  13  14
ENDBRANCH  12  13
ENDBRANCH  10  11
ENDBRANCH   1  10
TORSDOF 13
ENDMDL
MODEL 4
REMARK VINA RESULT:    -3.046      3.052      7.300
REMARK INTER + INTRA:          -6.511
REMARK INTER:                  -5.199
REMARK INTRA:                  -1.312
REMARK UNBOUND:                -1.150
REMARK SMILES CCCCCCC=CCCCCCCCC(=O)[O-]
REMARK SMILES IDX 10 1 11 2 12 3 13 4 14 5 15 6 16 7 17 8 18 9 9 10 8 11 7 12
REMARK SMILES IDX 6 13 5 14 4 15 3 16 2 17 1 18
REMARK H PARENT
REMARK Flexibility Score: inf
ROOT
ATOM      1  C   UNL     1     -20.358  -1.867  13.028  1.00  0.00     0.004 C 
ENDROOT
BRANCH   1   2
ATOM      2  C   UNL     1     -20.753  -2.310  11.609  1.00  0.00     0.000 C 
BRANCH   2   3
ATOM      3  C   UNL     1     -19.790  -1.783  10.535  1.00  0.00     0.000 C 
BRANCH   3   4
ATOM      4  C   UNL     1     -19.538  -2.800   9.412  1.00  0.00     0.000 C 
BRANCH   4   5
ATOM      5  C   UNL     1     -19.868  -2.194   8.039  1.00  0.00     0.006 C 
BRANCH   5   6
ATOM      6  C   UNL     1     -20.475  -0.790   8.155  1.00  0.00     0.053 C 
BRANCH   6   7
ATOM      7  C   UNL     1     -20.221   0.028   6.927  1.00  0.00     0.041 C 
ATOM      8  O   UNL     1     -19.394  -0.365   6.062  1.00  0.00    -0.550 OA
ATOM      9  O   UNL     1     -20.876   1.242   6.752  1.00  0.00    -0.550 OA
ENDBRANCH   6   7
ENDBRANCH   5   6
ENDBRANCH   4   5
ENDBRANCH   3   4
ENDBRANCH   2   3
ENDBRANCH   1   2
BRANCH   1  10
ATOM     10  C   UNL     1     -21.400  -0.930  13.658  1.00  0.00     0.027 C 
BRANCH  10  11
ATOM     11  C   UNL     1     -20.952   0.511  13.703  1.00  0.00    -0.031 C 
ATOM     12  C   UNL     1     -21.120   1.412  12.717  1.00  0.00    -0.031 C 
BRANCH  12  13
ATOM     13  C   UNL     1     -21.816   1.153  11.401  1.00  0.00     0.027 C 
BRANCH  13  14
ATOM     14  C   UNL     1     -21.221   1.994  10.258  1.00  0.00     0.004 C 
BRANCH  14  15
ATOM     15  C   UNL     1     -22.239   2.882   9.517  1.00  0.00     0.000 C 
BRANCH  15  16
ATOM     16  C   UNL     1     -21.571   3.931   8.612  1.00  0.00    -0.000 C 
BRANCH  16  17
ATOM     17  C   UNL     1     -21.744   5.363   9.144  1.00  0.00    -0.003 C 
ATOM     18  C   UNL     1     -20.420   5.998   9.566  1.00  0.00     0.004 C 
ENDBRANCH  16  17
ENDBRANCH  15  16
ENDBRANCH  14  15
ENDBRANCH  13  14
ENDBRANCH  12  13
ENDBRANCH  10  11
ENDBRANCH   1  10
TORSDOF 13
ENDMDL
MODEL 5
REMARK VINA RESULT:    -2.930      2.350      6.157
REMARK INTER + INTRA:          -6.306
REMARK INTER:                  -4.923
REMARK INTRA:                  -1.384
REMARK UNBOUND:                -1.150
REMARK SMILES CCCCCCC=CCCCCCCCC(=O)[O-]
REMARK SMILES IDX 10 1 11 2 12 3 13 4 14 5 15 6 16 7 17 8 18 9 9 10 8 11 7 12
REMARK SMILES IDX 6 13 5 14 4 15 3 16 2 17 1 18
REMARK H PARENT
REMARK Flexibility Score: inf
ROOT
ATOM      1  C   UNL     1     -20.778  -1.316  13.777  1.00  0.00     0.004 C 
ENDROOT
BRANCH   1   2
ATOM      2  C   UNL     1     -20.779  -2.180  12.504  1.00  0.00     0.000 C 
BRANCH   2   3
ATOM      3  C   UNL     1     -19.823  -1.644  11.426  1.00  0.00     0.000 C 
BRANCH   3   4
ATOM      4  C   UNL     1     -20.147  -2.184  10.025  1.00  0.00     0.000 C 
BRANCH   4   5
ATOM      5  C   UNL     1     -19.010  -3.076   9.505  1.00  0.00     0.006 C 
BRANCH   5   6
ATOM      6  C   UNL     1     -19.440  -3.920   8.297  1.00  0.00     0.053 C 
BRANCH   6   7
ATOM      7  C   UNL     1     -19.591  -5.366   8.655  1.00  0.00     0.041 C 
ATOM      8  O   UNL     1     -18.793  -6.222   8.190  1.00  0.00    -0.550 OA
ATOM      9  O   UNL     1     -20.634  -5.773   9.479  1.00  0.00    -0.550 OA
ENDBRANCH   6   7
ENDBRANCH   5   6
ENDBRANCH   4   5
ENDBRANCH   3   4
ENDBRANCH   2   3
ENDBRANCH   1   2
BRANCH   1  10
ATOM     10  C   UNL     1     -21.729  -0.113  13.666  1.00  0.00     0.027 C 
BRANCH  10  11
ATOM     11  C   UNL     1     -21.020   1.173  13.317  1.00  0.00    -0.031 C 
ATOM     12  C   UNL     1     -21.190   1.875  12.180  1.00  0.00    -0.031 C 
BRANCH  12  13
ATOM     13  C   UNL     1     -22.146   1.520  11.065  1.00  0.00     0.027 C 
BRANCH  13  14
ATOM     14  C   UNL     1     -21.650   2.023   9.698  1.00  0.00     0.004 C 
BRANCH  14  15
ATOM     15  C   UNL     1     -20.653   1.086   8.991  1.00  0.00     0.000 C 
BRANCH  15  16
ATOM     16  C   UNL     1     -20.460   1.428   7.504  1.00  0.00    -0.000 C 
BRANCH  16  17
ATOM     17  C   UNL     1     -19.972   0.226   6.682  1.00  0.00    -0.003 C 
ATOM     18  C   UNL     1     -20.839  -1.017   6.884  1.00  0.00     0.004 C 
ENDBRANCH  16  17
ENDBRANCH  15  16
ENDBRANCH  14  15
ENDBRANCH  13  14
ENDBRANCH  12  13
ENDBRANCH  10  11
ENDBRANCH   1  10
TORSDOF 13
ENDMDL
MODEL 6
REMARK VINA RESULT:    -2.850      1.156      2.224
REMARK INTER + INTRA:          -6.165
REMARK INTER:                  -5.308
REMARK INTRA:                  -0.857
REMARK UNBOUND:                -1.150
REMARK SMILES CCCCCCC=CCCCCCCCC(=O)[O-]
REMARK SMILES IDX 10 1 11 2 12 3 13 4 14 5 15 6 16 7 17 8 18 9 9 10 8 11 7 12
REMARK SMILES IDX 6 13 5 14 4 15 3 16 2 17 1 18
REMARK H PARENT
REMARK Flexibility Score: inf
ROOT
ATOM      1  C   UNL     1     -20.992   1.161   9.887  1.00  0.00     0.004 C 
ENDROOT
BRANCH   1   2
ATOM      2  C   UNL     1     -21.371   2.015  11.110  1.00  0.00     0.000 C 
BRANCH   2   3
ATOM      3  C   UNL     1     -21.834   1.166  12.304  1.00  0.00     0.000 C 
BRANCH   3   4
ATOM      4  C   UNL     1     -21.075   1.497  13.597  1.00  0.00     0.000 C 
BRANCH   4   5
ATOM      5  C   UNL     1     -20.534   0.220  14.258  1.00  0.00     0.006 C 
BRANCH   5   6
ATOM      6  C   UNL     1     -21.470  -0.979  14.055  1.00  0.00     0.053 C 
BRANCH   6   7
ATOM      7  C   UNL     1     -20.874  -1.999  13.135  1.00  0.00     0.041 C 
ATOM      8  O   UNL     1     -19.918  -1.688  12.376  1.00  0.00    -0.550 OA
ATOM      9  O   UNL     1     -21.396  -3.286  13.091  1.00  0.00    -0.550 OA
ENDBRANCH   6   7
ENDBRANCH   5   6
ENDBRANCH   4   5
ENDBRANCH   3   4
ENDBRANCH   2   3
ENDBRANCH   1   2
BRANCH   1  10
ATOM     10  C   UNL     1     -21.266   1.888   8.561  1.00  0.00     0.027 C 
BRANCH  10  11
ATOM     11  C   UNL     1     -20.214   1.625   7.511  1.00  0.00    -0.031 C 
ATOM     12  C   UNL     1     -20.062   0.474   6.830  1.00  0.00    -0.031 C 
BRANCH  12  13
ATOM     13  C   UNL     1     -20.938  -0.749   6.967  1.00  0.00     0.027 C 
BRANCH  13  14
ATOM     14  C   UNL     1     -20.151  -1.969   7.478  1.00  0.00     0.004 C 
BRANCH  14  15
ATOM     15  C   UNL     1     -19.930  -1.998   9.003  1.00  0.00     0.000 C 
BRANCH  15  16
ATOM     16  C   UNL     1     -19.222  -3.277   9.480  1.00  0.00    -0.000 C 
BRANCH  16  17
ATOM     17  C   UNL     1     -19.107  -4.335   8.372  1.00  0.00    -0.003 C 
ATOM     18  C   UNL     1     -19.661  -5.695   8.796  1.00  0.00     0.004 C 
ENDBRANCH  16  17
ENDBRANCH  15  16
ENDBRANCH  14  15
ENDBRANCH  13  14
ENDBRANCH  12  13
ENDBRANCH  10  11
ENDBRANCH   1  10
TORSDOF 13
ENDMDL
MODEL 7
REMARK VINA RESULT:    -2.805      3.165      5.372
REMARK INTER + INTRA:          -6.086
REMARK INTER:                  -4.780
REMARK INTRA:                  -1.305
REMARK UNBOUND:                -1.150
REMARK SMILES CCCCCCC=CCCCCCCCC(=O)[O-]
REMARK SMILES IDX 10 1 11 2 12 3 13 4 14 5 15 6 16 7 17 8 18 9 9 10 8 11 7 12
REMARK SMILES IDX 6 13 5 14 4 15 3 16 2 17 1 18
REMARK H PARENT
REMARK Flexibility Score: inf
ROOT
ATOM      1  C   UNL     1     -19.996  -0.355   6.496  1.00  0.00     0.004 C 
ENDROOT
BRANCH   1   2
ATOM      2  C   UNL     1     -19.578   0.881   7.313  1.00  0.00     0.000 C 
BRANCH   2   3
ATOM      3  C   UNL     1     -20.775   1.753   7.721  1.00  0.00     0.000 C 
BRANCH   3   4
ATOM      4  C   UNL     1     -21.120   1.627   9.212  1.00  0.00     0.000 C 
BRANCH   4   5
ATOM      5  C   UNL     1     -21.785   2.911   9.731  1.00  0.00     0.006 C 
BRANCH   5   6
ATOM      6  C   UNL     1     -21.958   3.962   8.627  1.00  0.00     0.053 C 
BRANCH   6   7
ATOM      7  C   UNL     1     -21.588   5.334   9.102  1.00  0.00     0.041 C 
ATOM      8  O   UNL     1     -22.190   6.345   8.655  1.00  0.00    -0.550 OA
ATOM      9  O   UNL     1     -20.555   5.497  10.017  1.00  0.00    -0.550 OA
ENDBRANCH   6   7
ENDBRANCH   5   6
ENDBRANCH   4   5
ENDBRANCH   3   4
ENDBRANCH   2   3
ENDBRANCH   1   2
BRANCH   1  10
ATOM     10  C   UNL     1     -20.712  -1.408   7.357  1.00  0.00     0.027 C 
BRANCH  10  11
ATOM     11  C   UNL     1     -19.760  -2.317   8.096  1.00  0.00    -0.031 C 
ATOM     12  C   UNL     1     -19.591  -2.352   9.431  1.00  0.00    -0.031 C 
BRANCH  12  13
ATOM     13  C   UNL     1     -20.347  -1.512  10.433  1.00  0.00     0.027 C 
BRANCH  13  14
ATOM     14  C   UNL     1     -19.781  -1.660  11.856  1.00  0.00     0.004 C 
BRANCH  14  15
ATOM     15  C   UNL     1     -20.780  -2.209  12.892  1.00  0.00     0.000 C 
BRANCH  15  16
ATOM     16  C   UNL     1     -21.527  -1.098  13.649  1.00  0.00    -0.000 C 
BRANCH  16  17
ATOM     17  C   UNL     1     -20.664   0.156  13.856  1.00  0.00    -0.003 C 
ATOM     18  C   UNL     1     -21.210   1.376  13.114  1.00  0.00     0.004 C 
ENDBRANCH  16  17
ENDBRANCH  15  16
ENDBRANCH  14  15
ENDBRANCH  13  14
ENDBRANCH  12  13
ENDBRANCH  10  11
ENDBRANCH   1  10
TORSDOF 13
ENDMDL
MODEL 8
REMARK VINA RESULT:    -2.726      3.281      5.492
REMARK INTER + INTRA:          -5.948
REMARK INTER:                  -4.622
REMARK INTRA:                  -1.325
REMARK UNBOUND:                -1.150
REMARK SMILES CCCCCCC=CCCCCCCCC(=O)[O-]
REMARK SMILES IDX 10 1 11 2 12 3 13 4 14 5 15 6 16 7 17 8 18 9 9 10 8 11 7 12
REMARK SMILES IDX 6 13 5 14 4 15 3 16 2 17 1 18
REMARK H PARENT
REMARK Flexibility Score: inf
ROOT
ATOM      1  C   UNL     1     -21.481   0.679  13.794  1.00  0.00     0.004 C 
ENDROOT
BRANCH   1   2
ATOM      2  C   UNL     1     -21.100   1.618  12.635  1.00  0.00     0.000 C 
BRANCH   2   3
ATOM      3  C   UNL     1     -21.877   1.310  11.346  1.00  0.00     0.000 C 
BRANCH   3   4
ATOM      4  C   UNL     1     -21.247   1.961  10.105  1.00  0.00     0.000 C 
BRANCH   4   5
ATOM      5  C   UNL     1     -22.209   2.978   9.471  1.00  0.00     0.006 C 
BRANCH   5   6
ATOM      6  C   UNL     1     -21.483   3.968   8.551  1.00  0.00     0.053 C 
BRANCH   6   7
ATOM      7  C   UNL     1     -21.507   5.360   9.103  1.00  0.00     0.041 C 
ATOM      8  O   UNL     1     -22.364   6.189   8.697  1.00  0.00    -0.550 OA
ATOM      9  O   UNL     1     -20.563   5.752  10.044  1.00  0.00    -0.550 OA
ENDBRANCH   6   7
ENDBRANCH   5   6
ENDBRANCH   4   5
ENDBRANCH   3   4
ENDBRANCH   2   3
ENDBRANCH   1   2
BRANCH   1  10
ATOM     10  C   UNL     1     -20.539  -0.530  13.898  1.00  0.00     0.027 C 
BRANCH  10  11
ATOM     11  C   UNL     1     -21.093  -1.772  13.242  1.00  0.00    -0.031 C 
ATOM     12  C   UNL     1     -20.644  -2.316  12.095  1.00  0.00    -0.031 C 
BRANCH  12  13
ATOM     13  C   UNL     1     -19.484  -1.801  11.275  1.00  0.00     0.027 C 
BRANCH  13  14
ATOM     14  C   UNL     1     -19.604  -2.196   9.793  1.00  0.00     0.004 C 
BRANCH  14  15
ATOM     15  C   UNL     1     -20.333  -1.166   8.910  1.00  0.00     0.000 C 
BRANCH  15  16
ATOM     16  C   UNL     1     -20.334  -1.549   7.420  1.00  0.00    -0.000 C 
BRANCH  16  17
ATOM     17  C   UNL     1     -19.860  -0.400   6.517  1.00  0.00    -0.003 C 
ATOM     18  C   UNL     1     -20.456   0.949   6.917  1.00  0.00     0.004 C 
ENDBRANCH  16  17
ENDBRANCH  15  16
ENDBRANCH  14  15
ENDBRANCH  13  14
ENDBRANCH  12  13
ENDBRANCH  10  11
ENDBRANCH   1  10
TORSDOF 13
ENDMDL
MODEL 9
REMARK VINA RESULT:    -2.678      1.986      6.012
REMARK INTER + INTRA:          -5.864
REMARK INTER:                  -5.796
REMARK INTRA:                  -0.068
REMARK UNBOUND:                -1.150
REMARK SMILES CCCCCCC=CCCCCCCCC(=O)[O-]
REMARK SMILES IDX 10 1 11 2 12 3 13 4 14 5 15 6 16 7 17 8 18 9 9 10 8 11 7 12
REMARK SMILES IDX 6 13 5 14 4 15 3 16 2 17 1 18
REMARK H PARENT
REMARK Flexibility Score: inf
ROOT
ATOM      1  C   UNL     1     -20.505  -1.163   8.360  1.00  0.00     0.004 C 
ENDROOT
BRANCH   1   2
ATOM      2  C   UNL     1     -19.625  -2.360   8.759  1.00  0.00     0.000 C 
BRANCH   2   3
ATOM      3  C   UNL     1     -19.292  -2.375  10.259  1.00  0.00     0.000 C 
BRANCH   3   4
ATOM      4  C   UNL     1     -20.347  -1.651  11.108  1.00  0.00     0.000 C 
BRANCH   4   5
ATOM      5  C   UNL     1     -20.176  -1.986  12.598  1.00  0.00     0.006 C 
BRANCH   5   6
ATOM      6  C   UNL     1     -21.319  -1.424  13.454  1.00  0.00     0.053 C 
BRANCH   6   7
ATOM      7  C   UNL     1     -21.014  -0.043  13.949  1.00  0.00     0.041 C 
ATOM      8  O   UNL     1     -20.597   0.132  15.124  1.00  0.00    -0.550 OA
ATOM      9  O   UNL     1     -21.221   1.054  13.121  1.00  0.00    -0.550 OA
ENDBRANCH   6   7
ENDBRANCH   5   6
ENDBRANCH   4   5
ENDBRANCH   3   4
ENDBRANCH   2   3
ENDBRANCH   1   2
BRANCH   1  10
ATOM     10  C   UNL     1     -20.370  -0.810   6.871  1.00  0.00     0.027 C 
BRANCH  10  11
ATOM     11  C   UNL     1     -20.350   0.677   6.612  1.00  0.00    -0.031 C 
ATOM     12  C   UNL     1     -20.665   1.630   7.509  1.00  0.00    -0.031 C 
BRANCH  12  13
ATOM     13  C   UNL     1     -21.062   1.385   8.946  1.00  0.00     0.027 C 
BRANCH  13  14
ATOM     14  C   UNL     1     -21.860   2.563   9.534  1.00  0.00     0.004 C 
BRANCH  14  15
ATOM     15  C   UNL     1     -21.904   3.818   8.641  1.00  0.00     0.000 C 
BRANCH  15  16
ATOM     16  C   UNL     1     -21.817   5.126   9.444  1.00  0.00    -0.000 C 
BRANCH  16  17
ATOM     17  C   UNL     1     -20.592   5.971   9.063  1.00  0.00    -0.003 C 
ATOM     18  C   UNL     1     -19.668   6.239  10.252  1.00  0.00     0.004 C 
ENDBRANCH  16  17
ENDBRANCH  15  16
ENDBRANCH  14  15
ENDBRANCH  13  14
ENDBRANCH  12  13
ENDBRANCH  10  11
ENDBRANCH   1  10
TORSDOF 13
ENDMDL
