MODEL 1
REMARK VINA RESULT:    -3.587      0.000      0.000
REMARK INTER + INTRA:          -5.860
REMARK INTER:                  -5.475
REMARK INTRA:                  -0.385
REMARK UNBOUND:                -0.385
REMARK SMILES O=C([O-])CCCCCCCCC(=O)[O-]
REMARK SMILES IDX 7 1 6 2 5 3 4 4 2 5 1 6 3 7 8 8 9 9 10 10 11 11 12 12 13 13
REMARK SMILES IDX 14 14
REMARK H PARENT
REMARK Flexibility Score: inf
ROOT
ATOM      1  C   UNL     1      49.737  48.177  14.146  1.00  0.00     0.000 C 
ENDROOT
BRANCH   1   2
ATOM      2  C   UNL     1      49.644  49.460  13.311  1.00  0.00     0.000 C 
BRANCH   2   3
ATOM      3  C   UNL     1      50.836  49.579  12.349  1.00  0.00     0.006 C 
BRANCH   3   4
ATOM      4  C   UNL     1      50.544  50.525  11.178  1.00  0.00     0.053 C 
BRANCH   4   5
ATOM      5  C   UNL     1      51.002  49.948   9.872  1.00  0.00     0.041 C 
ATOM      6  O   UNL     1      52.219  49.674   9.692  1.00  0.00    -0.550 OA
ATOM      7  O   UNL     1      50.090  49.743   8.845  1.00  0.00    -0.550 OA
ENDBRANCH   4   5
ENDBRANCH   3   4
ENDBRANCH   2   3
ENDBRANCH   1   2
BRANCH   1   8
ATOM      8  C   UNL     1      51.047  47.432  13.866  1.00  0.00     0.000 C 
BRANCH   8   9
ATOM      9  C   UNL     1      50.910  45.938  14.180  1.00  0.00     0.000 C 
BRANCH   9  10
ATOM     10  C   UNL     1      49.575  45.642  14.878  1.00  0.00     0.006 C 
BRANCH  10  11
ATOM     11  C   UNL     1      49.482  44.188  15.362  1.00  0.00     0.053 C 
BRANCH  11  12
ATOM     12  C   UNL     1      48.060  43.742  15.513  1.00  0.00     0.041 C 
ATOM     13  O   UNL     1      47.482  43.140  14.570  1.00  0.00    -0.550 OA
ATOM     14  O   UNL     1      47.383  43.963  16.706  1.00  0.00    -0.550 OA
ENDBRANCH  11  12
ENDBRANCH  10  11
ENDBRANCH   9  10
ENDBRANCH   8   9
ENDBRANCH   1   8
TORSDOF 9
ENDMDL
MODEL 2
REMARK VINA RESULT:    -3.530     13.645     15.803
REMARK INTER + INTRA:          -5.773
REMARK INTER:                  -4.983
REMARK INTRA:                  -0.789
REMARK UNBOUND:                -0.385
REMARK SMILES O=C([O-])CCCCCCCCC(=O)[O-]
REMARK SMILES IDX 7 1 6 2 5 3 4 4 2 5 1 6 3 7 8 8 9 9 10 10 11 11 12 12 13 13
REMARK SMILES IDX 14 14
REMARK H PARENT
REMARK Flexibility Score: inf
ROOT
ATOM      1  C   UNL     1      58.122  34.763  16.272  1.00  0.00     0.000 C 
ENDROOT
BRANCH   1   2
ATOM      2  C   UNL     1      57.346  34.180  15.084  1.00  0.00     0.000 C 
BRANCH   2   3
ATOM      3  C   UNL     1      56.504  35.263  14.392  1.00  0.00     0.006 C 
BRANCH   3   4
ATOM      4  C   UNL     1      56.490  35.101  12.867  1.00  0.00     0.053 C 
BRANCH   4   5
ATOM      5  C   UNL     1      55.862  36.280  12.189  1.00  0.00     0.041 C 
ATOM      6  O   UNL     1      56.463  36.867  11.250  1.00  0.00    -0.550 OA
ATOM      7  O   UNL     1      54.626  36.750  12.615  1.00  0.00    -0.550 OA
ENDBRANCH   4   5
ENDBRANCH   3   4
ENDBRANCH   2   3
ENDBRANCH   1   2
BRANCH   1   8
ATOM      8  C   UNL     1      59.607  34.393  16.194  1.00  0.00     0.000 C 
BRANCH   8   9
ATOM      9  C   UNL     1      59.887  33.487  14.989  1.00  0.00     0.000 C 
BRANCH   9  10
ATOM     10  C   UNL     1      60.907  34.132  14.040  1.00  0.00     0.006 C 
BRANCH  10  11
ATOM     11  C   UNL     1      60.321  34.388  12.644  1.00  0.00     0.053 C 
BRANCH  11  12
ATOM     12  C   UNL     1      59.967  33.110  11.947  1.00  0.00     0.041 C 
ATOM     13  O   UNL     1      58.874  33.008  11.330  1.00  0.00    -0.550 OA
ATOM     14  O   UNL     1      60.859  32.045  11.950  1.00  0.00    -0.550 OA
ENDBRANCH  11  12
ENDBRANCH  10  11
ENDBRANCH   9  10
ENDBRANCH   8   9
ENDBRANCH   1   8
TORSDOF 9
ENDMDL
MODEL 3
REMARK VINA RESULT:    -3.515      3.405      6.342
REMARK INTER + INTRA:          -5.749
REMARK INTER:                  -4.908
REMARK INTRA:                  -0.841
REMARK UNBOUND:                -0.385
REMARK SMILES O=C([O-])CCCCCCCCC(=O)[O-]
REMARK SMILES IDX 7 1 6 2 5 3 4 4 2 5 1 6 3 7 8 8 9 9 10 10 11 11 12 12 13 13
REMARK SMILES IDX 14 14
REMARK H PARENT
REMARK Flexibility Score: inf
ROOT
ATOM      1  C   UNL     1      50.706  48.983  15.174  1.00  0.00     0.000 C 
ENDROOT
BRANCH   1   2
ATOM      2  C   UNL     1      50.144  47.812  14.359  1.00  0.00     0.000 C 
BRANCH   2   3
ATOM      3  C   UNL     1      51.240  46.779  14.053  1.00  0.00     0.006 C 
BRANCH   3   4
ATOM      4  C   UNL     1      52.158  47.228  12.910  1.00  0.00     0.053 C 
BRANCH   4   5
ATOM      5  C   UNL     1      53.538  47.548  13.401  1.00  0.00     0.041 C 
ATOM      6  O   UNL     1      54.052  46.873  14.332  1.00  0.00    -0.550 OA
ATOM      7  O   UNL     1      54.242  48.610  12.850  1.00  0.00    -0.550 OA
ENDBRANCH   4   5
ENDBRANCH   3   4
ENDBRANCH   2   3
ENDBRANCH   1   2
BRANCH   1   8
ATOM      8  C   UNL     1      50.602  50.298  14.393  1.00  0.00     0.000 C 
BRANCH   8   9
ATOM      9  C   UNL     1      49.737  50.126  13.138  1.00  0.00     0.000 C 
BRANCH   9  10
ATOM     10  C   UNL     1      50.228  51.037  12.003  1.00  0.00     0.006 C 
BRANCH  10  11
ATOM     11  C   UNL     1      51.593  50.597  11.455  1.00  0.00     0.053 C 
BRANCH  11  12
ATOM     12  C   UNL     1      51.605  50.558   9.957  1.00  0.00     0.041 C 
ATOM     13  O   UNL     1      50.578  50.193   9.326  1.00  0.00    -0.550 OA
ATOM     14  O   UNL     1      52.738  50.955   9.259  1.00  0.00    -0.550 OA
ENDBRANCH  11  12
ENDBRANCH  10  11
ENDBRANCH   9  10
ENDBRANCH   8   9
ENDBRANCH   1   8
TORSDOF 9
ENDMDL
MODEL 4
REMARK VINA RESULT:    -3.502     13.515     15.763
REMARK INTER + INTRA:          -5.729
REMARK INTER:                  -4.792
REMARK INTRA:                  -0.937
REMARK UNBOUND:                -0.385
REMARK SMILES O=C([O-])CCCCCCCCC(=O)[O-]
REMARK SMILES IDX 7 1 6 2 5 3 4 4 2 5 1 6 3 7 8 8 9 9 10 10 11 11 12 12 13 13
REMARK SMILES IDX 14 14
REMARK H PARENT
REMARK Flexibility Score: inf
ROOT
ATOM      1  C   UNL     1      57.082  33.302  13.698  1.00  0.00     0.000 C 
ENDROOT
BRANCH   1   2
ATOM      2  C   UNL     1      56.241  34.024  12.638  1.00  0.00     0.000 C 
BRANCH   2   3
ATOM      3  C   UNL     1      56.921  35.327  12.190  1.00  0.00     0.006 C 
BRANCH   3   4
ATOM      4  C   UNL     1      55.918  36.475  12.016  1.00  0.00     0.053 C 
BRANCH   4   5
ATOM      5  C   UNL     1      55.087  36.676  13.246  1.00  0.00     0.041 C 
ATOM      6  O   UNL     1      53.831  36.598  13.183  1.00  0.00    -0.550 OA
ATOM      7  O   UNL     1      55.698  36.981  14.455  1.00  0.00    -0.550 OA
ENDBRANCH   4   5
ENDBRANCH   3   4
ENDBRANCH   2   3
ENDBRANCH   1   2
BRANCH   1   8
ATOM      8  C   UNL     1      58.009  34.282  14.426  1.00  0.00     0.000 C 
BRANCH   8   9
ATOM      9  C   UNL     1      59.333  33.609  14.806  1.00  0.00     0.000 C 
BRANCH   9  10
ATOM     10  C   UNL     1      60.524  34.338  14.167  1.00  0.00     0.006 C 
BRANCH  10  11
ATOM     11  C   UNL     1      60.507  34.246  12.634  1.00  0.00     0.053 C 
BRANCH  11  12
ATOM     12  C   UNL     1      60.513  32.824  12.163  1.00  0.00     0.041 C 
ATOM     13  O   UNL     1      61.470  32.062  12.464  1.00  0.00    -0.550 OA
ATOM     14  O   UNL     1      59.448  32.331  11.420  1.00  0.00    -0.550 OA
ENDBRANCH  11  12
ENDBRANCH  10  11
ENDBRANCH   9  10
ENDBRANCH   8   9
ENDBRANCH   1   8
TORSDOF 9
ENDMDL
MODEL 5
REMARK VINA RESULT:    -3.481      1.004      7.090
REMARK INTER + INTRA:          -5.697
REMARK INTER:                  -5.222
REMARK INTRA:                  -0.475
REMARK UNBOUND:                -0.385
REMARK SMILES O=C([O-])CCCCCCCCC(=O)[O-]
REMARK SMILES IDX 7 1 6 2 5 3 4 4 2 5 1 6 3 7 8 8 9 9 10 10 11 11 12 12 13 13
REMARK SMILES IDX 14 14
REMARK H PARENT
REMARK Flexibility Score: inf
ROOT
ATOM      1  C   UNL     1      50.260  48.003  14.566  1.00  0.00     0.000 C 
ENDROOT
BRANCH   1   2
ATOM      2  C   UNL     1      51.056  46.805  14.032  1.00  0.00     0.000 C 
BRANCH   2   3
ATOM      3  C   UNL     1      50.396  45.480  14.441  1.00  0.00     0.006 C 
BRANCH   3   4
ATOM      4  C   UNL     1      49.090  45.696  15.216  1.00  0.00     0.053 C 
BRANCH   4   5
ATOM      5  C   UNL     1      48.267  44.445  15.276  1.00  0.00     0.041 C 
ATOM      6  O   UNL     1      47.045  44.474  14.970  1.00  0.00    -0.550 OA
ATOM      7  O   UNL     1      48.842  43.255  15.701  1.00  0.00    -0.550 OA
ENDBRANCH   4   5
ENDBRANCH   3   4
ENDBRANCH   2   3
ENDBRANCH   1   2
BRANCH   1   8
ATOM      8  C   UNL     1      49.845  48.940  13.426  1.00  0.00     0.000 C 
BRANCH   8   9
ATOM      9  C   UNL     1      50.483  50.324  13.591  1.00  0.00     0.000 C 
BRANCH   9  10
ATOM     10  C   UNL     1      51.232  50.740  12.316  1.00  0.00     0.006 C 
BRANCH  10  11
ATOM     11  C   UNL     1      51.529  49.543  11.401  1.00  0.00     0.053 C 
BRANCH  11  12
ATOM     12  C   UNL     1      51.487  49.927   9.954  1.00  0.00     0.041 C 
ATOM     13  O   UNL     1      52.514  50.393   9.393  1.00  0.00    -0.550 OA
ATOM     14  O   UNL     1      50.325  49.740   9.216  1.00  0.00    -0.550 OA
ENDBRANCH  11  12
ENDBRANCH  10  11
ENDBRANCH   9  10
ENDBRANCH   8   9
ENDBRANCH   1   8
TORSDOF 9
ENDMDL
MODEL 6
REMARK VINA RESULT:    -3.467     12.094     13.381
REMARK INTER + INTRA:          -5.676
REMARK INTER:                  -5.152
REMARK INTRA:                  -0.524
REMARK UNBOUND:                -0.385
REMARK SMILES O=C([O-])CCCCCCCCC(=O)[O-]
REMARK SMILES IDX 7 1 6 2 5 3 4 4 2 5 1 6 3 7 8 8 9 9 10 10 11 11 12 12 13 13
REMARK SMILES IDX 14 14
REMARK H PARENT
REMARK Flexibility Score: inf
ROOT
ATOM      1  C   UNL     1      62.018  44.554  17.208  1.00  0.00     0.000 C 
ENDROOT
BRANCH   1   2
ATOM      2  C   UNL     1      60.764  45.365  17.556  1.00  0.00     0.000 C 
BRANCH   2   3
ATOM      3  C   UNL     1      59.489  44.602  17.164  1.00  0.00     0.006 C 
BRANCH   3   4
ATOM      4  C   UNL     1      58.348  45.546  16.765  1.00  0.00     0.053 C 
BRANCH   4   5
ATOM      5  C   UNL     1      57.617  45.051  15.554  1.00  0.00     0.041 C 
ATOM      6  O   UNL     1      57.295  45.852  14.636  1.00  0.00    -0.550 OA
ATOM      7  O   UNL     1      57.264  43.712  15.455  1.00  0.00    -0.550 OA
ENDBRANCH   4   5
ENDBRANCH   3   4
ENDBRANCH   2   3
ENDBRANCH   1   2
BRANCH   1   8
ATOM      8  C   UNL     1      63.222  45.474  16.974  1.00  0.00     0.000 C 
BRANCH   8   9
ATOM      9  C   UNL     1      64.017  45.038  15.737  1.00  0.00     0.000 C 
BRANCH   9  10
ATOM     10  C   UNL     1      63.515  43.686  15.209  1.00  0.00     0.006 C 
BRANCH  10  11
ATOM     11  C   UNL     1      64.608  42.608  15.242  1.00  0.00     0.053 C 
BRANCH  11  12
ATOM     12  C   UNL     1      64.483  41.726  16.447  1.00  0.00     0.041 C 
ATOM     13  O   UNL     1      64.836  42.148  17.579  1.00  0.00    -0.550 OA
ATOM     14  O   UNL     1      63.945  40.451  16.324  1.00  0.00    -0.550 OA
ENDBRANCH  11  12
ENDBRANCH  10  11
ENDBRANCH   9  10
ENDBRANCH   8   9
ENDBRANCH   1   8
TORSDOF 9
ENDMDL
MODEL 7
REMARK VINA RESULT:    -3.463     13.137     15.371
REMARK INTER + INTRA:          -5.670
REMARK INTER:                  -5.013
REMARK INTRA:                  -0.657
REMARK UNBOUND:                -0.385
REMARK SMILES O=C([O-])CCCCCCCCC(=O)[O-]
REMARK SMILES IDX 7 1 6 2 5 3 4 4 2 5 1 6 3 7 8 8 9 9 10 10 11 11 12 12 13 13
REMARK SMILES IDX 14 14
REMARK H PARENT
REMARK Flexibility Score: inf
ROOT
ATOM      1  C   UNL     1      57.764  33.146  13.266  1.00  0.00     0.000 C 
ENDROOT
BRANCH   1   2
ATOM      2  C   UNL     1      58.396  33.091  11.870  1.00  0.00     0.000 C 
BRANCH   2   3
ATOM      3  C   UNL     1      59.928  33.026  11.961  1.00  0.00     0.006 C 
BRANCH   3   4
ATOM      4  C   UNL     1      60.543  34.374  12.358  1.00  0.00     0.053 C 
BRANCH   4   5
ATOM      5  C   UNL     1      61.300  34.280  13.648  1.00  0.00     0.041 C 
ATOM      6  O   UNL     1      62.536  34.035  13.642  1.00  0.00    -0.550 OA
ATOM      7  O   UNL     1      60.634  34.431  14.857  1.00  0.00    -0.550 OA
ENDBRANCH   4   5
ENDBRANCH   3   4
ENDBRANCH   2   3
ENDBRANCH   1   2
BRANCH   1   8
ATOM      8  C   UNL     1      56.956  34.435  13.455  1.00  0.00     0.000 C 
BRANCH   8   9
ATOM      9  C   UNL     1      56.880  35.234  12.148  1.00  0.00     0.000 C 
BRANCH   9  10
ATOM     10  C   UNL     1      56.020  36.494  12.323  1.00  0.00     0.006 C 
BRANCH  10  11
ATOM     11  C   UNL     1      54.535  36.160  12.524  1.00  0.00     0.053 C 
BRANCH  11  12
ATOM     12  C   UNL     1      53.934  36.949  13.646  1.00  0.00     0.041 C 
ATOM     13  O   UNL     1      52.732  37.320  13.586  1.00  0.00    -0.550 OA
ATOM     14  O   UNL     1      54.692  37.248  14.771  1.00  0.00    -0.550 OA
ENDBRANCH  11  12
ENDBRANCH  10  11
ENDBRANCH   9  10
ENDBRANCH   8   9
ENDBRANCH   1   8
TORSDOF 9
ENDMDL
MODEL 8
REMARK VINA RESULT:    -3.456      2.379      3.315
REMARK INTER + INTRA:          -5.659
REMARK INTER:                  -5.221
REMARK INTRA:                  -0.438
REMARK UNBOUND:                -0.385
REMARK SMILES O=C([O-])CCCCCCCCC(=O)[O-]
REMARK SMILES IDX 7 1 6 2 5 3 4 4 2 5 1 6 3 7 8 8 9 9 10 10 11 11 12 12 13 13
REMARK SMILES IDX 14 14
REMARK H PARENT
REMARK Flexibility Score: inf
ROOT
ATOM      1  C   UNL     1      50.490  45.596  14.493  1.00  0.00     0.000 C 
ENDROOT
BRANCH   1   2
ATOM      2  C   UNL     1      50.008  47.035  14.716  1.00  0.00     0.000 C 
BRANCH   2   3
ATOM      3  C   UNL     1      50.819  48.025  13.865  1.00  0.00     0.006 C 
BRANCH   3   4
ATOM      4  C   UNL     1      51.887  47.321  13.017  1.00  0.00     0.053 C 
BRANCH   4   5
ATOM      5  C   UNL     1      52.976  48.264  12.603  1.00  0.00     0.041 C 
ATOM      6  O   UNL     1      52.729  49.207  11.805  1.00  0.00    -0.550 OA
ATOM      7  O   UNL     1      54.269  48.081  13.074  1.00  0.00    -0.550 OA
ENDBRANCH   4   5
ENDBRANCH   3   4
ENDBRANCH   2   3
ENDBRANCH   1   2
BRANCH   1   8
ATOM      8  C   UNL     1      49.406  44.586  14.886  1.00  0.00     0.000 C 
BRANCH   8   9
ATOM      9  C   UNL     1      48.121  45.299  15.327  1.00  0.00     0.000 C 
BRANCH   9  10
ATOM     10  C   UNL     1      46.903  44.376  15.186  1.00  0.00     0.006 C 
BRANCH  10  11
ATOM     11  C   UNL     1      47.272  43.017  14.575  1.00  0.00     0.053 C 
BRANCH  11  12
ATOM     12  C   UNL     1      46.258  41.964  14.906  1.00  0.00     0.041 C 
ATOM     13  O   UNL     1      46.585  40.748  14.904  1.00  0.00    -0.550 OA
ATOM     14  O   UNL     1      44.962  42.329  15.247  1.00  0.00    -0.550 OA
ENDBRANCH  11  12
ENDBRANCH  10  11
ENDBRANCH   9  10
ENDBRANCH   8   9
ENDBRANCH   1   8
TORSDOF 9
ENDMDL
MODEL 9
REMARK VINA RESULT:    -3.446      1.224      7.304
REMARK INTER + INTRA:          -5.644
REMARK INTER:                  -5.240
REMARK INTRA:                  -0.404
REMARK UNBOUND:                -0.385
REMARK SMILES O=C([O-])CCCCCCCCC(=O)[O-]
REMARK SMILES IDX 7 1 6 2 5 3 4 4 2 5 1 6 3 7 8 8 9 9 10 10 11 11 12 12 13 13
REMARK SMILES IDX 14 14
REMARK H PARENT
REMARK Flexibility Score: inf
ROOT
ATOM      1  C   UNL     1      50.469  45.489  14.435  1.00  0.00     0.000 C 
ENDROOT
BRANCH   1   2
ATOM      2  C   UNL     1      49.315  46.013  15.300  1.00  0.00     0.000 C 
BRANCH   2   3
ATOM      3  C   UNL     1      48.106  45.067  15.234  1.00  0.00     0.006 C 
BRANCH   3   4
ATOM      4  C   UNL     1      48.515  43.593  15.341  1.00  0.00     0.053 C 
BRANCH   4   5
ATOM      5  C   UNL     1      47.328  42.681  15.274  1.00  0.00     0.041 C 
ATOM      6  O   UNL     1      46.761  42.298  16.332  1.00  0.00    -0.550 OA
ATOM      7  O   UNL     1      46.867  42.230  14.044  1.00  0.00    -0.550 OA
ENDBRANCH   4   5
ENDBRANCH   3   4
ENDBRANCH   2   3
ENDBRANCH   1   2
BRANCH   1   8
ATOM      8  C   UNL     1      51.313  46.645  13.886  1.00  0.00     0.000 C 
BRANCH   8   9
ATOM      9  C   UNL     1      50.521  47.958  13.892  1.00  0.00     0.000 C 
BRANCH   9  10
ATOM     10  C   UNL     1      51.340  49.098  13.269  1.00  0.00     0.006 C 
BRANCH  10  11
ATOM     11  C   UNL     1      52.023  48.674  11.961  1.00  0.00     0.053 C 
BRANCH  11  12
ATOM     12  C   UNL     1      51.604  49.536  10.810  1.00  0.00     0.041 C 
ATOM     13  O   UNL     1      52.309  49.585   9.767  1.00  0.00    -0.550 OA
ATOM     14  O   UNL     1      50.420  50.259  10.876  1.00  0.00    -0.550 OA
ENDBRANCH  11  12
ENDBRANCH  10  11
ENDBRANCH   9  10
ENDBRANCH   8   9
ENDBRANCH   1   8
TORSDOF 9
ENDMDL
