MODEL 1
REMARK VINA RESULT:    -5.239      0.000      0.000
REMARK INTER + INTRA:         -17.685
REMARK INTER:                 -13.814
REMARK INTRA:                  -3.871
REMARK UNBOUND:                -3.871
REMARK SMILES CCCCCCCCCCCCCCCCCCCCCCCCCCCCCC(=O)[O-]
REMARK SMILES IDX 16 1 17 2 18 3 19 4 20 5 21 6 22 7 23 8 24 9 25 10 26 11
REMARK SMILES IDX 27 12 28 13 29 14 30 15 31 16 32 17 15 18 14 19 13 20 12 21
REMARK SMILES IDX 11 22 10 23 9 24 8 25 7 26 6 27 5 28 4 29 3 30 2 31 1 32
REMARK H PARENT
REMARK Flexibility Score: inf
ROOT
ATOM      1  C   UNL     1      20.596  26.396  32.415  1.00  0.00     0.000 C 
ENDROOT
BRANCH   1   2
ATOM      2  C   UNL     1      20.087  26.446  33.865  1.00  0.00     0.000 C 
BRANCH   2   3
ATOM      3  C   UNL     1      21.188  26.796  34.880  1.00  0.00     0.000 C 
BRANCH   3   4
ATOM      4  C   UNL     1      20.759  27.851  35.921  1.00  0.00     0.000 C 
BRANCH   4   5
ATOM      5  C   UNL     1      19.405  28.489  35.572  1.00  0.00     0.000 C 
BRANCH   5   6
ATOM      6  C   UNL     1      19.281  29.894  36.181  1.00  0.00     0.000 C 
BRANCH   6   7
ATOM      7  C   UNL     1      18.339  30.801  35.375  1.00  0.00     0.000 C 
BRANCH   7   8
ATOM      8  C   UNL     1      17.028  30.093  34.988  1.00  0.00     0.000 C 
BRANCH   8   9
ATOM      9  C   UNL     1      16.288  30.806  33.837  1.00  0.00     0.000 C 
BRANCH   9  10
ATOM     10  C   UNL     1      16.770  32.248  33.581  1.00  0.00     0.000 C 
BRANCH  10  11
ATOM     11  C   UNL     1      15.882  33.351  34.181  1.00  0.00     0.000 C 
BRANCH  11  12
ATOM     12  C   UNL     1      16.539  34.049  35.384  1.00  0.00     0.000 C 
BRANCH  12  13
ATOM     13  C   UNL     1      15.691  33.952  36.662  1.00  0.00     0.006 C 
BRANCH  13  14
ATOM     14  C   UNL     1      15.734  32.559  37.303  1.00  0.00     0.053 C 
BRANCH  14  15
ATOM     15  C   UNL     1      16.778  32.503  38.375  1.00  0.00     0.041 C 
ATOM     16  O   UNL     1      16.515  31.970  39.485  1.00  0.00    -0.550 OA
ATOM     17  O   UNL     1      18.047  33.023  38.144  1.00  0.00    -0.550 OA
ENDBRANCH  14  15
ENDBRANCH  13  14
ENDBRANCH  12  13
ENDBRANCH  11  12
ENDBRANCH  10  11
ENDBRANCH   9  10
ENDBRANCH   8   9
ENDBRANCH   7   8
ENDBRANCH   6   7
ENDBRANCH   5   6
ENDBRANCH   4   5
ENDBRANCH   3   4
ENDBRANCH   2   3
ENDBRANCH   1   2
BRANCH   1  18
ATOM     18  C   UNL     1      19.850  27.403  31.511  1.00  0.00     0.000 C 
BRANCH  18  19
ATOM     19  C   UNL     1      18.864  28.297  32.281  1.00  0.00     0.000 C 
BRANCH  19  20
ATOM     20  C   UNL     1      18.752  29.704  31.667  1.00  0.00     0.000 C 
BRANCH  20  21
ATOM     21  C   UNL     1      18.209  29.683  30.228  1.00  0.00     0.000 C 
BRANCH  21  22
ATOM     22  C   UNL     1      18.439  31.004  29.482  1.00  0.00     0.000 C 
BRANCH  22  23
ATOM     23  C   UNL     1      18.832  30.749  28.018  1.00  0.00     0.000 C 
BRANCH  23  24
ATOM     24  C   UNL     1      19.635  29.450  27.843  1.00  0.00    -0.000 C 
BRANCH  24  25
ATOM     25  C   UNL     1      19.590  28.919  26.399  1.00  0.00    -0.000 C 
BRANCH  25  26
ATOM     26  C   UNL     1      18.858  27.566  26.281  1.00  0.00    -0.000 C 
BRANCH  26  27
ATOM     27  C   UNL     1      17.767  27.352  27.347  1.00  0.00    -0.000 C 
BRANCH  27  28
ATOM     28  C   UNL     1      18.112  26.330  28.446  1.00  0.00    -0.000 C 
BRANCH  28  29
ATOM     29  C   UNL     1      19.577  25.837  28.474  1.00  0.00    -0.000 C 
BRANCH  29  30
ATOM     30  C   UNL     1      19.770  24.328  28.748  1.00  0.00    -0.000 C 
BRANCH  30  31
ATOM     31  C   UNL     1      18.824  23.411  27.953  1.00  0.00    -0.003 C 
ATOM     32  C   UNL     1      19.420  22.037  27.648  1.00  0.00     0.004 C 
ENDBRANCH  30  31
ENDBRANCH  29  30
ENDBRANCH  28  29
ENDBRANCH  27  28
ENDBRANCH  26  27
ENDBRANCH  25  26
ENDBRANCH  24  25
ENDBRANCH  23  24
ENDBRANCH  22  23
ENDBRANCH  21  22
ENDBRANCH  20  21
ENDBRANCH  19  20
ENDBRANCH  18  19
ENDBRANCH   1  18
TORSDOF 28
ENDMDL
MODEL 2
REMARK VINA RESULT:    -5.174      1.913      4.102
REMARK INTER + INTRA:         -17.514
REMARK INTER:                 -13.510
REMARK INTRA:                  -4.004
REMARK UNBOUND:                -3.871
REMARK SMILES CCCCCCCCCCCCCCCCCCCCCCCCCCCCCC(=O)[O-]
REMARK SMILES IDX 16 1 17 2 18 3 19 4 20 5 21 6 22 7 23 8 24 9 25 10 26 11
REMARK SMILES IDX 27 12 28 13 29 14 30 15 31 16 32 17 15 18 14 19 13 20 12 21
REMARK SMILES IDX 11 22 10 23 9 24 8 25 7 26 6 27 5 28 4 29 3 30 2 31 1 32
REMARK H PARENT
REMARK Flexibility Score: inf
ROOT
ATOM      1  C   UNL     1      17.625  29.356  31.433  1.00  0.00     0.000 C 
ENDROOT
BRANCH   1   2
ATOM      2  C   UNL     1      17.693  30.465  32.496  1.00  0.00     0.000 C 
BRANCH   2   3
ATOM      3  C   UNL     1      16.657  30.288  33.619  1.00  0.00     0.000 C 
BRANCH   3   4
ATOM      4  C   UNL     1      17.128  29.356  34.755  1.00  0.00     0.000 C 
BRANCH   4   5
ATOM      5  C   UNL     1      18.658  29.356  34.905  1.00  0.00     0.000 C 
BRANCH   5   6
ATOM      6  C   UNL     1      19.083  29.978  36.244  1.00  0.00     0.000 C 
BRANCH   6   7
ATOM      7  C   UNL     1      19.782  31.335  36.063  1.00  0.00     0.000 C 
BRANCH   7   8
ATOM      8  C   UNL     1      18.933  32.508  36.585  1.00  0.00     0.000 C 
BRANCH   8   9
ATOM      9  C   UNL     1      17.687  32.036  37.363  1.00  0.00     0.000 C 
BRANCH   9  10
ATOM     10  C   UNL     1      16.352  32.366  36.666  1.00  0.00     0.000 C 
BRANCH  10  11
ATOM     11  C   UNL     1      15.326  33.110  37.537  1.00  0.00     0.000 C 
BRANCH  11  12
ATOM     12  C   UNL     1      15.239  34.608  37.199  1.00  0.00     0.000 C 
BRANCH  12  13
ATOM     13  C   UNL     1      15.964  34.964  35.892  1.00  0.00     0.006 C 
BRANCH  13  14
ATOM     14  C   UNL     1      15.041  35.618  34.856  1.00  0.00     0.053 C 
BRANCH  14  15
ATOM     15  C   UNL     1      15.043  34.836  33.578  1.00  0.00     0.041 C 
ATOM     16  O   UNL     1      15.639  33.729  33.515  1.00  0.00    -0.550 OA
ATOM     17  O   UNL     1      14.372  35.321  32.460  1.00  0.00    -0.550 OA
ENDBRANCH  14  15
ENDBRANCH  13  14
ENDBRANCH  12  13
ENDBRANCH  11  12
ENDBRANCH  10  11
ENDBRANCH   9  10
ENDBRANCH   8   9
ENDBRANCH   7   8
ENDBRANCH   6   7
ENDBRANCH   5   6
ENDBRANCH   4   5
ENDBRANCH   3   4
ENDBRANCH   2   3
ENDBRANCH   1   2
BRANCH   1  18
ATOM     18  C   UNL     1      18.614  29.611  30.274  1.00  0.00     0.000 C 
BRANCH  18  19
ATOM     19  C   UNL     1      18.375  30.948  29.554  1.00  0.00     0.000 C 
BRANCH  19  20
ATOM     20  C   UNL     1      18.937  30.947  28.122  1.00  0.00     0.000 C 
BRANCH  20  21
ATOM     21  C   UNL     1      19.752  29.683  27.804  1.00  0.00     0.000 C 
BRANCH  21  22
ATOM     22  C   UNL     1      19.508  29.155  26.383  1.00  0.00     0.000 C 
BRANCH  22  23
ATOM     23  C   UNL     1      18.980  27.711  26.416  1.00  0.00     0.000 C 
BRANCH  23  24
ATOM     24  C   UNL     1      17.707  27.570  27.266  1.00  0.00    -0.000 C 
BRANCH  24  25
ATOM     25  C   UNL     1      17.897  26.614  28.458  1.00  0.00    -0.000 C 
BRANCH  25  26
ATOM     26  C   UNL     1      18.728  25.364  28.097  1.00  0.00    -0.000 C 
BRANCH  26  27
ATOM     27  C   UNL     1      20.067  25.268  28.849  1.00  0.00    -0.000 C 
BRANCH  27  28
ATOM     28  C   UNL     1      20.299  26.350  29.922  1.00  0.00    -0.000 C 
BRANCH  28  29
ATOM     29  C   UNL     1      20.388  25.847  31.381  1.00  0.00    -0.000 C 
BRANCH  29  30
ATOM     30  C   UNL     1      20.046  26.889  32.470  1.00  0.00    -0.000 C 
BRANCH  30  31
ATOM     31  C   UNL     1      20.238  26.388  33.912  1.00  0.00    -0.003 C 
ATOM     32  C   UNL     1      21.018  25.076  34.003  1.00  0.00     0.004 C 
ENDBRANCH  30  31
ENDBRANCH  29  30
ENDBRANCH  28  29
ENDBRANCH  27  28
ENDBRANCH  26  27
ENDBRANCH  25  26
ENDBRANCH  24  25
ENDBRANCH  23  24
ENDBRANCH  22  23
ENDBRANCH  21  22
ENDBRANCH  20  21
ENDBRANCH  19  20
ENDBRANCH  18  19
ENDBRANCH   1  18
TORSDOF 28
ENDMDL
MODEL 3
REMARK VINA RESULT:    -5.135      3.445      9.212
REMARK INTER + INTRA:         -17.410
REMARK INTER:                 -12.702
REMARK INTRA:                  -4.708
REMARK UNBOUND:                -3.871
REMARK SMILES CCCCCCCCCCCCCCCCCCCCCCCCCCCCCC(=O)[O-]
REMARK SMILES IDX 16 1 17 2 18 3 19 4 20 5 21 6 22 7 23 8 24 9 25 10 26 11
REMARK SMILES IDX 27 12 28 13 29 14 30 15 31 16 32 17 15 18 14 19 13 20 12 21
REMARK SMILES IDX 11 22 10 23 9 24 8 25 7 26 6 27 5 28 4 29 3 30 2 31 1 32
REMARK H PARENT
REMARK Flexibility Score: inf
ROOT
ATOM      1  C   UNL     1      18.720  27.975  34.912  1.00  0.00     0.000 C 
ENDROOT
BRANCH   1   2
ATOM      2  C   UNL     1      20.214  27.725  35.174  1.00  0.00     0.000 C 
BRANCH   2   3
ATOM      3  C   UNL     1      20.746  26.460  34.479  1.00  0.00     0.000 C 
BRANCH   3   4
ATOM      4  C   UNL     1      20.376  26.373  32.984  1.00  0.00     0.000 C 
BRANCH   4   5
ATOM      5  C   UNL     1      21.223  27.325  32.123  1.00  0.00     0.000 C 
BRANCH   5   6
ATOM      6  C   UNL     1      20.332  28.213  31.240  1.00  0.00     0.000 C 
BRANCH   6   7
ATOM      7  C   UNL     1      18.889  27.693  31.154  1.00  0.00     0.000 C 
BRANCH   7   8
ATOM      8  C   UNL     1      17.893  28.789  30.734  1.00  0.00     0.000 C 
BRANCH   8   9
ATOM      9  C   UNL     1      18.578  30.153  30.504  1.00  0.00     0.000 C 
BRANCH   9  10
ATOM     10  C   UNL     1      18.585  30.610  29.031  1.00  0.00     0.000 C 
BRANCH  10  11
ATOM     11  C   UNL     1      18.200  29.528  28.008  1.00  0.00     0.000 C 
BRANCH  11  12
ATOM     12  C   UNL     1      19.426  28.829  27.397  1.00  0.00     0.000 C 
BRANCH  12  13
ATOM     13  C   UNL     1      19.074  27.491  26.728  1.00  0.00     0.006 C 
BRANCH  13  14
ATOM     14  C   UNL     1      18.287  26.551  27.649  1.00  0.00     0.053 C 
BRANCH  14  15
ATOM     15  C   UNL     1      19.121  25.369  28.036  1.00  0.00     0.041 C 
ATOM     16  O   UNL     1      18.780  24.211  27.678  1.00  0.00    -0.550 OA
ATOM     17  O   UNL     1      20.284  25.546  28.777  1.00  0.00    -0.550 OA
ENDBRANCH  14  15
ENDBRANCH  13  14
ENDBRANCH  12  13
ENDBRANCH  11  12
ENDBRANCH  10  11
ENDBRANCH   9  10
ENDBRANCH   8   9
ENDBRANCH   7   8
ENDBRANCH   6   7
ENDBRANCH   5   6
ENDBRANCH   4   5
ENDBRANCH   3   4
ENDBRANCH   2   3
ENDBRANCH   1   2
BRANCH   1  18
ATOM     18  C   UNL     1      18.440  29.451  34.552  1.00  0.00     0.000 C 
BRANCH  18  19
ATOM     19  C   UNL     1      16.963  29.847  34.719  1.00  0.00     0.000 C 
BRANCH  19  20
ATOM     20  C   UNL     1      16.401  30.540  33.465  1.00  0.00     0.000 C 
BRANCH  20  21
ATOM     21  C   UNL     1      16.839  32.009  33.351  1.00  0.00     0.000 C 
BRANCH  21  22
ATOM     22  C   UNL     1      16.078  32.937  34.308  1.00  0.00     0.000 C 
BRANCH  22  23
ATOM     23  C   UNL     1      15.819  34.306  33.659  1.00  0.00     0.000 C 
BRANCH  23  24
ATOM     24  C   UNL     1      16.772  35.394  34.181  1.00  0.00    -0.000 C 
BRANCH  24  25
ATOM     25  C   UNL     1      16.467  35.794  35.636  1.00  0.00    -0.000 C 
BRANCH  25  26
ATOM     26  C   UNL     1      14.954  35.857  35.936  1.00  0.00    -0.000 C 
BRANCH  26  27
ATOM     27  C   UNL     1      14.605  35.650  37.421  1.00  0.00    -0.000 C 
BRANCH  27  28
ATOM     28  C   UNL     1      15.388  34.529  38.132  1.00  0.00    -0.000 C 
BRANCH  28  29
ATOM     29  C   UNL     1      15.053  33.086  37.691  1.00  0.00    -0.000 C 
BRANCH  29  30
ATOM     30  C   UNL     1      16.247  32.105  37.648  1.00  0.00    -0.000 C 
BRANCH  30  31
ATOM     31  C   UNL     1      17.608  32.746  37.972  1.00  0.00    -0.003 C 
ATOM     32  C   UNL     1      18.587  32.721  36.800  1.00  0.00     0.004 C 
ENDBRANCH  30  31
ENDBRANCH  29  30
ENDBRANCH  28  29
ENDBRANCH  27  28
ENDBRANCH  26  27
ENDBRANCH  25  26
ENDBRANCH  24  25
ENDBRANCH  23  24
ENDBRANCH  22  23
ENDBRANCH  21  22
ENDBRANCH  20  21
ENDBRANCH  19  20
ENDBRANCH  18  19
ENDBRANCH   1  18
TORSDOF 28
ENDMDL
MODEL 4
REMARK VINA RESULT:    -5.103      1.872      3.399
REMARK INTER + INTRA:         -17.326
REMARK INTER:                 -13.174
REMARK INTRA:                  -4.152
REMARK UNBOUND:                -3.871
REMARK SMILES CCCCCCCCCCCCCCCCCCCCCCCCCCCCCC(=O)[O-]
REMARK SMILES IDX 16 1 17 2 18 3 19 4 20 5 21 6 22 7 23 8 24 9 25 10 26 11
REMARK SMILES IDX 27 12 28 13 29 14 30 15 31 16 32 17 15 18 14 19 13 20 12 21
REMARK SMILES IDX 11 22 10 23 9 24 8 25 7 26 6 27 5 28 4 29 3 30 2 31 1 32
REMARK H PARENT
REMARK Flexibility Score: inf
ROOT
ATOM      1  C   UNL     1      20.119  29.751  31.614  1.00  0.00     0.000 C 
ENDROOT
BRANCH   1   2
ATOM      2  C   UNL     1      18.999  28.745  31.306  1.00  0.00     0.000 C 
BRANCH   2   3
ATOM      3  C   UNL     1      19.287  27.335  31.849  1.00  0.00     0.000 C 
BRANCH   3   4
ATOM      4  C   UNL     1      20.722  27.161  32.390  1.00  0.00     0.000 C 
BRANCH   4   5
ATOM      5  C   UNL     1      20.752  26.360  33.701  1.00  0.00     0.000 C 
BRANCH   5   6
ATOM      6  C   UNL     1      19.729  26.908  34.708  1.00  0.00     0.000 C 
BRANCH   6   7
ATOM      7  C   UNL     1      20.190  28.224  35.354  1.00  0.00     0.000 C 
BRANCH   7   8
ATOM      8  C   UNL     1      19.023  29.194  35.610  1.00  0.00     0.000 C 
BRANCH   8   9
ATOM      9  C   UNL     1      17.804  28.903  34.711  1.00  0.00     0.000 C 
BRANCH   9  10
ATOM     10  C   UNL     1      16.671  29.941  34.835  1.00  0.00     0.000 C 
BRANCH  10  11
ATOM     11  C   UNL     1      16.507  30.879  33.628  1.00  0.00     0.000 C 
BRANCH  11  12
ATOM     12  C   UNL     1      17.324  32.174  33.769  1.00  0.00     0.000 C 
BRANCH  12  13
ATOM     13  C   UNL     1      17.100  32.871  35.120  1.00  0.00     0.006 C 
BRANCH  13  14
ATOM     14  C   UNL     1      15.797  33.679  35.167  1.00  0.00     0.053 C 
BRANCH  14  15
ATOM     15  C   UNL     1      15.762  34.691  34.064  1.00  0.00     0.041 C 
ATOM     16  O   UNL     1      14.811  34.693  33.238  1.00  0.00    -0.550 OA
ATOM     17  O   UNL     1      16.769  35.644  33.956  1.00  0.00    -0.550 OA
ENDBRANCH  14  15
ENDBRANCH  13  14
ENDBRANCH  12  13
ENDBRANCH  11  12
ENDBRANCH  10  11
ENDBRANCH   9  10
ENDBRANCH   8   9
ENDBRANCH   7   8
ENDBRANCH   6   7
ENDBRANCH   5   6
ENDBRANCH   4   5
ENDBRANCH   3   4
ENDBRANCH   2   3
ENDBRANCH   1   2
BRANCH   1  18
ATOM     18  C   UNL     1      19.743  31.182  31.170  1.00  0.00     0.000 C 
BRANCH  18  19
ATOM     19  C   UNL     1      18.386  31.258  30.450  1.00  0.00     0.000 C 
BRANCH  19  20
ATOM     20  C   UNL     1      18.478  32.018  29.115  1.00  0.00     0.000 C 
BRANCH  20  21
ATOM     21  C   UNL     1      18.917  31.120  27.947  1.00  0.00     0.000 C 
BRANCH  21  22
ATOM     22  C   UNL     1      18.307  29.713  28.012  1.00  0.00     0.000 C 
BRANCH  22  23
ATOM     23  C   UNL     1      19.030  28.753  27.053  1.00  0.00     0.000 C 
BRANCH  23  24
ATOM     24  C   UNL     1      18.238  27.459  26.809  1.00  0.00    -0.000 C 
BRANCH  24  25
ATOM     25  C   UNL     1      18.226  26.534  28.039  1.00  0.00    -0.000 C 
BRANCH  25  26
ATOM     26  C   UNL     1      19.641  26.103  28.478  1.00  0.00    -0.000 C 
BRANCH  26  27
ATOM     27  C   UNL     1      19.691  24.719  29.152  1.00  0.00    -0.000 C 
BRANCH  27  28
ATOM     28  C   UNL     1      19.016  23.579  28.365  1.00  0.00    -0.000 C 
BRANCH  28  29
ATOM     29  C   UNL     1      18.997  22.199  29.059  1.00  0.00    -0.000 C 
BRANCH  29  30
ATOM     30  C   UNL     1      19.032  20.975  28.115  1.00  0.00    -0.000 C 
BRANCH  30  31
ATOM     31  C   UNL     1      20.432  20.624  27.580  1.00  0.00    -0.003 C 
ATOM     32  C   UNL     1      20.647  21.033  26.124  1.00  0.00     0.004 C 
ENDBRANCH  30  31
ENDBRANCH  29  30
ENDBRANCH  28  29
ENDBRANCH  27  28
ENDBRANCH  26  27
ENDBRANCH  25  26
ENDBRANCH  24  25
ENDBRANCH  23  24
ENDBRANCH  22  23
ENDBRANCH  21  22
ENDBRANCH  20  21
ENDBRANCH  19  20
ENDBRANCH  18  19
ENDBRANCH   1  18
TORSDOF 28
ENDMDL
MODEL 5
REMARK VINA RESULT:    -5.077      3.708      9.343
REMARK INTER + INTRA:         -17.257
REMARK INTER:                 -12.382
REMARK INTRA:                  -4.876
REMARK UNBOUND:                -3.871
REMARK SMILES CCCCCCCCCCCCCCCCCCCCCCCCCCCCCC(=O)[O-]
REMARK SMILES IDX 16 1 17 2 18 3 19 4 20 5 21 6 22 7 23 8 24 9 25 10 26 11
REMARK SMILES IDX 27 12 28 13 29 14 30 15 31 16 32 17 15 18 14 19 13 20 12 21
REMARK SMILES IDX 11 22 10 23 9 24 8 25 7 26 6 27 5 28 4 29 3 30 2 31 1 32
REMARK H PARENT
REMARK Flexibility Score: inf
ROOT
ATOM      1  C   UNL     1      16.459  30.250  34.651  1.00  0.00     0.000 C 
ENDROOT
BRANCH   1   2
ATOM      2  C   UNL     1      17.518  29.194  35.009  1.00  0.00     0.000 C 
BRANCH   2   3
ATOM      3  C   UNL     1      18.938  29.777  35.120  1.00  0.00     0.000 C 
BRANCH   3   4
ATOM      4  C   UNL     1      20.054  28.725  34.948  1.00  0.00     0.000 C 
BRANCH   4   5
ATOM      5  C   UNL     1      19.488  27.318  34.696  1.00  0.00     0.000 C 
BRANCH   5   6
ATOM      6  C   UNL     1      19.789  26.849  33.264  1.00  0.00     0.000 C 
BRANCH   6   7
ATOM      7  C   UNL     1      20.186  28.010  32.339  1.00  0.00     0.000 C 
BRANCH   7   8
ATOM      8  C   UNL     1      19.327  28.065  31.062  1.00  0.00     0.000 C 
BRANCH   8   9
ATOM      9  C   UNL     1      17.961  28.742  31.298  1.00  0.00     0.000 C 
BRANCH   9  10
ATOM     10  C   UNL     1      18.003  30.282  31.219  1.00  0.00     0.000 C 
BRANCH  10  11
ATOM     11  C   UNL     1      18.999  30.857  30.199  1.00  0.00     0.000 C 
BRANCH  11  12
ATOM     12  C   UNL     1      18.417  30.922  28.777  1.00  0.00     0.000 C 
BRANCH  12  13
ATOM     13  C   UNL     1      19.001  29.846  27.848  1.00  0.00     0.006 C 
BRANCH  13  14
ATOM     14  C   UNL     1      18.023  28.696  27.577  1.00  0.00     0.053 C 
BRANCH  14  15
ATOM     15  C   UNL     1      18.726  27.544  26.929  1.00  0.00     0.041 C 
ATOM     16  O   UNL     1      19.252  27.683  25.793  1.00  0.00    -0.550 OA
ATOM     17  O   UNL     1      18.818  26.321  27.584  1.00  0.00    -0.550 OA
ENDBRANCH  14  15
ENDBRANCH  13  14
ENDBRANCH  12  13
ENDBRANCH  11  12
ENDBRANCH  10  11
ENDBRANCH   9  10
ENDBRANCH   8   9
ENDBRANCH   7   8
ENDBRANCH   6   7
ENDBRANCH   5   6
ENDBRANCH   4   5
ENDBRANCH   3   4
ENDBRANCH   2   3
ENDBRANCH   1   2
BRANCH   1  18
ATOM     18  C   UNL     1      17.096  31.630  34.374  1.00  0.00     0.000 C 
BRANCH  18  19
ATOM     19  C   UNL     1      16.139  32.611  33.677  1.00  0.00     0.000 C 
BRANCH  19  20
ATOM     20  C   UNL     1      16.625  34.068  33.776  1.00  0.00     0.000 C 
BRANCH  20  21
ATOM     21  C   UNL     1      15.724  35.048  33.006  1.00  0.00     0.000 C 
BRANCH  21  22
ATOM     22  C   UNL     1      14.665  35.713  33.897  1.00  0.00     0.000 C 
BRANCH  22  23
ATOM     23  C   UNL     1      15.321  36.443  35.081  1.00  0.00     0.000 C 
BRANCH  23  24
ATOM     24  C   UNL     1      14.342  36.671  36.245  1.00  0.00    -0.000 C 
BRANCH  24  25
ATOM     25  C   UNL     1      14.806  35.991  37.546  1.00  0.00    -0.000 C 
BRANCH  25  26
ATOM     26  C   UNL     1      15.675  34.741  37.293  1.00  0.00    -0.000 C 
BRANCH  26  27
ATOM     27  C   UNL     1      14.898  33.415  37.375  1.00  0.00    -0.000 C 
BRANCH  27  28
ATOM     28  C   UNL     1      15.739  32.182  37.759  1.00  0.00    -0.000 C 
BRANCH  28  29
ATOM     29  C   UNL     1      17.049  32.471  38.527  1.00  0.00    -0.000 C 
BRANCH  29  30
ATOM     30  C   UNL     1      18.355  32.133  37.772  1.00  0.00    -0.000 C 
BRANCH  30  31
ATOM     31  C   UNL     1      19.365  33.293  37.698  1.00  0.00    -0.003 C 
ATOM     32  C   UNL     1      19.298  34.076  36.387  1.00  0.00     0.004 C 
ENDBRANCH  30  31
ENDBRANCH  29  30
ENDBRANCH  28  29
ENDBRANCH  27  28
ENDBRANCH  26  27
ENDBRANCH  25  26
ENDBRANCH  24  25
ENDBRANCH  23  24
ENDBRANCH  22  23
ENDBRANCH  21  22
ENDBRANCH  20  21
ENDBRANCH  19  20
ENDBRANCH  18  19
ENDBRANCH   1  18
TORSDOF 28
ENDMDL
MODEL 6
REMARK VINA RESULT:    -4.997      1.500      3.968
REMARK INTER + INTRA:         -17.048
REMARK INTER:                 -12.245
REMARK INTRA:                  -4.803
REMARK UNBOUND:                -3.871
REMARK SMILES CCCCCCCCCCCCCCCCCCCCCCCCCCCCCC(=O)[O-]
REMARK SMILES IDX 16 1 17 2 18 3 19 4 20 5 21 6 22 7 23 8 24 9 25 10 26 11
REMARK SMILES IDX 27 12 28 13 29 14 30 15 31 16 32 17 15 18 14 19 13 20 12 21
REMARK SMILES IDX 11 22 10 23 9 24 8 25 7 26 6 27 5 28 4 29 3 30 2 31 1 32
REMARK H PARENT
REMARK Flexibility Score: inf
ROOT
ATOM      1  C   UNL     1      19.689  27.530  30.450  1.00  0.00     0.000 C 
ENDROOT
BRANCH   1   2
ATOM      2  C   UNL     1      19.711  27.351  31.977  1.00  0.00     0.000 C 
BRANCH   2   3
ATOM      3  C   UNL     1      20.535  26.134  32.430  1.00  0.00     0.000 C 
BRANCH   3   4
ATOM      4  C   UNL     1      20.826  26.113  33.945  1.00  0.00     0.000 C 
BRANCH   4   5
ATOM      5  C   UNL     1      19.757  26.870  34.749  1.00  0.00     0.000 C 
BRANCH   5   6
ATOM      6  C   UNL     1      20.400  27.886  35.706  1.00  0.00     0.000 C 
BRANCH   6   7
ATOM      7  C   UNL     1      19.532  29.138  35.902  1.00  0.00     0.000 C 
BRANCH   7   8
ATOM      8  C   UNL     1      19.003  29.702  34.571  1.00  0.00     0.000 C 
BRANCH   8   9
ATOM      9  C   UNL     1      17.483  29.500  34.406  1.00  0.00     0.000 C 
BRANCH   9  10
ATOM     10  C   UNL     1      16.635  30.690  34.898  1.00  0.00     0.000 C 
BRANCH  10  11
ATOM     11  C   UNL     1      16.596  31.901  33.951  1.00  0.00     0.000 C 
BRANCH  11  12
ATOM     12  C   UNL     1      17.592  33.001  34.356  1.00  0.00     0.000 C 
BRANCH  12  13
ATOM     13  C   UNL     1      17.347  33.529  35.778  1.00  0.00     0.006 C 
BRANCH  13  14
ATOM     14  C   UNL     1      15.904  33.997  36.001  1.00  0.00     0.053 C 
BRANCH  14  15
ATOM     15  C   UNL     1      15.421  33.594  37.359  1.00  0.00     0.041 C 
ATOM     16  O   UNL     1      15.350  34.446  38.284  1.00  0.00    -0.550 OA
ATOM     17  O   UNL     1      15.032  32.281  37.603  1.00  0.00    -0.550 OA
ENDBRANCH  14  15
ENDBRANCH  13  14
ENDBRANCH  12  13
ENDBRANCH  11  12
ENDBRANCH  10  11
ENDBRANCH   9  10
ENDBRANCH   8   9
ENDBRANCH   7   8
ENDBRANCH   6   7
ENDBRANCH   5   6
ENDBRANCH   4   5
ENDBRANCH   3   4
ENDBRANCH   2   3
ENDBRANCH   1   2
BRANCH   1  18
ATOM     18  C   UNL     1      19.852  26.182  29.712  1.00  0.00     0.000 C 
BRANCH  18  19
ATOM     19  C   UNL     1      18.707  25.886  28.728  1.00  0.00     0.000 C 
BRANCH  19  20
ATOM     20  C   UNL     1      17.663  27.016  28.693  1.00  0.00     0.000 C 
BRANCH  20  21
ATOM     21  C   UNL     1      17.626  27.749  27.341  1.00  0.00     0.000 C 
BRANCH  21  22
ATOM     22  C   UNL     1      18.746  27.305  26.389  1.00  0.00     0.000 C 
BRANCH  22  23
ATOM     23  C   UNL     1      19.675  28.481  26.045  1.00  0.00     0.000 C 
BRANCH  23  24
ATOM     24  C   UNL     1      20.905  28.545  26.965  1.00  0.00    -0.000 C 
BRANCH  24  25
ATOM     25  C   UNL     1      21.331  29.991  27.280  1.00  0.00    -0.000 C 
BRANCH  25  26
ATOM     26  C   UNL     1      20.326  31.039  26.755  1.00  0.00    -0.000 C 
BRANCH  26  27
ATOM     27  C   UNL     1      19.905  32.080  27.808  1.00  0.00    -0.000 C 
BRANCH  27  28
ATOM     28  C   UNL     1      18.525  31.847  28.451  1.00  0.00    -0.000 C 
BRANCH  28  29
ATOM     29  C   UNL     1      18.428  30.653  29.429  1.00  0.00    -0.000 C 
BRANCH  29  30
ATOM     30  C   UNL     1      18.374  31.021  30.929  1.00  0.00    -0.000 C 
BRANCH  30  31
ATOM     31  C   UNL     1      19.651  31.692  31.466  1.00  0.00    -0.003 C 
ATOM     32  C   UNL     1      20.917  30.868  31.232  1.00  0.00     0.004 C 
ENDBRANCH  30  31
ENDBRANCH  29  30
ENDBRANCH  28  29
ENDBRANCH  27  28
ENDBRANCH  26  27
ENDBRANCH  25  26
ENDBRANCH  24  25
ENDBRANCH  23  24
ENDBRANCH  22  23
ENDBRANCH  21  22
ENDBRANCH  20  21
ENDBRANCH  19  20
ENDBRANCH  18  19
ENDBRANCH   1  18
TORSDOF 28
ENDMDL
MODEL 7
REMARK VINA RESULT:    -4.945      2.583      8.202
REMARK INTER + INTRA:         -16.910
REMARK INTER:                 -12.041
REMARK INTRA:                  -4.869
REMARK UNBOUND:                -3.871
REMARK SMILES CCCCCCCCCCCCCCCCCCCCCCCCCCCCCC(=O)[O-]
REMARK SMILES IDX 16 1 17 2 18 3 19 4 20 5 21 6 22 7 23 8 24 9 25 10 26 11
REMARK SMILES IDX 27 12 28 13 29 14 30 15 31 16 32 17 15 18 14 19 13 20 12 21
REMARK SMILES IDX 11 22 10 23 9 24 8 25 7 26 6 27 5 28 4 29 3 30 2 31 1 32
REMARK H PARENT
REMARK Flexibility Score: inf
ROOT
ATOM      1  C   UNL     1      19.148  28.994  31.870  1.00  0.00     0.000 C 
ENDROOT
BRANCH   1   2
ATOM      2  C   UNL     1      19.466  27.618  32.478  1.00  0.00     0.000 C 
BRANCH   2   3
ATOM      3  C   UNL     1      20.017  26.617  31.449  1.00  0.00     0.000 C 
BRANCH   3   4
ATOM      4  C   UNL     1      20.003  27.146  30.000  1.00  0.00     0.000 C 
BRANCH   4   5
ATOM      5  C   UNL     1      19.054  26.340  29.099  1.00  0.00     0.000 C 
BRANCH   5   6
ATOM      6  C   UNL     1      17.741  27.100  28.858  1.00  0.00     0.000 C 
BRANCH   6   7
ATOM      7  C   UNL     1      17.578  27.538  27.394  1.00  0.00     0.000 C 
BRANCH   7   8
ATOM      8  C   UNL     1      18.801  27.176  26.532  1.00  0.00     0.000 C 
BRANCH   8   9
ATOM      9  C   UNL     1      19.495  28.420  25.940  1.00  0.00     0.000 C 
BRANCH   9  10
ATOM     10  C   UNL     1      20.262  29.263  26.978  1.00  0.00     0.000 C 
BRANCH  10  11
ATOM     11  C   UNL     1      19.733  30.693  27.178  1.00  0.00     0.000 C 
BRANCH  11  12
ATOM     12  C   UNL     1      18.522  30.748  28.124  1.00  0.00     0.000 C 
BRANCH  12  13
ATOM     13  C   UNL     1      18.747  31.685  29.321  1.00  0.00     0.006 C 
BRANCH  13  14
ATOM     14  C   UNL     1      18.610  33.168  28.954  1.00  0.00     0.053 C 
BRANCH  14  15
ATOM     15  C   UNL     1      18.874  34.035  30.146  1.00  0.00     0.041 C 
ATOM     16  O   UNL     1      20.052  34.200  30.559  1.00  0.00    -0.550 OA
ATOM     17  O   UNL     1      17.822  34.676  30.792  1.00  0.00    -0.550 OA
ENDBRANCH  14  15
ENDBRANCH  13  14
ENDBRANCH  12  13
ENDBRANCH  11  12
ENDBRANCH  10  11
ENDBRANCH   9  10
ENDBRANCH   8   9
ENDBRANCH   7   8
ENDBRANCH   6   7
ENDBRANCH   5   6
ENDBRANCH   4   5
ENDBRANCH   3   4
ENDBRANCH   2   3
ENDBRANCH   1   2
BRANCH   1  18
ATOM     18  C   UNL     1      17.630  29.285  31.873  1.00  0.00     0.000 C 
BRANCH  18  19
ATOM     19  C   UNL     1      17.219  30.352  32.901  1.00  0.00     0.000 C 
BRANCH  19  20
ATOM     20  C   UNL     1      18.073  31.627  32.791  1.00  0.00     0.000 C 
BRANCH  20  21
ATOM     21  C   UNL     1      17.652  32.713  33.794  1.00  0.00     0.000 C 
BRANCH  21  22
ATOM     22  C   UNL     1      16.183  33.133  33.640  1.00  0.00     0.000 C 
BRANCH  22  23
ATOM     23  C   UNL     1      15.691  33.884  34.889  1.00  0.00     0.000 C 
BRANCH  23  24
ATOM     24  C   UNL     1      16.577  33.623  36.117  1.00  0.00    -0.000 C 
BRANCH  24  25
ATOM     25  C   UNL     1      15.897  32.708  37.151  1.00  0.00    -0.000 C 
BRANCH  25  26
ATOM     26  C   UNL     1      16.859  32.244  38.266  1.00  0.00    -0.000 C 
BRANCH  26  27
ATOM     27  C   UNL     1      18.348  32.350  37.888  1.00  0.00    -0.000 C 
BRANCH  27  28
ATOM     28  C   UNL     1      19.048  31.011  37.587  1.00  0.00    -0.000 C 
BRANCH  28  29
ATOM     29  C   UNL     1      18.710  30.363  36.225  1.00  0.00    -0.000 C 
BRANCH  29  30
ATOM     30  C   UNL     1      19.547  29.118  35.850  1.00  0.00    -0.000 C 
BRANCH  30  31
ATOM     31  C   UNL     1      21.011  29.422  35.489  1.00  0.00    -0.003 C 
ATOM     32  C   UNL     1      21.172  30.616  34.549  1.00  0.00     0.004 C 
ENDBRANCH  30  31
ENDBRANCH  29  30
ENDBRANCH  28  29
ENDBRANCH  27  28
ENDBRANCH  26  27
ENDBRANCH  25  26
ENDBRANCH  24  25
ENDBRANCH  23  24
ENDBRANCH  22  23
ENDBRANCH  21  22
ENDBRANCH  20  21
ENDBRANCH  19  20
ENDBRANCH  18  19
ENDBRANCH   1  18
TORSDOF 28
ENDMDL
MODEL 8
REMARK VINA RESULT:    -4.943      2.029      7.006
REMARK INTER + INTRA:         -16.906
REMARK INTER:                 -12.417
REMARK INTRA:                  -4.490
REMARK UNBOUND:                -3.871
REMARK SMILES CCCCCCCCCCCCCCCCCCCCCCCCCCCCCC(=O)[O-]
REMARK SMILES IDX 16 1 17 2 18 3 19 4 20 5 21 6 22 7 23 8 24 9 25 10 26 11
REMARK SMILES IDX 27 12 28 13 29 14 30 15 31 16 32 17 15 18 14 19 13 20 12 21
REMARK SMILES IDX 11 22 10 23 9 24 8 25 7 26 6 27 5 28 4 29 3 30 2 31 1 32
REMARK H PARENT
REMARK Flexibility Score: inf
ROOT
ATOM      1  C   UNL     1      18.801  26.599  27.055  1.00  0.00     0.000 C 
ENDROOT
BRANCH   1   2
ATOM      2  C   UNL     1      18.723  25.337  27.929  1.00  0.00     0.000 C 
BRANCH   2   3
ATOM      3  C   UNL     1      19.530  25.455  29.233  1.00  0.00     0.000 C 
BRANCH   3   4
ATOM      4  C   UNL     1      20.644  26.521  29.178  1.00  0.00     0.000 C 
BRANCH   4   5
ATOM      5  C   UNL     1      20.540  27.525  30.338  1.00  0.00     0.000 C 
BRANCH   5   6
ATOM      6  C   UNL     1      19.979  26.856  31.601  1.00  0.00     0.000 C 
BRANCH   6   7
ATOM      7  C   UNL     1      19.141  27.822  32.453  1.00  0.00     0.000 C 
BRANCH   7   8
ATOM      8  C   UNL     1      18.368  28.842  31.598  1.00  0.00     0.000 C 
BRANCH   8   9
ATOM      9  C   UNL     1      18.149  30.182  32.330  1.00  0.00     0.000 C 
BRANCH   9  10
ATOM     10  C   UNL     1      16.712  30.385  32.849  1.00  0.00     0.000 C 
BRANCH  10  11
ATOM     11  C   UNL     1      16.579  30.503  34.377  1.00  0.00     0.000 C 
BRANCH  11  12
ATOM     12  C   UNL     1      17.747  29.839  35.125  1.00  0.00     0.000 C 
BRANCH  12  13
ATOM     13  C   UNL     1      18.561  30.839  35.960  1.00  0.00     0.006 C 
BRANCH  13  14
ATOM     14  C   UNL     1      19.601  30.160  36.860  1.00  0.00     0.053 C 
BRANCH  14  15
ATOM     15  C   UNL     1      20.501  29.276  36.054  1.00  0.00     0.041 C 
ATOM     16  O   UNL     1      21.398  29.781  35.329  1.00  0.00    -0.550 OA
ATOM     17  O   UNL     1      20.363  27.894  36.116  1.00  0.00    -0.550 OA
ENDBRANCH  14  15
ENDBRANCH  13  14
ENDBRANCH  12  13
ENDBRANCH  11  12
ENDBRANCH  10  11
ENDBRANCH   9  10
ENDBRANCH   8   9
ENDBRANCH   7   8
ENDBRANCH   6   7
ENDBRANCH   5   6
ENDBRANCH   4   5
ENDBRANCH   3   4
ENDBRANCH   2   3
ENDBRANCH   1   2
BRANCH   1  18
ATOM     18  C   UNL     1      17.581  27.521  27.269  1.00  0.00     0.000 C 
BRANCH  18  19
ATOM     19  C   UNL     1      17.939  28.857  27.941  1.00  0.00     0.000 C 
BRANCH  19  20
ATOM     20  C   UNL     1      19.245  29.455  27.388  1.00  0.00     0.000 C 
BRANCH  20  21
ATOM     21  C   UNL     1      19.773  30.620  28.242  1.00  0.00     0.000 C 
BRANCH  21  22
ATOM     22  C   UNL     1      18.651  31.455  28.875  1.00  0.00     0.000 C 
BRANCH  22  23
ATOM     23  C   UNL     1      18.600  32.864  28.261  1.00  0.00     0.000 C 
BRANCH  23  24
ATOM     24  C   UNL     1      18.696  33.971  29.323  1.00  0.00    -0.000 C 
BRANCH  24  25
ATOM     25  C   UNL     1      18.386  33.456  30.740  1.00  0.00    -0.000 C 
BRANCH  25  26
ATOM     26  C   UNL     1      17.630  34.491  31.602  1.00  0.00    -0.000 C 
BRANCH  26  27
ATOM     27  C   UNL     1      17.256  33.979  33.005  1.00  0.00    -0.000 C 
BRANCH  27  28
ATOM     28  C   UNL     1      15.761  34.073  33.364  1.00  0.00    -0.000 C 
BRANCH  28  29
ATOM     29  C   UNL     1      15.426  34.829  34.670  1.00  0.00    -0.000 C 
BRANCH  29  30
ATOM     30  C   UNL     1      16.336  34.511  35.878  1.00  0.00    -0.000 C 
BRANCH  30  31
ATOM     31  C   UNL     1      15.844  33.346  36.756  1.00  0.00    -0.003 C 
ATOM     32  C   UNL     1      15.203  33.800  38.067  1.00  0.00     0.004 C 
ENDBRANCH  30  31
ENDBRANCH  29  30
ENDBRANCH  28  29
ENDBRANCH  27  28
ENDBRANCH  26  27
ENDBRANCH  25  26
ENDBRANCH  24  25
ENDBRANCH  23  24
ENDBRANCH  22  23
ENDBRANCH  21  22
ENDBRANCH  20  21
ENDBRANCH  19  20
ENDBRANCH  18  19
ENDBRANCH   1  18
TORSDOF 28
ENDMDL
MODEL 9
REMARK VINA RESULT:    -4.918      1.327      2.686
REMARK INTER + INTRA:         -16.839
REMARK INTER:                 -12.865
REMARK INTRA:                  -3.974
REMARK UNBOUND:                -3.871
REMARK SMILES CCCCCCCCCCCCCCCCCCCCCCCCCCCCCC(=O)[O-]
REMARK SMILES IDX 16 1 17 2 18 3 19 4 20 5 21 6 22 7 23 8 24 9 25 10 26 11
REMARK SMILES IDX 27 12 28 13 29 14 30 15 31 16 32 17 15 18 14 19 13 20 12 21
REMARK SMILES IDX 11 22 10 23 9 24 8 25 7 26 6 27 5 28 4 29 3 30 2 31 1 32
REMARK H PARENT
REMARK Flexibility Score: inf
ROOT
ATOM      1  C   UNL     1      18.321  29.002  30.691  1.00  0.00     0.000 C 
ENDROOT
BRANCH   1   2
ATOM      2  C   UNL     1      19.695  28.535  31.199  1.00  0.00     0.000 C 
BRANCH   2   3
ATOM      3  C   UNL     1      19.625  27.239  32.024  1.00  0.00     0.000 C 
BRANCH   3   4
ATOM      4  C   UNL     1      20.949  26.883  32.733  1.00  0.00     0.000 C 
BRANCH   4   5
ATOM      5  C   UNL     1      20.716  26.060  34.011  1.00  0.00     0.000 C 
BRANCH   5   6
ATOM      6  C   UNL     1      19.801  26.809  34.991  1.00  0.00     0.000 C 
BRANCH   6   7
ATOM      7  C   UNL     1      20.359  28.188  35.378  1.00  0.00     0.000 C 
BRANCH   7   8
ATOM      8  C   UNL     1      19.269  29.273  35.421  1.00  0.00     0.000 C 
BRANCH   8   9
ATOM      9  C   UNL     1      17.912  28.770  34.884  1.00  0.00     0.000 C 
BRANCH   9  10
ATOM     10  C   UNL     1      16.896  29.893  34.599  1.00  0.00     0.000 C 
BRANCH  10  11
ATOM     11  C   UNL     1      17.223  31.251  35.242  1.00  0.00     0.000 C 
BRANCH  11  12
ATOM     12  C   UNL     1      16.028  31.846  36.006  1.00  0.00     0.000 C 
BRANCH  12  13
ATOM     13  C   UNL     1      16.084  33.380  36.091  1.00  0.00     0.006 C 
BRANCH  13  14
ATOM     14  C   UNL     1      16.545  33.887  37.463  1.00  0.00     0.053 C 
BRANCH  14  15
ATOM     15  C   UNL     1      15.466  34.687  38.122  1.00  0.00     0.041 C 
ATOM     16  O   UNL     1      15.388  34.730  39.378  1.00  0.00    -0.550 OA
ATOM     17  O   UNL     1      14.553  35.400  37.352  1.00  0.00    -0.550 OA
ENDBRANCH  14  15
ENDBRANCH  13  14
ENDBRANCH  12  13
ENDBRANCH  11  12
ENDBRANCH  10  11
ENDBRANCH   9  10
ENDBRANCH   8   9
ENDBRANCH   7   8
ENDBRANCH   6   7
ENDBRANCH   5   6
ENDBRANCH   4   5
ENDBRANCH   3   4
ENDBRANCH   2   3
ENDBRANCH   1   2
BRANCH   1  18
ATOM     18  C   UNL     1      18.059  30.486  31.031  1.00  0.00     0.000 C 
BRANCH  18  19
ATOM     19  C   UNL     1      18.903  31.460  30.191  1.00  0.00     0.000 C 
BRANCH  19  20
ATOM     20  C   UNL     1      18.410  31.553  28.736  1.00  0.00     0.000 C 
BRANCH  20  21
ATOM     21  C   UNL     1      19.553  31.449  27.714  1.00  0.00     0.000 C 
BRANCH  21  22
ATOM     22  C   UNL     1      20.758  30.656  28.240  1.00  0.00     0.000 C 
BRANCH  22  23
ATOM     23  C   UNL     1      20.873  29.295  27.535  1.00  0.00     0.000 C 
BRANCH  23  24
ATOM     24  C   UNL     1      19.959  29.193  26.302  1.00  0.00    -0.000 C 
BRANCH  24  25
ATOM     25  C   UNL     1      19.259  27.827  26.200  1.00  0.00    -0.000 C 
BRANCH  25  26
ATOM     26  C   UNL     1      18.101  27.670  27.208  1.00  0.00    -0.000 C 
BRANCH  26  27
ATOM     27  C   UNL     1      18.205  26.409  28.086  1.00  0.00    -0.000 C 
BRANCH  27  28
ATOM     28  C   UNL     1      19.629  26.047  28.551  1.00  0.00    -0.000 C 
BRANCH  28  29
ATOM     29  C   UNL     1      19.915  24.539  28.737  1.00  0.00    -0.000 C 
BRANCH  29  30
ATOM     30  C   UNL     1      18.707  23.598  28.531  1.00  0.00    -0.000 C 
BRANCH  30  31
ATOM     31  C   UNL     1      19.056  22.099  28.552  1.00  0.00    -0.003 C 
ATOM     32  C   UNL     1      19.482  21.554  27.190  1.00  0.00     0.004 C 
ENDBRANCH  30  31
ENDBRANCH  29  30
ENDBRANCH  28  29
ENDBRANCH  27  28
ENDBRANCH  26  27
ENDBRANCH  25  26
ENDBRANCH  24  25
ENDBRANCH  23  24
ENDBRANCH  22  23
ENDBRANCH  21  22
ENDBRANCH  20  21
ENDBRANCH  19  20
ENDBRANCH  18  19
ENDBRANCH   1  18
TORSDOF 28
ENDMDL
