MODEL 1
REMARK VINA RESULT:    -3.572      0.000      0.000
REMARK INTER + INTRA:         -11.830
REMARK INTER:                  -7.749
REMARK INTRA:                  -4.081
REMARK UNBOUND:                -4.081
REMARK SMILES CCCCCCCCCCCCCCCCCCCCCC(=O)[O-]
REMARK SMILES IDX 12 1 11 2 10 3 9 4 8 5 7 6 6 7 5 8 4 9 3 10 2 11 1 12 13 13
REMARK SMILES IDX 14 14 15 15 16 16 17 17 18 18 19 19 20 20 21 21 22 22 23 23
REMARK SMILES IDX 24 24
REMARK H PARENT
REMARK Flexibility Score: inf
ROOT
ATOM      1  C   UNL     1      36.365 -44.702  -0.133  1.00  0.00     0.000 C 
ENDROOT
BRANCH   1   2
ATOM      2  C   UNL     1      36.507 -45.772  -1.226  1.00  0.00     0.000 C 
BRANCH   2   3
ATOM      3  C   UNL     1      35.157 -46.136  -1.868  1.00  0.00     0.000 C 
BRANCH   3   4
ATOM      4  C   UNL     1      35.222 -47.426  -2.707  1.00  0.00    -0.000 C 
BRANCH   4   5
ATOM      5  C   UNL     1      33.857 -47.975  -3.165  1.00  0.00    -0.000 C 
BRANCH   5   6
ATOM      6  C   UNL     1      32.670 -47.269  -2.487  1.00  0.00    -0.000 C 
BRANCH   6   7
ATOM      7  C   UNL     1      31.741 -46.575  -3.495  1.00  0.00    -0.000 C 
BRANCH   7   8
ATOM      8  C   UNL     1      30.961 -45.404  -2.874  1.00  0.00    -0.000 C 
BRANCH   8   9
ATOM      9  C   UNL     1      31.402 -44.066  -3.487  1.00  0.00    -0.000 C 
BRANCH   9  10
ATOM     10  C   UNL     1      32.438 -44.241  -4.609  1.00  0.00    -0.000 C 
BRANCH  10  11
ATOM     11  C   UNL     1      33.753 -43.506  -4.318  1.00  0.00    -0.003 C 
ATOM     12  C   UNL     1      34.942 -44.248  -4.923  1.00  0.00     0.004 C 
ENDBRANCH  10  11
ENDBRANCH   9  10
ENDBRANCH   8   9
ENDBRANCH   7   8
ENDBRANCH   6   7
ENDBRANCH   5   6
ENDBRANCH   4   5
ENDBRANCH   3   4
ENDBRANCH   2   3
ENDBRANCH   1   2
BRANCH   1  13
ATOM     13  C   UNL     1      36.033 -43.315  -0.710  1.00  0.00     0.000 C 
BRANCH  13  14
ATOM     14  C   UNL     1      34.684 -42.766  -0.211  1.00  0.00     0.000 C 
BRANCH  14  15
ATOM     15  C   UNL     1      33.454 -43.593  -0.635  1.00  0.00     0.000 C 
BRANCH  15  16
ATOM     16  C   UNL     1      32.432 -43.870   0.485  1.00  0.00     0.000 C 
BRANCH  16  17
ATOM     17  C   UNL     1      33.005 -44.680   1.668  1.00  0.00     0.000 C 
BRANCH  17  18
ATOM     18  C   UNL     1      33.250 -46.158   1.312  1.00  0.00     0.000 C 
BRANCH  18  19
ATOM     19  C   UNL     1      34.414 -46.780   2.109  1.00  0.00     0.000 C 
BRANCH  19  20
ATOM     20  C   UNL     1      34.963 -48.100   1.535  1.00  0.00     0.006 C 
BRANCH  20  21
ATOM     21  C   UNL     1      33.968 -48.809   0.607  1.00  0.00     0.053 C 
BRANCH  21  22
ATOM     22  C   UNL     1      33.298 -49.943   1.321  1.00  0.00     0.041 C 
ATOM     23  O   UNL     1      32.129 -50.291   1.005  1.00  0.00    -0.550 OA
ATOM     24  O   UNL     1      33.965 -50.613   2.343  1.00  0.00    -0.550 OA
ENDBRANCH  21  22
ENDBRANCH  20  21
ENDBRANCH  19  20
ENDBRANCH  18  19
ENDBRANCH  17  18
ENDBRANCH  16  17
ENDBRANCH  15  16
ENDBRANCH  14  15
ENDBRANCH  13  14
ENDBRANCH   1  13
TORSDOF 20
ENDMDL
MODEL 2
REMARK VINA RESULT:    -3.485      2.710      5.057
REMARK INTER + INTRA:         -11.640
REMARK INTER:                  -8.000
REMARK INTRA:                  -3.640
REMARK UNBOUND:                -4.081
REMARK SMILES CCCCCCCCCCCCCCCCCCCCCC(=O)[O-]
REMARK SMILES IDX 12 1 11 2 10 3 9 4 8 5 7 6 6 7 5 8 4 9 3 10 2 11 1 12 13 13
REMARK SMILES IDX 14 14 15 15 16 16 17 17 18 18 19 19 20 20 21 21 22 22 23 23
REMARK SMILES IDX 24 24
REMARK H PARENT
REMARK Flexibility Score: inf
ROOT
ATOM      1  C   UNL     1      35.172 -47.911  -0.848  1.00  0.00     0.000 C 
ENDROOT
BRANCH   1   2
ATOM      2  C   UNL     1      35.707 -46.606  -1.460  1.00  0.00     0.000 C 
BRANCH   2   3
ATOM      3  C   UNL     1      36.446 -45.736  -0.428  1.00  0.00     0.000 C 
BRANCH   3   4
ATOM      4  C   UNL     1      36.633 -46.443   0.926  1.00  0.00    -0.000 C 
BRANCH   4   5
ATOM      5  C   UNL     1      36.259 -45.599   2.160  1.00  0.00    -0.000 C 
BRANCH   5   6
ATOM      6  C   UNL     1      34.787 -45.765   2.575  1.00  0.00    -0.000 C 
BRANCH   6   7
ATOM      7  C   UNL     1      33.963 -44.486   2.354  1.00  0.00    -0.000 C 
BRANCH   7   8
ATOM      8  C   UNL     1      33.148 -44.523   1.051  1.00  0.00    -0.000 C 
BRANCH   8   9
ATOM      9  C   UNL     1      33.638 -43.448   0.069  1.00  0.00    -0.000 C 
BRANCH   9  10
ATOM     10  C   UNL     1      33.306 -43.786  -1.393  1.00  0.00    -0.000 C 
BRANCH  10  11
ATOM     11  C   UNL     1      32.082 -44.702  -1.526  1.00  0.00    -0.003 C 
ATOM     12  C   UNL     1      30.857 -43.918  -1.988  1.00  0.00     0.004 C 
ENDBRANCH  10  11
ENDBRANCH   9  10
ENDBRANCH   8   9
ENDBRANCH   7   8
ENDBRANCH   6   7
ENDBRANCH   5   6
ENDBRANCH   4   5
ENDBRANCH   3   4
ENDBRANCH   2   3
ENDBRANCH   1   2
BRANCH   1  13
ATOM     13  C   UNL     1      33.648 -47.880  -0.642  1.00  0.00     0.000 C 
BRANCH  13  14
ATOM     14  C   UNL     1      33.225 -48.341   0.765  1.00  0.00     0.000 C 
BRANCH  14  15
ATOM     15  C   UNL     1      33.148 -49.869   0.948  1.00  0.00     0.000 C 
BRANCH  15  16
ATOM     16  C   UNL     1      33.962 -50.429   2.131  1.00  0.00     0.000 C 
BRANCH  16  17
ATOM     17  C   UNL     1      35.367 -49.807   2.274  1.00  0.00     0.000 C 
BRANCH  17  18
ATOM     18  C   UNL     1      35.541 -49.029   3.592  1.00  0.00     0.000 C 
BRANCH  18  19
ATOM     19  C   UNL     1      37.020 -48.824   3.975  1.00  0.00     0.000 C 
BRANCH  19  20
ATOM     20  C   UNL     1      37.524 -49.716   5.125  1.00  0.00     0.006 C 
BRANCH  20  21
ATOM     21  C   UNL     1      38.279 -50.959   4.632  1.00  0.00     0.053 C 
BRANCH  21  22
ATOM     22  C   UNL     1      37.419 -52.179   4.751  1.00  0.00     0.041 C 
ATOM     23  O   UNL     1      36.232 -52.084   5.164  1.00  0.00    -0.550 OA
ATOM     24  O   UNL     1      37.933 -53.427   4.412  1.00  0.00    -0.550 OA
ENDBRANCH  21  22
ENDBRANCH  20  21
ENDBRANCH  19  20
ENDBRANCH  18  19
ENDBRANCH  17  18
ENDBRANCH  16  17
ENDBRANCH  15  16
ENDBRANCH  14  15
ENDBRANCH  13  14
ENDBRANCH   1  13
TORSDOF 20
ENDMDL
MODEL 3
REMARK VINA RESULT:    -3.407      1.544      2.877
REMARK INTER + INTRA:         -11.472
REMARK INTER:                  -7.403
REMARK INTRA:                  -4.069
REMARK UNBOUND:                -4.081
REMARK SMILES CCCCCCCCCCCCCCCCCCCCCC(=O)[O-]
REMARK SMILES IDX 12 1 11 2 10 3 9 4 8 5 7 6 6 7 5 8 4 9 3 10 2 11 1 12 13 13
REMARK SMILES IDX 14 14 15 15 16 16 17 17 18 18 19 19 20 20 21 21 22 22 23 23
REMARK SMILES IDX 24 24
REMARK H PARENT
REMARK Flexibility Score: inf
ROOT
ATOM      1  C   UNL     1      36.729 -44.535  -0.087  1.00  0.00     0.000 C 
ENDROOT
BRANCH   1   2
ATOM      2  C   UNL     1      36.023 -45.345  -1.187  1.00  0.00     0.000 C 
BRANCH   2   3
ATOM      3  C   UNL     1      36.102 -44.657  -2.561  1.00  0.00     0.000 C 
BRANCH   3   4
ATOM      4  C   UNL     1      34.739 -44.587  -3.273  1.00  0.00    -0.000 C 
BRANCH   4   5
ATOM      5  C   UNL     1      33.624 -43.879  -2.481  1.00  0.00    -0.000 C 
BRANCH   5   6
ATOM      6  C   UNL     1      32.218 -44.390  -2.837  1.00  0.00    -0.000 C 
BRANCH   6   7
ATOM      7  C   UNL     1      31.959 -45.815  -2.321  1.00  0.00    -0.000 C 
BRANCH   7   8
ATOM      8  C   UNL     1      31.705 -46.820  -3.457  1.00  0.00    -0.000 C 
BRANCH   8   9
ATOM      9  C   UNL     1      32.644 -48.030  -3.337  1.00  0.00    -0.000 C 
BRANCH   9  10
ATOM     10  C   UNL     1      33.473 -48.011  -2.043  1.00  0.00    -0.000 C 
BRANCH  10  11
ATOM     11  C   UNL     1      34.822 -48.726  -2.195  1.00  0.00    -0.003 C 
ATOM     12  C   UNL     1      35.534 -48.290  -3.473  1.00  0.00     0.004 C 
ENDBRANCH  10  11
ENDBRANCH   9  10
ENDBRANCH   8   9
ENDBRANCH   7   8
ENDBRANCH   6   7
ENDBRANCH   5   6
ENDBRANCH   4   5
ENDBRANCH   3   4
ENDBRANCH   2   3
ENDBRANCH   1   2
BRANCH   1  13
ATOM     13  C   UNL     1      36.368 -43.040  -0.136  1.00  0.00     0.000 C 
BRANCH  13  14
ATOM     14  C   UNL     1      35.104 -42.703   0.676  1.00  0.00     0.000 C 
BRANCH  14  15
ATOM     15  C   UNL     1      35.139 -43.164   2.146  1.00  0.00     0.000 C 
BRANCH  15  16
ATOM     16  C   UNL     1      34.114 -44.255   2.516  1.00  0.00     0.000 C 
BRANCH  16  17
ATOM     17  C   UNL     1      33.215 -44.693   1.340  1.00  0.00     0.000 C 
BRANCH  17  18
ATOM     18  C   UNL     1      33.270 -46.211   1.084  1.00  0.00     0.000 C 
BRANCH  18  19
ATOM     19  C   UNL     1      34.265 -46.938   2.009  1.00  0.00     0.000 C 
BRANCH  19  20
ATOM     20  C   UNL     1      34.754 -48.304   1.493  1.00  0.00     0.006 C 
BRANCH  20  21
ATOM     21  C   UNL     1      34.386 -49.464   2.428  1.00  0.00     0.053 C 
BRANCH  21  22
ATOM     22  C   UNL     1      35.582 -49.909   3.212  1.00  0.00     0.041 C 
ATOM     23  O   UNL     1      35.964 -49.252   4.217  1.00  0.00    -0.550 OA
ATOM     24  O   UNL     1      36.281 -51.049   2.827  1.00  0.00    -0.550 OA
ENDBRANCH  21  22
ENDBRANCH  20  21
ENDBRANCH  19  20
ENDBRANCH  18  19
ENDBRANCH  17  18
ENDBRANCH  16  17
ENDBRANCH  15  16
ENDBRANCH  14  15
ENDBRANCH  13  14
ENDBRANCH   1  13
TORSDOF 20
ENDMDL
MODEL 4
REMARK VINA RESULT:    -3.399      2.529      4.831
REMARK INTER + INTRA:         -11.454
REMARK INTER:                  -7.505
REMARK INTRA:                  -3.948
REMARK UNBOUND:                -4.081
REMARK SMILES CCCCCCCCCCCCCCCCCCCCCC(=O)[O-]
REMARK SMILES IDX 12 1 11 2 10 3 9 4 8 5 7 6 6 7 5 8 4 9 3 10 2 11 1 12 13 13
REMARK SMILES IDX 14 14 15 15 16 16 17 17 18 18 19 19 20 20 21 21 22 22 23 23
REMARK SMILES IDX 24 24
REMARK H PARENT
REMARK Flexibility Score: inf
ROOT
ATOM      1  C   UNL     1      34.637 -45.373   2.562  1.00  0.00     0.000 C 
ENDROOT
BRANCH   1   2
ATOM      2  C   UNL     1      33.696 -44.386   1.854  1.00  0.00     0.000 C 
BRANCH   2   3
ATOM      3  C   UNL     1      34.436 -43.498   0.838  1.00  0.00     0.000 C 
BRANCH   3   4
ATOM      4  C   UNL     1      33.677 -43.353  -0.494  1.00  0.00    -0.000 C 
BRANCH   4   5
ATOM      5  C   UNL     1      32.180 -43.711  -0.434  1.00  0.00    -0.000 C 
BRANCH   5   6
ATOM      6  C   UNL     1      31.646 -44.276  -1.760  1.00  0.00    -0.000 C 
BRANCH   6   7
ATOM      7  C   UNL     1      32.738 -44.972  -2.588  1.00  0.00    -0.000 C 
BRANCH   7   8
ATOM      8  C   UNL     1      32.614 -46.505  -2.565  1.00  0.00    -0.000 C 
BRANCH   8   9
ATOM      9  C   UNL     1      33.995 -47.167  -2.688  1.00  0.00    -0.000 C 
BRANCH   9  10
ATOM     10  C   UNL     1      35.121 -46.305  -2.097  1.00  0.00    -0.000 C 
BRANCH  10  11
ATOM     11  C   UNL     1      36.191 -47.139  -1.382  1.00  0.00    -0.003 C 
ATOM     12  C   UNL     1      36.905 -46.317  -0.312  1.00  0.00     0.004 C 
ENDBRANCH  10  11
ENDBRANCH   9  10
ENDBRANCH   8   9
ENDBRANCH   7   8
ENDBRANCH   6   7
ENDBRANCH   5   6
ENDBRANCH   4   5
ENDBRANCH   3   4
ENDBRANCH   2   3
ENDBRANCH   1   2
BRANCH   1  13
ATOM     13  C   UNL     1      34.335 -46.837   2.194  1.00  0.00     0.000 C 
BRANCH  13  14
ATOM     14  C   UNL     1      33.373 -46.967   0.999  1.00  0.00     0.000 C 
BRANCH  14  15
ATOM     15  C   UNL     1      32.941 -48.409   0.671  1.00  0.00     0.000 C 
BRANCH  15  16
ATOM     16  C   UNL     1      34.072 -49.456   0.707  1.00  0.00     0.000 C 
BRANCH  16  17
ATOM     17  C   UNL     1      34.079 -50.325   1.983  1.00  0.00     0.000 C 
BRANCH  17  18
ATOM     18  C   UNL     1      35.437 -50.303   2.709  1.00  0.00     0.000 C 
BRANCH  18  19
ATOM     19  C   UNL     1      36.570 -49.721   1.841  1.00  0.00     0.000 C 
BRANCH  19  20
ATOM     20  C   UNL     1      37.569 -48.821   2.593  1.00  0.00     0.006 C 
BRANCH  20  21
ATOM     21  C   UNL     1      37.299 -48.757   4.102  1.00  0.00     0.053 C 
BRANCH  21  22
ATOM     22  C   UNL     1      38.527 -49.133   4.874  1.00  0.00     0.041 C 
ATOM     23  O   UNL     1      38.706 -50.325   5.242  1.00  0.00    -0.550 OA
ATOM     24  O   UNL     1      39.472 -48.163   5.193  1.00  0.00    -0.550 OA
ENDBRANCH  21  22
ENDBRANCH  20  21
ENDBRANCH  19  20
ENDBRANCH  18  19
ENDBRANCH  17  18
ENDBRANCH  16  17
ENDBRANCH  15  16
ENDBRANCH  14  15
ENDBRANCH  13  14
ENDBRANCH   1  13
TORSDOF 20
ENDMDL
MODEL 5
REMARK VINA RESULT:    -3.392      1.771      3.415
REMARK INTER + INTRA:         -11.438
REMARK INTER:                  -7.204
REMARK INTRA:                  -4.234
REMARK UNBOUND:                -4.081
REMARK SMILES CCCCCCCCCCCCCCCCCCCCCC(=O)[O-]
REMARK SMILES IDX 12 1 11 2 10 3 9 4 8 5 7 6 6 7 5 8 4 9 3 10 2 11 1 12 13 13
REMARK SMILES IDX 14 14 15 15 16 16 17 17 18 18 19 19 20 20 21 21 22 22 23 23
REMARK SMILES IDX 24 24
REMARK H PARENT
REMARK Flexibility Score: inf
ROOT
ATOM      1  C   UNL     1      33.942 -44.279   1.373  1.00  0.00     0.000 C 
ENDROOT
BRANCH   1   2
ATOM      2  C   UNL     1      33.233 -45.626   1.585  1.00  0.00     0.000 C 
BRANCH   2   3
ATOM      3  C   UNL     1      33.279 -46.515   0.330  1.00  0.00     0.000 C 
BRANCH   3   4
ATOM      4  C   UNL     1      33.063 -48.006   0.645  1.00  0.00    -0.000 C 
BRANCH   4   5
ATOM      5  C   UNL     1      33.837 -48.982  -0.262  1.00  0.00    -0.000 C 
BRANCH   5   6
ATOM      6  C   UNL     1      34.467 -48.293  -1.484  1.00  0.00    -0.000 C 
BRANCH   6   7
ATOM      7  C   UNL     1      33.569 -48.359  -2.729  1.00  0.00    -0.000 C 
BRANCH   7   8
ATOM      8  C   UNL     1      34.036 -47.414  -3.849  1.00  0.00    -0.000 C 
BRANCH   8   9
ATOM      9  C   UNL     1      33.043 -46.256  -4.036  1.00  0.00    -0.000 C 
BRANCH   9  10
ATOM     10  C   UNL     1      31.745 -46.453  -3.237  1.00  0.00    -0.000 C 
BRANCH  10  11
ATOM     11  C   UNL     1      31.333 -45.196  -2.460  1.00  0.00    -0.003 C 
ATOM     12  C   UNL     1      31.645 -43.932  -3.255  1.00  0.00     0.004 C 
ENDBRANCH  10  11
ENDBRANCH   9  10
ENDBRANCH   8   9
ENDBRANCH   7   8
ENDBRANCH   6   7
ENDBRANCH   5   6
ENDBRANCH   4   5
ENDBRANCH   3   4
ENDBRANCH   2   3
ENDBRANCH   1   2
BRANCH   1  13
ATOM     13  C   UNL     1      33.452 -43.550   0.110  1.00  0.00     0.000 C 
BRANCH  13  14
ATOM     14  C   UNL     1      34.603 -43.128  -0.821  1.00  0.00     0.000 C 
BRANCH  14  15
ATOM     15  C   UNL     1      35.167 -44.258  -1.705  1.00  0.00     0.000 C 
BRANCH  15  16
ATOM     16  C   UNL     1      36.671 -44.541  -1.527  1.00  0.00     0.000 C 
BRANCH  16  17
ATOM     17  C   UNL     1      36.978 -45.906  -0.875  1.00  0.00     0.000 C 
BRANCH  17  18
ATOM     18  C   UNL     1      37.100 -45.819   0.658  1.00  0.00     0.000 C 
BRANCH  18  19
ATOM     19  C   UNL     1      36.665 -47.116   1.367  1.00  0.00     0.000 C 
BRANCH  19  20
ATOM     20  C   UNL     1      36.483 -46.994   2.892  1.00  0.00     0.006 C 
BRANCH  20  21
ATOM     21  C   UNL     1      35.475 -48.003   3.458  1.00  0.00     0.053 C 
BRANCH  21  22
ATOM     22  C   UNL     1      36.173 -49.249   3.910  1.00  0.00     0.041 C 
ATOM     23  O   UNL     1      36.423 -50.172   3.090  1.00  0.00    -0.550 OA
ATOM     24  O   UNL     1      36.542 -49.393   5.244  1.00  0.00    -0.550 OA
ENDBRANCH  21  22
ENDBRANCH  20  21
ENDBRANCH  19  20
ENDBRANCH  18  19
ENDBRANCH  17  18
ENDBRANCH  16  17
ENDBRANCH  15  16
ENDBRANCH  14  15
ENDBRANCH  13  14
ENDBRANCH   1  13
TORSDOF 20
ENDMDL
MODEL 6
REMARK VINA RESULT:    -3.384      2.135      5.730
REMARK INTER + INTRA:         -11.421
REMARK INTER:                  -8.251
REMARK INTRA:                  -3.170
REMARK UNBOUND:                -4.081
REMARK SMILES CCCCCCCCCCCCCCCCCCCCCC(=O)[O-]
REMARK SMILES IDX 12 1 11 2 10 3 9 4 8 5 7 6 6 7 5 8 4 9 3 10 2 11 1 12 13 13
REMARK SMILES IDX 14 14 15 15 16 16 17 17 18 18 19 19 20 20 21 21 22 22 23 23
REMARK SMILES IDX 24 24
REMARK H PARENT
REMARK Flexibility Score: inf
ROOT
ATOM      1  C   UNL     1      36.213 -43.669   1.301  1.00  0.00     0.000 C 
ENDROOT
BRANCH   1   2
ATOM      2  C   UNL     1      34.965 -43.932   2.159  1.00  0.00     0.000 C 
BRANCH   2   3
ATOM      3  C   UNL     1      34.813 -45.418   2.529  1.00  0.00     0.000 C 
BRANCH   3   4
ATOM      4  C   UNL     1      33.624 -46.092   1.821  1.00  0.00    -0.000 C 
BRANCH   4   5
ATOM      5  C   UNL     1      33.963 -46.773   0.481  1.00  0.00    -0.000 C 
BRANCH   5   6
ATOM      6  C   UNL     1      33.290 -48.147   0.321  1.00  0.00    -0.000 C 
BRANCH   6   7
ATOM      7  C   UNL     1      34.251 -49.312   0.601  1.00  0.00    -0.000 C 
BRANCH   7   8
ATOM      8  C   UNL     1      34.112 -49.866   2.029  1.00  0.00    -0.000 C 
BRANCH   8   9
ATOM      9  C   UNL     1      35.474 -49.895   2.740  1.00  0.00    -0.000 C 
BRANCH   9  10
ATOM     10  C   UNL     1      35.658 -48.723   3.716  1.00  0.00    -0.000 C 
BRANCH  10  11
ATOM     11  C   UNL     1      37.057 -48.097   3.630  1.00  0.00    -0.003 C 
ATOM     12  C   UNL     1      38.075 -48.919   4.415  1.00  0.00     0.004 C 
ENDBRANCH  10  11
ENDBRANCH   9  10
ENDBRANCH   8   9
ENDBRANCH   7   8
ENDBRANCH   6   7
ENDBRANCH   5   6
ENDBRANCH   4   5
ENDBRANCH   3   4
ENDBRANCH   2   3
ENDBRANCH   1   2
BRANCH   1  13
ATOM     13  C   UNL     1      35.877 -43.523  -0.193  1.00  0.00     0.000 C 
BRANCH  13  14
ATOM     14  C   UNL     1      34.565 -42.756  -0.439  1.00  0.00     0.000 C 
BRANCH  14  15
ATOM     15  C   UNL     1      33.504 -43.530  -1.244  1.00  0.00     0.000 C 
BRANCH  15  16
ATOM     16  C   UNL     1      32.114 -43.617  -0.584  1.00  0.00     0.000 C 
BRANCH  16  17
ATOM     17  C   UNL     1      30.971 -43.935  -1.573  1.00  0.00     0.000 C 
BRANCH  17  18
ATOM     18  C   UNL     1      31.453 -44.014  -3.033  1.00  0.00     0.000 C 
BRANCH  18  19
ATOM     19  C   UNL     1      31.295 -45.421  -3.640  1.00  0.00     0.000 C 
BRANCH  19  20
ATOM     20  C   UNL     1      31.903 -46.563  -2.804  1.00  0.00     0.006 C 
BRANCH  20  21
ATOM     21  C   UNL     1      33.119 -47.214  -3.476  1.00  0.00     0.053 C 
BRANCH  21  22
ATOM     22  C   UNL     1      33.116 -48.695  -3.251  1.00  0.00     0.041 C 
ATOM     23  O   UNL     1      32.028 -49.328  -3.197  1.00  0.00    -0.550 OA
ATOM     24  O   UNL     1      34.319 -49.377  -3.092  1.00  0.00    -0.550 OA
ENDBRANCH  21  22
ENDBRANCH  20  21
ENDBRANCH  19  20
ENDBRANCH  18  19
ENDBRANCH  17  18
ENDBRANCH  16  17
ENDBRANCH  15  16
ENDBRANCH  14  15
ENDBRANCH  13  14
ENDBRANCH   1  13
TORSDOF 20
ENDMDL
MODEL 7
REMARK VINA RESULT:    -3.373      2.876      5.638
REMARK INTER + INTRA:         -11.398
REMARK INTER:                  -8.003
REMARK INTRA:                  -3.395
REMARK UNBOUND:                -4.081
REMARK SMILES CCCCCCCCCCCCCCCCCCCCCC(=O)[O-]
REMARK SMILES IDX 12 1 11 2 10 3 9 4 8 5 7 6 6 7 5 8 4 9 3 10 2 11 1 12 13 13
REMARK SMILES IDX 14 14 15 15 16 16 17 17 18 18 19 19 20 20 21 21 22 22 23 23
REMARK SMILES IDX 24 24
REMARK H PARENT
REMARK Flexibility Score: inf
ROOT
ATOM      1  C   UNL     1      33.251 -42.426  -4.977  1.00  0.00     0.000 C 
ENDROOT
BRANCH   1   2
ATOM      2  C   UNL     1      33.156 -41.146  -5.822  1.00  0.00     0.000 C 
BRANCH   2   3
ATOM      3  C   UNL     1      33.526 -41.389  -7.296  1.00  0.00     0.000 C 
BRANCH   3   4
ATOM      4  C   UNL     1      32.320 -41.264  -8.244  1.00  0.00    -0.000 C 
BRANCH   4   5
ATOM      5  C   UNL     1      31.344 -42.456  -8.217  1.00  0.00    -0.000 C 
BRANCH   5   6
ATOM      6  C   UNL     1      29.875 -42.024  -8.074  1.00  0.00    -0.000 C 
BRANCH   6   7
ATOM      7  C   UNL     1      29.253 -42.474  -6.743  1.00  0.00    -0.000 C 
BRANCH   7   8
ATOM      8  C   UNL     1      29.608 -41.538  -5.575  1.00  0.00    -0.000 C 
BRANCH   8   9
ATOM      9  C   UNL     1      29.372 -42.233  -4.226  1.00  0.00    -0.000 C 
BRANCH   9  10
ATOM     10  C   UNL     1      28.497 -43.490  -4.352  1.00  0.00    -0.000 C 
BRANCH  10  11
ATOM     11  C   UNL     1      28.343 -44.239  -3.021  1.00  0.00    -0.003 C 
ATOM     12  C   UNL     1      28.216 -43.265  -1.854  1.00  0.00     0.004 C 
ENDBRANCH  10  11
ENDBRANCH   9  10
ENDBRANCH   8   9
ENDBRANCH   7   8
ENDBRANCH   6   7
ENDBRANCH   5   6
ENDBRANCH   4   5
ENDBRANCH   3   4
ENDBRANCH   2   3
ENDBRANCH   1   2
BRANCH   1  13
ATOM     13  C   UNL     1      33.877 -43.596  -5.755  1.00  0.00     0.000 C 
BRANCH  13  14
ATOM     14  C   UNL     1      33.012 -44.869  -5.719  1.00  0.00     0.000 C 
BRANCH  14  15
ATOM     15  C   UNL     1      31.847 -44.830  -4.711  1.00  0.00     0.000 C 
BRANCH  15  16
ATOM     16  C   UNL     1      31.837 -45.971  -3.675  1.00  0.00     0.000 C 
BRANCH  16  17
ATOM     17  C   UNL     1      32.414 -45.572  -2.300  1.00  0.00     0.000 C 
BRANCH  17  18
ATOM     18  C   UNL     1      31.752 -44.308  -1.721  1.00  0.00     0.000 C 
BRANCH  18  19
ATOM     19  C   UNL     1      32.702 -43.491  -0.825  1.00  0.00     0.000 C 
BRANCH  19  20
ATOM     20  C   UNL     1      33.664 -44.330   0.037  1.00  0.00     0.006 C 
BRANCH  20  21
ATOM     21  C   UNL     1      32.983 -44.951   1.264  1.00  0.00     0.053 C 
BRANCH  21  22
ATOM     22  C   UNL     1      33.600 -46.275   1.596  1.00  0.00     0.041 C 
ATOM     23  O   UNL     1      33.225 -47.319   0.999  1.00  0.00    -0.550 OA
ATOM     24  O   UNL     1      34.587 -46.356   2.574  1.00  0.00    -0.550 OA
ENDBRANCH  21  22
ENDBRANCH  20  21
ENDBRANCH  19  20
ENDBRANCH  18  19
ENDBRANCH  17  18
ENDBRANCH  16  17
ENDBRANCH  15  16
ENDBRANCH  14  15
ENDBRANCH  13  14
ENDBRANCH   1  13
TORSDOF 20
ENDMDL
MODEL 8
REMARK VINA RESULT:    -3.346      3.161      6.293
REMARK INTER + INTRA:         -11.338
REMARK INTER:                  -7.226
REMARK INTRA:                  -4.112
REMARK UNBOUND:                -4.081
REMARK SMILES CCCCCCCCCCCCCCCCCCCCCC(=O)[O-]
REMARK SMILES IDX 12 1 11 2 10 3 9 4 8 5 7 6 6 7 5 8 4 9 3 10 2 11 1 12 13 13
REMARK SMILES IDX 14 14 15 15 16 16 17 17 18 18 19 19 20 20 21 21 22 22 23 23
REMARK SMILES IDX 24 24
REMARK H PARENT
REMARK Flexibility Score: inf
ROOT
ATOM      1  C   UNL     1      33.409 -46.993   1.029  1.00  0.00     0.000 C 
ENDROOT
BRANCH   1   2
ATOM      2  C   UNL     1      34.401 -47.194   2.186  1.00  0.00     0.000 C 
BRANCH   2   3
ATOM      3  C   UNL     1      34.757 -45.871   2.887  1.00  0.00     0.000 C 
BRANCH   3   4
ATOM      4  C   UNL     1      34.029 -44.658   2.281  1.00  0.00    -0.000 C 
BRANCH   4   5
ATOM      5  C   UNL     1      34.896 -43.396   2.107  1.00  0.00    -0.000 C 
BRANCH   5   6
ATOM      6  C   UNL     1      34.708 -42.724   0.737  1.00  0.00    -0.000 C 
BRANCH   6   7
ATOM      7  C   UNL     1      33.830 -43.555  -0.213  1.00  0.00    -0.000 C 
BRANCH   7   8
ATOM      8  C   UNL     1      34.293 -43.467  -1.677  1.00  0.00    -0.000 C 
BRANCH   8   9
ATOM      9  C   UNL     1      35.667 -44.132  -1.857  1.00  0.00    -0.000 C 
BRANCH   9  10
ATOM     10  C   UNL     1      35.742 -45.523  -1.209  1.00  0.00    -0.000 C 
BRANCH  10  11
ATOM     11  C   UNL     1      36.893 -45.645  -0.202  1.00  0.00    -0.003 C 
ATOM     12  C   UNL     1      37.384 -47.086  -0.101  1.00  0.00     0.004 C 
ENDBRANCH  10  11
ENDBRANCH   9  10
ENDBRANCH   8   9
ENDBRANCH   7   8
ENDBRANCH   6   7
ENDBRANCH   5   6
ENDBRANCH   4   5
ENDBRANCH   3   4
ENDBRANCH   2   3
ENDBRANCH   1   2
BRANCH   1  13
ATOM     13  C   UNL     1      33.041 -48.317   0.336  1.00  0.00     0.000 C 
BRANCH  13  14
ATOM     14  C   UNL     1      34.276 -49.112  -0.127  1.00  0.00     0.000 C 
BRANCH  14  15
ATOM     15  C   UNL     1      34.577 -49.016  -1.635  1.00  0.00     0.000 C 
BRANCH  15  16
ATOM     16  C   UNL     1      33.367 -48.674  -2.526  1.00  0.00     0.000 C 
BRANCH  16  17
ATOM     17  C   UNL     1      33.716 -47.791  -3.743  1.00  0.00     0.000 C 
BRANCH  17  18
ATOM     18  C   UNL     1      33.122 -46.374  -3.639  1.00  0.00     0.000 C 
BRANCH  18  19
ATOM     19  C   UNL     1      32.063 -46.249  -2.526  1.00  0.00     0.000 C 
BRANCH  19  20
ATOM     20  C   UNL     1      31.051 -45.103  -2.716  1.00  0.00     0.006 C 
BRANCH  20  21
ATOM     21  C   UNL     1      30.433 -45.077  -4.120  1.00  0.00     0.053 C 
BRANCH  21  22
ATOM     22  C   UNL     1      29.773 -43.757  -4.381  1.00  0.00     0.041 C 
ATOM     23  O   UNL     1      29.052 -43.221  -3.497  1.00  0.00    -0.550 OA
ATOM     24  O   UNL     1      29.948 -43.123  -5.607  1.00  0.00    -0.550 OA
ENDBRANCH  21  22
ENDBRANCH  20  21
ENDBRANCH  19  20
ENDBRANCH  18  19
ENDBRANCH  17  18
ENDBRANCH  16  17
ENDBRANCH  15  16
ENDBRANCH  14  15
ENDBRANCH  13  14
ENDBRANCH   1  13
TORSDOF 20
ENDMDL
MODEL 9
REMARK VINA RESULT:    -3.335      3.306      6.562
REMARK INTER + INTRA:         -11.314
REMARK INTER:                  -7.279
REMARK INTRA:                  -4.036
REMARK UNBOUND:                -4.081
REMARK SMILES CCCCCCCCCCCCCCCCCCCCCC(=O)[O-]
REMARK SMILES IDX 12 1 11 2 10 3 9 4 8 5 7 6 6 7 5 8 4 9 3 10 2 11 1 12 13 13
REMARK SMILES IDX 14 14 15 15 16 16 17 17 18 18 19 19 20 20 21 21 22 22 23 23
REMARK SMILES IDX 24 24
REMARK H PARENT
REMARK Flexibility Score: inf
ROOT
ATOM      1  C   UNL     1      36.048 -46.743  -3.010  1.00  0.00     0.000 C 
ENDROOT
BRANCH   1   2
ATOM      2  C   UNL     1      36.167 -45.298  -2.497  1.00  0.00     0.000 C 
BRANCH   2   3
ATOM      3  C   UNL     1      35.150 -44.987  -1.385  1.00  0.00     0.000 C 
BRANCH   3   4
ATOM      4  C   UNL     1      35.012 -43.479  -1.106  1.00  0.00    -0.000 C 
BRANCH   4   5
ATOM      5  C   UNL     1      34.058 -43.114   0.047  1.00  0.00    -0.000 C 
BRANCH   5   6
ATOM      6  C   UNL     1      32.759 -43.939   0.033  1.00  0.00    -0.000 C 
BRANCH   6   7
ATOM      7  C   UNL     1      32.571 -44.767   1.314  1.00  0.00    -0.000 C 
BRANCH   7   8
ATOM      8  C   UNL     1      33.862 -44.882   2.141  1.00  0.00    -0.000 C 
BRANCH   8   9
ATOM      9  C   UNL     1      34.383 -46.327   2.146  1.00  0.00    -0.000 C 
BRANCH   9  10
ATOM     10  C   UNL     1      33.589 -47.246   1.204  1.00  0.00    -0.000 C 
BRANCH  10  11
ATOM     11  C   UNL     1      33.988 -48.721   1.342  1.00  0.00    -0.003 C 
ATOM     12  C   UNL     1      32.897 -49.639   0.798  1.00  0.00     0.004 C 
ENDBRANCH  10  11
ENDBRANCH   9  10
ENDBRANCH   8   9
ENDBRANCH   7   8
ENDBRANCH   6   7
ENDBRANCH   5   6
ENDBRANCH   4   5
ENDBRANCH   3   4
ENDBRANCH   2   3
ENDBRANCH   1   2
BRANCH   1  13
ATOM     13  C   UNL     1      36.230 -47.779  -1.887  1.00  0.00     0.000 C 
BRANCH  13  14
ATOM     14  C   UNL     1      35.348 -49.027  -2.077  1.00  0.00     0.000 C 
BRANCH  14  15
ATOM     15  C   UNL     1      34.329 -48.928  -3.228  1.00  0.00     0.000 C 
BRANCH  15  16
ATOM     16  C   UNL     1      32.860 -48.765  -2.792  1.00  0.00     0.000 C 
BRANCH  16  17
ATOM     17  C   UNL     1      32.506 -47.344  -2.303  1.00  0.00     0.000 C 
BRANCH  17  18
ATOM     18  C   UNL     1      32.282 -46.355  -3.462  1.00  0.00     0.000 C 
BRANCH  18  19
ATOM     19  C   UNL     1      31.188 -45.314  -3.157  1.00  0.00     0.000 C 
BRANCH  19  20
ATOM     20  C   UNL     1      31.569 -43.856  -3.479  1.00  0.00     0.006 C 
BRANCH  20  21
ATOM     21  C   UNL     1      32.940 -43.732  -4.157  1.00  0.00     0.053 C 
BRANCH  21  22
ATOM     22  C   UNL     1      32.847 -42.872  -5.380  1.00  0.00     0.041 C 
ATOM     23  O   UNL     1      33.268 -41.685  -5.357  1.00  0.00    -0.550 OA
ATOM     24  O   UNL     1      32.287 -43.382  -6.548  1.00  0.00    -0.550 OA
ENDBRANCH  21  22
ENDBRANCH  20  21
ENDBRANCH  19  20
ENDBRANCH  18  19
ENDBRANCH  17  18
ENDBRANCH  16  17
ENDBRANCH  15  16
ENDBRANCH  14  15
ENDBRANCH  13  14
ENDBRANCH   1  13
TORSDOF 20
ENDMDL
