MODEL 1
REMARK VINA RESULT:    -3.444      0.000      0.000
REMARK INTER + INTRA:          -5.348
REMARK INTER:                  -4.651
REMARK INTRA:                  -0.697
REMARK UNBOUND:                -0.697
REMARK SMILES O=C[C@@H](O)[C@H](O)[C@@H](O)CO
REMARK SMILES IDX 7 1 9 2 10 3 5 5 3 6 2 7 1 8 4 9 6 11 8 13
REMARK H PARENT 10 4 4 10 6 12 8 14
REMARK Flexibility Score: inf
ROOT
ATOM      1  C   UNL     1     -21.109  -6.612   5.630  1.00  0.00     0.171 C 
ENDROOT
BRANCH   1   2
ATOM      2  C   UNL     1     -19.990  -7.195   4.744  1.00  0.00     0.190 C 
BRANCH   2   3
ATOM      3  O   UNL     1     -18.766  -7.185   5.431  1.00  0.00    -0.394 OA
ATOM      4  H   UNL     1     -18.865  -7.801   6.202  1.00  0.00     0.210 HD
ENDBRANCH   2   3
ENDBRANCH   1   2
BRANCH   1   5
ATOM      5  C   UNL     1     -21.244  -7.346   6.992  1.00  0.00     0.181 C 
BRANCH   5   6
ATOM      6  C   UNL     1     -22.634  -7.150   7.651  1.00  0.00     0.209 C 
BRANCH   6   7
ATOM      7  C   UNL     1     -22.792  -8.019   8.873  1.00  0.00     0.258 C 
ATOM      8  O   UNL     1     -22.268  -7.701   9.928  1.00  0.00    -0.300 OA
ENDBRANCH   6   7
BRANCH   6   9
ATOM      9  O   UNL     1     -22.864  -5.801   7.979  1.00  0.00    -0.383 OA
ATOM     10  H   UNL     1     -22.116  -5.265   7.602  1.00  0.00     0.211 HD
ENDBRANCH   6   9
ENDBRANCH   5   6
BRANCH   5  11
ATOM     11  O   UNL     1     -20.248  -6.882   7.871  1.00  0.00    -0.387 OA
ATOM     12  H   UNL     1     -20.685  -6.709   8.745  1.00  0.00     0.211 HD
ENDBRANCH   5  11
ENDBRANCH   1   5
BRANCH   1  13
ATOM     13  O   UNL     1     -20.888  -5.239   5.842  1.00  0.00    -0.388 OA
ATOM     14  H   UNL     1     -21.175  -4.759   5.022  1.00  0.00     0.211 HD
ENDBRANCH   1  13
TORSDOF 8
ENDMDL
MODEL 2
REMARK VINA RESULT:    -3.428      1.399      4.127
REMARK INTER + INTRA:          -5.327
REMARK INTER:                  -4.587
REMARK INTRA:                  -0.741
REMARK UNBOUND:                -0.697
REMARK SMILES O=C[C@@H](O)[C@H](O)[C@@H](O)CO
REMARK SMILES IDX 7 1 9 2 10 3 5 5 3 6 2 7 1 8 4 9 6 11 8 13
REMARK H PARENT 10 4 4 10 6 12 8 14
REMARK Flexibility Score: inf
ROOT
ATOM      1  C   UNL     1     -22.295  -7.796   8.806  1.00  0.00     0.171 C 
ENDROOT
BRANCH   1   2
ATOM      2  C   UNL     1     -22.954  -7.638  10.191  1.00  0.00     0.190 C 
BRANCH   2   3
ATOM      3  O   UNL     1     -21.998  -7.263  11.148  1.00  0.00    -0.394 OA
ATOM      4  H   UNL     1     -21.356  -8.016  11.223  1.00  0.00     0.210 HD
ENDBRANCH   2   3
ENDBRANCH   1   2
BRANCH   1   5
ATOM      5  C   UNL     1     -23.124  -7.143   7.666  1.00  0.00     0.181 C 
BRANCH   5   6
ATOM      6  C   UNL     1     -22.586  -7.487   6.253  1.00  0.00     0.209 C 
BRANCH   6   7
ATOM      7  C   UNL     1     -21.949  -6.287   5.598  1.00  0.00     0.258 C 
ATOM      8  O   UNL     1     -20.883  -5.856   6.007  1.00  0.00    -0.300 OA
ENDBRANCH   6   7
BRANCH   6   9
ATOM      9  O   UNL     1     -21.678  -8.561   6.293  1.00  0.00    -0.383 OA
ATOM     10  H   UNL     1     -20.868  -8.292   5.785  1.00  0.00     0.211 HD
ENDBRANCH   6   9
ENDBRANCH   5   6
BRANCH   5  11
ATOM     11  O   UNL     1     -23.122  -5.746   7.831  1.00  0.00    -0.387 OA
ATOM     12  H   UNL     1     -23.325  -5.345   6.946  1.00  0.00     0.211 HD
ENDBRANCH   5  11
ENDBRANCH   1   5
BRANCH   1  13
ATOM     13  O   UNL     1     -20.996  -7.257   8.827  1.00  0.00    -0.388 OA
ATOM     14  H   UNL     1     -20.525  -7.579   8.015  1.00  0.00     0.211 HD
ENDBRANCH   1  13
TORSDOF 8
ENDMDL
MODEL 3
REMARK VINA RESULT:    -3.423     10.628     11.616
REMARK INTER + INTRA:          -5.321
REMARK INTER:                  -5.233
REMARK INTRA:                  -0.088
REMARK UNBOUND:                -0.697
REMARK SMILES O=C[C@@H](O)[C@H](O)[C@@H](O)CO
REMARK SMILES IDX 7 1 9 2 10 3 5 5 3 6 2 7 1 8 4 9 6 11 8 13
REMARK H PARENT 10 4 4 10 6 12 8 14
REMARK Flexibility Score: inf
ROOT
ATOM      1  C   UNL     1     -16.339 -10.868  16.278  1.00  0.00     0.171 C 
ENDROOT
BRANCH   1   2
ATOM      2  C   UNL     1     -15.136 -11.412  15.482  1.00  0.00     0.190 C 
BRANCH   2   3
ATOM      3  O   UNL     1     -14.230 -12.052  16.342  1.00  0.00    -0.394 OA
ATOM      4  H   UNL     1     -13.326 -11.923  15.954  1.00  0.00     0.210 HD
ENDBRANCH   2   3
ENDBRANCH   1   2
BRANCH   1   5
ATOM      5  C   UNL     1     -16.217  -9.352  16.595  1.00  0.00     0.181 C 
BRANCH   5   6
ATOM      6  C   UNL     1     -16.988  -8.936  17.875  1.00  0.00     0.209 C 
BRANCH   6   7
ATOM      7  C   UNL     1     -17.248 -10.121  18.771  1.00  0.00     0.258 C 
ATOM      8  O   UNL     1     -18.389 -10.409  19.097  1.00  0.00    -0.300 OA
ENDBRANCH   6   7
BRANCH   6   9
ATOM      9  O   UNL     1     -16.308  -7.929  18.583  1.00  0.00    -0.383 OA
ATOM     10  H   UNL     1     -16.078  -7.208  17.939  1.00  0.00     0.211 HD
ENDBRANCH   6   9
ENDBRANCH   5   6
BRANCH   5  11
ATOM     11  O   UNL     1     -16.701  -8.608  15.503  1.00  0.00    -0.387 OA
ATOM     12  H   UNL     1     -17.139  -7.798  15.871  1.00  0.00     0.211 HD
ENDBRANCH   5  11
ENDBRANCH   1   5
BRANCH   1  13
ATOM     13  O   UNL     1     -17.533 -11.119  15.578  1.00  0.00    -0.388 OA
ATOM     14  H   UNL     1     -17.805 -12.053  15.776  1.00  0.00     0.211 HD
ENDBRANCH   1  13
TORSDOF 8
ENDMDL
MODEL 4
REMARK VINA RESULT:    -3.397      1.414      4.029
REMARK INTER + INTRA:          -5.285
REMARK INTER:                  -4.821
REMARK INTRA:                  -0.465
REMARK UNBOUND:                -0.697
REMARK SMILES O=C[C@@H](O)[C@H](O)[C@@H](O)CO
REMARK SMILES IDX 7 1 9 2 10 3 5 5 3 6 2 7 1 8 4 9 6 11 8 13
REMARK H PARENT 10 4 4 10 6 12 8 14
REMARK Flexibility Score: inf
ROOT
ATOM      1  C   UNL     1     -21.350  -7.353   7.314  1.00  0.00     0.171 C 
ENDROOT
BRANCH   1   2
ATOM      2  C   UNL     1     -22.230  -7.658   8.543  1.00  0.00     0.190 C 
BRANCH   2   3
ATOM      3  O   UNL     1     -21.463  -7.609   9.718  1.00  0.00    -0.394 OA
ATOM      4  H   UNL     1     -21.592  -6.706  10.107  1.00  0.00     0.210 HD
ENDBRANCH   2   3
ENDBRANCH   1   2
BRANCH   1   5
ATOM      5  C   UNL     1     -22.126  -6.624   6.183  1.00  0.00     0.181 C 
BRANCH   5   6
ATOM      6  C   UNL     1     -21.192  -5.962   5.137  1.00  0.00     0.209 C 
BRANCH   6   7
ATOM      7  C   UNL     1     -21.808  -5.978   3.760  1.00  0.00     0.258 C 
ATOM      8  O   UNL     1     -23.020  -6.043   3.627  1.00  0.00    -0.300 OA
ENDBRANCH   6   7
BRANCH   6   9
ATOM      9  O   UNL     1     -20.855  -4.647   5.505  1.00  0.00    -0.383 OA
ATOM     10  H   UNL     1     -21.133  -4.516   6.450  1.00  0.00     0.211 HD
ENDBRANCH   6   9
ENDBRANCH   5   6
BRANCH   5  11
ATOM     11  O   UNL     1     -22.955  -5.639   6.749  1.00  0.00    -0.387 OA
ATOM     12  H   UNL     1     -22.930  -5.764   7.733  1.00  0.00     0.211 HD
ENDBRANCH   5  11
ENDBRANCH   1   5
BRANCH   1  13
ATOM     13  O   UNL     1     -20.232  -6.592   7.700  1.00  0.00    -0.388 OA
ATOM     14  H   UNL     1     -19.949  -6.055   6.914  1.00  0.00     0.211 HD
ENDBRANCH   1  13
TORSDOF 8
ENDMDL
MODEL 5
REMARK VINA RESULT:    -3.389      1.772      3.955
REMARK INTER + INTRA:          -5.275
REMARK INTER:                  -4.331
REMARK INTRA:                  -0.944
REMARK UNBOUND:                -0.697
REMARK SMILES O=C[C@@H](O)[C@H](O)[C@@H](O)CO
REMARK SMILES IDX 7 1 9 2 10 3 5 5 3 6 2 7 1 8 4 9 6 11 8 13
REMARK H PARENT 10 4 4 10 6 12 8 14
REMARK Flexibility Score: inf
ROOT
ATOM      1  C   UNL     1     -21.491  -7.498   7.707  1.00  0.00     0.171 C 
ENDROOT
BRANCH   1   2
ATOM      2  C   UNL     1     -22.638  -6.467   7.674  1.00  0.00     0.190 C 
BRANCH   2   3
ATOM      3  O   UNL     1     -22.384  -5.485   6.705  1.00  0.00    -0.394 OA
ATOM      4  H   UNL     1     -21.400  -5.359   6.674  1.00  0.00     0.210 HD
ENDBRANCH   2   3
ENDBRANCH   1   2
BRANCH   1   5
ATOM      5  C   UNL     1     -21.340  -8.275   6.370  1.00  0.00     0.181 C 
BRANCH   5   6
ATOM      6  C   UNL     1     -20.069  -7.874   5.578  1.00  0.00     0.209 C 
BRANCH   6   7
ATOM      7  C   UNL     1     -19.945  -8.665   4.299  1.00  0.00     0.258 C 
ATOM      8  O   UNL     1     -20.422  -9.785   4.218  1.00  0.00    -0.300 OA
ENDBRANCH   6   7
BRANCH   6   9
ATOM      9  O   UNL     1     -20.045  -6.495   5.303  1.00  0.00    -0.383 OA
ATOM     10  H   UNL     1     -20.640  -6.330   4.525  1.00  0.00     0.211 HD
ENDBRANCH   6   9
ENDBRANCH   5   6
BRANCH   5  11
ATOM     11  O   UNL     1     -22.474  -8.045   5.569  1.00  0.00    -0.387 OA
ATOM     12  H   UNL     1     -22.311  -7.207   5.064  1.00  0.00     0.211 HD
ENDBRANCH   5  11
ENDBRANCH   1   5
BRANCH   1  13
ATOM     13  O   UNL     1     -20.281  -6.861   8.035  1.00  0.00    -0.388 OA
ATOM     14  H   UNL     1     -19.584  -7.207   7.418  1.00  0.00     0.211 HD
ENDBRANCH   1  13
TORSDOF 8
ENDMDL
MODEL 6
REMARK VINA RESULT:    -3.368      1.552      4.381
REMARK INTER + INTRA:          -5.247
REMARK INTER:                  -4.270
REMARK INTRA:                  -0.976
REMARK UNBOUND:                -0.697
REMARK SMILES O=C[C@@H](O)[C@H](O)[C@@H](O)CO
REMARK SMILES IDX 7 1 9 2 10 3 5 5 3 6 2 7 1 8 4 9 6 11 8 13
REMARK H PARENT 10 4 4 10 6 12 8 14
REMARK Flexibility Score: inf
ROOT
ATOM      1  C   UNL     1     -21.508  -7.685   6.355  1.00  0.00     0.171 C 
ENDROOT
BRANCH   1   2
ATOM      2  C   UNL     1     -21.419  -7.081   7.771  1.00  0.00     0.190 C 
BRANCH   2   3
ATOM      3  O   UNL     1     -20.077  -6.902   8.142  1.00  0.00    -0.394 OA
ATOM      4  H   UNL     1     -20.029  -6.045   8.641  1.00  0.00     0.210 HD
ENDBRANCH   2   3
ENDBRANCH   1   2
BRANCH   1   5
ATOM      5  C   UNL     1     -21.018  -6.708   5.251  1.00  0.00     0.181 C 
BRANCH   5   6
ATOM      6  C   UNL     1     -19.693  -7.161   4.585  1.00  0.00     0.209 C 
BRANCH   6   7
ATOM      7  C   UNL     1     -19.326  -6.269   3.426  1.00  0.00     0.258 C 
ATOM      8  O   UNL     1     -18.970  -5.118   3.623  1.00  0.00    -0.300 OA
ENDBRANCH   6   7
BRANCH   6   9
ATOM      9  O   UNL     1     -18.639  -7.212   5.515  1.00  0.00    -0.383 OA
ATOM     10  H   UNL     1     -17.874  -6.705   5.134  1.00  0.00     0.211 HD
ENDBRANCH   6   9
ENDBRANCH   5   6
BRANCH   5  11
ATOM     11  O   UNL     1     -20.839  -5.428   5.809  1.00  0.00    -0.387 OA
ATOM     12  H   UNL     1     -21.730  -4.994   5.839  1.00  0.00     0.211 HD
ENDBRANCH   5  11
ENDBRANCH   1   5
BRANCH   1  13
ATOM     13  O   UNL     1     -20.777  -8.885   6.296  1.00  0.00    -0.388 OA
ATOM     14  H   UNL     1     -21.426  -9.634   6.340  1.00  0.00     0.211 HD
ENDBRANCH   1  13
TORSDOF 8
ENDMDL
MODEL 7
REMARK VINA RESULT:    -3.366      1.646      2.323
REMARK INTER + INTRA:          -5.244
REMARK INTER:                  -4.819
REMARK INTRA:                  -0.425
REMARK UNBOUND:                -0.697
REMARK SMILES O=C[C@@H](O)[C@H](O)[C@@H](O)CO
REMARK SMILES IDX 7 1 9 2 10 3 5 5 3 6 2 7 1 8 4 9 6 11 8 13
REMARK H PARENT 10 4 4 10 6 12 8 14
REMARK Flexibility Score: inf
ROOT
ATOM      1  C   UNL     1     -20.805  -5.713   4.700  1.00  0.00     0.171 C 
ENDROOT
BRANCH   1   2
ATOM      2  C   UNL     1     -19.755  -5.447   3.602  1.00  0.00     0.190 C 
BRANCH   2   3
ATOM      3  O   UNL     1     -18.730  -4.625   4.095  1.00  0.00    -0.394 OA
ATOM      4  H   UNL     1     -17.878  -5.115   3.957  1.00  0.00     0.210 HD
ENDBRANCH   2   3
ENDBRANCH   1   2
BRANCH   1   5
ATOM      5  C   UNL     1     -20.520  -7.011   5.505  1.00  0.00     0.181 C 
BRANCH   5   6
ATOM      6  C   UNL     1     -21.107  -6.975   6.939  1.00  0.00     0.209 C 
BRANCH   6   7
ATOM      7  C   UNL     1     -21.914  -8.214   7.235  1.00  0.00     0.258 C 
ATOM      8  O   UNL     1     -22.031  -9.090   6.393  1.00  0.00    -0.300 OA
ENDBRANCH   6   7
BRANCH   6   9
ATOM      9  O   UNL     1     -20.099  -6.807   7.906  1.00  0.00    -0.383 OA
ATOM     10  H   UNL     1     -19.253  -7.168   7.529  1.00  0.00     0.211 HD
ENDBRANCH   6   9
ENDBRANCH   5   6
BRANCH   5  11
ATOM     11  O   UNL     1     -19.129  -7.214   5.581  1.00  0.00    -0.387 OA
ATOM     12  H   UNL     1     -18.985  -8.095   6.014  1.00  0.00     0.211 HD
ENDBRANCH   5  11
ENDBRANCH   1   5
BRANCH   1  13
ATOM     13  O   UNL     1     -20.880  -4.612   5.571  1.00  0.00    -0.388 OA
ATOM     14  H   UNL     1     -20.070  -4.057   5.423  1.00  0.00     0.211 HD
ENDBRANCH   1  13
TORSDOF 8
ENDMDL
MODEL 8
REMARK VINA RESULT:    -3.362      1.350      3.811
REMARK INTER + INTRA:          -5.238
REMARK INTER:                  -4.343
REMARK INTRA:                  -0.896
REMARK UNBOUND:                -0.697
REMARK SMILES O=C[C@@H](O)[C@H](O)[C@@H](O)CO
REMARK SMILES IDX 7 1 9 2 10 3 5 5 3 6 2 7 1 8 4 9 6 11 8 13
REMARK H PARENT 10 4 4 10 6 12 8 14
REMARK Flexibility Score: inf
ROOT
ATOM      1  C   UNL     1     -22.428  -7.552   7.736  1.00  0.00     0.171 C 
ENDROOT
BRANCH   1   2
ATOM      2  C   UNL     1     -22.772  -7.569   9.239  1.00  0.00     0.190 C 
BRANCH   2   3
ATOM      3  O   UNL     1     -21.602  -7.676  10.007  1.00  0.00    -0.394 OA
ATOM      4  H   UNL     1     -21.447  -6.786  10.418  1.00  0.00     0.210 HD
ENDBRANCH   2   3
ENDBRANCH   1   2
BRANCH   1   5
ATOM      5  C   UNL     1     -21.368  -6.475   7.373  1.00  0.00     0.181 C 
BRANCH   5   6
ATOM      6  C   UNL     1     -21.286  -6.196   5.850  1.00  0.00     0.209 C 
BRANCH   6   7
ATOM      7  C   UNL     1     -20.099  -6.885   5.226  1.00  0.00     0.258 C 
ATOM      8  O   UNL     1     -20.022  -8.103   5.227  1.00  0.00    -0.300 OA
ENDBRANCH   6   7
BRANCH   6   9
ATOM      9  O   UNL     1     -22.471  -6.574   5.191  1.00  0.00    -0.383 OA
ATOM     10  H   UNL     1     -23.191  -5.953   5.481  1.00  0.00     0.211 HD
ENDBRANCH   6   9
ENDBRANCH   5   6
BRANCH   5  11
ATOM     11  O   UNL     1     -20.105  -6.893   7.833  1.00  0.00    -0.387 OA
ATOM     12  H   UNL     1     -20.249  -7.368   8.692  1.00  0.00     0.211 HD
ENDBRANCH   5  11
ENDBRANCH   1   5
BRANCH   1  13
ATOM     13  O   UNL     1     -21.983  -8.823   7.330  1.00  0.00    -0.388 OA
ATOM     14  H   UNL     1     -21.774  -8.771   6.360  1.00  0.00     0.211 HD
ENDBRANCH   1  13
TORSDOF 8
ENDMDL
MODEL 9
REMARK VINA RESULT:    -3.218     10.945     11.987
REMARK INTER + INTRA:          -5.044
REMARK INTER:                  -4.556
REMARK INTRA:                  -0.487
REMARK UNBOUND:                -0.697
REMARK SMILES O=C[C@@H](O)[C@H](O)[C@@H](O)CO
REMARK SMILES IDX 7 1 9 2 10 3 5 5 3 6 2 7 1 8 4 9 6 11 8 13
REMARK H PARENT 10 4 4 10 6 12 8 14
REMARK Flexibility Score: inf
ROOT
ATOM      1  C   UNL     1     -16.417 -11.138  16.410  1.00  0.00     0.171 C 
ENDROOT
BRANCH   1   2
ATOM      2  C   UNL     1     -15.120 -11.370  15.610  1.00  0.00     0.190 C 
BRANCH   2   3
ATOM      3  O   UNL     1     -14.176 -12.051  16.394  1.00  0.00    -0.394 OA
ATOM      4  H   UNL     1     -13.834 -11.400  17.061  1.00  0.00     0.210 HD
ENDBRANCH   2   3
ENDBRANCH   1   2
BRANCH   1   5
ATOM      5  C   UNL     1     -16.318  -9.934  17.386  1.00  0.00     0.181 C 
BRANCH   5   6
ATOM      6  C   UNL     1     -17.164 -10.123  18.671  1.00  0.00     0.209 C 
BRANCH   6   7
ATOM      7  C   UNL     1     -17.276  -8.837  19.451  1.00  0.00     0.258 C 
ATOM      8  O   UNL     1     -16.309  -8.103  19.573  1.00  0.00    -0.300 OA
ENDBRANCH   6   7
BRANCH   6   9
ATOM      9  O   UNL     1     -18.444 -10.628  18.376  1.00  0.00    -0.383 OA
ATOM     10  H   UNL     1     -18.327 -11.468  17.859  1.00  0.00     0.211 HD
ENDBRANCH   6   9
ENDBRANCH   5   6
BRANCH   5  11
ATOM     11  O   UNL     1     -16.739  -8.765  16.725  1.00  0.00    -0.387 OA
ATOM     12  H   UNL     1     -17.358  -9.043  16.002  1.00  0.00     0.211 HD
ENDBRANCH   5  11
ENDBRANCH   1   5
BRANCH   1  13
ATOM     13  O   UNL     1     -17.500 -10.959  15.531  1.00  0.00    -0.388 OA
ATOM     14  H   UNL     1     -17.129 -10.694  14.649  1.00  0.00     0.211 HD
ENDBRANCH   1  13
TORSDOF 8
ENDMDL
