MODEL 1
REMARK VINA RESULT:    -2.606      0.000      0.000
REMARK INTER + INTRA:          -2.606
REMARK INTER:                  -2.606
REMARK INTRA:                   0.000
REMARK UNBOUND:                 0.000
REMARK SMILES CC(=O)[O-]
REMARK SMILES IDX 1 1 2 2 3 3 4 4
REMARK H PARENT
REMARK Flexibility Score: inf
ROOT
ATOM      1  C   UNL     1      -9.592  22.780 -24.074  1.00  0.00     0.063 C 
ATOM      2  C   UNL     1     -10.423  22.524 -25.286  1.00  0.00     0.038 C 
ATOM      3  O   UNL     1     -10.026  21.714 -26.164  1.00  0.00    -0.550 OA
ATOM      4  O   UNL     1     -11.661  23.136 -25.423  1.00  0.00    -0.550 OA
ENDROOT
TORSDOF 0
ENDMDL
MODEL 2
REMARK VINA RESULT:    -2.567      1.542      1.927
REMARK INTER + INTRA:          -2.567
REMARK INTER:                  -2.567
REMARK INTRA:                   0.000
REMARK UNBOUND:                 0.000
REMARK SMILES CC(=O)[O-]
REMARK SMILES IDX 1 1 2 2 3 3 4 4
REMARK H PARENT
REMARK Flexibility Score: inf
ROOT
ATOM      1  C   UNL     1      -9.959  21.961 -25.876  1.00  0.00     0.063 C 
ATOM      2  C   UNL     1     -10.782  22.985 -25.170  1.00  0.00     0.038 C 
ATOM      3  O   UNL     1     -11.963  23.211 -25.540  1.00  0.00    -0.550 OA
ATOM      4  O   UNL     1     -10.266  23.652 -24.067  1.00  0.00    -0.550 OA
ENDROOT
TORSDOF 0
ENDMDL
MODEL 3
REMARK VINA RESULT:    -2.543      0.163      1.627
REMARK INTER + INTRA:          -2.543
REMARK INTER:                  -2.543
REMARK INTRA:                   0.000
REMARK UNBOUND:                 0.000
REMARK SMILES CC(=O)[O-]
REMARK SMILES IDX 1 1 2 2 3 3 4 4
REMARK H PARENT
REMARK Flexibility Score: inf
ROOT
ATOM      1  C   UNL     1      -9.705  22.887 -23.922  1.00  0.00     0.063 C 
ATOM      2  C   UNL     1     -10.485  22.632 -25.167  1.00  0.00     0.038 C 
ATOM      3  O   UNL     1     -11.561  23.250 -25.376  1.00  0.00    -0.550 OA
ATOM      4  O   UNL     1      -9.999  21.752 -26.124  1.00  0.00    -0.550 OA
ENDROOT
TORSDOF 0
ENDMDL
MODEL 4
REMARK VINA RESULT:    -2.518      2.041      2.342
REMARK INTER + INTRA:          -2.518
REMARK INTER:                  -2.518
REMARK INTRA:                   0.000
REMARK UNBOUND:                 0.000
REMARK SMILES CC(=O)[O-]
REMARK SMILES IDX 1 1 2 2 3 3 4 4
REMARK H PARENT
REMARK Flexibility Score: inf
ROOT
ATOM      1  C   UNL     1     -10.049  22.090 -25.831  1.00  0.00     0.063 C 
ATOM      2  C   UNL     1      -9.714  23.525 -25.599  1.00  0.00     0.038 C 
ATOM      3  O   UNL     1      -9.700  23.989 -24.429  1.00  0.00    -0.550 OA
ATOM      4  O   UNL     1      -9.364  24.339 -26.668  1.00  0.00    -0.550 OA
ENDROOT
TORSDOF 0
ENDMDL
MODEL 5
REMARK VINA RESULT:    -2.283      4.190      4.647
REMARK INTER + INTRA:          -2.283
REMARK INTER:                  -2.283
REMARK INTRA:                   0.000
REMARK UNBOUND:                 0.000
REMARK SMILES CC(=O)[O-]
REMARK SMILES IDX 1 1 2 2 3 3 4 4
REMARK H PARENT
REMARK Flexibility Score: inf
ROOT
ATOM      1  C   UNL     1      -8.441  23.171 -20.242  1.00  0.00     0.063 C 
ATOM      2  C   UNL     1      -9.704  22.662 -20.851  1.00  0.00     0.038 C 
ATOM      3  O   UNL     1     -10.547  22.055 -20.141  1.00  0.00    -0.550 OA
ATOM      4  O   UNL     1      -9.977  22.904 -22.191  1.00  0.00    -0.550 OA
ENDROOT
TORSDOF 0
ENDMDL
MODEL 6
REMARK VINA RESULT:    -2.170      4.953      5.147
REMARK INTER + INTRA:          -2.170
REMARK INTER:                  -2.170
REMARK INTRA:                   0.000
REMARK UNBOUND:                 0.000
REMARK SMILES CC(=O)[O-]
REMARK SMILES IDX 1 1 2 2 3 3 4 4
REMARK H PARENT
REMARK Flexibility Score: inf
ROOT
ATOM      1  C   UNL     1      -8.452  27.307 -26.421  1.00  0.00     0.063 C 
ATOM      2  C   UNL     1      -8.463  26.319 -27.539  1.00  0.00     0.038 C 
ATOM      3  O   UNL     1      -9.554  25.961 -28.054  1.00  0.00    -0.550 OA
ATOM      4  O   UNL     1      -7.267  25.834 -28.051  1.00  0.00    -0.550 OA
ENDROOT
TORSDOF 0
ENDMDL
MODEL 7
REMARK VINA RESULT:    -2.170      5.968      6.054
REMARK INTER + INTRA:          -2.170
REMARK INTER:                  -2.170
REMARK INTRA:                   0.000
REMARK UNBOUND:                 0.000
REMARK SMILES CC(=O)[O-]
REMARK SMILES IDX 1 1 2 2 3 3 4 4
REMARK H PARENT
REMARK Flexibility Score: inf
ROOT
ATOM      1  C   UNL     1      -8.226  25.909 -28.291  1.00  0.00     0.063 C 
ATOM      2  C   UNL     1      -7.760  27.154 -27.615  1.00  0.00     0.038 C 
ATOM      3  O   UNL     1      -6.836  27.841 -28.123  1.00  0.00    -0.550 OA
ATOM      4  O   UNL     1      -8.383  27.589 -26.453  1.00  0.00    -0.550 OA
ENDROOT
TORSDOF 0
ENDMDL
MODEL 8
REMARK VINA RESULT:    -2.158      4.863      5.049
REMARK INTER + INTRA:          -2.158
REMARK INTER:                  -2.158
REMARK INTRA:                   0.000
REMARK UNBOUND:                 0.000
REMARK SMILES CC(=O)[O-]
REMARK SMILES IDX 1 1 2 2 3 3 4 4
REMARK H PARENT
REMARK Flexibility Score: inf
ROOT
ATOM      1  C   UNL     1      -7.340  25.900 -28.033  1.00  0.00     0.063 C 
ATOM      2  C   UNL     1      -8.645  26.335 -27.457  1.00  0.00     0.038 C 
ATOM      3  O   UNL     1      -8.673  27.173 -26.518  1.00  0.00    -0.550 OA
ATOM      4  O   UNL     1      -9.834  25.859 -27.992  1.00  0.00    -0.550 OA
ENDROOT
TORSDOF 0
ENDMDL
MODEL 9
REMARK VINA RESULT:    -2.158      9.994     10.312
REMARK INTER + INTRA:          -2.158
REMARK INTER:                  -2.158
REMARK INTRA:                   0.000
REMARK UNBOUND:                 0.000
REMARK SMILES CC(=O)[O-]
REMARK SMILES IDX 1 1 2 2 3 3 4 4
REMARK H PARENT
REMARK Flexibility Score: inf
ROOT
ATOM      1  C   UNL     1      -2.594  28.812 -19.399  1.00  0.00     0.063 C 
ATOM      2  C   UNL     1      -3.158  27.797 -20.336  1.00  0.00     0.038 C 
ATOM      3  O   UNL     1      -3.328  26.610 -19.954  1.00  0.00    -0.550 OA
ATOM      4  O   UNL     1      -3.550  28.173 -21.614  1.00  0.00    -0.550 OA
ENDROOT
TORSDOF 0
ENDMDL
