MODEL 1
REMARK VINA RESULT:    -4.208      0.000      0.000
REMARK INTER + INTRA:          -8.645
REMARK INTER:                  -7.407
REMARK INTRA:                  -1.239
REMARK UNBOUND:                -1.239
REMARK SMILES CCCCCCCCCCCCCCC(=O)[O-]
REMARK SMILES IDX 9 1 10 2 11 3 12 4 13 5 14 6 15 7 16 8 17 9 8 10 7 11 6 12
REMARK SMILES IDX 5 13 4 14 3 15 2 16 1 17
REMARK H PARENT
REMARK Flexibility Score: inf
ROOT
ATOM      1  C   UNL     1      27.416  -1.117  42.880  1.00  0.00     0.000 C 
ENDROOT
BRANCH   1   2
ATOM      2  C   UNL     1      28.082  -1.655  44.161  1.00  0.00     0.000 C 
BRANCH   2   3
ATOM      3  C   UNL     1      27.649  -3.075  44.574  1.00  0.00     0.000 C 
BRANCH   3   4
ATOM      4  C   UNL     1      27.775  -4.143  43.470  1.00  0.00     0.000 C 
BRANCH   4   5
ATOM      5  C   UNL     1      26.851  -5.361  43.674  1.00  0.00     0.006 C 
BRANCH   5   6
ATOM      6  C   UNL     1      25.635  -5.038  44.552  1.00  0.00     0.053 C 
BRANCH   6   7
ATOM      7  C   UNL     1      25.699  -5.800  45.837  1.00  0.00     0.041 C 
ATOM      8  O   UNL     1      24.660  -5.961  46.530  1.00  0.00    -0.550 OA
ATOM      9  O   UNL     1      26.915  -6.289  46.296  1.00  0.00    -0.550 OA
ENDBRANCH   6   7
ENDBRANCH   5   6
ENDBRANCH   4   5
ENDBRANCH   3   4
ENDBRANCH   2   3
ENDBRANCH   1   2
BRANCH   1  10
ATOM     10  C   UNL     1      26.182  -0.246  43.169  1.00  0.00     0.000 C 
BRANCH  10  11
ATOM     11  C   UNL     1      26.474   0.871  44.185  1.00  0.00    -0.000 C 
BRANCH  11  12
ATOM     12  C   UNL     1      26.510   2.265  43.534  1.00  0.00    -0.000 C 
BRANCH  12  13
ATOM     13  C   UNL     1      25.640   2.347  42.271  1.00  0.00    -0.000 C 
BRANCH  13  14
ATOM     14  C   UNL     1      26.182   3.354  41.241  1.00  0.00    -0.000 C 
BRANCH  14  15
ATOM     15  C   UNL     1      26.500   2.706  39.882  1.00  0.00    -0.000 C 
BRANCH  15  16
ATOM     16  C   UNL     1      26.272   1.184  39.825  1.00  0.00    -0.003 C 
ATOM     17  C   UNL     1      27.483   0.419  39.293  1.00  0.00     0.004 C 
ENDBRANCH  15  16
ENDBRANCH  14  15
ENDBRANCH  13  14
ENDBRANCH  12  13
ENDBRANCH  11  12
ENDBRANCH  10  11
ENDBRANCH   1  10
TORSDOF 13
ENDMDL
MODEL 2
REMARK VINA RESULT:    -4.180      3.924      7.725
REMARK INTER + INTRA:          -8.596
REMARK INTER:                  -7.583
REMARK INTRA:                  -1.013
REMARK UNBOUND:                -1.239
REMARK SMILES CCCCCCCCCCCCCCC(=O)[O-]
REMARK SMILES IDX 9 1 10 2 11 3 12 4 13 5 14 6 15 7 16 8 17 9 8 10 7 11 6 12
REMARK SMILES IDX 5 13 4 14 3 15 2 16 1 17
REMARK H PARENT
REMARK Flexibility Score: inf
ROOT
ATOM      1  C   UNL     1      26.503   0.363  44.113  1.00  0.00     0.000 C 
ENDROOT
BRANCH   1   2
ATOM      2  C   UNL     1      25.564   1.517  43.710  1.00  0.00     0.000 C 
BRANCH   2   3
ATOM      3  C   UNL     1      26.230   2.648  42.904  1.00  0.00     0.000 C 
BRANCH   3   4
ATOM      4  C   UNL     1      25.512   3.026  41.594  1.00  0.00     0.000 C 
BRANCH   4   5
ATOM      5  C   UNL     1      26.383   2.848  40.333  1.00  0.00     0.006 C 
BRANCH   5   6
ATOM      6  C   UNL     1      26.401   1.399  39.829  1.00  0.00     0.053 C 
BRANCH   6   7
ATOM      7  C   UNL     1      25.669   1.287  38.529  1.00  0.00     0.041 C 
ATOM      8  O   UNL     1      24.991   2.257  38.099  1.00  0.00    -0.550 OA
ATOM      9  O   UNL     1      25.695   0.094  37.818  1.00  0.00    -0.550 OA
ENDBRANCH   6   7
ENDBRANCH   5   6
ENDBRANCH   4   5
ENDBRANCH   3   4
ENDBRANCH   2   3
ENDBRANCH   1   2
BRANCH   1  10
ATOM     10  C   UNL     1      26.610  -0.725  43.031  1.00  0.00     0.000 C 
BRANCH  10  11
ATOM     11  C   UNL     1      27.880  -1.580  43.180  1.00  0.00    -0.000 C 
BRANCH  11  12
ATOM     12  C   UNL     1      28.084  -2.086  44.619  1.00  0.00    -0.000 C 
BRANCH  12  13
ATOM     13  C   UNL     1      28.224  -3.614  44.692  1.00  0.00    -0.000 C 
BRANCH  13  14
ATOM     14  C   UNL     1      27.291  -4.343  43.709  1.00  0.00    -0.000 C 
BRANCH  14  15
ATOM     15  C   UNL     1      25.962  -4.773  44.355  1.00  0.00    -0.000 C 
BRANCH  15  16
ATOM     16  C   UNL     1      26.049  -5.087  45.860  1.00  0.00    -0.003 C 
ATOM     17  C   UNL     1      24.938  -6.022  46.338  1.00  0.00     0.004 C 
ENDBRANCH  15  16
ENDBRANCH  14  15
ENDBRANCH  13  14
ENDBRANCH  12  13
ENDBRANCH  11  12
ENDBRANCH  10  11
ENDBRANCH   1  10
TORSDOF 13
ENDMDL
MODEL 3
REMARK VINA RESULT:    -4.122      6.613      9.208
REMARK INTER + INTRA:          -8.493
REMARK INTER:                  -7.650
REMARK INTRA:                  -0.843
REMARK UNBOUND:                -1.239
REMARK SMILES CCCCCCCCCCCCCCC(=O)[O-]
REMARK SMILES IDX 9 1 10 2 11 3 12 4 13 5 14 6 15 7 16 8 17 9 8 10 7 11 6 12
REMARK SMILES IDX 5 13 4 14 3 15 2 16 1 17
REMARK H PARENT
REMARK Flexibility Score: inf
ROOT
ATOM      1  C   UNL     1      24.390  -1.307  36.390  1.00  0.00     0.000 C 
ENDROOT
BRANCH   1   2
ATOM      2  C   UNL     1      25.598  -0.961  37.280  1.00  0.00     0.000 C 
BRANCH   2   3
ATOM      3  C   UNL     1      25.632   0.490  37.798  1.00  0.00     0.000 C 
BRANCH   3   4
ATOM      4  C   UNL     1      26.798   0.816  38.751  1.00  0.00     0.000 C 
BRANCH   4   5
ATOM      5  C   UNL     1      26.357   1.093  40.203  1.00  0.00     0.006 C 
BRANCH   5   6
ATOM      6  C   UNL     1      25.651   2.447  40.356  1.00  0.00     0.053 C 
BRANCH   6   7
ATOM      7  C   UNL     1      25.944   3.042  41.697  1.00  0.00     0.041 C 
ATOM      8  O   UNL     1      26.167   4.277  41.806  1.00  0.00    -0.550 OA
ATOM      9  O   UNL     1      26.022   2.226  42.818  1.00  0.00    -0.550 OA
ENDBRANCH   6   7
ENDBRANCH   5   6
ENDBRANCH   4   5
ENDBRANCH   3   4
ENDBRANCH   2   3
ENDBRANCH   1   2
BRANCH   1  10
ATOM     10  C   UNL     1      24.238  -2.819  36.150  1.00  0.00     0.000 C 
BRANCH  10  11
ATOM     11  C   UNL     1      22.892  -3.363  36.660  1.00  0.00    -0.000 C 
BRANCH  11  12
ATOM     12  C   UNL     1      22.140  -4.172  35.589  1.00  0.00    -0.000 C 
BRANCH  12  13
ATOM     13  C   UNL     1      22.339  -5.687  35.747  1.00  0.00    -0.000 C 
BRANCH  13  14
ATOM     14  C   UNL     1      23.083  -6.317  34.556  1.00  0.00    -0.000 C 
BRANCH  14  15
ATOM     15  C   UNL     1      24.379  -7.033  34.973  1.00  0.00    -0.000 C 
BRANCH  15  16
ATOM     16  C   UNL     1      24.826  -6.766  36.422  1.00  0.00    -0.003 C 
ATOM     17  C   UNL     1      26.160  -6.023  36.507  1.00  0.00     0.004 C 
ENDBRANCH  15  16
ENDBRANCH  14  15
ENDBRANCH  13  14
ENDBRANCH  12  13
ENDBRANCH  11  12
ENDBRANCH  10  11
ENDBRANCH   1  10
TORSDOF 13
ENDMDL
MODEL 4
REMARK VINA RESULT:    -4.090      7.589      9.647
REMARK INTER + INTRA:          -8.438
REMARK INTER:                  -6.781
REMARK INTRA:                  -1.656
REMARK UNBOUND:                -1.239
REMARK SMILES CCCCCCCCCCCCCCC(=O)[O-]
REMARK SMILES IDX 9 1 10 2 11 3 12 4 13 5 14 6 15 7 16 8 17 9 8 10 7 11 6 12
REMARK SMILES IDX 5 13 4 14 3 15 2 16 1 17
REMARK H PARENT
REMARK Flexibility Score: inf
ROOT
ATOM      1  C   UNL     1      26.244  -5.477  36.296  1.00  0.00     0.000 C 
ENDROOT
BRANCH   1   2
ATOM      2  C   UNL     1      26.957  -4.802  35.109  1.00  0.00     0.000 C 
BRANCH   2   3
ATOM      3  C   UNL     1      28.058  -3.797  35.495  1.00  0.00     0.000 C 
BRANCH   3   4
ATOM      4  C   UNL     1      28.377  -3.724  37.000  1.00  0.00     0.000 C 
BRANCH   4   5
ATOM      5  C   UNL     1      29.709  -3.014  37.321  1.00  0.00     0.006 C 
BRANCH   5   6
ATOM      6  C   UNL     1      30.691  -3.045  36.143  1.00  0.00     0.053 C 
BRANCH   6   7
ATOM      7  C   UNL     1      31.648  -4.186  36.289  1.00  0.00     0.041 C 
ATOM      8  O   UNL     1      31.736  -4.803  37.383  1.00  0.00    -0.550 OA
ATOM      9  O   UNL     1      32.480  -4.534  35.232  1.00  0.00    -0.550 OA
ENDBRANCH   6   7
ENDBRANCH   5   6
ENDBRANCH   4   5
ENDBRANCH   3   4
ENDBRANCH   2   3
ENDBRANCH   1   2
BRANCH   1  10
ATOM     10  C   UNL     1      25.305  -6.615  35.862  1.00  0.00     0.000 C 
BRANCH  10  11
ATOM     11  C   UNL     1      24.548  -6.290  34.563  1.00  0.00    -0.000 C 
BRANCH  11  12
ATOM     12  C   UNL     1      23.024  -6.226  34.769  1.00  0.00    -0.000 C 
BRANCH  12  13
ATOM     13  C   UNL     1      22.511  -4.787  34.932  1.00  0.00    -0.000 C 
BRANCH  13  14
ATOM     14  C   UNL     1      22.277  -4.402  36.403  1.00  0.00    -0.000 C 
BRANCH  14  15
ATOM     15  C   UNL     1      22.800  -2.995  36.742  1.00  0.00    -0.000 C 
BRANCH  15  16
ATOM     16  C   UNL     1      23.997  -2.531  35.893  1.00  0.00    -0.003 C 
ATOM     17  C   UNL     1      25.085  -1.845  36.721  1.00  0.00     0.004 C 
ENDBRANCH  15  16
ENDBRANCH  14  15
ENDBRANCH  13  14
ENDBRANCH  12  13
ENDBRANCH  11  12
ENDBRANCH  10  11
ENDBRANCH   1  10
TORSDOF 13
ENDMDL
MODEL 5
REMARK VINA RESULT:    -4.039      1.705      2.374
REMARK INTER + INTRA:          -8.347
REMARK INTER:                  -7.093
REMARK INTRA:                  -1.254
REMARK UNBOUND:                -1.239
REMARK SMILES CCCCCCCCCCCCCCC(=O)[O-]
REMARK SMILES IDX 9 1 10 2 11 3 12 4 13 5 14 6 15 7 16 8 17 9 8 10 7 11 6 12
REMARK SMILES IDX 5 13 4 14 3 15 2 16 1 17
REMARK H PARENT
REMARK Flexibility Score: inf
ROOT
ATOM      1  C   UNL     1      26.053  -0.055  43.099  1.00  0.00     0.000 C 
ENDROOT
BRANCH   1   2
ATOM      2  C   UNL     1      27.336  -0.814  42.710  1.00  0.00     0.000 C 
BRANCH   2   3
ATOM      3  C   UNL     1      27.886  -1.762  43.793  1.00  0.00     0.000 C 
BRANCH   3   4
ATOM      4  C   UNL     1      27.753  -3.264  43.475  1.00  0.00     0.000 C 
BRANCH   4   5
ATOM      5  C   UNL     1      27.231  -4.107  44.657  1.00  0.00     0.006 C 
BRANCH   5   6
ATOM      6  C   UNL     1      27.792  -3.639  46.006  1.00  0.00     0.053 C 
BRANCH   6   7
ATOM      7  C   UNL     1      29.208  -4.092  46.171  1.00  0.00     0.041 C 
ATOM      8  O   UNL     1      29.540  -5.261  45.840  1.00  0.00    -0.550 OA
ATOM      9  O   UNL     1      30.149  -3.242  46.736  1.00  0.00    -0.550 OA
ENDBRANCH   6   7
ENDBRANCH   5   6
ENDBRANCH   4   5
ENDBRANCH   3   4
ENDBRANCH   2   3
ENDBRANCH   1   2
BRANCH   1  10
ATOM     10  C   UNL     1      26.291   0.996  44.198  1.00  0.00     0.000 C 
BRANCH  10  11
ATOM     11  C   UNL     1      26.476   2.412  43.627  1.00  0.00    -0.000 C 
BRANCH  11  12
ATOM     12  C   UNL     1      25.669   2.638  42.336  1.00  0.00    -0.000 C 
BRANCH  12  13
ATOM     13  C   UNL     1      26.341   3.645  41.390  1.00  0.00    -0.000 C 
BRANCH  13  14
ATOM     14  C   UNL     1      26.621   3.056  39.996  1.00  0.00    -0.000 C 
BRANCH  14  15
ATOM     15  C   UNL     1      25.528   2.077  39.532  1.00  0.00    -0.000 C 
BRANCH  15  16
ATOM     16  C   UNL     1      26.049   0.711  39.048  1.00  0.00    -0.003 C 
ATOM     17  C   UNL     1      27.566   0.573  39.175  1.00  0.00     0.004 C 
ENDBRANCH  15  16
ENDBRANCH  14  15
ENDBRANCH  13  14
ENDBRANCH  12  13
ENDBRANCH  11  12
ENDBRANCH  10  11
ENDBRANCH   1  10
TORSDOF 13
ENDMDL
MODEL 6
REMARK VINA RESULT:    -3.997      3.446      7.455
REMARK INTER + INTRA:          -8.273
REMARK INTER:                  -6.410
REMARK INTRA:                  -1.863
REMARK UNBOUND:                -1.239
REMARK SMILES CCCCCCCCCCCCCCC(=O)[O-]
REMARK SMILES IDX 9 1 10 2 11 3 12 4 13 5 14 6 15 7 16 8 17 9 8 10 7 11 6 12
REMARK SMILES IDX 5 13 4 14 3 15 2 16 1 17
REMARK H PARENT
REMARK Flexibility Score: inf
ROOT
ATOM      1  C   UNL     1      25.584  -4.860  43.803  1.00  0.00     0.000 C 
ENDROOT
BRANCH   1   2
ATOM      2  C   UNL     1      27.040  -5.035  43.333  1.00  0.00     0.000 C 
BRANCH   2   3
ATOM      3  C   UNL     1      27.918  -3.773  43.444  1.00  0.00     0.000 C 
BRANCH   3   4
ATOM      4  C   UNL     1      27.503  -2.786  44.552  1.00  0.00     0.000 C 
BRANCH   4   5
ATOM      5  C   UNL     1      27.770  -1.308  44.200  1.00  0.00     0.006 C 
BRANCH   5   6
ATOM      6  C   UNL     1      26.623  -0.676  43.401  1.00  0.00     0.053 C 
BRANCH   6   7
ATOM      7  C   UNL     1      26.234   0.641  43.993  1.00  0.00     0.041 C 
ATOM      8  O   UNL     1      27.088   1.337  44.603  1.00  0.00    -0.550 OA
ATOM      9  O   UNL     1      24.918   1.077  43.916  1.00  0.00    -0.550 OA
ENDBRANCH   6   7
ENDBRANCH   5   6
ENDBRANCH   4   5
ENDBRANCH   3   4
ENDBRANCH   2   3
ENDBRANCH   1   2
BRANCH   1  10
ATOM     10  C   UNL     1      24.952  -6.175  44.292  1.00  0.00     0.000 C 
BRANCH  10  11
ATOM     11  C   UNL     1      25.672  -6.752  45.522  1.00  0.00    -0.000 C 
BRANCH  11  12
ATOM     12  C   UNL     1      25.610  -5.809  46.737  1.00  0.00    -0.000 C 
BRANCH  12  13
ATOM     13  C   UNL     1      27.000  -5.488  47.305  1.00  0.00    -0.000 C 
BRANCH  13  14
ATOM     14  C   UNL     1      28.118  -6.312  46.641  1.00  0.00    -0.000 C 
BRANCH  14  15
ATOM     15  C   UNL     1      29.526  -5.864  47.072  1.00  0.00    -0.000 C 
BRANCH  15  16
ATOM     16  C   UNL     1      30.169  -4.800  46.164  1.00  0.00    -0.003 C 
ATOM     17  C   UNL     1      30.497  -3.504  46.904  1.00  0.00     0.004 C 
ENDBRANCH  15  16
ENDBRANCH  14  15
ENDBRANCH  13  14
ENDBRANCH  12  13
ENDBRANCH  11  12
ENDBRANCH  10  11
ENDBRANCH   1  10
TORSDOF 13
ENDMDL
MODEL 7
REMARK VINA RESULT:    -3.995      4.270      6.502
REMARK INTER + INTRA:          -8.269
REMARK INTER:                  -6.531
REMARK INTRA:                  -1.738
REMARK UNBOUND:                -1.239
REMARK SMILES CCCCCCCCCCCCCCC(=O)[O-]
REMARK SMILES IDX 9 1 10 2 11 3 12 4 13 5 14 6 15 7 16 8 17 9 8 10 7 11 6 12
REMARK SMILES IDX 5 13 4 14 3 15 2 16 1 17
REMARK H PARENT
REMARK Flexibility Score: inf
ROOT
ATOM      1  C   UNL     1      25.762  -5.257  44.288  1.00  0.00     0.000 C 
ENDROOT
BRANCH   1   2
ATOM      2  C   UNL     1      25.116  -6.543  44.836  1.00  0.00     0.000 C 
BRANCH   2   3
ATOM      3  C   UNL     1      24.900  -6.565  46.362  1.00  0.00     0.000 C 
BRANCH   3   4
ATOM      4  C   UNL     1      25.534  -5.389  47.128  1.00  0.00     0.000 C 
BRANCH   4   5
ATOM      5  C   UNL     1      25.347  -5.469  48.657  1.00  0.00     0.006 C 
BRANCH   5   6
ATOM      6  C   UNL     1      24.164  -6.359  49.060  1.00  0.00     0.053 C 
BRANCH   6   7
ATOM      7  C   UNL     1      23.306  -5.665  50.070  1.00  0.00     0.041 C 
ATOM      8  O   UNL     1      22.930  -4.479  49.873  1.00  0.00    -0.550 OA
ATOM      9  O   UNL     1      22.964  -6.309  51.252  1.00  0.00    -0.550 OA
ENDBRANCH   6   7
ENDBRANCH   5   6
ENDBRANCH   4   5
ENDBRANCH   3   4
ENDBRANCH   2   3
ENDBRANCH   1   2
BRANCH   1  10
ATOM     10  C   UNL     1      27.042  -5.529  43.479  1.00  0.00     0.000 C 
BRANCH  10  11
ATOM     11  C   UNL     1      27.865  -4.253  43.234  1.00  0.00    -0.000 C 
BRANCH  11  12
ATOM     12  C   UNL     1      27.267  -3.021  43.936  1.00  0.00    -0.000 C 
BRANCH  12  13
ATOM     13  C   UNL     1      28.216  -2.423  44.986  1.00  0.00    -0.000 C 
BRANCH  13  14
ATOM     14  C   UNL     1      28.412  -3.344  46.203  1.00  0.00    -0.000 C 
BRANCH  14  15
ATOM     15  C   UNL     1      29.894  -3.636  46.498  1.00  0.00    -0.000 C 
BRANCH  15  16
ATOM     16  C   UNL     1      30.293  -5.119  46.388  1.00  0.00    -0.003 C 
ATOM     17  C   UNL     1      29.102  -6.068  46.524  1.00  0.00     0.004 C 
ENDBRANCH  15  16
ENDBRANCH  14  15
ENDBRANCH  13  14
ENDBRANCH  12  13
ENDBRANCH  11  12
ENDBRANCH  10  11
ENDBRANCH   1  10
TORSDOF 13
ENDMDL
MODEL 8
REMARK VINA RESULT:    -3.960      3.546      7.398
REMARK INTER + INTRA:          -8.208
REMARK INTER:                  -6.660
REMARK INTRA:                  -1.548
REMARK UNBOUND:                -1.239
REMARK SMILES CCCCCCCCCCCCCCC(=O)[O-]
REMARK SMILES IDX 9 1 10 2 11 3 12 4 13 5 14 6 15 7 16 8 17 9 8 10 7 11 6 12
REMARK SMILES IDX 5 13 4 14 3 15 2 16 1 17
REMARK H PARENT
REMARK Flexibility Score: inf
ROOT
ATOM      1  C   UNL     1      29.088  -3.442  46.148  1.00  0.00     0.000 C 
ENDROOT
BRANCH   1   2
ATOM      2  C   UNL     1      27.849  -2.930  45.389  1.00  0.00     0.000 C 
BRANCH   2   3
ATOM      3  C   UNL     1      28.096  -1.703  44.490  1.00  0.00     0.000 C 
BRANCH   3   4
ATOM      4  C   UNL     1      27.303  -1.692  43.169  1.00  0.00     0.000 C 
BRANCH   4   5
ATOM      5  C   UNL     1      26.754  -0.303  42.784  1.00  0.00     0.006 C 
BRANCH   5   6
ATOM      6  C   UNL     1      26.016   0.380  43.943  1.00  0.00     0.053 C 
BRANCH   6   7
ATOM      7  C   UNL     1      26.439   1.810  44.063  1.00  0.00     0.041 C 
ATOM      8  O   UNL     1      26.415   2.564  43.055  1.00  0.00    -0.550 OA
ATOM      9  O   UNL     1      26.908   2.297  45.276  1.00  0.00    -0.550 OA
ENDBRANCH   6   7
ENDBRANCH   5   6
ENDBRANCH   4   5
ENDBRANCH   3   4
ENDBRANCH   2   3
ENDBRANCH   1   2
BRANCH   1  10
ATOM     10  C   UNL     1      29.456  -4.891  45.783  1.00  0.00     0.000 C 
BRANCH  10  11
ATOM     11  C   UNL     1      29.066  -5.892  46.884  1.00  0.00    -0.000 C 
BRANCH  11  12
ATOM     12  C   UNL     1      27.687  -6.529  46.640  1.00  0.00    -0.000 C 
BRANCH  12  13
ATOM     13  C   UNL     1      26.573  -5.855  47.456  1.00  0.00    -0.000 C 
BRANCH  13  14
ATOM     14  C   UNL     1      25.290  -5.628  46.637  1.00  0.00    -0.000 C 
BRANCH  14  15
ATOM     15  C   UNL     1      25.329  -6.321  45.263  1.00  0.00    -0.000 C 
BRANCH  15  16
ATOM     16  C   UNL     1      25.499  -5.369  44.066  1.00  0.00    -0.003 C 
ATOM     17  C   UNL     1      26.735  -5.686  43.222  1.00  0.00     0.004 C 
ENDBRANCH  15  16
ENDBRANCH  14  15
ENDBRANCH  13  14
ENDBRANCH  12  13
ENDBRANCH  11  12
ENDBRANCH  10  11
ENDBRANCH   1  10
TORSDOF 13
ENDMDL
MODEL 9
REMARK VINA RESULT:    -3.904      7.559      9.287
REMARK INTER + INTRA:          -8.109
REMARK INTER:                  -6.638
REMARK INTRA:                  -1.470
REMARK UNBOUND:                -1.239
REMARK SMILES CCCCCCCCCCCCCCC(=O)[O-]
REMARK SMILES IDX 9 1 10 2 11 3 12 4 13 5 14 6 15 7 16 8 17 9 8 10 7 11 6 12
REMARK SMILES IDX 5 13 4 14 3 15 2 16 1 17
REMARK H PARENT
REMARK Flexibility Score: inf
ROOT
ATOM      1  C   UNL     1      26.672  -3.724  35.594  1.00  0.00     0.000 C 
ENDROOT
BRANCH   1   2
ATOM      2  C   UNL     1      25.754  -2.741  36.346  1.00  0.00     0.000 C 
BRANCH   2   3
ATOM      3  C   UNL     1      24.348  -2.569  35.740  1.00  0.00     0.000 C 
BRANCH   3   4
ATOM      4  C   UNL     1      23.182  -2.835  36.711  1.00  0.00     0.000 C 
BRANCH   4   5
ATOM      5  C   UNL     1      22.266  -3.998  36.280  1.00  0.00     0.006 C 
BRANCH   5   6
ATOM      6  C   UNL     1      22.647  -4.571  34.909  1.00  0.00     0.053 C 
BRANCH   6   7
ATOM      7  C   UNL     1      23.421  -5.841  35.068  1.00  0.00     0.041 C 
ATOM      8  O   UNL     1      23.702  -6.541  34.060  1.00  0.00    -0.550 OA
ATOM      9  O   UNL     1      23.789  -6.277  36.335  1.00  0.00    -0.550 OA
ENDBRANCH   6   7
ENDBRANCH   5   6
ENDBRANCH   4   5
ENDBRANCH   3   4
ENDBRANCH   2   3
ENDBRANCH   1   2
BRANCH   1  10
ATOM     10  C   UNL     1      27.014  -4.975  36.422  1.00  0.00     0.000 C 
BRANCH  10  11
ATOM     11  C   UNL     1      28.511  -5.066  36.760  1.00  0.00    -0.000 C 
BRANCH  11  12
ATOM     12  C   UNL     1      28.952  -3.999  37.778  1.00  0.00    -0.000 C 
BRANCH  12  13
ATOM     13  C   UNL     1      30.041  -3.069  37.223  1.00  0.00    -0.000 C 
BRANCH  13  14
ATOM     14  C   UNL     1      31.268  -3.837  36.701  1.00  0.00    -0.000 C 
BRANCH  14  15
ATOM     15  C   UNL     1      31.557  -3.561  35.215  1.00  0.00    -0.000 C 
BRANCH  15  16
ATOM     16  C   UNL     1      30.561  -2.606  34.531  1.00  0.00    -0.003 C 
ATOM     17  C   UNL     1      29.697  -3.301  33.478  1.00  0.00     0.004 C 
ENDBRANCH  15  16
ENDBRANCH  14  15
ENDBRANCH  13  14
ENDBRANCH  12  13
ENDBRANCH  11  12
ENDBRANCH  10  11
ENDBRANCH   1  10
TORSDOF 13
ENDMDL
