MODEL 1
REMARK VINA RESULT:    -2.141      0.000      0.000
REMARK INTER + INTRA:          -2.141
REMARK INTER:                  -2.141
REMARK INTRA:                   0.000
REMARK UNBOUND:                 0.000
REMARK SMILES CC(=O)[O-]
REMARK SMILES IDX 1 1 2 2 3 3 4 4
REMARK H PARENT
REMARK Flexibility Score: inf
ROOT
ATOM      1  C   UNL     1      40.939  19.853  16.732  1.00  0.00     0.063 C 
ATOM      2  C   UNL     1      40.334  20.761  15.716  1.00  0.00     0.038 C 
ATOM      3  O   UNL     1      40.697  20.694  14.513  1.00  0.00    -0.550 OA
ATOM      4  O   UNL     1      39.329  21.647  16.085  1.00  0.00    -0.550 OA
ENDROOT
TORSDOF 0
ENDMDL
MODEL 2
REMARK VINA RESULT:    -2.140      2.732      2.949
REMARK INTER + INTRA:          -2.140
REMARK INTER:                  -2.140
REMARK INTRA:                   0.000
REMARK UNBOUND:                 0.000
REMARK SMILES CC(=O)[O-]
REMARK SMILES IDX 1 1 2 2 3 3 4 4
REMARK H PARENT
REMARK Flexibility Score: inf
ROOT
ATOM      1  C   UNL     1      43.056  19.471  16.461  1.00  0.00     0.063 C 
ATOM      2  C   UNL     1      41.777  19.471  17.227  1.00  0.00     0.038 C 
ATOM      3  O   UNL     1      40.698  19.769  16.653  1.00  0.00    -0.550 OA
ATOM      4  O   UNL     1      41.766  19.088  18.562  1.00  0.00    -0.550 OA
ENDROOT
TORSDOF 0
ENDMDL
MODEL 3
REMARK VINA RESULT:    -2.140      2.898      3.497
REMARK INTER + INTRA:          -2.140
REMARK INTER:                  -2.140
REMARK INTRA:                   0.000
REMARK UNBOUND:                 0.000
REMARK SMILES CC(=O)[O-]
REMARK SMILES IDX 1 1 2 2 3 3 4 4
REMARK H PARENT
REMARK Flexibility Score: inf
ROOT
ATOM      1  C   UNL     1      40.809  19.975  16.543  1.00  0.00     0.063 C 
ATOM      2  C   UNL     1      41.892  19.330  17.339  1.00  0.00     0.038 C 
ATOM      3  O   UNL     1      41.717  19.084  18.561  1.00  0.00    -0.550 OA
ATOM      4  O   UNL     1      43.077  18.949  16.721  1.00  0.00    -0.550 OA
ENDROOT
TORSDOF 0
ENDMDL
MODEL 4
REMARK VINA RESULT:    -2.133     14.923     15.078
REMARK INTER + INTRA:          -2.133
REMARK INTER:                  -2.133
REMARK INTRA:                   0.000
REMARK UNBOUND:                 0.000
REMARK SMILES CC(=O)[O-]
REMARK SMILES IDX 1 1 2 2 3 3 4 4
REMARK H PARENT
REMARK Flexibility Score: inf
ROOT
ATOM      1  C   UNL     1      31.386  10.082  12.199  1.00  0.00     0.063 C 
ATOM      2  C   UNL     1      32.061   8.754  12.282  1.00  0.00     0.038 C 
ATOM      3  O   UNL     1      31.378   7.697  12.272  1.00  0.00    -0.550 OA
ATOM      4  O   UNL     1      33.448   8.680  12.316  1.00  0.00    -0.550 OA
ENDROOT
TORSDOF 0
ENDMDL
MODEL 5
REMARK VINA RESULT:    -2.127     14.664     14.952
REMARK INTER + INTRA:          -2.127
REMARK INTER:                  -2.127
REMARK INTRA:                   0.000
REMARK UNBOUND:                 0.000
REMARK SMILES CC(=O)[O-]
REMARK SMILES IDX 1 1 2 2 3 3 4 4
REMARK H PARENT
REMARK Flexibility Score: inf
ROOT
ATOM      1  C   UNL     1      36.700   7.165  11.096  1.00  0.00     0.063 C 
ATOM      2  C   UNL     1      35.266   7.574  11.085  1.00  0.00     0.038 C 
ATOM      3  O   UNL     1      34.711   7.959  12.147  1.00  0.00    -0.550 OA
ATOM      4  O   UNL     1      34.555   7.584   9.891  1.00  0.00    -0.550 OA
ENDROOT
TORSDOF 0
ENDMDL
MODEL 6
REMARK VINA RESULT:    -2.124     15.183     15.443
REMARK INTER + INTRA:          -2.124
REMARK INTER:                  -2.124
REMARK INTRA:                   0.000
REMARK UNBOUND:                 0.000
REMARK SMILES CC(=O)[O-]
REMARK SMILES IDX 1 1 2 2 3 3 4 4
REMARK H PARENT
REMARK Flexibility Score: inf
ROOT
ATOM      1  C   UNL     1      34.651   7.839  11.881  1.00  0.00     0.063 C 
ATOM      2  C   UNL     1      35.386   6.607  12.288  1.00  0.00     0.038 C 
ATOM      3  O   UNL     1      36.416   6.249  11.659  1.00  0.00    -0.550 OA
ATOM      4  O   UNL     1      34.968   5.881  13.396  1.00  0.00    -0.550 OA
ENDROOT
TORSDOF 0
ENDMDL
MODEL 7
REMARK VINA RESULT:    -2.104     15.221     15.546
REMARK INTER + INTRA:          -2.104
REMARK INTER:                  -2.104
REMARK INTRA:                   0.000
REMARK UNBOUND:                 0.000
REMARK SMILES CC(=O)[O-]
REMARK SMILES IDX 1 1 2 2 3 3 4 4
REMARK H PARENT
REMARK Flexibility Score: inf
ROOT
ATOM      1  C   UNL     1      34.596   7.773  11.955  1.00  0.00     0.063 C 
ATOM      2  C   UNL     1      35.397   6.570  12.322  1.00  0.00     0.038 C 
ATOM      3  O   UNL     1      35.036   5.840  13.282  1.00  0.00    -0.550 OA
ATOM      4  O   UNL     1      36.513   6.221  11.571  1.00  0.00    -0.550 OA
ENDROOT
TORSDOF 0
ENDMDL
MODEL 8
REMARK VINA RESULT:    -2.080     15.205     15.464
REMARK INTER + INTRA:          -2.080
REMARK INTER:                  -2.080
REMARK INTRA:                   0.000
REMARK UNBOUND:                 0.000
REMARK SMILES CC(=O)[O-]
REMARK SMILES IDX 1 1 2 2 3 3 4 4
REMARK H PARENT
REMARK Flexibility Score: inf
ROOT
ATOM      1  C   UNL     1      34.706   7.848  11.780  1.00  0.00     0.063 C 
ATOM      2  C   UNL     1      34.673   7.480  10.335  1.00  0.00     0.038 C 
ATOM      3  O   UNL     1      33.696   7.821   9.619  1.00  0.00    -0.550 OA
ATOM      4  O   UNL     1      35.746   6.807   9.764  1.00  0.00    -0.550 OA
ENDROOT
TORSDOF 0
ENDMDL
MODEL 9
REMARK VINA RESULT:    -2.066     14.928     15.237
REMARK INTER + INTRA:          -2.066
REMARK INTER:                  -2.066
REMARK INTRA:                   0.000
REMARK UNBOUND:                 0.000
REMARK SMILES CC(=O)[O-]
REMARK SMILES IDX 1 1 2 2 3 3 4 4
REMARK H PARENT
REMARK Flexibility Score: inf
ROOT
ATOM      1  C   UNL     1      38.483   6.676  11.102  1.00  0.00     0.063 C 
ATOM      2  C   UNL     1      37.038   6.731  10.736  1.00  0.00     0.038 C 
ATOM      3  O   UNL     1      36.529   5.820  10.034  1.00  0.00    -0.550 OA
ATOM      4  O   UNL     1      36.238   7.761  11.216  1.00  0.00    -0.550 OA
ENDROOT
TORSDOF 0
ENDMDL
