MODEL 1
REMARK VINA RESULT:    -3.193      0.000      0.000
REMARK INTER + INTRA:          -4.434
REMARK INTER:                  -4.127
REMARK INTRA:                  -0.307
REMARK UNBOUND:                -0.307
REMARK SMILES CCCCCCC(=O)[O-]
REMARK SMILES IDX 5 1 6 2 7 3 8 4 9 5 4 6 3 7 2 8 1 9
REMARK H PARENT
REMARK Flexibility Score: inf
ROOT
ATOM      1  C   UNL     1      -2.287   9.159  38.433  1.00  0.00     0.006 C 
ENDROOT
BRANCH   1   2
ATOM      2  C   UNL     1      -1.943   7.767  38.980  1.00  0.00     0.053 C 
BRANCH   2   3
ATOM      3  C   UNL     1      -3.011   7.248  39.894  1.00  0.00     0.041 C 
ATOM      4  O   UNL     1      -3.306   7.877  40.944  1.00  0.00    -0.550 OA
ATOM      5  O   UNL     1      -3.705   6.090  39.568  1.00  0.00    -0.550 OA
ENDBRANCH   2   3
ENDBRANCH   1   2
BRANCH   1   6
ATOM      6  C   UNL     1      -1.095  10.125  38.510  1.00  0.00     0.000 C 
BRANCH   6   7
ATOM      7  C   UNL     1      -0.215   9.814  39.730  1.00  0.00    -0.000 C 
BRANCH   7   8
ATOM      8  C   UNL     1       1.286   9.931  39.421  1.00  0.00    -0.003 C 
ATOM      9  C   UNL     1       1.595   9.787  37.931  1.00  0.00     0.004 C 
ENDBRANCH   7   8
ENDBRANCH   6   7
ENDBRANCH   1   6
TORSDOF 5
ENDMDL
MODEL 2
REMARK VINA RESULT:    -3.169      3.000      4.660
REMARK INTER + INTRA:          -4.403
REMARK INTER:                  -4.155
REMARK INTRA:                  -0.248
REMARK UNBOUND:                -0.307
REMARK SMILES CCCCCCC(=O)[O-]
REMARK SMILES IDX 5 1 6 2 7 3 8 4 9 5 4 6 3 7 2 8 1 9
REMARK H PARENT
REMARK Flexibility Score: inf
ROOT
ATOM      1  C   UNL     1      -0.291   9.779  39.775  1.00  0.00     0.006 C 
ENDROOT
BRANCH   1   2
ATOM      2  C   UNL     1       1.167  10.125  39.442  1.00  0.00     0.053 C 
BRANCH   2   3
ATOM      3  C   UNL     1       1.746   9.183  38.430  1.00  0.00     0.041 C 
ATOM      4  O   UNL     1       1.859   7.958  38.697  1.00  0.00    -0.550 OA
ATOM      5  O   UNL     1       2.127   9.654  37.180  1.00  0.00    -0.550 OA
ENDBRANCH   2   3
ENDBRANCH   1   2
BRANCH   1   6
ATOM      6  C   UNL     1      -1.226   9.983  38.574  1.00  0.00     0.000 C 
BRANCH   6   7
ATOM      7  C   UNL     1      -2.155   8.774  38.390  1.00  0.00    -0.000 C 
BRANCH   7   8
ATOM      8  C   UNL     1      -2.837   8.349  39.700  1.00  0.00    -0.003 C 
ATOM      9  C   UNL     1      -3.222   6.870  39.714  1.00  0.00     0.004 C 
ENDBRANCH   7   8
ENDBRANCH   6   7
ENDBRANCH   1   6
TORSDOF 5
ENDMDL
MODEL 3
REMARK VINA RESULT:    -3.132      0.934      1.576
REMARK INTER + INTRA:          -4.355
REMARK INTER:                  -3.973
REMARK INTRA:                  -0.382
REMARK UNBOUND:                -0.307
REMARK SMILES CCCCCCC(=O)[O-]
REMARK SMILES IDX 5 1 6 2 7 3 8 4 9 5 4 6 3 7 2 8 1 9
REMARK H PARENT
REMARK Flexibility Score: inf
ROOT
ATOM      1  C   UNL     1      -2.237   9.156  38.375  1.00  0.00     0.006 C 
ENDROOT
BRANCH   1   2
ATOM      2  C   UNL     1      -2.013   7.694  38.788  1.00  0.00     0.053 C 
BRANCH   2   3
ATOM      3  C   UNL     1      -2.999   7.251  39.826  1.00  0.00     0.041 C 
ATOM      4  O   UNL     1      -3.231   7.975  40.829  1.00  0.00    -0.550 OA
ATOM      5  O   UNL     1      -3.687   6.055  39.666  1.00  0.00    -0.550 OA
ENDBRANCH   2   3
ENDBRANCH   1   2
BRANCH   1   6
ATOM      6  C   UNL     1      -1.019  10.039  38.680  1.00  0.00     0.000 C 
BRANCH   6   7
ATOM      7  C   UNL     1       0.079   9.234  39.392  1.00  0.00    -0.000 C 
BRANCH   7   8
ATOM      8  C   UNL     1       0.447   9.821  40.763  1.00  0.00    -0.003 C 
ATOM      9  C   UNL     1       0.027   8.919  41.924  1.00  0.00     0.004 C 
ENDBRANCH   7   8
ENDBRANCH   6   7
ENDBRANCH   1   6
TORSDOF 5
ENDMDL
MODEL 4
REMARK VINA RESULT:    -3.115      2.010      2.690
REMARK INTER + INTRA:          -4.333
REMARK INTER:                  -3.998
REMARK INTRA:                  -0.335
REMARK UNBOUND:                -0.307
REMARK SMILES CCCCCCC(=O)[O-]
REMARK SMILES IDX 5 1 6 2 7 3 8 4 9 5 4 6 3 7 2 8 1 9
REMARK H PARENT
REMARK Flexibility Score: inf
ROOT
ATOM      1  C   UNL     1      -1.789   8.699  39.114  1.00  0.00     0.006 C 
ENDROOT
BRANCH   1   2
ATOM      2  C   UNL     1      -2.950   7.933  39.764  1.00  0.00     0.053 C 
BRANCH   2   3
ATOM      3  C   UNL     1      -2.846   6.457  39.526  1.00  0.00     0.041 C 
ATOM      4  O   UNL     1      -3.880   5.739  39.540  1.00  0.00    -0.550 OA
ATOM      5  O   UNL     1      -1.612   5.881  39.254  1.00  0.00    -0.550 OA
ENDBRANCH   2   3
ENDBRANCH   1   2
BRANCH   1   6
ATOM      6  C   UNL     1      -2.276   9.721  38.077  1.00  0.00     0.000 C 
BRANCH   6   7
ATOM      7  C   UNL     1      -1.594   9.491  36.719  1.00  0.00    -0.000 C 
BRANCH   7   8
ATOM      8  C   UNL     1      -0.887   8.130  36.637  1.00  0.00    -0.003 C 
ATOM      9  C   UNL     1      -1.525   7.193  35.611  1.00  0.00     0.004 C 
ENDBRANCH   7   8
ENDBRANCH   6   7
ENDBRANCH   1   6
TORSDOF 5
ENDMDL
MODEL 5
REMARK VINA RESULT:    -3.080      2.773      4.373
REMARK INTER + INTRA:          -4.287
REMARK INTER:                  -3.936
REMARK INTRA:                  -0.352
REMARK UNBOUND:                -0.307
REMARK SMILES CCCCCCC(=O)[O-]
REMARK SMILES IDX 5 1 6 2 7 3 8 4 9 5 4 6 3 7 2 8 1 9
REMARK H PARENT
REMARK Flexibility Score: inf
ROOT
ATOM      1  C   UNL     1      -1.167   9.399  39.210  1.00  0.00     0.006 C 
ENDROOT
BRANCH   1   2
ATOM      2  C   UNL     1      -2.099   9.547  38.000  1.00  0.00     0.053 C 
BRANCH   2   3
ATOM      3  C   UNL     1      -1.385   9.277  36.710  1.00  0.00     0.041 C 
ATOM      4  O   UNL     1      -1.723   8.299  35.993  1.00  0.00    -0.550 OA
ATOM      5  O   UNL     1      -0.371  10.125  36.285  1.00  0.00    -0.550 OA
ENDBRANCH   2   3
ENDBRANCH   1   2
BRANCH   1   6
ATOM      6  C   UNL     1      -1.512   8.170  40.063  1.00  0.00     0.000 C 
BRANCH   6   7
ATOM      7  C   UNL     1      -3.017   7.866  40.006  1.00  0.00    -0.000 C 
BRANCH   7   8
ATOM      8  C   UNL     1      -3.310   6.390  39.699  1.00  0.00    -0.003 C 
ATOM      9  C   UNL     1      -2.327   5.788  38.695  1.00  0.00     0.004 C 
ENDBRANCH   7   8
ENDBRANCH   6   7
ENDBRANCH   1   6
TORSDOF 5
ENDMDL
MODEL 6
REMARK VINA RESULT:    -3.048      3.490      4.841
REMARK INTER + INTRA:          -4.246
REMARK INTER:                  -4.053
REMARK INTRA:                  -0.193
REMARK UNBOUND:                -0.307
REMARK SMILES CCCCCCC(=O)[O-]
REMARK SMILES IDX 5 1 6 2 7 3 8 4 9 5 4 6 3 7 2 8 1 9
REMARK H PARENT
REMARK Flexibility Score: inf
ROOT
ATOM      1  C   UNL     1      -1.920   9.894  37.149  1.00  0.00     0.006 C 
ENDROOT
BRANCH   1   2
ATOM      2  C   UNL     1      -1.204   8.863  36.266  1.00  0.00     0.053 C 
BRANCH   2   3
ATOM      3  C   UNL     1       0.165   9.325  35.867  1.00  0.00     0.041 C 
ATOM      4  O   UNL     1       0.923   9.863  36.716  1.00  0.00    -0.550 OA
ATOM      5  O   UNL     1       0.614   9.130  34.568  1.00  0.00    -0.550 OA
ENDBRANCH   2   3
ENDBRANCH   1   2
BRANCH   1   6
ATOM      6  C   UNL     1      -1.966   9.465  38.623  1.00  0.00     0.000 C 
BRANCH   6   7
ATOM      7  C   UNL     1      -2.014   7.935  38.748  1.00  0.00    -0.000 C 
BRANCH   7   8
ATOM      8  C   UNL     1      -3.051   7.459  39.776  1.00  0.00    -0.003 C 
ATOM      9  C   UNL     1      -3.387   5.974  39.634  1.00  0.00     0.004 C 
ENDBRANCH   7   8
ENDBRANCH   6   7
ENDBRANCH   1   6
TORSDOF 5
ENDMDL
MODEL 7
REMARK VINA RESULT:    -3.046      1.428      2.166
REMARK INTER + INTRA:          -4.243
REMARK INTER:                  -3.880
REMARK INTRA:                  -0.364
REMARK UNBOUND:                -0.307
REMARK SMILES CCCCCCC(=O)[O-]
REMARK SMILES IDX 5 1 6 2 7 3 8 4 9 5 4 6 3 7 2 8 1 9
REMARK H PARENT
REMARK Flexibility Score: inf
ROOT
ATOM      1  C   UNL     1      -1.417   9.326  36.708  1.00  0.00     0.006 C 
ENDROOT
BRANCH   1   2
ATOM      2  C   UNL     1      -2.255   9.544  37.976  1.00  0.00     0.053 C 
BRANCH   2   3
ATOM      3  C   UNL     1      -2.301   8.314  38.831  1.00  0.00     0.041 C 
ATOM      4  O   UNL     1      -1.620   7.302  38.522  1.00  0.00    -0.550 OA
ATOM      5  O   UNL     1      -3.069   8.300  39.988  1.00  0.00    -0.550 OA
ENDBRANCH   2   3
ENDBRANCH   1   2
BRANCH   1   6
ATOM      6  C   UNL     1      -0.078  10.075  36.760  1.00  0.00     0.000 C 
BRANCH   6   7
ATOM      7  C   UNL     1       1.045   9.157  37.265  1.00  0.00    -0.000 C 
BRANCH   7   8
ATOM      8  C   UNL     1       1.845   9.782  38.419  1.00  0.00    -0.003 C 
ATOM      9  C   UNL     1       0.973  10.124  39.626  1.00  0.00     0.004 C 
ENDBRANCH   7   8
ENDBRANCH   6   7
ENDBRANCH   1   6
TORSDOF 5
ENDMDL
MODEL 8
REMARK VINA RESULT:    -3.040      2.758      3.933
REMARK INTER + INTRA:          -4.236
REMARK INTER:                  -3.897
REMARK INTRA:                  -0.339
REMARK UNBOUND:                -0.307
REMARK SMILES CCCCCCC(=O)[O-]
REMARK SMILES IDX 5 1 6 2 7 3 8 4 9 5 4 6 3 7 2 8 1 9
REMARK H PARENT
REMARK Flexibility Score: inf
ROOT
ATOM      1  C   UNL     1      -1.491   9.177  36.971  1.00  0.00     0.006 C 
ENDROOT
BRANCH   1   2
ATOM      2  C   UNL     1      -0.603   7.940  37.161  1.00  0.00     0.053 C 
BRANCH   2   3
ATOM      3  C   UNL     1      -1.132   6.754  36.413  1.00  0.00     0.041 C 
ATOM      4  O   UNL     1      -1.626   6.899  35.265  1.00  0.00    -0.550 OA
ATOM      5  O   UNL     1      -1.046   5.485  36.970  1.00  0.00    -0.550 OA
ENDBRANCH   2   3
ENDBRANCH   1   2
BRANCH   1   6
ATOM      6  C   UNL     1      -2.258   9.544  38.250  1.00  0.00     0.000 C 
BRANCH   6   7
ATOM      7  C   UNL     1      -1.820   8.659  39.426  1.00  0.00    -0.000 C 
BRANCH   7   8
ATOM      8  C   UNL     1      -3.006   7.976  40.125  1.00  0.00    -0.003 C 
ATOM      9  C   UNL     1      -3.208   6.531  39.671  1.00  0.00     0.004 C 
ENDBRANCH   7   8
ENDBRANCH   6   7
ENDBRANCH   1   6
TORSDOF 5
ENDMDL
MODEL 9
REMARK VINA RESULT:    -2.979      2.327      3.833
REMARK INTER + INTRA:          -4.157
REMARK INTER:                  -3.749
REMARK INTRA:                  -0.408
REMARK UNBOUND:                -0.307
REMARK SMILES CCCCCCC(=O)[O-]
REMARK SMILES IDX 5 1 6 2 7 3 8 4 9 5 4 6 3 7 2 8 1 9
REMARK H PARENT
REMARK Flexibility Score: inf
ROOT
ATOM      1  C   UNL     1       0.188  10.119  39.106  1.00  0.00     0.006 C 
ENDROOT
BRANCH   1   2
ATOM      2  C   UNL     1       1.065   8.998  39.679  1.00  0.00     0.053 C 
BRANCH   2   3
ATOM      3  C   UNL     1       0.661   8.633  41.075  1.00  0.00     0.041 C 
ATOM      4  O   UNL     1      -0.015   9.436  41.769  1.00  0.00    -0.550 OA
ATOM      5  O   UNL     1       1.000   7.390  41.595  1.00  0.00    -0.550 OA
ENDBRANCH   2   3
ENDBRANCH   1   2
BRANCH   1   6
ATOM      6  C   UNL     1      -0.754   9.615  38.003  1.00  0.00     0.000 C 
BRANCH   6   7
ATOM      7  C   UNL     1      -2.177   9.417  38.545  1.00  0.00    -0.000 C 
BRANCH   7   8
ATOM      8  C   UNL     1      -2.428   7.983  39.036  1.00  0.00    -0.003 C 
ATOM      9  C   UNL     1      -3.046   7.936  40.433  1.00  0.00     0.004 C 
ENDBRANCH   7   8
ENDBRANCH   6   7
ENDBRANCH   1   6
TORSDOF 5
ENDMDL
