MODEL 1
REMARK VINA RESULT:    -6.759      0.000      0.000
REMARK INTER + INTRA:          -7.505
REMARK INTER:                  -7.747
REMARK INTRA:                   0.242
REMARK UNBOUND:                 0.242
REMARK SMILES O=c1c(-c2ccc(O)cc2)coc2c(O)c(O)ccc12
REMARK SMILES IDX 3 1 11 2 12 3 13 4 20 5 2 6 1 7 19 8 18 9 16 10 14 11 4 12
REMARK SMILES IDX 5 13 6 14 7 15 10 16 9 17 8 18 15 20 17 22
REMARK H PARENT 8 19 15 21 17 23
REMARK Flexibility Score: inf
ROOT
ATOM      1  C   UNL     1      82.680  55.914 258.376  1.00  0.00     0.065 A 
ATOM      2  C   UNL     1      82.909  55.808 259.758  1.00  0.00     0.208 A 
ATOM      3  O   UNL     1      81.965  55.353 260.573  1.00  0.00    -0.459 OA
ATOM      4  C   UNL     1      80.764  54.975 260.147  1.00  0.00     0.183 A 
ATOM      5  C   UNL     1      80.442  55.053 258.774  1.00  0.00     0.069 A 
ATOM      6  C   UNL     1      81.417  55.536 257.882  1.00  0.00     0.200 A 
ATOM      7  O   UNL     1      81.155  55.648 256.653  1.00  0.00    -0.288 OA
ATOM      8  C   UNL     1      79.168  54.655 258.340  1.00  0.00     0.020 A 
ATOM      9  C   UNL     1      78.230  54.184 259.260  1.00  0.00     0.051 A 
ATOM     10  C   UNL     1      78.539  54.102 260.622  1.00  0.00     0.161 A 
ATOM     11  C   UNL     1      79.820  54.502 261.073  1.00  0.00     0.201 A 
ENDROOT
BRANCH   1  12
ATOM     12  C   UNL     1      83.753  56.419 257.484  1.00  0.00    -0.011 A 
ATOM     13  C   UNL     1      84.601  57.460 257.901  1.00  0.00     0.013 A 
ATOM     14  C   UNL     1      85.605  57.938 257.053  1.00  0.00     0.047 A 
ATOM     15  C   UNL     1      85.771  57.385 255.776  1.00  0.00     0.115 A 
ATOM     16  C   UNL     1      83.922  55.875 256.198  1.00  0.00     0.013 A 
ATOM     17  C   UNL     1      84.927  56.354 255.353  1.00  0.00     0.047 A 
BRANCH  15  18
ATOM     18  O   UNL     1      86.767  57.852 254.923  1.00  0.00    -0.508 OA
ATOM     19  H   UNL     1      86.859  58.839 254.706  1.00  0.00     0.293 HD
ENDBRANCH  15  18
ENDBRANCH   1  12
BRANCH  11  20
ATOM     20  O   UNL     1      80.191  54.446 262.419  1.00  0.00    -0.502 OA
ATOM     21  H   UNL     1      80.229  55.248 263.030  1.00  0.00     0.293 HD
ENDBRANCH  11  20
BRANCH  10  22
ATOM     22  O   UNL     1      77.551  53.622 261.484  1.00  0.00    -0.504 OA
ATOM     23  H   UNL     1      77.741  53.165 262.365  1.00  0.00     0.293 HD
ENDBRANCH  10  22
TORSDOF 4
ENDMDL
MODEL 2
REMARK VINA RESULT:    -6.377      3.135      4.872
REMARK INTER + INTRA:          -7.067
REMARK INTER:                  -6.858
REMARK INTRA:                  -0.210
REMARK UNBOUND:                 0.242
REMARK SMILES O=c1c(-c2ccc(O)cc2)coc2c(O)c(O)ccc12
REMARK SMILES IDX 3 1 11 2 12 3 13 4 20 5 2 6 1 7 19 8 18 9 16 10 14 11 4 12
REMARK SMILES IDX 5 13 6 14 7 15 10 16 9 17 8 18 15 20 17 22
REMARK H PARENT 8 19 15 21 17 23
REMARK Flexibility Score: inf
ROOT
ATOM      1  C   UNL     1      84.033  58.246 255.985  1.00  0.00     0.065 A 
ATOM      2  C   UNL     1      83.809  57.190 255.087  1.00  0.00     0.208 A 
ATOM      3  O   UNL     1      83.530  55.968 255.526  1.00  0.00    -0.459 OA
ATOM      4  C   UNL     1      83.445  55.668 256.819  1.00  0.00     0.183 A 
ATOM      5  C   UNL     1      83.662  56.666 257.794  1.00  0.00     0.069 A 
ATOM      6  C   UNL     1      83.965  57.971 257.364  1.00  0.00     0.200 A 
ATOM      7  O   UNL     1      84.193  58.881 258.206  1.00  0.00    -0.288 OA
ATOM      8  C   UNL     1      83.574  56.332 259.154  1.00  0.00     0.020 A 
ATOM      9  C   UNL     1      83.273  55.024 259.536  1.00  0.00     0.051 A 
ATOM     10  C   UNL     1      83.056  54.028 258.579  1.00  0.00     0.161 A 
ATOM     11  C   UNL     1      83.144  54.351 257.203  1.00  0.00     0.201 A 
ENDROOT
BRANCH   1  12
ATOM     12  C   UNL     1      84.336  59.605 255.469  1.00  0.00    -0.011 A 
ATOM     13  C   UNL     1      83.372  60.627 255.532  1.00  0.00     0.013 A 
ATOM     14  C   UNL     1      83.660  61.903 255.037  1.00  0.00     0.047 A 
ATOM     15  C   UNL     1      84.913  62.171 254.468  1.00  0.00     0.115 A 
ATOM     16  C   UNL     1      85.587  59.881 254.890  1.00  0.00     0.013 A 
ATOM     17  C   UNL     1      85.872  61.157 254.396  1.00  0.00     0.047 A 
BRANCH  15  18
ATOM     18  O   UNL     1      85.211  63.437 253.972  1.00  0.00    -0.508 OA
ATOM     19  H   UNL     1      84.984  63.699 253.019  1.00  0.00     0.293 HD
ENDBRANCH  15  18
ENDBRANCH   1  12
BRANCH  11  20
ATOM     20  O   UNL     1      82.939  53.403 256.197  1.00  0.00    -0.502 OA
ATOM     21  H   UNL     1      83.381  52.497 256.175  1.00  0.00     0.293 HD
ENDBRANCH  11  20
BRANCH  10  22
ATOM     22  O   UNL     1      82.760  52.742 259.035  1.00  0.00    -0.504 OA
ATOM     23  H   UNL     1      82.345  52.020 258.463  1.00  0.00     0.293 HD
ENDBRANCH  10  22
TORSDOF 4
ENDMDL
MODEL 3
REMARK VINA RESULT:    -6.307      9.446     10.312
REMARK INTER + INTRA:          -6.986
REMARK INTER:                  -6.708
REMARK INTRA:                  -0.278
REMARK UNBOUND:                 0.242
REMARK SMILES O=c1c(-c2ccc(O)cc2)coc2c(O)c(O)ccc12
REMARK SMILES IDX 3 1 11 2 12 3 13 4 20 5 2 6 1 7 19 8 18 9 16 10 14 11 4 12
REMARK SMILES IDX 5 13 6 14 7 15 10 16 9 17 8 18 15 20 17 22
REMARK H PARENT 8 19 15 21 17 23
REMARK Flexibility Score: inf
ROOT
ATOM      1  C   UNL     1      80.375  64.436 257.149  1.00  0.00     0.065 A 
ATOM      2  C   UNL     1      80.648  65.749 256.730  1.00  0.00     0.208 A 
ATOM      3  O   UNL     1      80.306  66.789 257.481  1.00  0.00    -0.459 OA
ATOM      4  C   UNL     1      79.695  66.663 258.655  1.00  0.00     0.183 A 
ATOM      5  C   UNL     1      79.375  65.381 259.153  1.00  0.00     0.069 A 
ATOM      6  C   UNL     1      79.718  64.256 258.381  1.00  0.00     0.200 A 
ATOM      7  O   UNL     1      79.423  63.096 258.780  1.00  0.00    -0.288 OA
ATOM      8  C   UNL     1      78.726  65.264 260.392  1.00  0.00     0.020 A 
ATOM      9  C   UNL     1      78.402  66.407 261.123  1.00  0.00     0.051 A 
ATOM     10  C   UNL     1      78.714  67.682 260.639  1.00  0.00     0.161 A 
ATOM     11  C   UNL     1      79.367  67.814 259.391  1.00  0.00     0.201 A 
ENDROOT
BRANCH   1  12
ATOM     12  C   UNL     1      80.774  63.289 256.296  1.00  0.00    -0.011 A 
ATOM     13  C   UNL     1      79.924  62.824 255.278  1.00  0.00     0.013 A 
ATOM     14  C   UNL     1      80.300  61.736 254.483  1.00  0.00     0.047 A 
ATOM     15  C   UNL     1      81.529  61.098 254.699  1.00  0.00     0.115 A 
ATOM     16  C   UNL     1      82.002  62.638 256.511  1.00  0.00     0.013 A 
ATOM     17  C   UNL     1      82.376  61.551 255.714  1.00  0.00     0.047 A 
BRANCH  15  18
ATOM     18  O   UNL     1      81.915  60.015 253.914  1.00  0.00    -0.508 OA
ATOM     19  H   UNL     1      82.884  59.869 253.653  1.00  0.00     0.293 HD
ENDBRANCH  15  18
ENDBRANCH   1  12
BRANCH  11  20
ATOM     20  O   UNL     1      79.706  69.057 258.850  1.00  0.00    -0.502 OA
ATOM     21  H   UNL     1      79.141  69.888 258.942  1.00  0.00     0.293 HD
ENDBRANCH  11  20
BRANCH  10  22
ATOM     22  O   UNL     1      78.359  68.780 261.425  1.00  0.00    -0.504 OA
ATOM     23  H   UNL     1      78.064  68.714 262.389  1.00  0.00     0.293 HD
ENDBRANCH  10  22
TORSDOF 4
ENDMDL
MODEL 4
REMARK VINA RESULT:    -6.258      2.904      7.735
REMARK INTER + INTRA:          -6.931
REMARK INTER:                  -6.843
REMARK INTRA:                  -0.088
REMARK UNBOUND:                 0.242
REMARK SMILES O=c1c(-c2ccc(O)cc2)coc2c(O)c(O)ccc12
REMARK SMILES IDX 3 1 11 2 12 3 13 4 20 5 2 6 1 7 19 8 18 9 16 10 14 11 4 12
REMARK SMILES IDX 5 13 6 14 7 15 10 16 9 17 8 18 15 20 17 22
REMARK H PARENT 8 19 15 21 17 23
REMARK Flexibility Score: inf
ROOT
ATOM      1  C   UNL     1      77.306  53.938 259.420  1.00  0.00     0.065 A 
ATOM      2  C   UNL     1      77.791  53.704 260.717  1.00  0.00     0.208 A 
ATOM      3  O   UNL     1      79.051  53.975 261.035  1.00  0.00    -0.459 OA
ATOM      4  C   UNL     1      79.923  54.476 260.164  1.00  0.00     0.183 A 
ATOM      5  C   UNL     1      79.525  54.737 258.834  1.00  0.00     0.069 A 
ATOM      6  C   UNL     1      78.198  54.457 258.462  1.00  0.00     0.200 A 
ATOM      7  O   UNL     1      77.816  54.650 257.276  1.00  0.00    -0.288 OA
ATOM      8  C   UNL     1      80.458  55.261 257.926  1.00  0.00     0.020 A 
ATOM      9  C   UNL     1      81.766  55.522 258.337  1.00  0.00     0.051 A 
ATOM     10  C   UNL     1      82.170  55.268 259.652  1.00  0.00     0.161 A 
ATOM     11  C   UNL     1      81.239  54.738 260.578  1.00  0.00     0.201 A 
ENDROOT
BRANCH   1  12
ATOM     12  C   UNL     1      75.891  53.634 259.092  1.00  0.00    -0.011 A 
ATOM     13  C   UNL     1      75.018  54.652 258.672  1.00  0.00     0.013 A 
ATOM     14  C   UNL     1      73.683  54.362 258.372  1.00  0.00     0.047 A 
ATOM     15  C   UNL     1      73.204  53.050 258.494  1.00  0.00     0.115 A 
ATOM     16  C   UNL     1      75.400  52.322 259.219  1.00  0.00     0.013 A 
ATOM     17  C   UNL     1      74.065  52.034 258.918  1.00  0.00     0.047 A 
BRANCH  15  18
ATOM     18  O   UNL     1      71.877  52.748 258.199  1.00  0.00    -0.508 OA
ATOM     19  H   UNL     1      71.634  52.014 257.542  1.00  0.00     0.293 HD
ENDBRANCH  15  18
ENDBRANCH   1  12
BRANCH  11  20
ATOM     20  O   UNL     1      81.578  54.460 261.905  1.00  0.00    -0.502 OA
ATOM     21  H   UNL     1      82.484  54.644 262.308  1.00  0.00     0.293 HD
ENDBRANCH  11  20
BRANCH  10  22
ATOM     22  O   UNL     1      83.494  55.553 259.992  1.00  0.00    -0.504 OA
ATOM     23  H   UNL     1      84.116  56.110 259.424  1.00  0.00     0.293 HD
ENDBRANCH  10  22
TORSDOF 4
ENDMDL
MODEL 5
REMARK VINA RESULT:    -6.151      2.187      3.155
REMARK INTER + INTRA:          -6.807
REMARK INTER:                  -6.523
REMARK INTRA:                  -0.285
REMARK UNBOUND:                 0.242
REMARK SMILES O=c1c(-c2ccc(O)cc2)coc2c(O)c(O)ccc12
REMARK SMILES IDX 3 1 11 2 12 3 13 4 20 5 2 6 1 7 19 8 18 9 16 10 14 11 4 12
REMARK SMILES IDX 5 13 6 14 7 15 10 16 9 17 8 18 15 20 17 22
REMARK H PARENT 8 19 15 21 17 23
REMARK Flexibility Score: inf
ROOT
ATOM      1  C   UNL     1      80.944  54.410 258.632  1.00  0.00     0.065 A 
ATOM      2  C   UNL     1      81.165  53.193 259.296  1.00  0.00     0.208 A 
ATOM      3  O   UNL     1      80.173  52.334 259.496  1.00  0.00    -0.459 OA
ATOM      4  C   UNL     1      78.927  52.564 259.091  1.00  0.00     0.183 A 
ATOM      5  C   UNL     1      78.610  53.765 258.420  1.00  0.00     0.069 A 
ATOM      6  C   UNL     1      79.637  54.700 258.196  1.00  0.00     0.200 A 
ATOM      7  O   UNL     1      79.385  55.797 257.626  1.00  0.00    -0.288 OA
ATOM      8  C   UNL     1      77.290  53.995 258.003  1.00  0.00     0.020 A 
ATOM      9  C   UNL     1      76.302  53.041 258.249  1.00  0.00     0.051 A 
ATOM     10  C   UNL     1      76.605  51.847 258.912  1.00  0.00     0.161 A 
ATOM     11  C   UNL     1      77.932  51.604 259.340  1.00  0.00     0.201 A 
ENDROOT
BRANCH   1  12
ATOM     12  C   UNL     1      82.072  55.351 258.413  1.00  0.00    -0.011 A 
ATOM     13  C   UNL     1      82.824  55.304 257.226  1.00  0.00     0.013 A 
ATOM     14  C   UNL     1      83.891  56.186 257.029  1.00  0.00     0.047 A 
ATOM     15  C   UNL     1      84.222  57.123 258.018  1.00  0.00     0.115 A 
ATOM     16  C   UNL     1      82.415  56.289 259.403  1.00  0.00     0.013 A 
ATOM     17  C   UNL     1      83.482  57.170 259.203  1.00  0.00     0.047 A 
BRANCH  15  18
ATOM     18  O   UNL     1      85.282  58.006 257.833  1.00  0.00    -0.508 OA
ATOM     19  H   UNL     1      85.125  58.993 257.658  1.00  0.00     0.293 HD
ENDBRANCH  15  18
ENDBRANCH   1  12
BRANCH  11  20
ATOM     20  O   UNL     1      78.301  50.433 260.007  1.00  0.00    -0.502 OA
ATOM     21  H   UNL     1      78.824  50.414 260.870  1.00  0.00     0.293 HD
ENDBRANCH  11  20
BRANCH  10  22
ATOM     22  O   UNL     1      75.565  50.940 259.124  1.00  0.00    -0.504 OA
ATOM     23  H   UNL     1      75.563  49.990 258.779  1.00  0.00     0.293 HD
ENDBRANCH  10  22
TORSDOF 4
ENDMDL
MODEL 6
REMARK VINA RESULT:    -6.116      2.531      3.510
REMARK INTER + INTRA:          -6.768
REMARK INTER:                  -6.525
REMARK INTRA:                  -0.243
REMARK UNBOUND:                 0.242
REMARK SMILES O=c1c(-c2ccc(O)cc2)coc2c(O)c(O)ccc12
REMARK SMILES IDX 3 1 11 2 12 3 13 4 20 5 2 6 1 7 19 8 18 9 16 10 14 11 4 12
REMARK SMILES IDX 5 13 6 14 7 15 10 16 9 17 8 18 15 20 17 22
REMARK H PARENT 8 19 15 21 17 23
REMARK Flexibility Score: inf
ROOT
ATOM      1  C   UNL     1      80.767  54.490 258.563  1.00  0.00     0.065 A 
ATOM      2  C   UNL     1      79.462  55.006 258.528  1.00  0.00     0.208 A 
ATOM      3  O   UNL     1      78.408  54.208 258.655  1.00  0.00    -0.459 OA
ATOM      4  C   UNL     1      78.514  52.893 258.819  1.00  0.00     0.183 A 
ATOM      5  C   UNL     1      79.788  52.285 258.860  1.00  0.00     0.069 A 
ATOM      6  C   UNL     1      80.927  53.100 258.723  1.00  0.00     0.200 A 
ATOM      7  O   UNL     1      82.079  52.588 258.725  1.00  0.00    -0.288 OA
ATOM      8  C   UNL     1      79.884  50.895 259.029  1.00  0.00     0.020 A 
ATOM      9  C   UNL     1      78.728  50.124 259.158  1.00  0.00     0.051 A 
ATOM     10  C   UNL     1      77.461  50.716 259.120  1.00  0.00     0.161 A 
ATOM     11  C   UNL     1      77.351  52.116 258.948  1.00  0.00     0.201 A 
ENDROOT
BRANCH   1  12
ATOM     12  C   UNL     1      81.929  55.403 258.426  1.00  0.00    -0.011 A 
ATOM     13  C   UNL     1      82.375  56.164 259.521  1.00  0.00     0.013 A 
ATOM     14  C   UNL     1      83.464  57.031 259.384  1.00  0.00     0.047 A 
ATOM     15  C   UNL     1      84.119  57.149 258.150  1.00  0.00     0.115 A 
ATOM     16  C   UNL     1      82.586  55.535 257.190  1.00  0.00     0.013 A 
ATOM     17  C   UNL     1      83.676  56.401 257.056  1.00  0.00     0.047 A 
BRANCH  15  18
ATOM     18  O   UNL     1      85.205  58.008 258.002  1.00  0.00    -0.508 OA
ATOM     19  H   UNL     1      86.084  57.687 257.610  1.00  0.00     0.293 HD
ENDBRANCH  15  18
ENDBRANCH   1  12
BRANCH  11  20
ATOM     20  O   UNL     1      76.117  52.770 258.900  1.00  0.00    -0.502 OA
ATOM     21  H   UNL     1      76.008  53.768 258.796  1.00  0.00     0.293 HD
ENDBRANCH  11  20
BRANCH  10  22
ATOM     22  O   UNL     1      76.350  49.882 259.255  1.00  0.00    -0.504 OA
ATOM     23  H   UNL     1      76.399  48.873 259.275  1.00  0.00     0.293 HD
ENDBRANCH  10  22
TORSDOF 4
ENDMDL
MODEL 7
REMARK VINA RESULT:    -6.095      1.165      7.186
REMARK INTER + INTRA:          -6.744
REMARK INTER:                  -6.850
REMARK INTRA:                   0.106
REMARK UNBOUND:                 0.242
REMARK SMILES O=c1c(-c2ccc(O)cc2)coc2c(O)c(O)ccc12
REMARK SMILES IDX 3 1 11 2 12 3 13 4 20 5 2 6 1 7 19 8 18 9 16 10 14 11 4 12
REMARK SMILES IDX 5 13 6 14 7 15 10 16 9 17 8 18 15 20 17 22
REMARK H PARENT 8 19 15 21 17 23
REMARK Flexibility Score: inf
ROOT
ATOM      1  C   UNL     1      82.175  55.659 257.978  1.00  0.00     0.065 A 
ATOM      2  C   UNL     1      82.209  55.147 256.670  1.00  0.00     0.208 A 
ATOM      3  O   UNL     1      83.131  55.550 255.804  1.00  0.00    -0.459 OA
ATOM      4  C   UNL     1      84.064  56.448 256.107  1.00  0.00     0.183 A 
ATOM      5  C   UNL     1      84.102  57.021 257.397  1.00  0.00     0.069 A 
ATOM      6  C   UNL     1      83.137  56.621 258.339  1.00  0.00     0.200 A 
ATOM      7  O   UNL     1      83.122  57.134 259.492  1.00  0.00    -0.288 OA
ATOM      8  C   UNL     1      85.090  57.971 257.701  1.00  0.00     0.020 A 
ATOM      9  C   UNL     1      86.026  58.341 256.735  1.00  0.00     0.051 A 
ATOM     10  C   UNL     1      85.998  57.778 255.455  1.00  0.00     0.161 A 
ATOM     11  C   UNL     1      85.006  56.821 255.135  1.00  0.00     0.201 A 
ENDROOT
BRANCH   1  12
ATOM     12  C   UNL     1      81.139  55.187 258.930  1.00  0.00    -0.011 A 
ATOM     13  C   UNL     1      81.486  54.824 260.244  1.00  0.00     0.013 A 
ATOM     14  C   UNL     1      80.507  54.372 261.135  1.00  0.00     0.047 A 
ATOM     15  C   UNL     1      79.171  54.272 260.723  1.00  0.00     0.115 A 
ATOM     16  C   UNL     1      79.797  55.077 258.523  1.00  0.00     0.013 A 
ATOM     17  C   UNL     1      78.821  54.625 259.416  1.00  0.00     0.047 A 
BRANCH  15  18
ATOM     18  O   UNL     1      78.188  53.823 261.601  1.00  0.00    -0.508 OA
ATOM     19  H   UNL     1      77.651  54.469 262.169  1.00  0.00     0.293 HD
ENDBRANCH  15  18
ENDBRANCH   1  12
BRANCH  11  20
ATOM     20  O   UNL     1      84.922  56.222 253.875  1.00  0.00    -0.502 OA
ATOM     21  H   UNL     1      85.026  55.232 253.711  1.00  0.00     0.293 HD
ENDBRANCH  11  20
BRANCH  10  22
ATOM     22  O   UNL     1      86.966  58.197 254.540  1.00  0.00    -0.504 OA
ATOM     23  H   UNL     1      87.478  57.573 253.932  1.00  0.00     0.293 HD
ENDBRANCH  10  22
TORSDOF 4
ENDMDL
MODEL 8
REMARK VINA RESULT:    -6.059      2.100      7.078
REMARK INTER + INTRA:          -6.702
REMARK INTER:                  -6.484
REMARK INTRA:                  -0.218
REMARK UNBOUND:                 0.242
REMARK SMILES O=c1c(-c2ccc(O)cc2)coc2c(O)c(O)ccc12
REMARK SMILES IDX 3 1 11 2 12 3 13 4 20 5 2 6 1 7 19 8 18 9 16 10 14 11 4 12
REMARK SMILES IDX 5 13 6 14 7 15 10 16 9 17 8 18 15 20 17 22
REMARK H PARENT 8 19 15 21 17 23
REMARK Flexibility Score: inf
ROOT
ATOM      1  C   UNL     1      79.385  54.120 259.104  1.00  0.00     0.065 A 
ATOM      2  C   UNL     1      80.012  54.438 260.320  1.00  0.00     0.208 A 
ATOM      3  O   UNL     1      81.161  55.103 260.343  1.00  0.00    -0.459 OA
ATOM      4  C   UNL     1      81.784  55.505 259.240  1.00  0.00     0.183 A 
ATOM      5  C   UNL     1      81.230  55.224 257.971  1.00  0.00     0.069 A 
ATOM      6  C   UNL     1      80.016  54.516 257.909  1.00  0.00     0.200 A 
ATOM      7  O   UNL     1      79.508  54.222 256.793  1.00  0.00    -0.288 OA
ATOM      8  C   UNL     1      81.903  55.651 256.815  1.00  0.00     0.020 A 
ATOM      9  C   UNL     1      83.107  56.348 256.922  1.00  0.00     0.051 A 
ATOM     10  C   UNL     1      83.664  56.632 258.174  1.00  0.00     0.161 A 
ATOM     11  C   UNL     1      82.996  56.206 259.347  1.00  0.00     0.201 A 
ENDROOT
BRANCH   1  12
ATOM     12  C   UNL     1      78.097  53.382 259.105  1.00  0.00    -0.011 A 
ATOM     13  C   UNL     1      78.056  52.013 258.788  1.00  0.00     0.013 A 
ATOM     14  C   UNL     1      76.839  51.325 258.781  1.00  0.00     0.047 A 
ATOM     15  C   UNL     1      75.648  51.997 259.087  1.00  0.00     0.115 A 
ATOM     16  C   UNL     1      76.897  54.051 259.403  1.00  0.00     0.013 A 
ATOM     17  C   UNL     1      75.681  53.360 259.396  1.00  0.00     0.047 A 
BRANCH  15  18
ATOM     18  O   UNL     1      74.430  51.323 259.083  1.00  0.00    -0.508 OA
ATOM     19  H   UNL     1      73.587  51.754 258.719  1.00  0.00     0.293 HD
ENDBRANCH  15  18
ENDBRANCH   1  12
BRANCH  11  20
ATOM     20  O   UNL     1      83.498  56.456 260.627  1.00  0.00    -0.502 OA
ATOM     21  H   UNL     1      84.071  57.252 260.865  1.00  0.00     0.293 HD
ENDBRANCH  11  20
BRANCH  10  22
ATOM     22  O   UNL     1      84.870  57.333 258.204  1.00  0.00    -0.504 OA
ATOM     23  H   UNL     1      84.955  58.322 258.018  1.00  0.00     0.293 HD
ENDBRANCH  10  22
TORSDOF 4
ENDMDL
MODEL 9
REMARK VINA RESULT:    -6.054      1.972      6.783
REMARK INTER + INTRA:          -6.697
REMARK INTER:                  -6.778
REMARK INTRA:                   0.082
REMARK UNBOUND:                 0.242
REMARK SMILES O=c1c(-c2ccc(O)cc2)coc2c(O)c(O)ccc12
REMARK SMILES IDX 3 1 11 2 12 3 13 4 20 5 2 6 1 7 19 8 18 9 16 10 14 11 4 12
REMARK SMILES IDX 5 13 6 14 7 15 10 16 9 17 8 18 15 20 17 22
REMARK H PARENT 8 19 15 21 17 23
REMARK Flexibility Score: inf
ROOT
ATOM      1  C   UNL     1      81.736  54.852 258.591  1.00  0.00     0.065 A 
ATOM      2  C   UNL     1      82.034  55.862 259.520  1.00  0.00     0.208 A 
ATOM      3  O   UNL     1      82.923  56.807 259.240  1.00  0.00    -0.459 OA
ATOM      4  C   UNL     1      83.579  56.861 258.084  1.00  0.00     0.183 A 
ATOM      5  C   UNL     1      83.348  55.883 257.092  1.00  0.00     0.069 A 
ATOM      6  C   UNL     1      82.416  54.864 257.358  1.00  0.00     0.200 A 
ATOM      7  O   UNL     1      82.206  53.956 256.507  1.00  0.00    -0.288 OA
ATOM      8  C   UNL     1      84.052  55.951 255.880  1.00  0.00     0.020 A 
ATOM      9  C   UNL     1      84.970  56.978 255.659  1.00  0.00     0.051 A 
ATOM     10  C   UNL     1      85.206  57.953 256.634  1.00  0.00     0.161 A 
ATOM     11  C   UNL     1      84.504  57.895 257.862  1.00  0.00     0.201 A 
ENDROOT
BRANCH   1  12
ATOM     12  C   UNL     1      80.733  53.811 258.925  1.00  0.00    -0.011 A 
ATOM     13  C   UNL     1      81.030  52.447 258.751  1.00  0.00     0.013 A 
ATOM     14  C   UNL     1      80.078  51.470 259.058  1.00  0.00     0.047 A 
ATOM     15  C   UNL     1      78.816  51.844 259.539  1.00  0.00     0.115 A 
ATOM     16  C   UNL     1      79.461  54.177 259.400  1.00  0.00     0.013 A 
ATOM     17  C   UNL     1      78.512  53.198 259.708  1.00  0.00     0.047 A 
BRANCH  15  18
ATOM     18  O   UNL     1      77.860  50.881 259.849  1.00  0.00    -0.508 OA
ATOM     19  H   UNL     1      77.149  51.048 260.553  1.00  0.00     0.293 HD
ENDBRANCH  15  18
ENDBRANCH   1  12
BRANCH  11  20
ATOM     20  O   UNL     1      84.693  58.836 258.878  1.00  0.00    -0.502 OA
ATOM     21  H   UNL     1      84.991  58.606 259.814  1.00  0.00     0.293 HD
ENDBRANCH  11  20
BRANCH  10  22
ATOM     22  O   UNL     1      86.138  58.950 256.344  1.00  0.00    -0.504 OA
ATOM     23  H   UNL     1      85.937  59.768 255.785  1.00  0.00     0.293 HD
ENDBRANCH  10  22
TORSDOF 4
ENDMDL
