MODEL 1
REMARK VINA RESULT:    -4.816      0.000      0.000
REMARK INTER + INTRA:          -6.573
REMARK INTER:                  -6.787
REMARK INTRA:                   0.214
REMARK UNBOUND:                 0.214
REMARK SMILES CC1=CCC(=C(C)C)C(=O)CC(C)=CCC1
REMARK SMILES IDX 12 1 14 2 13 3 15 4 16 5 2 6 1 7 3 8 11 10 9 11 10 12 5 13
REMARK SMILES IDX 6 14 7 15 8 16 4 17
REMARK H PARENT
REMARK Flexibility Score: 60.00
ROOT
ATOM      1  C   UNL     1      -8.655  -8.595  24.389  1.00  0.00    -0.070 C 
ATOM      2  C   UNL     1      -9.334  -8.858  25.537  1.00  0.00    -0.027 C 
ATOM      3  C   UNL     1      -7.320  -9.262  24.170  1.00  0.00     0.039 C 
ENDROOT
BRANCH   2   4
ATOM      4  C   UNL     1     -10.630  -8.214  25.966  1.00  0.00     0.032 C 
BRANCH   4   5
ATOM      5  C   UNL     1     -10.436  -7.069  26.970  1.00  0.00     0.034 C 
BRANCH   5   6
ATOM      6  C   UNL     1     -10.719  -5.736  26.305  1.00  0.00    -0.077 C 
ATOM      7  C   UNL     1     -12.133  -5.215  26.319  1.00  0.00     0.039 C 
ATOM      8  C   UNL     1      -9.754  -4.951  25.767  1.00  0.00    -0.023 CG0
ATOM      9  G   UNL     1      -8.292  -5.308  25.647  1.00  0.00     0.000 G0
ENDBRANCH   5   6
ENDBRANCH   4   5
ENDBRANCH   2   4
BRANCH   1  10
ATOM     10  C   UNL     1      -9.213  -7.778  23.230  1.00  0.00     0.111 C 
BRANCH  10  11
ATOM     11  C   UNL     1      -8.939  -6.300  23.336  1.00  0.00     0.163 C 
ATOM     12  O   UNL     1      -9.669  -5.519  22.664  1.00  0.00    -0.294 OA
BRANCH  11  13
ATOM     13  C   UNL     1      -7.885  -5.733  24.243  1.00  0.00    -0.002 C 
ATOM     14  C   UNL     1      -6.580  -5.654  23.834  1.00  0.00    -0.069 C 
ATOM     15  C   UNL     1      -6.168  -5.987  22.416  1.00  0.00     0.039 C 
ATOM     16  C   UNL     1      -5.483  -5.180  24.762  1.00  0.00     0.039 C 
BRANCH  13  17
ATOM     17  C   UNL     1      -8.285  -5.302  25.652  1.00  0.00     0.066 CG0
ATOM     18  G   UNL     1      -9.753  -4.962  25.749  1.00  0.00     0.000 G0
ENDBRANCH  13  17
ENDBRANCH  11  13
ENDBRANCH  10  11
ENDBRANCH   1  10
TORSDOF 0
ENDMDL
MODEL 2
REMARK VINA RESULT:    -4.541      2.882      5.777
REMARK INTER + INTRA:          -6.186
REMARK INTER:                  -6.615
REMARK INTRA:                   0.430
REMARK UNBOUND:                 0.214
REMARK SMILES CC1=CCC(=C(C)C)C(=O)CC(C)=CCC1
REMARK SMILES IDX 12 1 14 2 13 3 15 4 16 5 2 6 1 7 3 8 11 10 9 11 10 12 5 13
REMARK SMILES IDX 6 14 7 15 8 16 4 17
REMARK H PARENT
REMARK Flexibility Score: 60.00
ROOT
ATOM      1  C   UNL     1      -5.475  -6.292  23.977  1.00  0.00    -0.070 C 
ATOM      2  C   UNL     1      -4.321  -6.779  24.505  1.00  0.00    -0.027 C 
ATOM      3  C   UNL     1      -6.156  -5.138  24.669  1.00  0.00     0.039 C 
ENDROOT
BRANCH   2   4
ATOM      4  C   UNL     1      -3.558  -7.981  24.005  1.00  0.00     0.032 C 
BRANCH   4   5
ATOM      5  C   UNL     1      -3.740  -9.225  24.885  1.00  0.00     0.034 C 
BRANCH   5   6
ATOM      6  C   UNL     1      -4.437 -10.322  24.104  1.00  0.00    -0.077 C 
ATOM      7  C   UNL     1      -3.590 -11.314  23.350  1.00  0.00     0.039 C 
ATOM      8  C   UNL     1      -5.780 -10.504  24.112  1.00  0.00    -0.023 CG0
ATOM      9  G   UNL     1      -6.788  -9.610  24.793  1.00  0.00     0.000 G0
ENDBRANCH   5   6
ENDBRANCH   4   5
ENDBRANCH   2   4
BRANCH   1  10
ATOM     10  C   UNL     1      -6.064  -6.737  22.644  1.00  0.00     0.111 C 
BRANCH  10  11
ATOM     11  C   UNL     1      -6.692  -8.107  22.679  1.00  0.00     0.163 C 
ATOM     12  O   UNL     1      -6.506  -8.862  21.685  1.00  0.00    -0.294 OA
BRANCH  11  13
ATOM     13  C   UNL     1      -7.468  -8.613  23.861  1.00  0.00    -0.002 C 
ATOM     14  C   UNL     1      -8.734  -8.156  24.114  1.00  0.00    -0.069 C 
ATOM     15  C   UNL     1      -9.461  -7.247  23.146  1.00  0.00     0.039 C 
ATOM     16  C   UNL     1      -9.498  -8.575  25.350  1.00  0.00     0.039 C 
BRANCH  13  17
ATOM     17  C   UNL     1      -6.795  -9.603  24.810  1.00  0.00     0.066 CG0
ATOM     18  G   UNL     1      -5.801 -10.489  24.098  1.00  0.00     0.000 G0
ENDBRANCH  13  17
ENDBRANCH  11  13
ENDBRANCH  10  11
ENDBRANCH   1  10
TORSDOF 0
ENDMDL
MODEL 3
REMARK VINA RESULT:    -4.539      2.429      4.860
REMARK INTER + INTRA:          -6.182
REMARK INTER:                  -6.416
REMARK INTRA:                   0.233
REMARK UNBOUND:                 0.214
REMARK SMILES CC1=CCC(=C(C)C)C(=O)CC(C)=CCC1
REMARK SMILES IDX 12 1 14 2 13 3 15 4 16 5 2 6 1 7 3 8 11 10 9 11 10 12 5 13
REMARK SMILES IDX 6 14 7 15 8 16 4 17
REMARK H PARENT
REMARK Flexibility Score: 60.00
ROOT
ATOM      1  C   UNL     1      -4.690  -9.844  23.676  1.00  0.00    -0.070 C 
ATOM      2  C   UNL     1      -3.511  -9.271  24.036  1.00  0.00    -0.027 C 
ATOM      3  C   UNL     1      -4.658 -11.150  22.923  1.00  0.00     0.039 C 
ENDROOT
BRANCH   2   4
ATOM      4  C   UNL     1      -3.347  -7.929  24.706  1.00  0.00     0.032 C 
BRANCH   4   5
ATOM      5  C   UNL     1      -3.784  -6.752  23.822  1.00  0.00     0.034 C 
BRANCH   5   6
ATOM      6  C   UNL     1      -4.647  -5.791  24.618  1.00  0.00    -0.077 C 
ATOM      7  C   UNL     1      -4.071  -5.179  25.869  1.00  0.00     0.039 C 
ATOM      8  C   UNL     1      -5.881  -5.394  24.222  1.00  0.00    -0.023 CG0
ATOM      9  G   UNL     1      -6.625  -5.905  23.012  1.00  0.00     0.000 G0
ENDBRANCH   5   6
ENDBRANCH   4   5
ENDBRANCH   2   4
BRANCH   1  10
ATOM     10  C   UNL     1      -6.060  -9.332  24.106  1.00  0.00     0.111 C 
BRANCH  10  11
ATOM     11  C   UNL     1      -6.773  -8.530  23.047  1.00  0.00     0.163 C 
ATOM     12  O   UNL     1      -6.866  -9.034  21.894  1.00  0.00    -0.294 OA
BRANCH  11  13
ATOM     13  C   UNL     1      -7.415  -7.203  23.331  1.00  0.00    -0.002 C 
ATOM     14  C   UNL     1      -8.693  -7.134  23.818  1.00  0.00    -0.069 C 
ATOM     15  C   UNL     1      -9.455  -8.375  24.232  1.00  0.00     0.039 C 
ATOM     16  C   UNL     1      -9.397  -5.810  24.020  1.00  0.00     0.039 C 
BRANCH  13  17
ATOM     17  C   UNL     1      -6.636  -5.928  23.009  1.00  0.00     0.066 CG0
ATOM     18  G   UNL     1      -5.887  -5.400  24.208  1.00  0.00     0.000 G0
ENDBRANCH  13  17
ENDBRANCH  11  13
ENDBRANCH  10  11
ENDBRANCH   1  10
TORSDOF 0
ENDMDL
MODEL 4
REMARK VINA RESULT:    -4.349      4.830      6.525
REMARK INTER + INTRA:          -5.915
REMARK INTER:                  -6.082
REMARK INTRA:                   0.168
REMARK UNBOUND:                 0.214
REMARK SMILES CC1=CCC(=C(C)C)C(=O)CC(C)=CCC1
REMARK SMILES IDX 12 1 14 2 13 3 15 4 16 5 2 6 1 7 3 8 11 10 9 11 10 12 5 13
REMARK SMILES IDX 6 14 7 15 8 16 4 17
REMARK H PARENT
REMARK Flexibility Score: 60.00
ROOT
ATOM      1  C   UNL     1      -3.258 -11.412  23.339  1.00  0.00    -0.070 C 
ATOM      2  C   UNL     1      -4.594 -11.330  23.098  1.00  0.00    -0.027 C 
ATOM      3  C   UNL     1      -2.678 -12.743  23.745  1.00  0.00     0.039 C 
ENDROOT
BRANCH   2   4
ATOM      4  C   UNL     1      -5.359 -10.070  22.776  1.00  0.00     0.032 C 
BRANCH   4   5
ATOM      5  C   UNL     1      -5.581  -9.165  23.996  1.00  0.00     0.034 C 
BRANCH   5   6
ATOM      6  C   UNL     1      -5.266  -7.724  23.643  1.00  0.00    -0.077 C 
ATOM      7  C   UNL     1      -6.169  -7.012  22.669  1.00  0.00     0.039 C 
ATOM      8  C   UNL     1      -4.262  -7.018  24.218  1.00  0.00    -0.023 CG0
ATOM      9  G   UNL     1      -3.251  -7.561  25.199  1.00  0.00     0.000 G0
ENDBRANCH   5   6
ENDBRANCH   4   5
ENDBRANCH   2   4
BRANCH   1  10
ATOM     10  C   UNL     1      -2.270 -10.279  23.089  1.00  0.00     0.111 C 
BRANCH  10  11
ATOM     11  C   UNL     1      -1.835  -9.559  24.340  1.00  0.00     0.163 C 
ATOM     12  O   UNL     1      -1.276 -10.240  25.243  1.00  0.00    -0.294 OA
BRANCH  11  13
ATOM     13  C   UNL     1      -1.990  -8.076  24.517  1.00  0.00    -0.002 C 
ATOM     14  C   UNL     1      -1.005  -7.216  24.109  1.00  0.00    -0.069 C 
ATOM     15  C   UNL     1       0.202  -7.699  23.333  1.00  0.00     0.039 C 
ATOM     16  C   UNL     1      -1.092  -5.728  24.364  1.00  0.00     0.039 C 
BRANCH  13  17
ATOM     17  C   UNL     1      -3.241  -7.548  25.217  1.00  0.00     0.066 CG0
ATOM     18  G   UNL     1      -4.257  -7.011  24.238  1.00  0.00     0.000 G0
ENDBRANCH  13  17
ENDBRANCH  11  13
ENDBRANCH  10  11
ENDBRANCH   1  10
TORSDOF 0
ENDMDL
MODEL 5
REMARK VINA RESULT:    -4.346      4.546      6.827
REMARK INTER + INTRA:          -5.910
REMARK INTER:                  -6.086
REMARK INTRA:                   0.177
REMARK UNBOUND:                 0.214
REMARK SMILES CC1=CCC(=C(C)C)C(=O)CC(C)=CCC1
REMARK SMILES IDX 12 1 14 2 13 3 15 4 16 5 2 6 1 7 3 8 11 10 9 11 10 12 5 13
REMARK SMILES IDX 6 14 7 15 8 16 4 17
REMARK H PARENT
REMARK Flexibility Score: 60.00
ROOT
ATOM      1  C   UNL     1      -6.019  -9.218  23.764  1.00  0.00    -0.070 C 
ATOM      2  C   UNL     1      -5.622 -10.516  23.686  1.00  0.00    -0.027 C 
ATOM      3  C   UNL     1      -7.344  -8.830  23.156  1.00  0.00     0.039 C 
ENDROOT
BRANCH   2   4
ATOM      4  C   UNL     1      -4.295 -11.064  24.152  1.00  0.00     0.032 C 
BRANCH   4   5
ATOM      5  C   UNL     1      -3.141 -10.763  23.186  1.00  0.00     0.034 C 
BRANCH   5   6
ATOM      6  C   UNL     1      -1.950 -10.213  23.947  1.00  0.00    -0.077 C 
ATOM      7  C   UNL     1      -1.187 -11.145  24.852  1.00  0.00     0.039 C 
ATOM      8  C   UNL     1      -1.488  -8.948  23.796  1.00  0.00    -0.023 CG0
ATOM      9  G   UNL     1      -2.125  -7.872  22.950  1.00  0.00     0.000 G0
ENDBRANCH   5   6
ENDBRANCH   4   5
ENDBRANCH   2   4
BRANCH   1  10
ATOM     10  C   UNL     1      -5.284  -8.140  24.551  1.00  0.00     0.111 C 
BRANCH  10  11
ATOM     11  C   UNL     1      -4.535  -7.156  23.690  1.00  0.00     0.163 C 
ATOM     12  O   UNL     1      -5.206  -6.447  22.891  1.00  0.00    -0.294 OA
BRANCH  11  13
ATOM     13  C   UNL     1      -3.050  -6.956  23.792  1.00  0.00    -0.002 C 
ATOM     14  C   UNL     1      -2.531  -5.956  24.572  1.00  0.00    -0.069 C 
ATOM     15  C   UNL     1      -3.408  -5.113  25.473  1.00  0.00     0.039 C 
ATOM     16  C   UNL     1      -1.046  -5.671  24.615  1.00  0.00     0.039 C 
BRANCH  13  17
ATOM     17  C   UNL     1      -2.131  -7.851  22.963  1.00  0.00     0.066 CG0
ATOM     18  G   UNL     1      -1.497  -8.941  23.793  1.00  0.00     0.000 G0
ENDBRANCH  13  17
ENDBRANCH  11  13
ENDBRANCH  10  11
ENDBRANCH   1  10
TORSDOF 0
ENDMDL
MODEL 6
REMARK VINA RESULT:    -4.277      4.576      7.286
REMARK INTER + INTRA:          -5.813
REMARK INTER:                  -6.072
REMARK INTRA:                   0.259
REMARK UNBOUND:                 0.214
REMARK SMILES CC1=CCC(=C(C)C)C(=O)CC(C)=CCC1
REMARK SMILES IDX 12 1 14 2 13 3 15 4 16 5 2 6 1 7 3 8 11 10 9 11 10 12 5 13
REMARK SMILES IDX 6 14 7 15 8 16 4 17
REMARK H PARENT
REMARK Flexibility Score: 60.00
ROOT
ATOM      1  C   UNL     1      -1.248  -7.625  23.436  1.00  0.00    -0.070 C 
ATOM      2  C   UNL     1      -0.524  -8.763  23.606  1.00  0.00    -0.027 C 
ATOM      3  C   UNL     1      -0.606  -6.303  23.777  1.00  0.00     0.039 C 
ENDROOT
BRANCH   2   4
ATOM      4  C   UNL     1      -1.031 -10.171  23.407  1.00  0.00     0.032 C 
BRANCH   4   5
ATOM      5  C   UNL     1      -2.175 -10.545  24.359  1.00  0.00     0.034 C 
BRANCH   5   6
ATOM      6  C   UNL     1      -3.335 -11.134  23.578  1.00  0.00    -0.077 C 
ATOM      7  C   UNL     1      -3.071 -12.327  22.697  1.00  0.00     0.039 C 
ATOM      8  C   UNL     1      -4.611 -10.693  23.693  1.00  0.00    -0.023 CG0
ATOM      9  G   UNL     1      -5.065  -9.508  24.511  1.00  0.00     0.000 G0
ENDBRANCH   5   6
ENDBRANCH   4   5
ENDBRANCH   2   4
BRANCH   1  10
ATOM     10  C   UNL     1      -2.625  -7.572  22.786  1.00  0.00     0.111 C 
BRANCH  10  11
ATOM     11  C   UNL     1      -3.757  -7.386  23.764  1.00  0.00     0.163 C 
ATOM     12  O   UNL     1      -3.643  -6.470  24.625  1.00  0.00    -0.294 OA
BRANCH  11  13
ATOM     13  C   UNL     1      -5.016  -8.203  23.712  1.00  0.00    -0.002 C 
ATOM     14  C   UNL     1      -6.105  -7.763  23.007  1.00  0.00    -0.069 C 
ATOM     15  C   UNL     1      -6.044  -6.526  22.137  1.00  0.00     0.039 C 
ATOM     16  C   UNL     1      -7.416  -8.518  23.019  1.00  0.00     0.039 C 
BRANCH  13  17
ATOM     17  C   UNL     1      -5.079  -9.505  24.508  1.00  0.00     0.066 CG0
ATOM     18  G   UNL     1      -4.629 -10.693  23.692  1.00  0.00     0.000 G0
ENDBRANCH  13  17
ENDBRANCH  11  13
ENDBRANCH  10  11
ENDBRANCH   1  10
TORSDOF 0
ENDMDL
MODEL 7
REMARK VINA RESULT:    -4.272      1.860      4.453
REMARK INTER + INTRA:          -5.805
REMARK INTER:                  -6.583
REMARK INTRA:                   0.778
REMARK UNBOUND:                 0.214
REMARK SMILES CC1=CCC(=C(C)C)C(=O)CC(C)=CCC1
REMARK SMILES IDX 12 1 14 2 13 3 15 4 16 5 2 6 1 7 3 8 11 10 9 11 10 12 5 13
REMARK SMILES IDX 6 14 7 15 8 16 4 17
REMARK H PARENT
REMARK Flexibility Score: 60.00
ROOT
ATOM      1  C   UNL     1      -6.027  -9.238  23.932  1.00  0.00    -0.070 C 
ATOM      2  C   UNL     1      -4.787  -8.873  24.350  1.00  0.00    -0.027 C 
ATOM      3  C   UNL     1      -6.831 -10.181  24.792  1.00  0.00     0.039 C 
ENDROOT
BRANCH   2   4
ATOM      4  C   UNL     1      -3.809  -8.020  23.579  1.00  0.00     0.032 C 
BRANCH   4   5
ATOM      5  C   UNL     1      -4.426  -6.719  23.047  1.00  0.00     0.034 C 
BRANCH   5   6
ATOM      6  C   UNL     1      -4.877  -5.843  24.199  1.00  0.00    -0.077 C 
ATOM      7  C   UNL     1      -3.874  -5.494  25.269  1.00  0.00     0.039 C 
ATOM      8  C   UNL     1      -6.112  -5.292  24.278  1.00  0.00    -0.023 CG0
ATOM      9  G   UNL     1      -7.249  -5.535  23.315  1.00  0.00     0.000 G0
ENDBRANCH   5   6
ENDBRANCH   4   5
ENDBRANCH   2   4
BRANCH   1  10
ATOM     10  C   UNL     1      -6.732  -8.649  22.715  1.00  0.00     0.111 C 
BRANCH  10  11
ATOM     11  C   UNL     1      -8.054  -7.998  23.030  1.00  0.00     0.163 C 
ATOM     12  O   UNL     1      -9.104  -8.617  22.703  1.00  0.00    -0.294 OA
BRANCH  11  13
ATOM     13  C   UNL     1      -8.161  -6.689  23.759  1.00  0.00    -0.002 C 
ATOM     14  C   UNL     1      -9.077  -6.521  24.763  1.00  0.00    -0.069 C 
ATOM     15  C   UNL     1      -9.910  -7.673  25.282  1.00  0.00     0.039 C 
ATOM     16  C   UNL     1      -9.272  -5.185  25.445  1.00  0.00     0.039 C 
BRANCH  13  17
ATOM     17  C   UNL     1      -7.269  -5.531  23.318  1.00  0.00     0.066 CG0
ATOM     18  G   UNL     1      -6.125  -5.297  24.275  1.00  0.00     0.000 G0
ENDBRANCH  13  17
ENDBRANCH  11  13
ENDBRANCH  10  11
ENDBRANCH   1  10
TORSDOF 0
ENDMDL
MODEL 8
REMARK VINA RESULT:    -4.268      4.621      7.049
REMARK INTER + INTRA:          -5.801
REMARK INTER:                  -6.021
REMARK INTRA:                   0.220
REMARK UNBOUND:                 0.214
REMARK SMILES CC1=CCC(=C(C)C)C(=O)CC(C)=CCC1
REMARK SMILES IDX 12 1 14 2 13 3 15 4 16 5 2 6 1 7 3 8 11 10 9 11 10 12 5 13
REMARK SMILES IDX 6 14 7 15 8 16 4 17
REMARK H PARENT
REMARK Flexibility Score: 60.00
ROOT
ATOM      1  C   UNL     1      -2.443 -11.579  23.512  1.00  0.00    -0.070 C 
ATOM      2  C   UNL     1      -1.271 -11.012  23.905  1.00  0.00    -0.027 C 
ATOM      3  C   UNL     1      -2.393 -12.827  22.666  1.00  0.00     0.039 C 
ENDROOT
BRANCH   2   4
ATOM      4  C   UNL     1      -1.128  -9.718  24.669  1.00  0.00     0.032 C 
BRANCH   4   5
ATOM      5  C   UNL     1      -1.164  -8.475  23.770  1.00  0.00     0.034 C 
BRANCH   5   6
ATOM      6  C   UNL     1      -2.084  -7.425  24.365  1.00  0.00    -0.077 C 
ATOM      7  C   UNL     1      -1.583  -6.613  25.531  1.00  0.00     0.039 C 
ATOM      8  C   UNL     1      -3.303  -7.126  23.853  1.00  0.00    -0.023 CG0
ATOM      9  G   UNL     1      -3.975  -7.837  22.704  1.00  0.00     0.000 G0
ENDBRANCH   5   6
ENDBRANCH   4   5
ENDBRANCH   2   4
BRANCH   1  10
ATOM     10  C   UNL     1      -3.818 -11.124  23.984  1.00  0.00     0.111 C 
BRANCH  10  11
ATOM     11  C   UNL     1      -4.591 -10.342  22.953  1.00  0.00     0.163 C 
ATOM     12  O   UNL     1      -4.976 -10.955  21.920  1.00  0.00    -0.294 OA
BRANCH  11  13
ATOM     13  C   UNL     1      -4.962  -8.899  23.141  1.00  0.00    -0.002 C 
ATOM     14  C   UNL     1      -6.182  -8.552  23.660  1.00  0.00    -0.069 C 
ATOM     15  C   UNL     1      -7.141  -9.590  24.201  1.00  0.00     0.039 C 
ATOM     16  C   UNL     1      -6.618  -7.108  23.768  1.00  0.00     0.039 C 
BRANCH  13  17
ATOM     17  C   UNL     1      -3.977  -7.824  22.687  1.00  0.00     0.066 CG0
ATOM     18  G   UNL     1      -3.305  -7.139  23.853  1.00  0.00     0.000 G0
ENDBRANCH  13  17
ENDBRANCH  11  13
ENDBRANCH  10  11
ENDBRANCH   1  10
TORSDOF 0
ENDMDL
MODEL 9
REMARK VINA RESULT:    -4.212      4.960      7.124
REMARK INTER + INTRA:          -5.722
REMARK INTER:                  -5.906
REMARK INTRA:                   0.184
REMARK UNBOUND:                 0.214
REMARK SMILES CC1=CCC(=C(C)C)C(=O)CC(C)=CCC1
REMARK SMILES IDX 12 1 14 2 13 3 15 4 16 5 2 6 1 7 3 8 11 10 9 11 10 12 5 13
REMARK SMILES IDX 6 14 7 15 8 16 4 17
REMARK H PARENT
REMARK Flexibility Score: 60.00
ROOT
ATOM      1  C   UNL     1      -5.206  -6.844  23.832  1.00  0.00    -0.070 C 
ATOM      2  C   UNL     1      -6.176  -7.796  23.849  1.00  0.00    -0.027 C 
ATOM      3  C   UNL     1      -5.490  -5.511  24.479  1.00  0.00     0.039 C 
ENDROOT
BRANCH   2   4
ATOM      4  C   UNL     1      -6.105  -9.144  23.174  1.00  0.00     0.032 C 
BRANCH   4   5
ATOM      5  C   UNL     1      -5.318 -10.186  23.980  1.00  0.00     0.034 C 
BRANCH   5   6
ATOM      6  C   UNL     1      -4.267 -10.841  23.104  1.00  0.00    -0.077 C 
ATOM      7  C   UNL     1      -4.719 -11.564  21.862  1.00  0.00     0.039 C 
ATOM      8  C   UNL     1      -2.935 -10.743  23.338  1.00  0.00    -0.023 CG0
ATOM      9  G   UNL     1      -2.297 -10.075  24.532  1.00  0.00     0.000 G0
ENDBRANCH   5   6
ENDBRANCH   4   5
ENDBRANCH   2   4
BRANCH   1  10
ATOM     10  C   UNL     1      -3.787  -7.073  23.326  1.00  0.00     0.111 C 
BRANCH  10  11
ATOM     11  C   UNL     1      -2.819  -7.509  24.397  1.00  0.00     0.163 C 
ATOM     12  O   UNL     1      -2.882  -6.928  25.515  1.00  0.00    -0.294 OA
BRANCH  11  13
ATOM     13  C   UNL     1      -1.841  -8.631  24.197  1.00  0.00    -0.002 C 
ATOM     14  C   UNL     1      -0.595  -8.390  23.683  1.00  0.00    -0.069 C 
ATOM     15  C   UNL     1      -0.094  -6.983  23.437  1.00  0.00     0.039 C 
ATOM     16  C   UNL     1       0.372  -9.513  23.381  1.00  0.00     0.039 C 
BRANCH  13  17
ATOM     17  C   UNL     1      -2.285 -10.056  24.523  1.00  0.00     0.066 CG0
ATOM     18  G   UNL     1      -2.938 -10.733  23.342  1.00  0.00     0.000 G0
ENDBRANCH  13  17
ENDBRANCH  11  13
ENDBRANCH  10  11
ENDBRANCH   1  10
TORSDOF 0
ENDMDL
