MODEL 1
REMARK VINA RESULT:     0.000      0.000      0.000
REMARK INTER + INTRA:          -7.412
REMARK INTER:                   0.000
REMARK INTRA:                  -7.412
REMARK UNBOUND:                -7.412
REMARK SMILES CCCCCCCCCCCCCCCCCCCCCCCCCCCCCO
REMARK SMILES IDX 16 1 15 2 14 3 13 4 12 5 11 6 10 7 9 8 8 9 7 10 6 11 5 12
REMARK SMILES IDX 4 13 3 14 2 15 1 16 17 17 18 18 19 19 20 20 21 21 22 22
REMARK SMILES IDX 23 23 24 24 25 25 26 26 27 27 28 28 29 29 30 30
REMARK H PARENT 30 31
REMARK Flexibility Score: inf
ROOT
ATOM      1  C   UNL     1       0.804  11.090 -46.244  1.00  0.00     0.000 C 
ENDROOT
BRANCH   1   2
ATOM      2  C   UNL     1       0.604  10.861 -44.735  1.00  0.00     0.000 C 
BRANCH   2   3
ATOM      3  C   UNL     1      -0.802  10.378 -44.321  1.00  0.00     0.000 C 
BRANCH   3   4
ATOM      4  C   UNL     1      -0.840   9.035 -43.570  1.00  0.00     0.000 C 
BRANCH   4   5
ATOM      5  C   UNL     1      -0.159   7.895 -44.347  1.00  0.00     0.000 C 
BRANCH   5   6
ATOM      6  C   UNL     1       0.896   7.158 -43.504  1.00  0.00     0.000 C 
BRANCH   6   7
ATOM      7  C   UNL     1       2.208   6.923 -44.273  1.00  0.00     0.000 C 
BRANCH   7   8
ATOM      8  C   UNL     1       2.220   7.616 -45.644  1.00  0.00    -0.000 C 
BRANCH   8   9
ATOM      9  C   UNL     1       3.426   8.555 -45.822  1.00  0.00    -0.000 C 
BRANCH   9  10
ATOM     10  C   UNL     1       4.104   8.907 -44.487  1.00  0.00    -0.000 C 
BRANCH  10  11
ATOM     11  C   UNL     1       4.217  10.426 -44.268  1.00  0.00    -0.000 C 
BRANCH  11  12
ATOM     12  C   UNL     1       3.766  10.856 -42.863  1.00  0.00    -0.000 C 
BRANCH  12  13
ATOM     13  C   UNL     1       3.257   9.679 -42.016  1.00  0.00    -0.000 C 
BRANCH  13  14
ATOM     14  C   UNL     1       1.943  10.037 -41.310  1.00  0.00    -0.000 C 
BRANCH  14  15
ATOM     15  C   UNL     1       1.729  11.555 -41.286  1.00  0.00    -0.003 C 
ATOM     16  C   UNL     1       0.258  11.900 -41.073  1.00  0.00     0.004 C 
ENDBRANCH  14  15
ENDBRANCH  13  14
ENDBRANCH  12  13
ENDBRANCH  11  12
ENDBRANCH  10  11
ENDBRANCH   9  10
ENDBRANCH   8   9
ENDBRANCH   7   8
ENDBRANCH   6   7
ENDBRANCH   5   6
ENDBRANCH   4   5
ENDBRANCH   3   4
ENDBRANCH   2   3
ENDBRANCH   1   2
BRANCH   1  17
ATOM     17  C   UNL     1      -0.239  10.413 -47.154  1.00  0.00     0.000 C 
BRANCH  17  18
ATOM     18  C   UNL     1      -1.012  11.391 -48.064  1.00  0.00     0.000 C 
BRANCH  18  19
ATOM     19  C   UNL     1      -0.487  12.834 -47.968  1.00  0.00     0.000 C 
BRANCH  19  20
ATOM     20  C   UNL     1      -1.579  13.835 -47.559  1.00  0.00     0.000 C 
BRANCH  20  21
ATOM     21  C   UNL     1      -1.196  14.649 -46.313  1.00  0.00     0.000 C 
BRANCH  21  22
ATOM     22  C   UNL     1      -1.593  13.912 -45.026  1.00  0.00     0.000 C 
BRANCH  22  23
ATOM     23  C   UNL     1      -0.628  14.187 -43.860  1.00  0.00     0.000 C 
BRANCH  23  24
ATOM     24  C   UNL     1       0.645  14.924 -44.307  1.00  0.00     0.000 C 
BRANCH  24  25
ATOM     25  C   UNL     1       1.937  14.199 -43.887  1.00  0.00     0.000 C 
BRANCH  25  26
ATOM     26  C   UNL     1       2.896  13.849 -45.040  1.00  0.00     0.000 C 
BRANCH  26  27
ATOM     27  C   UNL     1       2.501  14.511 -46.370  1.00  0.00     0.002 C 
BRANCH  27  28
ATOM     28  C   UNL     1       3.094  13.748 -47.561  1.00  0.00     0.028 C 
BRANCH  28  29
ATOM     29  C   UNL     1       4.239  12.836 -47.116  1.00  0.00     0.156 C 
BRANCH  29  30
ATOM     30  O   UNL     1       4.082  11.558 -47.670  1.00  0.00    -0.396 OA
ATOM     31  H   UNL     1       3.325  11.132 -47.188  1.00  0.00     0.210 HD
ENDBRANCH  29  30
ENDBRANCH  28  29
ENDBRANCH  27  28
ENDBRANCH  26  27
ENDBRANCH  25  26
ENDBRANCH  24  25
ENDBRANCH  23  24
ENDBRANCH  22  23
ENDBRANCH  21  22
ENDBRANCH  20  21
ENDBRANCH  19  20
ENDBRANCH  18  19
ENDBRANCH  17  18
ENDBRANCH   1  17
TORSDOF 28
ENDMDL
MODEL 2
REMARK VINA RESULT:     0.070      1.792      2.611
REMARK INTER + INTRA:          -7.230
REMARK INTER:                   0.000
REMARK INTRA:                  -7.230
REMARK UNBOUND:                -7.412
REMARK SMILES CCCCCCCCCCCCCCCCCCCCCCCCCCCCCO
REMARK SMILES IDX 16 1 15 2 14 3 13 4 12 5 11 6 10 7 9 8 8 9 7 10 6 11 5 12
REMARK SMILES IDX 4 13 3 14 2 15 1 16 17 17 18 18 19 19 20 20 21 21 22 22
REMARK SMILES IDX 23 23 24 24 25 25 26 26 27 27 28 28 29 29 30 30
REMARK H PARENT 30 31
REMARK Flexibility Score: inf
ROOT
ATOM      1  C   UNL     1       2.051  11.620 -47.415  1.00  0.00     0.000 C 
ENDROOT
BRANCH   1   2
ATOM      2  C   UNL     1       2.351  11.021 -46.028  1.00  0.00     0.000 C 
BRANCH   2   3
ATOM      3  C   UNL     1       1.322   9.990 -45.518  1.00  0.00     0.000 C 
BRANCH   3   4
ATOM      4  C   UNL     1       1.884   8.583 -45.244  1.00  0.00     0.000 C 
BRANCH   4   5
ATOM      5  C   UNL     1       2.650   8.001 -46.444  1.00  0.00     0.000 C 
BRANCH   5   6
ATOM      6  C   UNL     1       4.042   7.475 -46.052  1.00  0.00     0.000 C 
BRANCH   6   7
ATOM      7  C   UNL     1       5.140   7.921 -47.034  1.00  0.00     0.000 C 
BRANCH   7   8
ATOM      8  C   UNL     1       4.606   8.854 -48.131  1.00  0.00    -0.000 C 
BRANCH   8   9
ATOM      9  C   UNL     1       5.369  10.188 -48.196  1.00  0.00    -0.000 C 
BRANCH   9  10
ATOM     10  C   UNL     1       6.209  10.452 -46.936  1.00  0.00    -0.000 C 
BRANCH  10  11
ATOM     11  C   UNL     1       5.873  11.802 -46.278  1.00  0.00    -0.000 C 
BRANCH  11  12
ATOM     12  C   UNL     1       5.763  11.703 -44.748  1.00  0.00    -0.000 C 
BRANCH  12  13
ATOM     13  C   UNL     1       5.783  10.252 -44.243  1.00  0.00    -0.000 C 
BRANCH  13  14
ATOM     14  C   UNL     1       4.669  10.012 -43.216  1.00  0.00    -0.000 C 
BRANCH  14  15
ATOM     15  C   UNL     1       4.029  11.336 -42.781  1.00  0.00    -0.003 C 
ATOM     16  C   UNL     1       2.632  11.111 -42.211  1.00  0.00     0.004 C 
ENDBRANCH  14  15
ENDBRANCH  13  14
ENDBRANCH  12  13
ENDBRANCH  11  12
ENDBRANCH  10  11
ENDBRANCH   9  10
ENDBRANCH   8   9
ENDBRANCH   7   8
ENDBRANCH   6   7
ENDBRANCH   5   6
ENDBRANCH   4   5
ENDBRANCH   3   4
ENDBRANCH   2   3
ENDBRANCH   1   2
BRANCH   1  17
ATOM     17  C   UNL     1       1.022  10.842 -48.256  1.00  0.00     0.000 C 
BRANCH  17  18
ATOM     18  C   UNL     1      -0.120  11.713 -48.820  1.00  0.00     0.000 C 
BRANCH  18  19
ATOM     19  C   UNL     1       0.006  13.193 -48.416  1.00  0.00     0.000 C 
BRANCH  19  20
ATOM     20  C   UNL     1      -1.216  13.699 -47.633  1.00  0.00     0.000 C 
BRANCH  20  21
ATOM     21  C   UNL     1      -0.842  14.255 -46.250  1.00  0.00     0.000 C 
BRANCH  21  22
ATOM     22  C   UNL     1      -0.746  13.130 -45.209  1.00  0.00     0.000 C 
BRANCH  22  23
ATOM     23  C   UNL     1       0.373  13.365 -44.180  1.00  0.00     0.000 C 
BRANCH  23  24
ATOM     24  C   UNL     1       1.189  14.635 -44.472  1.00  0.00     0.000 C 
BRANCH  24  25
ATOM     25  C   UNL     1       2.709  14.401 -44.400  1.00  0.00     0.000 C 
BRANCH  25  26
ATOM     26  C   UNL     1       3.467  14.601 -45.725  1.00  0.00     0.000 C 
BRANCH  26  27
ATOM     27  C   UNL     1       2.656  15.387 -46.767  1.00  0.00     0.002 C 
BRANCH  27  28
ATOM     28  C   UNL     1       3.177  15.121 -48.185  1.00  0.00     0.028 C 
BRANCH  28  29
ATOM     29  C   UNL     1       4.670  14.783 -48.168  1.00  0.00     0.156 C 
BRANCH  29  30
ATOM     30  O   UNL     1       5.414  15.861 -48.668  1.00  0.00    -0.396 OA
ATOM     31  H   UNL     1       5.254  15.886 -49.647  1.00  0.00     0.210 HD
ENDBRANCH  29  30
ENDBRANCH  28  29
ENDBRANCH  27  28
ENDBRANCH  26  27
ENDBRANCH  25  26
ENDBRANCH  24  25
ENDBRANCH  23  24
ENDBRANCH  22  23
ENDBRANCH  21  22
ENDBRANCH  20  21
ENDBRANCH  19  20
ENDBRANCH  18  19
ENDBRANCH  17  18
ENDBRANCH   1  17
TORSDOF 28
ENDMDL
MODEL 3
REMARK VINA RESULT:     0.072      6.084      9.632
REMARK INTER + INTRA:          -7.224
REMARK INTER:                   0.000
REMARK INTRA:                  -7.224
REMARK UNBOUND:                -7.412
REMARK SMILES CCCCCCCCCCCCCCCCCCCCCCCCCCCCCO
REMARK SMILES IDX 16 1 15 2 14 3 13 4 12 5 11 6 10 7 9 8 8 9 7 10 6 11 5 12
REMARK SMILES IDX 4 13 3 14 2 15 1 16 17 17 18 18 19 19 20 20 21 21 22 22
REMARK SMILES IDX 23 23 24 24 25 25 26 26 27 27 28 28 29 29 30 30
REMARK H PARENT 30 31
REMARK Flexibility Score: inf
ROOT
ATOM      1  C   UNL     1       6.340  17.600 -53.202  1.00  0.00     0.000 C 
ENDROOT
BRANCH   1   2
ATOM      2  C   UNL     1       7.366  16.681 -52.514  1.00  0.00     0.000 C 
BRANCH   2   3
ATOM      3  C   UNL     1       8.423  17.402 -51.650  1.00  0.00     0.000 C 
BRANCH   3   4
ATOM      4  C   UNL     1       8.195  18.913 -51.460  1.00  0.00     0.000 C 
BRANCH   4   5
ATOM      5  C   UNL     1       8.554  19.398 -50.045  1.00  0.00     0.000 C 
BRANCH   5   6
ATOM      6  C   UNL     1       9.157  18.280 -49.177  1.00  0.00     0.000 C 
BRANCH   6   7
ATOM      7  C   UNL     1       8.543  18.229 -47.767  1.00  0.00     0.000 C 
BRANCH   7   8
ATOM      8  C   UNL     1       8.438  16.797 -47.221  1.00  0.00    -0.000 C 
BRANCH   8   9
ATOM      9  C   UNL     1       8.586  15.732 -48.321  1.00  0.00    -0.000 C 
BRANCH   9  10
ATOM     10  C   UNL     1       7.668  14.519 -48.098  1.00  0.00    -0.000 C 
BRANCH  10  11
ATOM     11  C   UNL     1       7.002  14.533 -46.710  1.00  0.00    -0.000 C 
BRANCH  11  12
ATOM     12  C   UNL     1       5.584  13.942 -46.729  1.00  0.00    -0.000 C 
BRANCH  12  13
ATOM     13  C   UNL     1       4.551  14.852 -46.046  1.00  0.00    -0.000 C 
BRANCH  13  14
ATOM     14  C   UNL     1       5.201  16.153 -45.561  1.00  0.00    -0.000 C 
BRANCH  14  15
ATOM     15  C   UNL     1       4.355  17.370 -45.956  1.00  0.00    -0.003 C 
ATOM     16  C   UNL     1       5.215  18.625 -46.070  1.00  0.00     0.004 C 
ENDBRANCH  14  15
ENDBRANCH  13  14
ENDBRANCH  12  13
ENDBRANCH  11  12
ENDBRANCH  10  11
ENDBRANCH   9  10
ENDBRANCH   8   9
ENDBRANCH   7   8
ENDBRANCH   6   7
ENDBRANCH   5   6
ENDBRANCH   4   5
ENDBRANCH   3   4
ENDBRANCH   2   3
ENDBRANCH   1   2
BRANCH   1  17
ATOM     17  C   UNL     1       5.026  16.917 -53.622  1.00  0.00     0.000 C 
BRANCH  17  18
ATOM     18  C   UNL     1       3.770  17.793 -53.432  1.00  0.00     0.000 C 
BRANCH  18  19
ATOM     19  C   UNL     1       3.978  18.914 -52.397  1.00  0.00     0.000 C 
BRANCH  19  20
ATOM     20  C   UNL     1       2.847  18.977 -51.358  1.00  0.00     0.000 C 
BRANCH  20  21
ATOM     21  C   UNL     1       3.324  18.605 -49.945  1.00  0.00     0.000 C 
BRANCH  21  22
ATOM     22  C   UNL     1       4.857  18.612 -49.859  1.00  0.00     0.000 C 
BRANCH  22  23
ATOM     23  C   UNL     1       5.440  17.238 -49.486  1.00  0.00     0.000 C 
BRANCH  23  24
ATOM     24  C   UNL     1       4.381  16.122 -49.502  1.00  0.00     0.000 C 
BRANCH  24  25
ATOM     25  C   UNL     1       4.780  14.931 -50.393  1.00  0.00     0.000 C 
BRANCH  25  26
ATOM     26  C   UNL     1       3.673  14.418 -51.333  1.00  0.00     0.000 C 
BRANCH  26  27
ATOM     27  C   UNL     1       2.361  15.205 -51.201  1.00  0.00     0.002 C 
BRANCH  27  28
ATOM     28  C   UNL     1       1.468  14.996 -52.430  1.00  0.00     0.028 C 
BRANCH  28  29
ATOM     29  C   UNL     1       2.210  14.227 -53.526  1.00  0.00     0.156 C 
BRANCH  29  30
ATOM     30  O   UNL     1       2.110  14.908 -54.746  1.00  0.00    -0.396 OA
ATOM     31  H   UNL     1       2.626  14.379 -55.409  1.00  0.00     0.210 HD
ENDBRANCH  29  30
ENDBRANCH  28  29
ENDBRANCH  27  28
ENDBRANCH  26  27
ENDBRANCH  25  26
ENDBRANCH  24  25
ENDBRANCH  23  24
ENDBRANCH  22  23
ENDBRANCH  21  22
ENDBRANCH  20  21
ENDBRANCH  19  20
ENDBRANCH  18  19
ENDBRANCH  17  18
ENDBRANCH   1  17
TORSDOF 28
ENDMDL
MODEL 4
REMARK VINA RESULT:     0.079      8.377     11.972
REMARK INTER + INTRA:          -7.207
REMARK INTER:                   0.000
REMARK INTRA:                  -7.207
REMARK UNBOUND:                -7.412
REMARK SMILES CCCCCCCCCCCCCCCCCCCCCCCCCCCCCO
REMARK SMILES IDX 16 1 15 2 14 3 13 4 12 5 11 6 10 7 9 8 8 9 7 10 6 11 5 12
REMARK SMILES IDX 4 13 3 14 2 15 1 16 17 17 18 18 19 19 20 20 21 21 22 22
REMARK SMILES IDX 23 23 24 24 25 25 26 26 27 27 28 28 29 29 30 30
REMARK H PARENT 30 31
REMARK Flexibility Score: inf
ROOT
ATOM      1  C   UNL     1      10.109  19.489 -49.352  1.00  0.00     0.000 C 
ENDROOT
BRANCH   1   2
ATOM      2  C   UNL     1       9.541  18.576 -48.250  1.00  0.00     0.000 C 
BRANCH   2   3
ATOM      3  C   UNL     1       9.701  17.062 -48.501  1.00  0.00     0.000 C 
BRANCH   3   4
ATOM      4  C   UNL     1       8.488  16.200 -48.107  1.00  0.00     0.000 C 
BRANCH   4   5
ATOM      5  C   UNL     1       7.246  17.039 -47.758  1.00  0.00     0.000 C 
BRANCH   5   6
ATOM      6  C   UNL     1       5.951  16.435 -48.330  1.00  0.00     0.000 C 
BRANCH   6   7
ATOM      7  C   UNL     1       4.702  17.249 -47.949  1.00  0.00     0.000 C 
BRANCH   7   8
ATOM      8  C   UNL     1       3.708  17.381 -49.112  1.00  0.00    -0.000 C 
BRANCH   8   9
ATOM      9  C   UNL     1       4.117  16.547 -50.338  1.00  0.00    -0.000 C 
BRANCH   9  10
ATOM     10  C   UNL     1       4.176  17.381 -51.628  1.00  0.00    -0.000 C 
BRANCH  10  11
ATOM     11  C   UNL     1       4.720  18.800 -51.387  1.00  0.00    -0.000 C 
BRANCH  11  12
ATOM     12  C   UNL     1       6.105  19.017 -52.017  1.00  0.00    -0.000 C 
BRANCH  12  13
ATOM     13  C   UNL     1       7.221  18.272 -51.269  1.00  0.00    -0.000 C 
BRANCH  13  14
ATOM     14  C   UNL     1       8.330  17.832 -52.232  1.00  0.00    -0.000 C 
BRANCH  14  15
ATOM     15  C   UNL     1       8.713  16.365 -51.996  1.00  0.00    -0.003 C 
ATOM     16  C   UNL     1       7.488  15.526 -51.645  1.00  0.00     0.004 C 
ENDBRANCH  14  15
ENDBRANCH  13  14
ENDBRANCH  12  13
ENDBRANCH  11  12
ENDBRANCH  10  11
ENDBRANCH   9  10
ENDBRANCH   8   9
ENDBRANCH   7   8
ENDBRANCH   6   7
ENDBRANCH   5   6
ENDBRANCH   4   5
ENDBRANCH   3   4
ENDBRANCH   2   3
ENDBRANCH   1   2
BRANCH   1  17
ATOM     17  C   UNL     1      10.536  20.893 -48.885  1.00  0.00     0.000 C 
BRANCH  17  18
ATOM     18  C   UNL     1       9.682  22.039 -49.468  1.00  0.00     0.000 C 
BRANCH  18  19
ATOM     19  C   UNL     1       8.421  21.532 -50.190  1.00  0.00     0.000 C 
BRANCH  19  20
ATOM     20  C   UNL     1       7.217  22.471 -50.007  1.00  0.00     0.000 C 
BRANCH  20  21
ATOM     21  C   UNL     1       5.990  21.748 -49.431  1.00  0.00     0.000 C 
BRANCH  21  22
ATOM     22  C   UNL     1       6.410  20.570 -48.538  1.00  0.00     0.000 C 
BRANCH  22  23
ATOM     23  C   UNL     1       5.738  20.603 -47.155  1.00  0.00     0.000 C 
BRANCH  23  24
ATOM     24  C   UNL     1       6.734  20.364 -46.008  1.00  0.00     0.000 C 
BRANCH  24  25
ATOM     25  C   UNL     1       8.060  21.121 -46.198  1.00  0.00     0.000 C 
BRANCH  25  26
ATOM     26  C   UNL     1       8.117  22.517 -45.549  1.00  0.00     0.000 C 
BRANCH  26  27
ATOM     27  C   UNL     1       8.058  23.658 -46.577  1.00  0.00     0.002 C 
BRANCH  27  28
ATOM     28  C   UNL     1       6.637  24.223 -46.691  1.00  0.00     0.028 C 
BRANCH  28  29
ATOM     29  C   UNL     1       5.904  24.145 -45.350  1.00  0.00     0.156 C 
BRANCH  29  30
ATOM     30  O   UNL     1       4.648  23.546 -45.520  1.00  0.00    -0.396 OA
ATOM     31  H   UNL     1       4.317  23.831 -46.411  1.00  0.00     0.210 HD
ENDBRANCH  29  30
ENDBRANCH  28  29
ENDBRANCH  27  28
ENDBRANCH  26  27
ENDBRANCH  25  26
ENDBRANCH  24  25
ENDBRANCH  23  24
ENDBRANCH  22  23
ENDBRANCH  21  22
ENDBRANCH  20  21
ENDBRANCH  19  20
ENDBRANCH  18  19
ENDBRANCH  17  18
ENDBRANCH   1  17
TORSDOF 28
ENDMDL
MODEL 5
REMARK VINA RESULT:     0.099      4.806      8.202
REMARK INTER + INTRA:          -7.154
REMARK INTER:                   0.000
REMARK INTRA:                  -7.154
REMARK UNBOUND:                -7.412
REMARK SMILES CCCCCCCCCCCCCCCCCCCCCCCCCCCCCO
REMARK SMILES IDX 16 1 15 2 14 3 13 4 12 5 11 6 10 7 9 8 8 9 7 10 6 11 5 12
REMARK SMILES IDX 4 13 3 14 2 15 1 16 17 17 18 18 19 19 20 20 21 21 22 22
REMARK SMILES IDX 23 23 24 24 25 25 26 26 27 27 28 28 29 29 30 30
REMARK H PARENT 30 31
REMARK Flexibility Score: inf
ROOT
ATOM      1  C   UNL     1      -0.496  18.370 -41.179  1.00  0.00     0.000 C 
ENDROOT
BRANCH   1   2
ATOM      2  C   UNL     1      -1.517  19.488 -40.902  1.00  0.00     0.000 C 
BRANCH   2   3
ATOM      3  C   UNL     1      -2.526  19.756 -42.039  1.00  0.00     0.000 C 
BRANCH   3   4
ATOM      4  C   UNL     1      -3.970  19.306 -41.754  1.00  0.00     0.000 C 
BRANCH   4   5
ATOM      5  C   UNL     1      -4.124  18.619 -40.386  1.00  0.00     0.000 C 
BRANCH   5   6
ATOM      6  C   UNL     1      -4.532  17.142 -40.514  1.00  0.00     0.000 C 
BRANCH   6   7
ATOM      7  C   UNL     1      -3.891  16.256 -39.431  1.00  0.00     0.000 C 
BRANCH   7   8
ATOM      8  C   UNL     1      -2.973  17.048 -38.489  1.00  0.00    -0.000 C 
BRANCH   8   9
ATOM      9  C   UNL     1      -1.624  16.348 -38.250  1.00  0.00    -0.000 C 
BRANCH   9  10
ATOM     10  C   UNL     1      -1.637  14.873 -38.686  1.00  0.00    -0.000 C 
BRANCH  10  11
ATOM     11  C   UNL     1      -0.291  14.425 -39.282  1.00  0.00    -0.000 C 
BRANCH  11  12
ATOM     12  C   UNL     1       0.751  15.554 -39.306  1.00  0.00    -0.000 C 
BRANCH  12  13
ATOM     13  C   UNL     1       2.106  15.100 -39.871  1.00  0.00    -0.000 C 
BRANCH  13  14
ATOM     14  C   UNL     1       2.705  16.172 -40.790  1.00  0.00    -0.000 C 
BRANCH  14  15
ATOM     15  C   UNL     1       2.506  15.805 -42.266  1.00  0.00    -0.003 C 
ATOM     16  C   UNL     1       2.512  14.292 -42.462  1.00  0.00     0.004 C 
ENDBRANCH  14  15
ENDBRANCH  13  14
ENDBRANCH  12  13
ENDBRANCH  11  12
ENDBRANCH  10  11
ENDBRANCH   9  10
ENDBRANCH   8   9
ENDBRANCH   7   8
ENDBRANCH   6   7
ENDBRANCH   5   6
ENDBRANCH   4   5
ENDBRANCH   3   4
ENDBRANCH   2   3
ENDBRANCH   1   2
BRANCH   1  17
ATOM     17  C   UNL     1      -0.743  17.560 -42.466  1.00  0.00     0.000 C 
BRANCH  17  18
ATOM     18  C   UNL     1      -1.455  16.211 -42.236  1.00  0.00     0.000 C 
BRANCH  18  19
ATOM     19  C   UNL     1      -1.040  15.137 -43.258  1.00  0.00     0.000 C 
BRANCH  19  20
ATOM     20  C   UNL     1      -2.031  13.964 -43.320  1.00  0.00     0.000 C 
BRANCH  20  21
ATOM     21  C   UNL     1      -2.787  13.762 -41.998  1.00  0.00     0.000 C 
BRANCH  21  22
ATOM     22  C   UNL     1      -4.306  13.740 -42.227  1.00  0.00     0.000 C 
BRANCH  22  23
ATOM     23  C   UNL     1      -4.706  14.253 -43.621  1.00  0.00     0.000 C 
BRANCH  23  24
ATOM     24  C   UNL     1      -5.752  15.378 -43.561  1.00  0.00     0.000 C 
BRANCH  24  25
ATOM     25  C   UNL     1      -5.221  16.720 -44.096  1.00  0.00     0.000 C 
BRANCH  25  26
ATOM     26  C   UNL     1      -4.004  16.615 -45.034  1.00  0.00     0.000 C 
BRANCH  26  27
ATOM     27  C   UNL     1      -3.284  17.958 -45.234  1.00  0.00     0.002 C 
BRANCH  27  28
ATOM     28  C   UNL     1      -1.915  17.756 -45.894  1.00  0.00     0.028 C 
BRANCH  28  29
ATOM     29  C   UNL     1      -1.988  16.700 -47.000  1.00  0.00     0.156 C 
BRANCH  29  30
ATOM     30  O   UNL     1      -1.016  15.712 -46.789  1.00  0.00    -0.396 OA
ATOM     31  H   UNL     1      -1.278  15.228 -45.963  1.00  0.00     0.210 HD
ENDBRANCH  29  30
ENDBRANCH  28  29
ENDBRANCH  27  28
ENDBRANCH  26  27
ENDBRANCH  25  26
ENDBRANCH  24  25
ENDBRANCH  23  24
ENDBRANCH  22  23
ENDBRANCH  21  22
ENDBRANCH  20  21
ENDBRANCH  19  20
ENDBRANCH  18  19
ENDBRANCH  17  18
ENDBRANCH   1  17
TORSDOF 28
ENDMDL
MODEL 6
REMARK VINA RESULT:     0.102      9.015     12.584
REMARK INTER + INTRA:          -7.146
REMARK INTER:                   0.000
REMARK INTRA:                  -7.146
REMARK UNBOUND:                -7.412
REMARK SMILES CCCCCCCCCCCCCCCCCCCCCCCCCCCCCO
REMARK SMILES IDX 16 1 15 2 14 3 13 4 12 5 11 6 10 7 9 8 8 9 7 10 6 11 5 12
REMARK SMILES IDX 4 13 3 14 2 15 1 16 17 17 18 18 19 19 20 20 21 21 22 22
REMARK SMILES IDX 23 23 24 24 25 25 26 26 27 27 28 28 29 29 30 30
REMARK H PARENT 30 31
REMARK Flexibility Score: inf
ROOT
ATOM      1  C   UNL     1       7.495  20.699 -45.630  1.00  0.00     0.000 C 
ENDROOT
BRANCH   1   2
ATOM      2  C   UNL     1       7.337  20.658 -47.161  1.00  0.00     0.000 C 
BRANCH   2   3
ATOM      3  C   UNL     1       8.169  19.576 -47.882  1.00  0.00     0.000 C 
BRANCH   3   4
ATOM      4  C   UNL     1       7.447  18.850 -49.031  1.00  0.00     0.000 C 
BRANCH   4   5
ATOM      5  C   UNL     1       8.339  18.655 -50.269  1.00  0.00     0.000 C 
BRANCH   5   6
ATOM      6  C   UNL     1       9.670  19.420 -50.160  1.00  0.00     0.000 C 
BRANCH   6   7
ATOM      7  C   UNL     1      10.873  18.584 -50.630  1.00  0.00     0.000 C 
BRANCH   7   8
ATOM      8  C   UNL     1      10.687  17.082 -50.364  1.00  0.00    -0.000 C 
BRANCH   8   9
ATOM      9  C   UNL     1      11.793  16.499 -49.468  1.00  0.00    -0.000 C 
BRANCH   9  10
ATOM     10  C   UNL     1      11.232  15.729 -48.261  1.00  0.00    -0.000 C 
BRANCH  10  11
ATOM     11  C   UNL     1       9.719  15.942 -48.079  1.00  0.00    -0.000 C 
BRANCH  11  12
ATOM     12  C   UNL     1       9.344  16.315 -46.636  1.00  0.00    -0.000 C 
BRANCH  12  13
ATOM     13  C   UNL     1       7.836  16.197 -46.365  1.00  0.00    -0.000 C 
BRANCH  13  14
ATOM     14  C   UNL     1       7.530  16.371 -44.872  1.00  0.00    -0.000 C 
BRANCH  14  15
ATOM     15  C   UNL     1       6.156  17.020 -44.665  1.00  0.00    -0.003 C 
ATOM     16  C   UNL     1       5.571  17.504 -45.988  1.00  0.00     0.004 C 
ENDBRANCH  14  15
ENDBRANCH  13  14
ENDBRANCH  12  13
ENDBRANCH  11  12
ENDBRANCH  10  11
ENDBRANCH   9  10
ENDBRANCH   8   9
ENDBRANCH   7   8
ENDBRANCH   6   7
ENDBRANCH   5   6
ENDBRANCH   4   5
ENDBRANCH   3   4
ENDBRANCH   2   3
ENDBRANCH   1   2
BRANCH   1  17
ATOM     17  C   UNL     1       8.591  19.779 -45.060  1.00  0.00     0.000 C 
BRANCH  17  18
ATOM     18  C   UNL     1       8.966  20.079 -43.593  1.00  0.00     0.000 C 
BRANCH  18  19
ATOM     19  C   UNL     1      10.381  19.595 -43.230  1.00  0.00     0.000 C 
BRANCH  19  20
ATOM     20  C   UNL     1      10.931  18.568 -44.234  1.00  0.00     0.000 C 
BRANCH  20  21
ATOM     21  C   UNL     1      12.405  18.819 -44.586  1.00  0.00     0.000 C 
BRANCH  21  22
ATOM     22  C   UNL     1      12.679  18.519 -46.066  1.00  0.00     0.000 C 
BRANCH  22  23
ATOM     23  C   UNL     1      11.672  19.200 -47.009  1.00  0.00     0.000 C 
BRANCH  23  24
ATOM     24  C   UNL     1      12.128  20.600 -47.451  1.00  0.00     0.000 C 
BRANCH  24  25
ATOM     25  C   UNL     1      11.055  21.681 -47.220  1.00  0.00     0.000 C 
BRANCH  25  26
ATOM     26  C   UNL     1      11.065  22.325 -45.822  1.00  0.00     0.000 C 
BRANCH  26  27
ATOM     27  C   UNL     1      10.089  23.506 -45.699  1.00  0.00     0.002 C 
BRANCH  27  28
ATOM     28  C   UNL     1       9.520  23.604 -44.278  1.00  0.00     0.028 C 
BRANCH  28  29
ATOM     29  C   UNL     1       8.160  24.307 -44.277  1.00  0.00     0.156 C 
BRANCH  29  30
ATOM     30  O   UNL     1       7.594  24.264 -45.559  1.00  0.00    -0.396 OA
ATOM     31  H   UNL     1       7.738  23.344 -45.902  1.00  0.00     0.210 HD
ENDBRANCH  29  30
ENDBRANCH  28  29
ENDBRANCH  27  28
ENDBRANCH  26  27
ENDBRANCH  25  26
ENDBRANCH  24  25
ENDBRANCH  23  24
ENDBRANCH  22  23
ENDBRANCH  21  22
ENDBRANCH  20  21
ENDBRANCH  19  20
ENDBRANCH  18  19
ENDBRANCH  17  18
ENDBRANCH   1  17
TORSDOF 28
ENDMDL
MODEL 7
REMARK VINA RESULT:     0.118      8.571     11.680
REMARK INTER + INTRA:          -7.106
REMARK INTER:                   0.000
REMARK INTRA:                  -7.106
REMARK UNBOUND:                -7.412
REMARK SMILES CCCCCCCCCCCCCCCCCCCCCCCCCCCCCO
REMARK SMILES IDX 16 1 15 2 14 3 13 4 12 5 11 6 10 7 9 8 8 9 7 10 6 11 5 12
REMARK SMILES IDX 4 13 3 14 2 15 1 16 17 17 18 18 19 19 20 20 21 21 22 22
REMARK SMILES IDX 23 23 24 24 25 25 26 26 27 27 28 28 29 29 30 30
REMARK H PARENT 30 31
REMARK Flexibility Score: inf
ROOT
ATOM      1  C   UNL     1      11.802  14.918 -42.358  1.00  0.00     0.000 C 
ENDROOT
BRANCH   1   2
ATOM      2  C   UNL     1      11.002  13.937 -43.235  1.00  0.00     0.000 C 
BRANCH   2   3
ATOM      3  C   UNL     1       9.812  14.555 -43.999  1.00  0.00     0.000 C 
BRANCH   3   4
ATOM      4  C   UNL     1      10.095  14.928 -45.465  1.00  0.00     0.000 C 
BRANCH   4   5
ATOM      5  C   UNL     1       9.484  16.282 -45.866  1.00  0.00     0.000 C 
BRANCH   5   6
ATOM      6  C   UNL     1       8.814  16.997 -44.681  1.00  0.00     0.000 C 
BRANCH   6   7
ATOM      7  C   UNL     1       7.828  18.090 -45.130  1.00  0.00     0.000 C 
BRANCH   7   8
ATOM      8  C   UNL     1       7.168  18.811 -43.946  1.00  0.00    -0.000 C 
BRANCH   8   9
ATOM      9  C   UNL     1       7.772  18.401 -42.592  1.00  0.00    -0.000 C 
BRANCH   9  10
ATOM     10  C   UNL     1       6.744  18.440 -41.449  1.00  0.00    -0.000 C 
BRANCH  10  11
ATOM     11  C   UNL     1       6.361  17.034 -40.954  1.00  0.00    -0.000 C 
BRANCH  11  12
ATOM     12  C   UNL     1       7.341  15.951 -41.434  1.00  0.00    -0.000 C 
BRANCH  12  13
ATOM     13  C   UNL     1       6.651  14.843 -42.245  1.00  0.00    -0.000 C 
BRANCH  13  14
ATOM     14  C   UNL     1       5.320  15.335 -42.827  1.00  0.00    -0.000 C 
BRANCH  14  15
ATOM     15  C   UNL     1       5.394  15.434 -44.356  1.00  0.00    -0.003 C 
ATOM     16  C   UNL     1       6.241  14.309 -44.941  1.00  0.00     0.004 C 
ENDBRANCH  14  15
ENDBRANCH  13  14
ENDBRANCH  12  13
ENDBRANCH  11  12
ENDBRANCH  10  11
ENDBRANCH   9  10
ENDBRANCH   8   9
ENDBRANCH   7   8
ENDBRANCH   6   7
ENDBRANCH   5   6
ENDBRANCH   4   5
ENDBRANCH   3   4
ENDBRANCH   2   3
ENDBRANCH   1   2
BRANCH   1  17
ATOM     17  C   UNL     1      11.002  16.121 -41.824  1.00  0.00     0.000 C 
BRANCH  17  18
ATOM     18  C   UNL     1      11.488  17.487 -42.354  1.00  0.00     0.000 C 
BRANCH  18  19
ATOM     19  C   UNL     1      12.611  17.354 -43.397  1.00  0.00     0.000 C 
BRANCH  19  20
ATOM     20  C   UNL     1      12.391  18.256 -44.623  1.00  0.00     0.000 C 
BRANCH  20  21
ATOM     21  C   UNL     1      12.089  19.712 -44.235  1.00  0.00     0.000 C 
BRANCH  21  22
ATOM     22  C   UNL     1      10.788  20.201 -44.888  1.00  0.00     0.000 C 
BRANCH  22  23
ATOM     23  C   UNL     1      10.036  21.227 -44.023  1.00  0.00     0.000 C 
BRANCH  23  24
ATOM     24  C   UNL     1      10.361  21.090 -42.526  1.00  0.00     0.000 C 
BRANCH  24  25
ATOM     25  C   UNL     1       9.272  21.692 -41.619  1.00  0.00     0.000 C 
BRANCH  25  26
ATOM     26  C   UNL     1       9.135  21.032 -40.233  1.00  0.00     0.000 C 
BRANCH  26  27
ATOM     27  C   UNL     1      10.111  19.864 -40.027  1.00  0.00     0.002 C 
BRANCH  27  28
ATOM     28  C   UNL     1       9.529  18.826 -39.059  1.00  0.00     0.028 C 
BRANCH  28  29
ATOM     29  C   UNL     1      10.346  18.759 -37.766  1.00  0.00     0.156 C 
BRANCH  29  30
ATOM     30  O   UNL     1       9.831  17.768 -36.921  1.00  0.00    -0.396 OA
ATOM     31  H   UNL     1      10.556  17.532 -36.285  1.00  0.00     0.210 HD
ENDBRANCH  29  30
ENDBRANCH  28  29
ENDBRANCH  27  28
ENDBRANCH  26  27
ENDBRANCH  25  26
ENDBRANCH  24  25
ENDBRANCH  23  24
ENDBRANCH  22  23
ENDBRANCH  21  22
ENDBRANCH  20  21
ENDBRANCH  19  20
ENDBRANCH  18  19
ENDBRANCH  17  18
ENDBRANCH   1  17
TORSDOF 28
ENDMDL
MODEL 8
REMARK VINA RESULT:     0.120      4.918      7.892
REMARK INTER + INTRA:          -7.098
REMARK INTER:                   0.000
REMARK INTRA:                  -7.098
REMARK UNBOUND:                -7.412
REMARK SMILES CCCCCCCCCCCCCCCCCCCCCCCCCCCCCO
REMARK SMILES IDX 16 1 15 2 14 3 13 4 12 5 11 6 10 7 9 8 8 9 7 10 6 11 5 12
REMARK SMILES IDX 4 13 3 14 2 15 1 16 17 17 18 18 19 19 20 20 21 21 22 22
REMARK SMILES IDX 23 23 24 24 25 25 26 26 27 27 28 28 29 29 30 30
REMARK H PARENT 30 31
REMARK Flexibility Score: inf
ROOT
ATOM      1  C   UNL     1       2.351  14.983 -50.375  1.00  0.00     0.000 C 
ENDROOT
BRANCH   1   2
ATOM      2  C   UNL     1       3.257  14.582 -49.196  1.00  0.00     0.000 C 
BRANCH   2   3
ATOM      3  C   UNL     1       4.205  15.688 -48.687  1.00  0.00     0.000 C 
BRANCH   3   4
ATOM      4  C   UNL     1       4.503  16.812 -49.695  1.00  0.00     0.000 C 
BRANCH   4   5
ATOM      5  C   UNL     1       4.360  18.217 -49.085  1.00  0.00     0.000 C 
BRANCH   5   6
ATOM      6  C   UNL     1       3.995  18.172 -47.591  1.00  0.00     0.000 C 
BRANCH   6   7
ATOM      7  C   UNL     1       2.894  19.182 -47.221  1.00  0.00     0.000 C 
BRANCH   7   8
ATOM      8  C   UNL     1       1.824  18.576 -46.300  1.00  0.00    -0.000 C 
BRANCH   8   9
ATOM      9  C   UNL     1       1.993  17.058 -46.114  1.00  0.00    -0.000 C 
BRANCH   9  10
ATOM     10  C   UNL     1       0.777  16.262 -46.614  1.00  0.00    -0.000 C 
BRANCH  10  11
ATOM     11  C   UNL     1       0.902  14.755 -46.327  1.00  0.00    -0.000 C 
BRANCH  11  12
ATOM     12  C   UNL     1      -0.380  13.980 -46.666  1.00  0.00    -0.000 C 
BRANCH  12  13
ATOM     13  C   UNL     1      -1.651  14.688 -46.173  1.00  0.00    -0.000 C 
BRANCH  13  14
ATOM     14  C   UNL     1      -2.800  14.518 -47.175  1.00  0.00    -0.000 C 
BRANCH  14  15
ATOM     15  C   UNL     1      -2.282  13.992 -48.520  1.00  0.00    -0.003 C 
ATOM     16  C   UNL     1      -3.038  14.623 -49.685  1.00  0.00     0.004 C 
ENDBRANCH  14  15
ENDBRANCH  13  14
ENDBRANCH  12  13
ENDBRANCH  11  12
ENDBRANCH  10  11
ENDBRANCH   9  10
ENDBRANCH   8   9
ENDBRANCH   7   8
ENDBRANCH   6   7
ENDBRANCH   5   6
ENDBRANCH   4   5
ENDBRANCH   3   4
ENDBRANCH   2   3
ENDBRANCH   1   2
BRANCH   1  17
ATOM     17  C   UNL     1       0.849  15.076 -50.046  1.00  0.00     0.000 C 
BRANCH  17  18
ATOM     18  C   UNL     1       0.176  16.377 -50.533  1.00  0.00     0.000 C 
BRANCH  18  19
ATOM     19  C   UNL     1       0.826  17.640 -49.939  1.00  0.00     0.000 C 
BRANCH  19  20
ATOM     20  C   UNL     1      -0.208  18.626 -49.371  1.00  0.00     0.000 C 
BRANCH  20  21
ATOM     21  C   UNL     1      -1.617  18.019 -49.287  1.00  0.00     0.000 C 
BRANCH  21  22
ATOM     22  C   UNL     1      -2.150  18.055 -47.847  1.00  0.00     0.000 C 
BRANCH  22  23
ATOM     23  C   UNL     1      -2.229  19.481 -47.276  1.00  0.00     0.000 C 
BRANCH  23  24
ATOM     24  C   UNL     1      -1.661  19.580 -45.851  1.00  0.00     0.000 C 
BRANCH  24  25
ATOM     25  C   UNL     1      -1.862  18.290 -45.035  1.00  0.00     0.000 C 
BRANCH  25  26
ATOM     26  C   UNL     1      -0.928  18.132 -43.820  1.00  0.00     0.000 C 
BRANCH  26  27
ATOM     27  C   UNL     1      -0.891  16.695 -43.276  1.00  0.00     0.002 C 
BRANCH  27  28
ATOM     28  C   UNL     1       0.534  16.297 -42.870  1.00  0.00     0.028 C 
BRANCH  28  29
ATOM     29  C   UNL     1       1.210  17.413 -42.070  1.00  0.00     0.156 C 
BRANCH  29  30
ATOM     30  O   UNL     1       2.472  17.697 -42.610  1.00  0.00    -0.396 OA
ATOM     31  H   UNL     1       2.616  17.050 -43.348  1.00  0.00     0.210 HD
ENDBRANCH  29  30
ENDBRANCH  28  29
ENDBRANCH  27  28
ENDBRANCH  26  27
ENDBRANCH  25  26
ENDBRANCH  24  25
ENDBRANCH  23  24
ENDBRANCH  22  23
ENDBRANCH  21  22
ENDBRANCH  20  21
ENDBRANCH  19  20
ENDBRANCH  18  19
ENDBRANCH  17  18
ENDBRANCH   1  17
TORSDOF 28
ENDMDL
MODEL 9
REMARK VINA RESULT:     0.128      4.730      7.533
REMARK INTER + INTRA:          -7.077
REMARK INTER:                   0.000
REMARK INTRA:                  -7.077
REMARK UNBOUND:                -7.412
REMARK SMILES CCCCCCCCCCCCCCCCCCCCCCCCCCCCCO
REMARK SMILES IDX 16 1 15 2 14 3 13 4 12 5 11 6 10 7 9 8 8 9 7 10 6 11 5 12
REMARK SMILES IDX 4 13 3 14 2 15 1 16 17 17 18 18 19 19 20 20 21 21 22 22
REMARK SMILES IDX 23 23 24 24 25 25 26 26 27 27 28 28 29 29 30 30
REMARK H PARENT 30 31
REMARK Flexibility Score: inf
ROOT
ATOM      1  C   UNL     1       4.333  10.509 -46.589  1.00  0.00     0.000 C 
ENDROOT
BRANCH   1   2
ATOM      2  C   UNL     1       4.956  11.836 -46.117  1.00  0.00     0.000 C 
BRANCH   2   3
ATOM      3  C   UNL     1       6.498  11.855 -46.054  1.00  0.00     0.000 C 
BRANCH   3   4
ATOM      4  C   UNL     1       7.133  10.750 -45.191  1.00  0.00     0.000 C 
BRANCH   4   5
ATOM      5  C   UNL     1       8.667  10.710 -45.304  1.00  0.00     0.000 C 
BRANCH   5   6
ATOM      6  C   UNL     1       9.230  11.922 -46.066  1.00  0.00     0.000 C 
BRANCH   6   7
ATOM      7  C   UNL     1      10.202  12.757 -45.213  1.00  0.00     0.000 C 
BRANCH   7   8
ATOM      8  C   UNL     1       9.959  14.267 -45.351  1.00  0.00    -0.000 C 
BRANCH   8   9
ATOM      9  C   UNL     1       9.024  14.612 -46.523  1.00  0.00    -0.000 C 
BRANCH   9  10
ATOM     10  C   UNL     1       7.822  15.466 -46.090  1.00  0.00    -0.000 C 
BRANCH  10  11
ATOM     11  C   UNL     1       7.604  15.446 -44.567  1.00  0.00    -0.000 C 
BRANCH  11  12
ATOM     12  C   UNL     1       6.185  15.000 -44.178  1.00  0.00    -0.000 C 
BRANCH  12  13
ATOM     13  C   UNL     1       6.179  13.937 -43.070  1.00  0.00    -0.000 C 
BRANCH  13  14
ATOM     14  C   UNL     1       7.603  13.637 -42.587  1.00  0.00    -0.000 C 
BRANCH  14  15
ATOM     15  C   UNL     1       7.676  12.261 -41.913  1.00  0.00    -0.003 C 
ATOM     16  C   UNL     1       9.122  11.797 -41.765  1.00  0.00     0.004 C 
ENDBRANCH  14  15
ENDBRANCH  13  14
ENDBRANCH  12  13
ENDBRANCH  11  12
ENDBRANCH  10  11
ENDBRANCH   9  10
ENDBRANCH   8   9
ENDBRANCH   7   8
ENDBRANCH   6   7
ENDBRANCH   5   6
ENDBRANCH   4   5
ENDBRANCH   3   4
ENDBRANCH   2   3
ENDBRANCH   1   2
BRANCH   1  17
ATOM     17  C   UNL     1       4.207  10.350 -48.116  1.00  0.00     0.000 C 
BRANCH  17  18
ATOM     18  C   UNL     1       4.767   9.019 -48.660  1.00  0.00     0.000 C 
BRANCH  18  19
ATOM     19  C   UNL     1       5.997   8.527 -47.876  1.00  0.00     0.000 C 
BRANCH  19  20
ATOM     20  C   UNL     1       7.280   8.531 -48.723  1.00  0.00     0.000 C 
BRANCH  20  21
ATOM     21  C   UNL     1       7.872   9.940 -48.888  1.00  0.00     0.000 C 
BRANCH  21  22
ATOM     22  C   UNL     1       7.685  10.454 -50.323  1.00  0.00     0.000 C 
BRANCH  22  23
ATOM     23  C   UNL     1       6.880  11.764 -50.386  1.00  0.00     0.000 C 
BRANCH  23  24
ATOM     24  C   UNL     1       7.403  12.827 -49.405  1.00  0.00     0.000 C 
BRANCH  24  25
ATOM     25  C   UNL     1       6.369  13.928 -49.108  1.00  0.00     0.000 C 
BRANCH  25  26
ATOM     26  C   UNL     1       4.933  13.621 -49.573  1.00  0.00     0.000 C 
BRANCH  26  27
ATOM     27  C   UNL     1       3.866  14.366 -48.755  1.00  0.00     0.002 C 
BRANCH  27  28
ATOM     28  C   UNL     1       4.502  15.130 -47.587  1.00  0.00     0.028 C 
BRANCH  28  29
ATOM     29  C   UNL     1       4.041  16.590 -47.568  1.00  0.00     0.156 C 
BRANCH  29  30
ATOM     30  O   UNL     1       2.705  16.679 -47.982  1.00  0.00    -0.396 OA
ATOM     31  H   UNL     1       2.346  17.522 -47.600  1.00  0.00     0.210 HD
ENDBRANCH  29  30
ENDBRANCH  28  29
ENDBRANCH  27  28
ENDBRANCH  26  27
ENDBRANCH  25  26
ENDBRANCH  24  25
ENDBRANCH  23  24
ENDBRANCH  22  23
ENDBRANCH  21  22
ENDBRANCH  20  21
ENDBRANCH  19  20
ENDBRANCH  18  19
ENDBRANCH  17  18
ENDBRANCH   1  17
TORSDOF 28
ENDMDL
