MODEL 1
REMARK VINA RESULT:    -4.225      0.000      0.000
REMARK INTER + INTRA:          -4.357
REMARK INTER:                  -5.213
REMARK INTRA:                   0.856
REMARK UNBOUND:                 0.856
REMARK SMILES CC1=CC=CC(C)(C)CC1=O
REMARK SMILES IDX 1 1 2 2 3 3 10 4 11 5 9 6 4 8 5 9 6 10 7 11 8 12
REMARK H PARENT
REMARK Flexibility Score: 80.00
ROOT
ATOM      1  C   UNL     1      -4.542 -20.895 -12.144  1.00  0.00     0.048 C 
ATOM      2  C   UNL     1      -3.510 -21.693 -11.380  1.00  0.00    -0.008 C 
ATOM      3  C   UNL     1      -3.931 -22.780 -10.698  1.00  0.00     0.007 C 
ENDROOT
BRANCH   2   4
ATOM      4  C   UNL     1      -2.116 -21.176 -11.402  1.00  0.00     0.159 C 
ATOM      5  O   UNL     1      -1.856 -20.167 -12.115  1.00  0.00    -0.295 OA
BRANCH   4   6
ATOM      6  C   UNL     1      -0.991 -21.754 -10.595  1.00  0.00     0.091 CG0
ATOM      7  G   UNL     1      -0.822 -23.281 -10.759  1.00  0.00     0.000 G0
ENDBRANCH   4   6
ENDBRANCH   2   4
BRANCH   3   8
ATOM      8  C   UNL     1      -3.158 -23.743  -9.883  1.00  0.00    -0.003 C 
ATOM      9  C   UNL     1      -1.845 -23.998  -9.912  1.00  0.00    -0.020 C 
BRANCH   9  10
ATOM     10  C   UNL     1      -0.819 -23.287 -10.763  1.00  0.00    -0.010 CG0
ATOM     11  C   UNL     1      -0.932 -23.748 -12.235  1.00  0.00     0.016 C 
ATOM     12  C   UNL     1       0.587 -23.676 -10.251  1.00  0.00     0.016 C 
ATOM     13  G   UNL     1      -0.985 -21.759 -10.601  1.00  0.00     0.000 G0
ENDBRANCH   9  10
ENDBRANCH   3   8
TORSDOF 0
ENDMDL
MODEL 2
REMARK VINA RESULT:    -4.209      2.105      3.971
REMARK INTER + INTRA:          -4.337
REMARK INTER:                  -5.191
REMARK INTRA:                   0.853
REMARK UNBOUND:                 0.856
REMARK SMILES CC1=CC=CC(C)(C)CC1=O
REMARK SMILES IDX 1 1 2 2 3 3 10 4 11 5 9 6 4 8 5 9 6 10 7 11 8 12
REMARK H PARENT
REMARK Flexibility Score: 80.00
ROOT
ATOM      1  C   UNL     1       0.977 -25.784 -11.186  1.00  0.00     0.048 C 
ATOM      2  C   UNL     1      -0.010 -24.643 -11.284  1.00  0.00    -0.008 C 
ATOM      3  C   UNL     1      -0.220 -24.092 -12.498  1.00  0.00     0.007 C 
ENDROOT
BRANCH   2   4
ATOM      4  C   UNL     1      -0.630 -24.186 -10.011  1.00  0.00     0.159 C 
ATOM      5  O   UNL     1      -0.380 -24.828  -8.953  1.00  0.00    -0.295 OA
BRANCH   4   6
ATOM      6  C   UNL     1      -1.511 -22.978  -9.890  1.00  0.00     0.091 CG0
ATOM      7  G   UNL     1      -2.691 -22.961 -10.887  1.00  0.00     0.000 G0
ENDBRANCH   4   6
ENDBRANCH   2   4
BRANCH   3   8
ATOM      8  C   UNL     1      -1.122 -22.987 -12.893  1.00  0.00    -0.003 C 
ATOM      9  C   UNL     1      -2.192 -22.510 -12.245  1.00  0.00    -0.020 C 
BRANCH   9  10
ATOM     10  C   UNL     1      -2.688 -22.964 -10.893  1.00  0.00    -0.010 CG0
ATOM     11  C   UNL     1      -3.395 -24.334 -11.013  1.00  0.00     0.016 C 
ATOM     12  C   UNL     1      -3.729 -21.936 -10.391  1.00  0.00     0.016 C 
ATOM     13  G   UNL     1      -1.511 -22.984  -9.892  1.00  0.00     0.000 G0
ENDBRANCH   9  10
ENDBRANCH   3   8
TORSDOF 0
ENDMDL
MODEL 3
REMARK VINA RESULT:    -4.207      2.044      3.570
REMARK INTER + INTRA:          -4.335
REMARK INTER:                  -5.427
REMARK INTRA:                   1.091
REMARK UNBOUND:                 0.856
REMARK SMILES CC1=CC=CC(C)(C)CC1=O
REMARK SMILES IDX 1 1 2 2 3 3 10 4 11 5 9 6 4 8 5 9 6 10 7 11 8 12
REMARK H PARENT
REMARK Flexibility Score: 80.00
ROOT
ATOM      1  C   UNL     1       0.027 -24.930  -9.243  1.00  0.00     0.048 C 
ATOM      2  C   UNL     1      -0.853 -23.944  -9.976  1.00  0.00    -0.008 C 
ATOM      3  C   UNL     1      -1.666 -23.155  -9.241  1.00  0.00     0.007 C 
ENDROOT
BRANCH   2   4
ATOM      4  C   UNL     1      -0.787 -23.967 -11.462  1.00  0.00     0.159 C 
ATOM      5  O   UNL     1      -0.168 -24.912 -12.025  1.00  0.00    -0.295 OA
BRANCH   4   6
ATOM      6  C   UNL     1      -1.447 -22.953 -12.350  1.00  0.00     0.091 CG0
ATOM      7  G   UNL     1      -2.965 -22.799 -12.104  1.00  0.00     0.000 G0
ENDBRANCH   4   6
ENDBRANCH   2   4
BRANCH   3   8
ATOM      8  C   UNL     1      -2.615 -22.107  -9.678  1.00  0.00    -0.003 C 
ATOM      9  C   UNL     1      -3.149 -21.915 -10.890  1.00  0.00    -0.020 C 
BRANCH   9  10
ATOM     10  C   UNL     1      -2.947 -22.796 -12.100  1.00  0.00    -0.010 CG0
ATOM     11  C   UNL     1      -3.694 -22.209 -13.321  1.00  0.00     0.016 C 
ATOM     12  C   UNL     1      -3.557 -24.184 -11.794  1.00  0.00     0.016 C 
ATOM     13  G   UNL     1      -1.435 -22.982 -12.357  1.00  0.00     0.000 G0
ENDBRANCH   9  10
ENDBRANCH   3   8
TORSDOF 0
ENDMDL
MODEL 4
REMARK VINA RESULT:    -4.189      1.467      2.318
REMARK INTER + INTRA:          -4.312
REMARK INTER:                  -5.163
REMARK INTRA:                   0.851
REMARK UNBOUND:                 0.856
REMARK SMILES CC1=CC=CC(C)(C)CC1=O
REMARK SMILES IDX 1 1 2 2 3 3 10 4 11 5 9 6 4 8 5 9 6 10 7 11 8 12
REMARK H PARENT
REMARK Flexibility Score: 80.00
ROOT
ATOM      1  C   UNL     1      -4.038 -20.789 -12.314  1.00  0.00     0.048 C 
ATOM      2  C   UNL     1      -3.075 -21.907 -11.986  1.00  0.00    -0.008 C 
ATOM      3  C   UNL     1      -2.164 -22.249 -12.921  1.00  0.00     0.007 C 
ENDROOT
BRANCH   2   4
ATOM      4  C   UNL     1      -3.253 -22.575 -10.669  1.00  0.00     0.159 C 
ATOM      5  O   UNL     1      -4.121 -22.121  -9.873  1.00  0.00    -0.295 OA
BRANCH   4   6
ATOM      6  C   UNL     1      -2.489 -23.791 -10.232  1.00  0.00     0.091 CG0
ATOM      7  G   UNL     1      -0.957 -23.649 -10.366  1.00  0.00     0.000 G0
ENDBRANCH   4   6
ENDBRANCH   2   4
BRANCH   3   8
ATOM      8  C   UNL     1      -1.104 -23.282 -12.876  1.00  0.00    -0.003 C 
ATOM      9  C   UNL     1      -0.555 -23.869 -11.806  1.00  0.00    -0.020 C 
BRANCH   9  10
ATOM     10  C   UNL     1      -0.957 -23.651 -10.367  1.00  0.00    -0.010 CG0
ATOM     11  C   UNL     1      -0.427 -22.287  -9.863  1.00  0.00     0.016 C 
ATOM     12  C   UNL     1      -0.304 -24.759  -9.509  1.00  0.00     0.016 C 
ATOM     13  G   UNL     1      -2.491 -23.781 -10.234  1.00  0.00     0.000 G0
ENDBRANCH   9  10
ENDBRANCH   3   8
TORSDOF 0
ENDMDL
MODEL 5
REMARK VINA RESULT:    -4.187      1.633      3.580
REMARK INTER + INTRA:          -4.310
REMARK INTER:                  -5.157
REMARK INTRA:                   0.847
REMARK UNBOUND:                 0.856
REMARK SMILES CC1=CC=CC(C)(C)CC1=O
REMARK SMILES IDX 1 1 2 2 3 3 10 4 11 5 9 6 4 8 5 9 6 10 7 11 8 12
REMARK H PARENT
REMARK Flexibility Score: 80.00
ROOT
ATOM      1  C   UNL     1       0.542 -24.203 -10.259  1.00  0.00     0.048 C 
ATOM      2  C   UNL     1      -0.806 -23.565 -10.504  1.00  0.00    -0.008 C 
ATOM      3  C   UNL     1      -1.567 -23.264  -9.430  1.00  0.00     0.007 C 
ENDROOT
BRANCH   2   4
ATOM      4  C   UNL     1      -1.206 -23.373 -11.924  1.00  0.00     0.159 C 
ATOM      5  O   UNL     1      -0.381 -23.677 -12.830  1.00  0.00    -0.295 OA
BRANCH   4   6
ATOM      6  C   UNL     1      -2.552 -22.875 -12.360  1.00  0.00     0.091 CG0
ATOM      7  G   UNL     1      -2.989 -21.565 -11.666  1.00  0.00     0.000 G0
ENDBRANCH   4   6
ENDBRANCH   2   4
BRANCH   3   8
ATOM      8  C   UNL     1      -2.905 -22.634  -9.364  1.00  0.00    -0.003 C 
ATOM      9  C   UNL     1      -3.521 -21.885 -10.285  1.00  0.00    -0.020 C 
BRANCH   9  10
ATOM     10  C   UNL     1      -3.000 -21.564 -11.666  1.00  0.00    -0.010 CG0
ATOM     11  C   UNL     1      -1.875 -20.506 -11.582  1.00  0.00     0.016 C 
ATOM     12  C   UNL     1      -4.159 -20.959 -12.491  1.00  0.00     0.016 C 
ATOM     13  G   UNL     1      -2.545 -22.867 -12.360  1.00  0.00     0.000 G0
ENDBRANCH   9  10
ENDBRANCH   3   8
TORSDOF 0
ENDMDL
MODEL 6
REMARK VINA RESULT:    -4.104      1.576      2.207
REMARK INTER + INTRA:          -4.208
REMARK INTER:                  -5.046
REMARK INTRA:                   0.838
REMARK UNBOUND:                 0.856
REMARK SMILES CC1=CC=CC(C)(C)CC1=O
REMARK SMILES IDX 1 1 2 2 3 3 10 4 11 5 9 6 4 8 5 9 6 10 7 11 8 12
REMARK H PARENT
REMARK Flexibility Score: 80.00
ROOT
ATOM      1  C   UNL     1      -3.684 -20.169 -12.483  1.00  0.00     0.048 C 
ATOM      2  C   UNL     1      -2.571 -21.120 -12.111  1.00  0.00    -0.008 C 
ATOM      3  C   UNL     1      -1.928 -20.913 -10.941  1.00  0.00     0.007 C 
ENDROOT
BRANCH   2   4
ATOM      4  C   UNL     1      -2.239 -22.180 -13.100  1.00  0.00     0.159 C 
ATOM      5  O   UNL     1      -2.956 -22.288 -14.134  1.00  0.00    -0.295 OA
BRANCH   4   6
ATOM      6  C   UNL     1      -1.074 -23.117 -12.973  1.00  0.00     0.091 CG0
ATOM      7  G   UNL     1      -1.012 -23.858 -11.618  1.00  0.00     0.000 G0
ENDBRANCH   4   6
ENDBRANCH   2   4
BRANCH   3   8
ATOM      8  C   UNL     1      -0.822 -21.677 -10.321  1.00  0.00    -0.003 C 
ATOM      9  C   UNL     1      -0.430 -22.932 -10.571  1.00  0.00    -0.020 C 
BRANCH   9  10
ATOM     10  C   UNL     1      -1.004 -23.850 -11.625  1.00  0.00    -0.010 CG0
ATOM     11  C   UNL     1      -2.372 -24.405 -11.165  1.00  0.00     0.016 C 
ATOM     12  C   UNL     1      -0.041 -25.047 -11.799  1.00  0.00     0.016 C 
ATOM     13  G   UNL     1      -1.086 -23.099 -12.973  1.00  0.00     0.000 G0
ENDBRANCH   9  10
ENDBRANCH   3   8
TORSDOF 0
ENDMDL
MODEL 7
REMARK VINA RESULT:    -4.040      1.766      3.576
REMARK INTER + INTRA:          -4.129
REMARK INTER:                  -4.983
REMARK INTRA:                   0.854
REMARK UNBOUND:                 0.856
REMARK SMILES CC1=CC=CC(C)(C)CC1=O
REMARK SMILES IDX 1 1 2 2 3 3 10 4 11 5 9 6 4 8 5 9 6 10 7 11 8 12
REMARK H PARENT
REMARK Flexibility Score: 80.00
ROOT
ATOM      1  C   UNL     1      -0.706 -24.735  -8.746  1.00  0.00     0.048 C 
ATOM      2  C   UNL     1      -0.939 -23.933 -10.005  1.00  0.00    -0.008 C 
ATOM      3  C   UNL     1      -0.356 -24.364 -11.145  1.00  0.00     0.007 C 
ENDROOT
BRANCH   2   4
ATOM      4  C   UNL     1      -1.754 -22.696  -9.868  1.00  0.00     0.159 C 
ATOM      5  O   UNL     1      -2.284 -22.442  -8.751  1.00  0.00    -0.295 OA
BRANCH   4   6
ATOM      6  C   UNL     1      -1.960 -21.698 -10.969  1.00  0.00     0.091 CG0
ATOM      7  G   UNL     1      -2.471 -22.317 -12.289  1.00  0.00     0.000 G0
ENDBRANCH   4   6
ENDBRANCH   2   4
BRANCH   3   8
ATOM      8  C   UNL     1      -0.414 -23.796 -12.511  1.00  0.00    -0.003 C 
ATOM      9  C   UNL     1      -1.317 -22.954 -13.028  1.00  0.00    -0.020 C 
BRANCH   9  10
ATOM     10  C   UNL     1      -2.472 -22.323 -12.287  1.00  0.00    -0.010 CG0
ATOM     11  C   UNL     1      -3.599 -23.360 -12.068  1.00  0.00     0.016 C 
ATOM     12  C   UNL     1      -3.042 -21.183 -13.161  1.00  0.00     0.016 C 
ATOM     13  G   UNL     1      -1.962 -21.707 -10.965  1.00  0.00     0.000 G0
ENDBRANCH   9  10
ENDBRANCH   3   8
TORSDOF 0
ENDMDL
MODEL 8
REMARK VINA RESULT:    -3.905      2.076      3.904
REMARK INTER + INTRA:          -3.962
REMARK INTER:                  -4.819
REMARK INTRA:                   0.857
REMARK UNBOUND:                 0.856
REMARK SMILES CC1=CC=CC(C)(C)CC1=O
REMARK SMILES IDX 1 1 2 2 3 3 10 4 11 5 9 6 4 8 5 9 6 10 7 11 8 12
REMARK H PARENT
REMARK Flexibility Score: 80.00
ROOT
ATOM      1  C   UNL     1      -0.789 -24.656  -9.104  1.00  0.00     0.048 C 
ATOM      2  C   UNL     1      -1.439 -23.431  -9.705  1.00  0.00    -0.008 C 
ATOM      3  C   UNL     1      -0.643 -22.390 -10.033  1.00  0.00     0.007 C 
ENDROOT
BRANCH   2   4
ATOM      4  C   UNL     1      -2.921 -23.457  -9.834  1.00  0.00     0.159 C 
ATOM      5  O   UNL     1      -3.535 -24.519  -9.536  1.00  0.00    -0.295 OA
BRANCH   4   6
ATOM      6  C   UNL     1      -3.749 -22.282 -10.263  1.00  0.00     0.091 CG0
ATOM      7  G   UNL     1      -3.290 -21.643 -11.592  1.00  0.00     0.000 G0
ENDBRANCH   4   6
ENDBRANCH   2   4
BRANCH   3   8
ATOM      8  C   UNL     1      -0.993 -21.085 -10.638  1.00  0.00    -0.003 C 
ATOM      9  C   UNL     1      -2.091 -20.751 -11.327  1.00  0.00    -0.020 C 
BRANCH   9  10
ATOM     10  C   UNL     1      -3.283 -21.641 -11.588  1.00  0.00    -0.010 CG0
ATOM     11  C   UNL     1      -2.942 -22.689 -12.673  1.00  0.00     0.016 C 
ATOM     12  C   UNL     1      -4.435 -20.761 -12.124  1.00  0.00     0.016 C 
ATOM     13  G   UNL     1      -3.746 -22.284 -10.261  1.00  0.00     0.000 G0
ENDBRANCH   9  10
ENDBRANCH   3   8
TORSDOF 0
ENDMDL
MODEL 9
REMARK VINA RESULT:    -3.821      1.744      3.502
REMARK INTER + INTRA:          -3.858
REMARK INTER:                  -4.939
REMARK INTRA:                   1.081
REMARK UNBOUND:                 0.856
REMARK SMILES CC1=CC=CC(C)(C)CC1=O
REMARK SMILES IDX 1 1 2 2 3 3 10 4 11 5 9 6 4 8 5 9 6 10 7 11 8 12
REMARK H PARENT
REMARK Flexibility Score: 80.00
ROOT
ATOM      1  C   UNL     1       0.770 -25.450 -12.841  1.00  0.00     0.048 C 
ATOM      2  C   UNL     1       0.077 -24.697 -11.729  1.00  0.00    -0.008 C 
ATOM      3  C   UNL     1       0.154 -25.205 -10.479  1.00  0.00     0.007 C 
ENDROOT
BRANCH   2   4
ATOM      4  C   UNL     1      -0.683 -23.480 -12.119  1.00  0.00     0.159 C 
ATOM      5  O   UNL     1      -0.899 -23.269 -13.345  1.00  0.00    -0.295 OA
BRANCH   4   6
ATOM      6  C   UNL     1      -1.251 -22.493 -11.142  1.00  0.00     0.091 CG0
ATOM      7  G   UNL     1      -2.222 -23.116 -10.114  1.00  0.00     0.000 G0
ENDBRANCH   4   6
ENDBRANCH   2   4
BRANCH   3   8
ATOM      8  C   UNL     1      -0.408 -24.687  -9.212  1.00  0.00    -0.003 C 
ATOM      9  C   UNL     1      -1.382 -23.787  -9.036  1.00  0.00    -0.020 C 
BRANCH   9  10
ATOM     10  C   UNL     1      -2.197 -23.133 -10.126  1.00  0.00    -0.010 CG0
ATOM     11  C   UNL     1      -3.174 -22.099  -9.518  1.00  0.00     0.016 C 
ATOM     12  C   UNL     1      -3.037 -24.227 -10.824  1.00  0.00     0.016 C 
ATOM     13  G   UNL     1      -1.248 -22.512 -11.176  1.00  0.00     0.000 G0
ENDBRANCH   9  10
ENDBRANCH   3   8
TORSDOF 0
ENDMDL
