MODEL 1
REMARK VINA RESULT:    63.148      0.000      0.000
REMARK INTER + INTRA:          85.351
REMARK INTER:                  85.298
REMARK INTRA:                   0.053
REMARK UNBOUND:                 0.053
REMARK SMILES O=c1c(-c2ccc(O)cc2)coc2c([C@@H]3O[C@@H](CO)[C@@H](O)[C@H](O)[C@@H]3O)c(O)ccc12
REMARK SMILES IDX 3 1 11 2 12 3 13 4 30 5 2 6 1 7 29 8 28 9 26 10 14 11 4 12
REMARK SMILES IDX 5 13 6 14 7 15 10 16 9 17 8 18 15 20 24 21 16 22 22 23 17 24
REMARK SMILES IDX 20 25 25 26 23 28 18 30 19 31 21 33 27 35
REMARK H PARENT 8 19 25 27 23 29 19 32 21 34 27 36
REMARK Flexibility Score: inf
ROOT
ATOM      1  C   UNL     1      12.846  79.181  -0.719  1.00  0.00     0.065 A 
ATOM      2  C   UNL     1      12.305  77.932  -0.370  1.00  0.00     0.208 A 
ATOM      3  O   UNL     1      12.219  77.563   0.901  1.00  0.00    -0.463 OA
ATOM      4  C   UNL     1      12.694  78.286   1.910  1.00  0.00     0.147 A 
ATOM      5  C   UNL     1      13.332  79.519   1.641  1.00  0.00     0.066 A 
ATOM      6  C   UNL     1      13.373  79.985   0.314  1.00  0.00     0.200 A 
ATOM      7  O   UNL     1      13.844  81.125   0.055  1.00  0.00    -0.288 OA
ATOM      8  C   UNL     1      13.906  80.233   2.703  1.00  0.00     0.020 A 
ATOM      9  C   UNL     1      13.875  79.719   3.996  1.00  0.00     0.047 A 
ATOM     10  C   UNL     1      13.223  78.508   4.273  1.00  0.00     0.125 A 
ATOM     11  C   UNL     1      12.565  77.798   3.236  1.00  0.00     0.069 A 
ENDROOT
BRANCH   1  12
ATOM     12  C   UNL     1      12.821  79.643  -2.140  1.00  0.00    -0.011 A 
ATOM     13  C   UNL     1      13.894  80.394  -2.652  1.00  0.00     0.013 A 
ATOM     14  C   UNL     1      13.862  80.885  -3.957  1.00  0.00     0.047 A 
ATOM     15  C   UNL     1      12.765  80.621  -4.778  1.00  0.00     0.115 A 
ATOM     16  C   UNL     1      11.716  79.386  -2.973  1.00  0.00     0.013 A 
ATOM     17  C   UNL     1      11.685  79.877  -4.280  1.00  0.00     0.047 A 
BRANCH  15  18
ATOM     18  O   UNL     1      12.762  81.092  -6.090  1.00  0.00    -0.508 OA
ATOM     19  H   UNL     1      12.202  81.890  -6.362  1.00  0.00     0.293 HD
ENDBRANCH  15  18
ENDBRANCH   1  12
BRANCH  11  20
ATOM     20  C   UNL     1      11.584  76.624   3.441  1.00  0.00     0.188 C 
ATOM     21  C   UNL     1      11.580  75.718   4.718  1.00  0.00     0.179 C 
ATOM     22  O   UNL     1      10.272  77.044   3.109  1.00  0.00    -0.362 OA
ATOM     23  C   UNL     1      10.575  76.137   5.841  1.00  0.00     0.177 C 
ATOM     24  C   UNL     1       9.714  77.811   4.159  1.00  0.00     0.176 C 
ATOM     25  C   UNL     1       9.314  76.866   5.295  1.00  0.00     0.177 C 
BRANCH  21  26
ATOM     26  O   UNL     1      12.881  75.510   5.204  1.00  0.00    -0.387 OA
ATOM     27  H   UNL     1      12.805  75.150   6.122  1.00  0.00     0.211 HD
ENDBRANCH  21  26
BRANCH  23  28
ATOM     28  O   UNL     1      11.206  76.847   6.885  1.00  0.00    -0.387 OA
ATOM     29  H   UNL     1      10.525  77.106   7.559  1.00  0.00     0.211 HD
ENDBRANCH  23  28
BRANCH  24  30
ATOM     30  C   UNL     1       8.521  78.607   3.626  1.00  0.00     0.191 C 
BRANCH  30  31
ATOM     31  O   UNL     1       8.833  79.125   2.358  1.00  0.00    -0.394 OA
ATOM     32  H   UNL     1       8.866  78.349   1.742  1.00  0.00     0.210 HD
ENDBRANCH  30  31
ENDBRANCH  24  30
BRANCH  25  33
ATOM     33  O   UNL     1       8.386  75.920   4.814  1.00  0.00    -0.388 OA
ATOM     34  H   UNL     1       8.773  75.538   3.985  1.00  0.00     0.211 HD
ENDBRANCH  25  33
ENDBRANCH  11  20
BRANCH  10  35
ATOM     35  O   UNL     1      13.257  78.022   5.575  1.00  0.00    -0.507 OA
ATOM     36  H   UNL     1      14.131  77.845   6.065  1.00  0.00     0.293 HD
ENDBRANCH  10  35
TORSDOF 9
ENDMDL
