MODEL 1
REMARK VINA RESULT:    -4.059      0.000      0.000
REMARK INTER + INTRA:          -4.700
REMARK INTER:                  -4.653
REMARK INTRA:                  -0.047
REMARK UNBOUND:                -0.047
REMARK SMILES CC(C)[C@H]([NH3+])C(=O)[O-]
REMARK SMILES IDX 4 1 5 2 6 6 7 7 8 8 2 9 1 10 3 11
REMARK H PARENT 5 3 5 4 5 5
REMARK Flexibility Score: inf
ROOT
ATOM      1  C   UNL     1     171.962 172.827 208.426  1.00  0.00     0.230 C 
ENDROOT
BRANCH   1   2
ATOM      2  N   UNL     1     173.083 173.427 209.165  1.00  0.00    -0.350 N 
ATOM      3  H   UNL     1     173.655 172.700 209.650  1.00  0.00     0.345 HD
ATOM      4  H   UNL     1     172.710 174.089 209.884  1.00  0.00     0.345 HD
ATOM      5  H   UNL     1     173.693 173.976 208.519  1.00  0.00     0.345 HD
ENDBRANCH   1   2
BRANCH   1   6
ATOM      6  C   UNL     1     170.708 172.825 209.266  1.00  0.00     0.099 C 
ATOM      7  O   UNL     1     170.762 172.467 210.472  1.00  0.00    -0.544 OA
ATOM      8  O   UNL     1     169.498 173.258 208.738  1.00  0.00    -0.544 OA
ENDBRANCH   1   6
BRANCH   1   9
ATOM      9  C   UNL     1     172.277 171.395 207.897  1.00  0.00     0.047 C 
ATOM     10  C   UNL     1     173.443 170.710 208.630  1.00  0.00     0.014 C 
ATOM     11  C   UNL     1     172.526 171.386 206.381  1.00  0.00     0.014 C 
ENDBRANCH   1   9
TORSDOF 3
ENDMDL
MODEL 2
REMARK VINA RESULT:    -3.971      2.513      3.311
REMARK INTER + INTRA:          -4.598
REMARK INTER:                  -4.556
REMARK INTRA:                  -0.042
REMARK UNBOUND:                -0.047
REMARK SMILES CC(C)[C@H]([NH3+])C(=O)[O-]
REMARK SMILES IDX 4 1 5 2 6 6 7 7 8 8 2 9 1 10 3 11
REMARK H PARENT 5 3 5 4 5 5
REMARK Flexibility Score: inf
ROOT
ATOM      1  C   UNL     1     171.632 170.785 208.074  1.00  0.00     0.230 C 
ENDROOT
BRANCH   1   2
ATOM      2  N   UNL     1     170.536 169.993 208.652  1.00  0.00    -0.350 N 
ATOM      3  H   UNL     1     170.890 169.297 209.347  1.00  0.00     0.345 HD
ATOM      4  H   UNL     1     170.041 169.477 207.889  1.00  0.00     0.345 HD
ATOM      5  H   UNL     1     169.838 170.619 209.112  1.00  0.00     0.345 HD
ENDBRANCH   1   2
BRANCH   1   6
ATOM      6  C   UNL     1     172.825 170.801 208.998  1.00  0.00     0.099 C 
ATOM      7  O   UNL     1     172.675 171.105 210.211  1.00  0.00    -0.544 OA
ATOM      8  O   UNL     1     174.086 170.439 208.539  1.00  0.00    -0.544 OA
ENDBRANCH   1   6
BRANCH   1   9
ATOM      9  C   UNL     1     171.204 172.236 207.696  1.00  0.00     0.047 C 
ATOM     10  C   UNL     1     170.032 172.770 208.537  1.00  0.00     0.014 C 
ATOM     11  C   UNL     1     170.886 172.368 206.200  1.00  0.00     0.014 C 
ENDBRANCH   1   9
TORSDOF 3
ENDMDL
MODEL 3
REMARK VINA RESULT:    -3.949      2.163      3.029
REMARK INTER + INTRA:          -4.573
REMARK INTER:                  -4.518
REMARK INTRA:                  -0.055
REMARK UNBOUND:                -0.047
REMARK SMILES CC(C)[C@H]([NH3+])C(=O)[O-]
REMARK SMILES IDX 4 1 5 2 6 6 7 7 8 8 2 9 1 10 3 11
REMARK H PARENT 5 3 5 4 5 5
REMARK Flexibility Score: inf
ROOT
ATOM      1  C   UNL     1     172.189 172.148 207.268  1.00  0.00     0.230 C 
ENDROOT
BRANCH   1   2
ATOM      2  N   UNL     1     173.024 173.310 207.608  1.00  0.00    -0.350 N 
ATOM      3  H   UNL     1     172.894 174.089 206.924  1.00  0.00     0.345 HD
ATOM      4  H   UNL     1     174.031 173.027 207.600  1.00  0.00     0.345 HD
ATOM      5  H   UNL     1     172.801 173.650 208.570  1.00  0.00     0.345 HD
ENDBRANCH   1   2
BRANCH   1   6
ATOM      6  C   UNL     1     172.482 170.991 208.190  1.00  0.00     0.099 C 
ATOM      7  O   UNL     1     171.536 170.398 208.774  1.00  0.00    -0.544 OA
ATOM      8  O   UNL     1     173.783 170.537 208.371  1.00  0.00    -0.544 OA
ENDBRANCH   1   6
BRANCH   1   9
ATOM      9  C   UNL     1     172.325 171.716 205.775  1.00  0.00     0.047 C 
ATOM     10  C   UNL     1     172.702 172.870 204.832  1.00  0.00     0.014 C 
ATOM     11  C   UNL     1     171.061 171.007 205.267  1.00  0.00     0.014 C 
ENDBRANCH   1   9
TORSDOF 3
ENDMDL
MODEL 4
REMARK VINA RESULT:    -3.920      2.111      2.659
REMARK INTER + INTRA:          -4.540
REMARK INTER:                  -4.484
REMARK INTRA:                  -0.057
REMARK UNBOUND:                -0.047
REMARK SMILES CC(C)[C@H]([NH3+])C(=O)[O-]
REMARK SMILES IDX 4 1 5 2 6 6 7 7 8 8 2 9 1 10 3 11
REMARK H PARENT 5 3 5 4 5 5
REMARK Flexibility Score: inf
ROOT
ATOM      1  C   UNL     1     171.332 171.491 207.342  1.00  0.00     0.230 C 
ENDROOT
BRANCH   1   2
ATOM      2  N   UNL     1     170.521 170.307 207.665  1.00  0.00    -0.350 N 
ATOM      3  H   UNL     1     169.631 170.572 208.144  1.00  0.00     0.345 HD
ATOM      4  H   UNL     1     171.064 169.678 208.300  1.00  0.00     0.345 HD
ATOM      5  H   UNL     1     170.303 169.767 206.798  1.00  0.00     0.345 HD
ENDBRANCH   1   2
BRANCH   1   6
ATOM      6  C   UNL     1     171.006 172.633 208.273  1.00  0.00     0.099 C 
ATOM      7  O   UNL     1     171.927 173.199 208.919  1.00  0.00    -0.544 OA
ATOM      8  O   UNL     1     169.703 173.101 208.395  1.00  0.00    -0.544 OA
ENDBRANCH   1   6
BRANCH   1   9
ATOM      9  C   UNL     1     171.197 171.934 205.853  1.00  0.00     0.047 C 
ATOM     10  C   UNL     1     170.837 170.784 204.898  1.00  0.00     0.014 C 
ATOM     11  C   UNL     1     172.456 172.661 205.356  1.00  0.00     0.014 C 
ENDBRANCH   1   9
TORSDOF 3
ENDMDL
MODEL 5
REMARK VINA RESULT:    -3.909      1.686      2.133
REMARK INTER + INTRA:          -4.528
REMARK INTER:                  -4.478
REMARK INTRA:                  -0.049
REMARK UNBOUND:                -0.047
REMARK SMILES CC(C)[C@H]([NH3+])C(=O)[O-]
REMARK SMILES IDX 4 1 5 2 6 6 7 7 8 8 2 9 1 10 3 11
REMARK H PARENT 5 3 5 4 5 5
REMARK Flexibility Score: inf
ROOT
ATOM      1  C   UNL     1     171.424 170.963 208.808  1.00  0.00     0.230 C 
ENDROOT
BRANCH   1   2
ATOM      2  N   UNL     1     170.468 170.208 207.984  1.00  0.00    -0.350 N 
ATOM      3  H   UNL     1     170.957 169.594 207.294  1.00  0.00     0.345 HD
ATOM      4  H   UNL     1     169.859 170.877 207.458  1.00  0.00     0.345 HD
ATOM      5  H   UNL     1     169.846 169.626 208.588  1.00  0.00     0.345 HD
ENDBRANCH   1   2
BRANCH   1   6
ATOM      6  C   UNL     1     170.776 172.198 209.382  1.00  0.00     0.099 C 
ATOM      7  O   UNL     1     170.893 172.456 210.610  1.00  0.00    -0.544 OA
ATOM      8  O   UNL     1     170.086 173.085 208.564  1.00  0.00    -0.544 OA
ENDBRANCH   1   6
BRANCH   1   9
ATOM      9  C   UNL     1     172.733 171.329 208.041  1.00  0.00     0.047 C 
ATOM     10  C   UNL     1     172.592 171.253 206.512  1.00  0.00     0.014 C 
ATOM     11  C   UNL     1     173.925 170.481 208.508  1.00  0.00     0.014 C 
ENDBRANCH   1   9
TORSDOF 3
ENDMDL
MODEL 6
REMARK VINA RESULT:    -3.875      2.025      2.939
REMARK INTER + INTRA:          -4.489
REMARK INTER:                  -4.440
REMARK INTRA:                  -0.049
REMARK UNBOUND:                -0.047
REMARK SMILES CC(C)[C@H]([NH3+])C(=O)[O-]
REMARK SMILES IDX 4 1 5 2 6 6 7 7 8 8 2 9 1 10 3 11
REMARK H PARENT 5 3 5 4 5 5
REMARK Flexibility Score: inf
ROOT
ATOM      1  C   UNL     1     172.065 172.646 208.803  1.00  0.00     0.230 C 
ENDROOT
BRANCH   1   2
ATOM      2  N   UNL     1     173.075 173.256 207.925  1.00  0.00    -0.350 N 
ATOM      3  H   UNL     1     172.938 172.972 206.929  1.00  0.00     0.345 HD
ATOM      4  H   UNL     1     174.028 172.950 208.228  1.00  0.00     0.345 HD
ATOM      5  H   UNL     1     173.041 174.297 207.998  1.00  0.00     0.345 HD
ENDBRANCH   1   2
BRANCH   1   6
ATOM      6  C   UNL     1     172.606 171.397 209.454  1.00  0.00     0.099 C 
ATOM      7  O   UNL     1     172.405 171.191 210.680  1.00  0.00    -0.544 OA
ATOM      8  O   UNL     1     173.287 170.444 208.707  1.00  0.00    -0.544 OA
ENDBRANCH   1   6
BRANCH   1   9
ATOM      9  C   UNL     1     170.719 172.352 208.072  1.00  0.00     0.047 C 
ATOM     10  C   UNL     1     170.801 172.508 206.544  1.00  0.00     0.014 C 
ATOM     11  C   UNL     1     169.567 173.201 208.630  1.00  0.00     0.014 C 
ENDBRANCH   1   9
TORSDOF 3
ENDMDL
MODEL 7
REMARK VINA RESULT:    -3.825      2.367      2.857
REMARK INTER + INTRA:          -4.432
REMARK INTER:                  -4.569
REMARK INTRA:                   0.138
REMARK UNBOUND:                -0.047
REMARK SMILES CC(C)[C@H]([NH3+])C(=O)[O-]
REMARK SMILES IDX 4 1 5 2 6 6 7 7 8 8 2 9 1 10 3 11
REMARK H PARENT 5 3 5 4 5 5
REMARK Flexibility Score: inf
ROOT
ATOM      1  C   UNL     1     172.260 172.084 209.643  1.00  0.00     0.230 C 
ENDROOT
BRANCH   1   2
ATOM      2  N   UNL     1     172.573 172.713 210.935  1.00  0.00    -0.350 N 
ATOM      3  H   UNL     1     173.417 172.282 211.377  1.00  0.00     0.345 HD
ATOM      4  H   UNL     1     171.762 172.594 211.584  1.00  0.00     0.345 HD
ATOM      5  H   UNL     1     172.731 173.738 210.813  1.00  0.00     0.345 HD
ENDBRANCH   1   2
BRANCH   1   6
ATOM      6  C   UNL     1     172.792 172.915 208.501  1.00  0.00     0.099 C 
ATOM      7  O   UNL     1     173.387 174.000 208.738  1.00  0.00    -0.544 OA
ATOM      8  O   UNL     1     172.675 172.476 207.187  1.00  0.00    -0.544 OA
ENDBRANCH   1   6
BRANCH   1   9
ATOM      9  C   UNL     1     170.738 171.797 209.458  1.00  0.00     0.047 C 
ATOM     10  C   UNL     1     170.446 170.518 208.656  1.00  0.00     0.014 C 
ATOM     11  C   UNL     1     170.002 172.993 208.835  1.00  0.00     0.014 C 
ENDBRANCH   1   9
TORSDOF 3
ENDMDL
MODEL 8
REMARK VINA RESULT:    -3.797      1.972      2.396
REMARK INTER + INTRA:          -4.400
REMARK INTER:                  -4.524
REMARK INTRA:                   0.124
REMARK UNBOUND:                -0.047
REMARK SMILES CC(C)[C@H]([NH3+])C(=O)[O-]
REMARK SMILES IDX 4 1 5 2 6 6 7 7 8 8 2 9 1 10 3 11
REMARK H PARENT 5 3 5 4 5 5
REMARK Flexibility Score: inf
ROOT
ATOM      1  C   UNL     1     171.197 171.502 207.607  1.00  0.00     0.230 C 
ENDROOT
BRANCH   1   2
ATOM      2  N   UNL     1     170.395 172.706 207.336  1.00  0.00    -0.350 N 
ATOM      3  H   UNL     1     170.867 173.334 206.647  1.00  0.00     0.345 HD
ATOM      4  H   UNL     1     170.255 173.237 208.226  1.00  0.00     0.345 HD
ATOM      5  H   UNL     1     169.451 172.441 206.976  1.00  0.00     0.345 HD
ENDBRANCH   1   2
BRANCH   1   6
ATOM      6  C   UNL     1     170.651 170.754 208.798  1.00  0.00     0.099 C 
ATOM      7  O   UNL     1     170.151 169.608 208.645  1.00  0.00    -0.544 OA
ATOM      8  O   UNL     1     170.734 171.294 210.076  1.00  0.00    -0.544 OA
ENDBRANCH   1   6
BRANCH   1   9
ATOM      9  C   UNL     1     172.714 171.810 207.793  1.00  0.00     0.047 C 
ATOM     10  C   UNL     1     173.494 170.675 208.478  1.00  0.00     0.014 C 
ATOM     11  C   UNL     1     172.943 173.135 208.536  1.00  0.00     0.014 C 
ENDBRANCH   1   9
TORSDOF 3
ENDMDL
MODEL 9
REMARK VINA RESULT:    -3.633      3.141      3.587
REMARK INTER + INTRA:          -4.211
REMARK INTER:                  -4.150
REMARK INTRA:                  -0.061
REMARK UNBOUND:                -0.047
REMARK SMILES CC(C)[C@H]([NH3+])C(=O)[O-]
REMARK SMILES IDX 4 1 5 2 6 6 7 7 8 8 2 9 1 10 3 11
REMARK H PARENT 5 3 5 4 5 5
REMARK Flexibility Score: inf
ROOT
ATOM      1  C   UNL     1     171.640 172.205 207.117  1.00  0.00     0.230 C 
ENDROOT
BRANCH   1   2
ATOM      2  N   UNL     1     170.274 172.747 207.065  1.00  0.00    -0.350 N 
ATOM      3  H   UNL     1     169.843 172.611 206.123  1.00  0.00     0.345 HD
ATOM      4  H   UNL     1     170.300 173.772 207.273  1.00  0.00     0.345 HD
ATOM      5  H   UNL     1     169.674 172.294 207.791  1.00  0.00     0.345 HD
ENDBRANCH   1   2
BRANCH   1   6
ATOM      6  C   UNL     1     172.198 172.028 205.726  1.00  0.00     0.099 C 
ATOM      7  O   UNL     1     172.129 170.905 205.160  1.00  0.00    -0.544 OA
ATOM      8  O   UNL     1     172.749 173.103 205.039  1.00  0.00    -0.544 OA
ENDBRANCH   1   6
BRANCH   1   9
ATOM      9  C   UNL     1     171.738 170.875 207.926  1.00  0.00     0.047 C 
ATOM     10  C   UNL     1     170.485 170.571 208.765  1.00  0.00     0.014 C 
ATOM     11  C   UNL     1     172.992 170.836 208.813  1.00  0.00     0.014 C 
ENDBRANCH   1   9
TORSDOF 3
ENDMDL
