MODEL 1
REMARK VINA RESULT:    -5.386      0.000      0.000
REMARK INTER + INTRA:          -6.457
REMARK INTER:                  -6.330
REMARK INTRA:                  -0.126
REMARK UNBOUND:                -0.126
REMARK SMILES O=C([O-])C=Cc1ccc(O)c(O)c1
REMARK SMILES IDX 6 1 13 2 7 3 11 4 8 5 9 6 5 7 4 8 2 9 1 10 3 11 12 12 10 14
REMARK H PARENT 12 13 10 15
REMARK Flexibility Score: inf
ROOT
ATOM      1  C   UNL     1      19.268  24.119  39.934  1.00  0.00    -0.022 A 
ATOM      2  C   UNL     1      20.164  23.212  40.526  1.00  0.00     0.058 A 
ATOM      3  C   UNL     1      18.860  23.901  38.603  1.00  0.00     0.012 A 
ATOM      4  C   UNL     1      20.625  22.094  39.816  1.00  0.00     0.157 A 
ATOM      5  C   UNL     1      19.321  22.787  37.896  1.00  0.00     0.051 A 
ATOM      6  C   UNL     1      20.201  21.880  38.500  1.00  0.00     0.157 A 
ENDROOT
BRANCH   1   7
ATOM      7  C   UNL     1      18.817  25.291  40.725  1.00  0.00     0.010 C 
ATOM      8  C   UNL     1      18.308  25.203  41.963  1.00  0.00     0.025 C 
BRANCH   8   9
ATOM      9  C   UNL     1      17.882  26.389  42.722  1.00  0.00     0.064 C 
ATOM     10  O   UNL     1      18.571  26.835  43.679  1.00  0.00    -0.545 OA
ATOM     11  O   UNL     1      16.700  27.032  42.378  1.00  0.00    -0.545 OA
ENDBRANCH   8   9
ENDBRANCH   1   7
BRANCH   4  12
ATOM     12  O   UNL     1      21.505  21.194  40.413  1.00  0.00    -0.504 OA
ATOM     13  H   UNL     1      21.755  20.320  39.965  1.00  0.00     0.293 HD
ENDBRANCH   4  12
BRANCH   6  14
ATOM     14  O   UNL     1      20.661  20.768  37.797  1.00  0.00    -0.504 OA
ATOM     15  H   UNL     1      21.127  19.999  38.266  1.00  0.00     0.293 HD
ENDBRANCH   6  14
TORSDOF 4
ENDMDL
MODEL 2
REMARK VINA RESULT:    -5.341      1.870      2.746
REMARK INTER + INTRA:          -6.404
REMARK INTER:                  -6.275
REMARK INTRA:                  -0.129
REMARK UNBOUND:                -0.126
REMARK SMILES O=C([O-])C=Cc1ccc(O)c(O)c1
REMARK SMILES IDX 6 1 13 2 7 3 11 4 8 5 9 6 5 7 4 8 2 9 1 10 3 11 12 12 10 14
REMARK H PARENT 12 13 10 15
REMARK Flexibility Score: inf
ROOT
ATOM      1  C   UNL     1      20.017  23.836  39.800  1.00  0.00    -0.022 A 
ATOM      2  C   UNL     1      19.426  23.786  38.526  1.00  0.00     0.058 A 
ATOM      3  C   UNL     1      20.654  22.684  40.301  1.00  0.00     0.012 A 
ATOM      4  C   UNL     1      19.491  22.618  37.752  1.00  0.00     0.157 A 
ATOM      5  C   UNL     1      20.716  21.519  39.530  1.00  0.00     0.051 A 
ATOM      6  C   UNL     1      20.139  21.484  38.254  1.00  0.00     0.157 A 
ENDROOT
BRANCH   1   7
ATOM      7  C   UNL     1      19.912  25.094  40.582  1.00  0.00     0.010 C 
ATOM      8  C   UNL     1      20.953  25.899  40.841  1.00  0.00     0.025 C 
BRANCH   8   9
ATOM      9  C   UNL     1      20.809  27.146  41.610  1.00  0.00     0.064 C 
ATOM     10  O   UNL     1      21.261  28.239  41.174  1.00  0.00    -0.545 OA
ATOM     11  O   UNL     1      20.162  27.119  42.838  1.00  0.00    -0.545 OA
ENDBRANCH   8   9
ENDBRANCH   1   7
BRANCH   4  12
ATOM     12  O   UNL     1      18.913  22.579  36.486  1.00  0.00    -0.504 OA
ATOM     13  H   UNL     1      17.967  22.244  36.344  1.00  0.00     0.293 HD
ENDBRANCH   4  12
BRANCH   6  14
ATOM     14  O   UNL     1      20.202  20.325  37.483  1.00  0.00    -0.504 OA
ATOM     15  H   UNL     1      19.758  19.464  37.782  1.00  0.00     0.293 HD
ENDBRANCH   6  14
TORSDOF 4
ENDMDL
MODEL 3
REMARK VINA RESULT:    -5.242      2.046      5.917
REMARK INTER + INTRA:          -6.287
REMARK INTER:                  -6.158
REMARK INTRA:                  -0.130
REMARK UNBOUND:                -0.126
REMARK SMILES O=C([O-])C=Cc1ccc(O)c(O)c1
REMARK SMILES IDX 6 1 13 2 7 3 11 4 8 5 9 6 5 7 4 8 2 9 1 10 3 11 12 12 10 14
REMARK H PARENT 12 13 10 15
REMARK Flexibility Score: inf
ROOT
ATOM      1  C   UNL     1      19.840  25.446  40.617  1.00  0.00    -0.022 A 
ATOM      2  C   UNL     1      20.947  26.303  40.731  1.00  0.00     0.058 A 
ATOM      3  C   UNL     1      18.873  25.444  41.641  1.00  0.00     0.012 A 
ATOM      4  C   UNL     1      21.078  27.162  41.832  1.00  0.00     0.157 A 
ATOM      5  C   UNL     1      19.004  26.299  42.740  1.00  0.00     0.051 A 
ATOM      6  C   UNL     1      20.104  27.161  42.837  1.00  0.00     0.157 A 
ENDROOT
BRANCH   1   7
ATOM      7  C   UNL     1      19.753  24.551  39.436  1.00  0.00     0.010 C 
ATOM      8  C   UNL     1      19.920  23.221  39.495  1.00  0.00     0.025 C 
BRANCH   8   9
ATOM      9  C   UNL     1      19.816  22.364  38.303  1.00  0.00     0.064 C 
ATOM     10  O   UNL     1      19.267  22.777  37.247  1.00  0.00    -0.545 OA
ATOM     11  O   UNL     1      20.335  21.076  38.341  1.00  0.00    -0.545 OA
ENDBRANCH   8   9
ENDBRANCH   1   7
BRANCH   4  12
ATOM     12  O   UNL     1      22.173  28.016  41.934  1.00  0.00    -0.504 OA
ATOM     13  H   UNL     1      22.481  28.581  41.150  1.00  0.00     0.293 HD
ENDBRANCH   4  12
BRANCH   6  14
ATOM     14  O   UNL     1      20.236  28.016  43.930  1.00  0.00    -0.504 OA
ATOM     15  H   UNL     1      21.132  28.415  44.185  1.00  0.00     0.293 HD
ENDBRANCH   6  14
TORSDOF 4
ENDMDL
MODEL 4
REMARK VINA RESULT:    -5.019      1.682      5.907
REMARK INTER + INTRA:          -6.025
REMARK INTER:                  -5.898
REMARK INTRA:                  -0.128
REMARK UNBOUND:                -0.126
REMARK SMILES O=C([O-])C=Cc1ccc(O)c(O)c1
REMARK SMILES IDX 6 1 13 2 7 3 11 4 8 5 9 6 5 7 4 8 2 9 1 10 3 11 12 12 10 14
REMARK H PARENT 12 13 10 15
REMARK Flexibility Score: inf
ROOT
ATOM      1  C   UNL     1      19.937  25.364  40.529  1.00  0.00    -0.022 A 
ATOM      2  C   UNL     1      18.935  25.348  41.514  1.00  0.00     0.058 A 
ATOM      3  C   UNL     1      21.009  26.268  40.663  1.00  0.00     0.012 A 
ATOM      4  C   UNL     1      19.011  26.199  42.626  1.00  0.00     0.157 A 
ATOM      5  C   UNL     1      21.083  27.118  41.771  1.00  0.00     0.051 A 
ATOM      6  C   UNL     1      20.087  27.084  42.756  1.00  0.00     0.157 A 
ENDROOT
BRANCH   1   7
ATOM      7  C   UNL     1      19.805  24.449  39.367  1.00  0.00     0.010 C 
ATOM      8  C   UNL     1      20.016  23.126  39.433  1.00  0.00     0.025 C 
BRANCH   8   9
ATOM      9  C   UNL     1      19.865  22.248  38.262  1.00  0.00     0.064 C 
ATOM     10  O   UNL     1      19.314  22.658  37.205  1.00  0.00    -0.545 OA
ATOM     11  O   UNL     1      20.340  20.944  38.320  1.00  0.00    -0.545 OA
ENDBRANCH   8   9
ENDBRANCH   1   7
BRANCH   4  12
ATOM     12  O   UNL     1      18.019  26.171  43.604  1.00  0.00    -0.504 OA
ATOM     13  H   UNL     1      17.932  25.394  44.250  1.00  0.00     0.293 HD
ENDBRANCH   4  12
BRANCH   6  14
ATOM     14  O   UNL     1      20.160  27.928  43.862  1.00  0.00    -0.504 OA
ATOM     15  H   UNL     1      19.632  27.742  44.707  1.00  0.00     0.293 HD
ENDBRANCH   6  14
TORSDOF 4
ENDMDL
MODEL 5
REMARK VINA RESULT:    -4.956      5.211      7.450
REMARK INTER + INTRA:          -5.952
REMARK INTER:                  -5.821
REMARK INTRA:                  -0.131
REMARK UNBOUND:                -0.126
REMARK SMILES O=C([O-])C=Cc1ccc(O)c(O)c1
REMARK SMILES IDX 6 1 13 2 7 3 11 4 8 5 9 6 5 7 4 8 2 9 1 10 3 11 12 12 10 14
REMARK H PARENT 12 13 10 15
REMARK Flexibility Score: inf
ROOT
ATOM      1  C   UNL     1      17.471  25.496  44.940  1.00  0.00    -0.022 A 
ATOM      2  C   UNL     1      18.622  26.124  44.434  1.00  0.00     0.058 A 
ATOM      3  C   UNL     1      16.656  26.199  45.849  1.00  0.00     0.012 A 
ATOM      4  C   UNL     1      18.943  27.438  44.805  1.00  0.00     0.157 A 
ATOM      5  C   UNL     1      16.977  27.508  46.220  1.00  0.00     0.051 A 
ATOM      6  C   UNL     1      18.118  28.131  45.698  1.00  0.00     0.157 A 
ENDROOT
BRANCH   1   7
ATOM      7  C   UNL     1      17.182  24.101  44.522  1.00  0.00     0.010 C 
ATOM      8  C   UNL     1      17.202  23.053  45.359  1.00  0.00     0.025 C 
BRANCH   8   9
ATOM      9  C   UNL     1      16.898  21.684  44.911  1.00  0.00     0.064 C 
ATOM     10  O   UNL     1      16.741  20.746  45.737  1.00  0.00    -0.545 OA
ATOM     11  O   UNL     1      16.778  21.422  43.552  1.00  0.00    -0.545 OA
ENDBRANCH   8   9
ENDBRANCH   1   7
BRANCH   4  12
ATOM     12  O   UNL     1      20.079  28.058  44.291  1.00  0.00    -0.504 OA
ATOM     13  H   UNL     1      20.495  27.763  43.415  1.00  0.00     0.293 HD
ENDBRANCH   4  12
BRANCH   6  14
ATOM     14  O   UNL     1      18.439  29.437  46.064  1.00  0.00    -0.504 OA
ATOM     15  H   UNL     1      18.889  30.074  45.417  1.00  0.00     0.293 HD
ENDBRANCH   6  14
TORSDOF 4
ENDMDL
MODEL 6
REMARK VINA RESULT:    -4.870      2.323      6.693
REMARK INTER + INTRA:          -5.850
REMARK INTER:                  -5.719
REMARK INTRA:                  -0.131
REMARK UNBOUND:                -0.126
REMARK SMILES O=C([O-])C=Cc1ccc(O)c(O)c1
REMARK SMILES IDX 6 1 13 2 7 3 11 4 8 5 9 6 5 7 4 8 2 9 1 10 3 11 12 12 10 14
REMARK H PARENT 12 13 10 15
REMARK Flexibility Score: inf
ROOT
ATOM      1  C   UNL     1      18.382  25.877  43.080  1.00  0.00    -0.022 A 
ATOM      2  C   UNL     1      19.360  26.772  43.546  1.00  0.00     0.058 A 
ATOM      3  C   UNL     1      17.148  25.805  43.756  1.00  0.00     0.012 A 
ATOM      4  C   UNL     1      19.106  27.600  44.649  1.00  0.00     0.157 A 
ATOM      5  C   UNL     1      16.896  26.629  44.857  1.00  0.00     0.051 A 
ATOM      6  C   UNL     1      17.871  27.530  45.304  1.00  0.00     0.157 A 
ENDROOT
BRANCH   1   7
ATOM      7  C   UNL     1      18.704  25.017  41.914  1.00  0.00     0.010 C 
ATOM      8  C   UNL     1      19.711  25.263  41.062  1.00  0.00     0.025 C 
BRANCH   8   9
ATOM      9  C   UNL     1      20.008  24.381  39.922  1.00  0.00     0.064 C 
ATOM     10  O   UNL     1      19.731  24.723  38.742  1.00  0.00    -0.545 OA
ATOM     11  O   UNL     1      20.608  23.149  40.151  1.00  0.00    -0.545 OA
ENDBRANCH   8   9
ENDBRANCH   1   7
BRANCH   4  12
ATOM     12  O   UNL     1      20.076  28.493  45.099  1.00  0.00    -0.504 OA
ATOM     13  H   UNL     1      20.417  29.246  44.513  1.00  0.00     0.293 HD
ENDBRANCH   4  12
BRANCH   6  14
ATOM     14  O   UNL     1      17.621  28.354  46.400  1.00  0.00    -0.504 OA
ATOM     15  H   UNL     1      18.226  28.353  47.213  1.00  0.00     0.293 HD
ENDBRANCH   6  14
TORSDOF 4
ENDMDL
MODEL 7
REMARK VINA RESULT:    -4.821      6.154      8.249
REMARK INTER + INTRA:          -5.793
REMARK INTER:                  -5.658
REMARK INTRA:                  -0.135
REMARK UNBOUND:                -0.126
REMARK SMILES O=C([O-])C=Cc1ccc(O)c(O)c1
REMARK SMILES IDX 6 1 13 2 7 3 11 4 8 5 9 6 5 7 4 8 2 9 1 10 3 11 12 12 10 14
REMARK H PARENT 12 13 10 15
REMARK Flexibility Score: inf
ROOT
ATOM      1  C   UNL     1      16.736  26.620  46.409  1.00  0.00    -0.022 A 
ATOM      2  C   UNL     1      17.096  27.977  46.464  1.00  0.00     0.058 A 
ATOM      3  C   UNL     1      17.511  25.742  45.627  1.00  0.00     0.012 A 
ATOM      4  C   UNL     1      18.222  28.448  45.775  1.00  0.00     0.157 A 
ATOM      5  C   UNL     1      18.633  26.212  44.938  1.00  0.00     0.051 A 
ATOM      6  C   UNL     1      18.993  27.564  45.012  1.00  0.00     0.157 A 
ENDROOT
BRANCH   1   7
ATOM      7  C   UNL     1      15.529  26.174  47.151  1.00  0.00     0.010 C 
ATOM      8  C   UNL     1      14.879  26.936  48.043  1.00  0.00     0.025 C 
BRANCH   8   9
ATOM      9  C   UNL     1      13.679  26.464  48.751  1.00  0.00     0.064 C 
ATOM     10  O   UNL     1      13.115  25.383  48.432  1.00  0.00    -0.545 OA
ATOM     11  O   UNL     1      13.158  27.222  49.792  1.00  0.00    -0.545 OA
ENDBRANCH   8   9
ENDBRANCH   1   7
BRANCH   4  12
ATOM     12  O   UNL     1      18.579  29.793  45.843  1.00  0.00    -0.504 OA
ATOM     13  H   UNL     1      17.907  30.508  46.095  1.00  0.00     0.293 HD
ENDBRANCH   4  12
BRANCH   6  14
ATOM     14  O   UNL     1      20.112  28.034  44.328  1.00  0.00    -0.504 OA
ATOM     15  H   UNL     1      21.041  27.980  44.730  1.00  0.00     0.293 HD
ENDBRANCH   6  14
TORSDOF 4
ENDMDL
MODEL 8
REMARK VINA RESULT:    -4.766      3.066      4.227
REMARK INTER + INTRA:          -5.728
REMARK INTER:                  -5.594
REMARK INTRA:                  -0.134
REMARK UNBOUND:                -0.126
REMARK SMILES O=C([O-])C=Cc1ccc(O)c(O)c1
REMARK SMILES IDX 6 1 13 2 7 3 11 4 8 5 9 6 5 7 4 8 2 9 1 10 3 11 12 12 10 14
REMARK H PARENT 12 13 10 15
REMARK Flexibility Score: inf
ROOT
ATOM      1  C   UNL     1      19.338  24.025  38.029  1.00  0.00    -0.022 A 
ATOM      2  C   UNL     1      19.635  22.744  37.535  1.00  0.00     0.058 A 
ATOM      3  C   UNL     1      19.694  24.342  39.355  1.00  0.00     0.012 A 
ATOM      4  C   UNL     1      20.296  21.802  38.336  1.00  0.00     0.157 A 
ATOM      5  C   UNL     1      20.352  23.402  40.154  1.00  0.00     0.051 A 
ATOM      6  C   UNL     1      20.657  22.133  39.647  1.00  0.00     0.157 A 
ENDROOT
BRANCH   1   7
ATOM      7  C   UNL     1      18.629  24.982  37.142  1.00  0.00     0.010 C 
ATOM      8  C   UNL     1      18.811  26.310  37.182  1.00  0.00     0.025 C 
BRANCH   8   9
ATOM      9  C   UNL     1      18.098  27.227  36.278  1.00  0.00     0.064 C 
ATOM     10  O   UNL     1      16.845  27.174  36.149  1.00  0.00    -0.545 OA
ATOM     11  O   UNL     1      18.817  28.172  35.557  1.00  0.00    -0.545 OA
ENDBRANCH   8   9
ENDBRANCH   1   7
BRANCH   4  12
ATOM     12  O   UNL     1      20.596  20.537  37.836  1.00  0.00    -0.504 OA
ATOM     13  H   UNL     1      20.362  19.695  38.348  1.00  0.00     0.293 HD
ENDBRANCH   4  12
BRANCH   6  14
ATOM     14  O   UNL     1      21.314  21.195  40.441  1.00  0.00    -0.504 OA
ATOM     15  H   UNL     1      21.687  20.338  40.050  1.00  0.00     0.293 HD
ENDBRANCH   6  14
TORSDOF 4
ENDMDL
MODEL 9
REMARK VINA RESULT:    -4.584      4.885      6.788
REMARK INTER + INTRA:          -5.514
REMARK INTER:                  -5.385
REMARK INTRA:                  -0.129
REMARK UNBOUND:                -0.126
REMARK SMILES O=C([O-])C=Cc1ccc(O)c(O)c1
REMARK SMILES IDX 6 1 13 2 7 3 11 4 8 5 9 6 5 7 4 8 2 9 1 10 3 11 12 12 10 14
REMARK H PARENT 12 13 10 15
REMARK Flexibility Score: inf
ROOT
ATOM      1  C   UNL     1      16.990  26.146  45.349  1.00  0.00    -0.022 A 
ATOM      2  C   UNL     1      18.236  26.793  45.381  1.00  0.00     0.058 A 
ATOM      3  C   UNL     1      16.425  25.818  44.101  1.00  0.00     0.012 A 
ATOM      4  C   UNL     1      18.922  27.087  44.193  1.00  0.00     0.157 A 
ATOM      5  C   UNL     1      17.108  26.113  42.917  1.00  0.00     0.051 A 
ATOM      6  C   UNL     1      18.357  26.745  42.960  1.00  0.00     0.157 A 
ENDROOT
BRANCH   1   7
ATOM      7  C   UNL     1      16.302  25.865  46.635  1.00  0.00     0.010 C 
ATOM      8  C   UNL     1      16.074  26.793  47.576  1.00  0.00     0.025 C 
BRANCH   8   9
ATOM      9  C   UNL     1      15.379  26.480  48.834  1.00  0.00     0.064 C 
ATOM     10  O   UNL     1      14.494  25.583  48.887  1.00  0.00    -0.545 OA
ATOM     11  O   UNL     1      15.704  27.183  49.987  1.00  0.00    -0.545 OA
ENDBRANCH   8   9
ENDBRANCH   1   7
BRANCH   4  12
ATOM     12  O   UNL     1      20.162  27.720  44.233  1.00  0.00    -0.504 OA
ATOM     13  H   UNL     1      20.901  27.401  44.849  1.00  0.00     0.293 HD
ENDBRANCH   4  12
BRANCH   6  14
ATOM     14  O   UNL     1      19.040  27.038  41.781  1.00  0.00    -0.504 OA
ATOM     15  H   UNL     1      19.843  27.657  41.773  1.00  0.00     0.293 HD
ENDBRANCH   6  14
TORSDOF 4
ENDMDL
