MODEL 1
REMARK VINA RESULT:    -3.817      0.000      0.000
REMARK INTER + INTRA:          -6.089
REMARK INTER:                  -5.379
REMARK INTRA:                  -0.710
REMARK UNBOUND:                -0.710
REMARK SMILES CCCCCCCCC(=O)[O-]
REMARK SMILES IDX 6 1 7 2 8 3 9 4 10 5 11 6 5 7 4 8 3 9 2 10 1 11
REMARK H PARENT
REMARK Flexibility Score: inf
ROOT
ATOM      1  C   UNL     1      74.669  81.266  77.026  1.00  0.00     0.000 C 
ENDROOT
BRANCH   1   2
ATOM      2  C   UNL     1      75.104  82.053  75.777  1.00  0.00     0.006 C 
BRANCH   2   3
ATOM      3  C   UNL     1      75.537  83.500  76.059  1.00  0.00     0.053 C 
BRANCH   3   4
ATOM      4  C   UNL     1      76.549  83.989  75.069  1.00  0.00     0.041 C 
ATOM      5  O   UNL     1      76.685  85.224  74.859  1.00  0.00    -0.550 OA
ATOM      6  O   UNL     1      77.318  83.080  74.353  1.00  0.00    -0.550 OA
ENDBRANCH   3   4
ENDBRANCH   2   3
ENDBRANCH   1   2
BRANCH   1   7
ATOM      7  C   UNL     1      75.227  81.857  78.329  1.00  0.00     0.000 C 
BRANCH   7   8
ATOM      8  C   UNL     1      75.804  80.755  79.228  1.00  0.00    -0.000 C 
BRANCH   8   9
ATOM      9  C   UNL     1      77.285  80.465  78.935  1.00  0.00    -0.000 C 
BRANCH   9  10
ATOM     10  C   UNL     1      78.063  81.723  78.522  1.00  0.00    -0.003 C 
ATOM     11  C   UNL     1      78.970  81.439  77.328  1.00  0.00     0.004 C 
ENDBRANCH   9  10
ENDBRANCH   8   9
ENDBRANCH   7   8
ENDBRANCH   1   7
TORSDOF 7
ENDMDL
MODEL 2
REMARK VINA RESULT:    -3.697      1.332      2.472
REMARK INTER + INTRA:          -5.920
REMARK INTER:                  -5.523
REMARK INTRA:                  -0.397
REMARK UNBOUND:                -0.710
REMARK SMILES CCCCCCCCC(=O)[O-]
REMARK SMILES IDX 6 1 7 2 8 3 9 4 10 5 11 6 5 7 4 8 3 9 2 10 1 11
REMARK H PARENT
REMARK Flexibility Score: inf
ROOT
ATOM      1  C   UNL     1      76.976  81.874  77.363  1.00  0.00     0.000 C 
ENDROOT
BRANCH   1   2
ATOM      2  C   UNL     1      76.368  81.814  75.950  1.00  0.00     0.006 C 
BRANCH   2   3
ATOM      3  C   UNL     1      75.785  83.146  75.454  1.00  0.00     0.053 C 
BRANCH   3   4
ATOM      4  C   UNL     1      76.836  84.034  74.862  1.00  0.00     0.041 C 
ATOM      5  O   UNL     1      76.681  85.285  74.863  1.00  0.00    -0.550 OA
ATOM      6  O   UNL     1      77.969  83.481  74.280  1.00  0.00    -0.550 OA
ENDBRANCH   3   4
ENDBRANCH   2   3
ENDBRANCH   1   2
BRANCH   1   7
ATOM      7  C   UNL     1      75.912  81.946  78.468  1.00  0.00     0.000 C 
BRANCH   7   8
ATOM      8  C   UNL     1      74.809  80.903  78.235  1.00  0.00    -0.000 C 
BRANCH   8   9
ATOM      9  C   UNL     1      74.998  79.637  79.087  1.00  0.00    -0.000 C 
BRANCH   9  10
ATOM     10  C   UNL     1      75.758  79.912  80.392  1.00  0.00    -0.003 C 
ATOM     11  C   UNL     1      75.113  79.181  81.567  1.00  0.00     0.004 C 
ENDBRANCH   9  10
ENDBRANCH   8   9
ENDBRANCH   7   8
ENDBRANCH   1   7
TORSDOF 7
ENDMDL
MODEL 3
REMARK VINA RESULT:    -3.609      2.419      4.473
REMARK INTER + INTRA:          -5.795
REMARK INTER:                  -5.315
REMARK INTRA:                  -0.481
REMARK UNBOUND:                -0.710
REMARK SMILES CCCCCCCCC(=O)[O-]
REMARK SMILES IDX 6 1 7 2 8 3 9 4 10 5 11 6 5 7 4 8 3 9 2 10 1 11
REMARK H PARENT
REMARK Flexibility Score: inf
ROOT
ATOM      1  C   UNL     1      74.247  81.192  76.033  1.00  0.00     0.000 C 
ENDROOT
BRANCH   1   2
ATOM      2  C   UNL     1      74.906  82.240  75.118  1.00  0.00     0.006 C 
BRANCH   2   3
ATOM      3  C   UNL     1      75.796  83.252  75.854  1.00  0.00     0.053 C 
BRANCH   3   4
ATOM      4  C   UNL     1      76.750  83.942  74.927  1.00  0.00     0.041 C 
ATOM      5  O   UNL     1      77.588  83.272  74.268  1.00  0.00    -0.550 OA
ATOM      6  O   UNL     1      76.735  85.326  74.817  1.00  0.00    -0.550 OA
ENDBRANCH   3   4
ENDBRANCH   2   3
ENDBRANCH   1   2
BRANCH   1   7
ATOM      7  C   UNL     1      73.558  81.816  77.256  1.00  0.00     0.000 C 
BRANCH   7   8
ATOM      8  C   UNL     1      72.434  82.769  76.825  1.00  0.00    -0.000 C 
BRANCH   8   9
ATOM      9  C   UNL     1      71.044  82.115  76.888  1.00  0.00    -0.000 C 
BRANCH   9  10
ATOM     10  C   UNL     1      70.515  81.715  75.503  1.00  0.00    -0.003 C 
ATOM     11  C   UNL     1      71.177  82.541  74.404  1.00  0.00     0.004 C 
ENDBRANCH   9  10
ENDBRANCH   8   9
ENDBRANCH   7   8
ENDBRANCH   1   7
TORSDOF 7
ENDMDL
MODEL 4
REMARK VINA RESULT:    -3.602      1.684      3.438
REMARK INTER + INTRA:          -5.787
REMARK INTER:                  -5.137
REMARK INTRA:                  -0.650
REMARK UNBOUND:                -0.710
REMARK SMILES CCCCCCCCC(=O)[O-]
REMARK SMILES IDX 6 1 7 2 8 3 9 4 10 5 11 6 5 7 4 8 3 9 2 10 1 11
REMARK H PARENT
REMARK Flexibility Score: inf
ROOT
ATOM      1  C   UNL     1      75.925  82.530  77.493  1.00  0.00     0.000 C 
ENDROOT
BRANCH   1   2
ATOM      2  C   UNL     1      76.626  82.013  76.223  1.00  0.00     0.006 C 
BRANCH   2   3
ATOM      3  C   UNL     1      76.320  82.825  74.956  1.00  0.00     0.053 C 
BRANCH   3   4
ATOM      4  C   UNL     1      77.178  84.049  74.850  1.00  0.00     0.041 C 
ATOM      5  O   UNL     1      76.653  85.194  74.875  1.00  0.00    -0.550 OA
ATOM      6  O   UNL     1      78.551  83.924  74.689  1.00  0.00    -0.550 OA
ENDBRANCH   3   4
ENDBRANCH   2   3
ENDBRANCH   1   2
BRANCH   1   7
ATOM      7  C   UNL     1      74.990  81.488  78.124  1.00  0.00     0.000 C 
BRANCH   7   8
ATOM      8  C   UNL     1      73.900  81.056  77.133  1.00  0.00    -0.000 C 
BRANCH   8   9
ATOM      9  C   UNL     1      72.760  82.082  77.021  1.00  0.00    -0.000 C 
BRANCH   9  10
ATOM     10  C   UNL     1      72.773  82.836  75.683  1.00  0.00    -0.003 C 
ATOM     11  C   UNL     1      72.765  81.866  74.505  1.00  0.00     0.004 C 
ENDBRANCH   9  10
ENDBRANCH   8   9
ENDBRANCH   7   8
ENDBRANCH   1   7
TORSDOF 7
ENDMDL
MODEL 5
REMARK VINA RESULT:    -3.600      1.021      1.552
REMARK INTER + INTRA:          -5.783
REMARK INTER:                  -5.154
REMARK INTRA:                  -0.629
REMARK UNBOUND:                -0.710
REMARK SMILES CCCCCCCCC(=O)[O-]
REMARK SMILES IDX 6 1 7 2 8 3 9 4 10 5 11 6 5 7 4 8 3 9 2 10 1 11
REMARK H PARENT
REMARK Flexibility Score: inf
ROOT
ATOM      1  C   UNL     1      74.819  81.054  76.089  1.00  0.00     0.000 C 
ENDROOT
BRANCH   1   2
ATOM      2  C   UNL     1      75.140  81.880  74.830  1.00  0.00     0.006 C 
BRANCH   2   3
ATOM      3  C   UNL     1      75.149  83.400  75.055  1.00  0.00     0.053 C 
BRANCH   3   4
ATOM      4  C   UNL     1      76.531  83.973  74.974  1.00  0.00     0.041 C 
ATOM      5  O   UNL     1      76.694  85.217  74.866  1.00  0.00    -0.550 OA
ATOM      6  O   UNL     1      77.635  83.131  74.984  1.00  0.00    -0.550 OA
ENDBRANCH   3   4
ENDBRANCH   2   3
ENDBRANCH   1   2
BRANCH   1   7
ATOM      7  C   UNL     1      74.228  81.902  77.224  1.00  0.00     0.000 C 
BRANCH   7   8
ATOM      8  C   UNL     1      75.093  81.804  78.489  1.00  0.00    -0.000 C 
BRANCH   8   9
ATOM      9  C   UNL     1      76.597  81.906  78.189  1.00  0.00    -0.000 C 
BRANCH   9  10
ATOM     10  C   UNL     1      77.400  80.741  78.787  1.00  0.00    -0.003 C 
ATOM     11  C   UNL     1      76.518  79.863  79.670  1.00  0.00     0.004 C 
ENDBRANCH   9  10
ENDBRANCH   8   9
ENDBRANCH   7   8
ENDBRANCH   1   7
TORSDOF 7
ENDMDL
MODEL 6
REMARK VINA RESULT:    -3.520      1.355      2.705
REMARK INTER + INTRA:          -5.671
REMARK INTER:                  -5.063
REMARK INTRA:                  -0.608
REMARK UNBOUND:                -0.710
REMARK SMILES CCCCCCCCC(=O)[O-]
REMARK SMILES IDX 6 1 7 2 8 3 9 4 10 5 11 6 5 7 4 8 3 9 2 10 1 11
REMARK H PARENT
REMARK Flexibility Score: inf
ROOT
ATOM      1  C   UNL     1      77.960  80.813  75.978  1.00  0.00     0.000 C 
ENDROOT
BRANCH   1   2
ATOM      2  C   UNL     1      77.676  81.650  74.718  1.00  0.00     0.006 C 
BRANCH   2   3
ATOM      3  C   UNL     1      77.953  83.152  74.880  1.00  0.00     0.053 C 
BRANCH   3   4
ATOM      4  C   UNL     1      76.688  83.954  74.933  1.00  0.00     0.041 C 
ATOM      5  O   UNL     1      76.730  85.209  74.829  1.00  0.00    -0.550 OA
ATOM      6  O   UNL     1      75.469  83.320  75.131  1.00  0.00    -0.550 OA
ENDBRANCH   3   4
ENDBRANCH   2   3
ENDBRANCH   1   2
BRANCH   1   7
ATOM      7  C   UNL     1      78.607  81.631  77.105  1.00  0.00     0.000 C 
BRANCH   7   8
ATOM      8  C   UNL     1      77.837  81.454  78.422  1.00  0.00    -0.000 C 
BRANCH   8   9
ATOM      9  C   UNL     1      76.432  82.077  78.377  1.00  0.00    -0.000 C 
BRANCH   9  10
ATOM     10  C   UNL     1      75.320  81.045  78.617  1.00  0.00    -0.003 C 
ATOM     11  C   UNL     1      75.622  80.187  79.842  1.00  0.00     0.004 C 
ENDBRANCH   9  10
ENDBRANCH   8   9
ENDBRANCH   7   8
ENDBRANCH   1   7
TORSDOF 7
ENDMDL
MODEL 7
REMARK VINA RESULT:    -3.506      1.650      2.687
REMARK INTER + INTRA:          -5.651
REMARK INTER:                  -4.913
REMARK INTRA:                  -0.738
REMARK UNBOUND:                -0.710
REMARK SMILES CCCCCCCCC(=O)[O-]
REMARK SMILES IDX 6 1 7 2 8 3 9 4 10 5 11 6 5 7 4 8 3 9 2 10 1 11
REMARK H PARENT
REMARK Flexibility Score: inf
ROOT
ATOM      1  C   UNL     1      77.477  80.684  76.556  1.00  0.00     0.000 C 
ENDROOT
BRANCH   1   2
ATOM      2  C   UNL     1      76.530  81.566  75.723  1.00  0.00     0.006 C 
BRANCH   2   3
ATOM      3  C   UNL     1      76.336  82.986  76.277  1.00  0.00     0.053 C 
BRANCH   3   4
ATOM      4  C   UNL     1      75.920  83.954  75.212  1.00  0.00     0.041 C 
ATOM      5  O   UNL     1      74.840  83.782  74.587  1.00  0.00    -0.550 OA
ATOM      6  O   UNL     1      76.741  85.026  74.886  1.00  0.00    -0.550 OA
ENDBRANCH   3   4
ENDBRANCH   2   3
ENDBRANCH   1   2
BRANCH   1   7
ATOM      7  C   UNL     1      77.873  81.329  77.892  1.00  0.00     0.000 C 
BRANCH   7   8
ATOM      8  C   UNL     1      79.400  81.351  78.058  1.00  0.00    -0.000 C 
BRANCH   8   9
ATOM      9  C   UNL     1      80.145  81.161  76.727  1.00  0.00    -0.000 C 
BRANCH   9  10
ATOM     10  C   UNL     1      80.877  82.432  76.273  1.00  0.00    -0.003 C 
ATOM     11  C   UNL     1      79.982  83.294  75.387  1.00  0.00     0.004 C 
ENDBRANCH   9  10
ENDBRANCH   8   9
ENDBRANCH   7   8
ENDBRANCH   1   7
TORSDOF 7
ENDMDL
MODEL 8
REMARK VINA RESULT:    -3.438      2.814      4.673
REMARK INTER + INTRA:          -5.556
REMARK INTER:                  -4.865
REMARK INTRA:                  -0.690
REMARK UNBOUND:                -0.710
REMARK SMILES CCCCCCCCC(=O)[O-]
REMARK SMILES IDX 6 1 7 2 8 3 9 4 10 5 11 6 5 7 4 8 3 9 2 10 1 11
REMARK H PARENT
REMARK Flexibility Score: inf
ROOT
ATOM      1  C   UNL     1      74.400  81.084  74.357  1.00  0.00     0.000 C 
ENDROOT
BRANCH   1   2
ATOM      2  C   UNL     1      74.942  82.016  75.456  1.00  0.00     0.006 C 
BRANCH   2   3
ATOM      3  C   UNL     1      75.069  83.487  75.032  1.00  0.00     0.053 C 
BRANCH   3   4
ATOM      4  C   UNL     1      76.493  83.951  75.030  1.00  0.00     0.041 C 
ATOM      5  O   UNL     1      76.761  85.173  74.877  1.00  0.00    -0.550 OA
ATOM      6  O   UNL     1      77.526  83.031  75.161  1.00  0.00    -0.550 OA
ENDBRANCH   3   4
ENDBRANCH   2   3
ENDBRANCH   1   2
BRANCH   1   7
ATOM      7  C   UNL     1      72.947  80.652  74.603  1.00  0.00     0.000 C 
BRANCH   7   8
ATOM      8  C   UNL     1      71.965  81.635  73.950  1.00  0.00    -0.000 C 
BRANCH   8   9
ATOM      9  C   UNL     1      70.975  82.243  74.957  1.00  0.00    -0.000 C 
BRANCH   9  10
ATOM     10  C   UNL     1      71.173  81.703  76.381  1.00  0.00    -0.003 C 
ATOM     11  C   UNL     1      71.606  82.814  77.334  1.00  0.00     0.004 C 
ENDBRANCH   9  10
ENDBRANCH   8   9
ENDBRANCH   7   8
ENDBRANCH   1   7
TORSDOF 7
ENDMDL
MODEL 9
REMARK VINA RESULT:    -3.344      2.686      4.032
REMARK INTER + INTRA:          -5.422
REMARK INTER:                  -5.141
REMARK INTRA:                  -0.281
REMARK UNBOUND:                -0.710
REMARK SMILES CCCCCCCCC(=O)[O-]
REMARK SMILES IDX 6 1 7 2 8 3 9 4 10 5 11 6 5 7 4 8 3 9 2 10 1 11
REMARK H PARENT
REMARK Flexibility Score: inf
ROOT
ATOM      1  C   UNL     1      79.709  83.488  75.283  1.00  0.00     0.000 C 
ENDROOT
BRANCH   1   2
ATOM      2  C   UNL     1      78.472  82.883  74.595  1.00  0.00     0.006 C 
BRANCH   2   3
ATOM      3  C   UNL     1      77.191  82.928  75.441  1.00  0.00     0.053 C 
BRANCH   3   4
ATOM      4  C   UNL     1      76.266  84.022  75.005  1.00  0.00     0.041 C 
ATOM      5  O   UNL     1      76.697  85.198  74.868  1.00  0.00    -0.550 OA
ATOM      6  O   UNL     1      74.922  83.751  74.783  1.00  0.00    -0.550 OA
ENDBRANCH   3   4
ENDBRANCH   2   3
ENDBRANCH   1   2
BRANCH   1   7
ATOM      7  C   UNL     1      80.667  82.421  75.833  1.00  0.00     0.000 C 
BRANCH   7   8
ATOM      8  C   UNL     1      80.147  81.850  77.161  1.00  0.00    -0.000 C 
BRANCH   8   9
ATOM      9  C   UNL     1      81.180  80.959  77.869  1.00  0.00    -0.000 C 
BRANCH   9  10
ATOM     10  C   UNL     1      82.535  80.935  77.147  1.00  0.00    -0.003 C 
ATOM     11  C   UNL     1      83.659  81.388  78.074  1.00  0.00     0.004 C 
ENDBRANCH   9  10
ENDBRANCH   8   9
ENDBRANCH   7   8
ENDBRANCH   1   7
TORSDOF 7
ENDMDL
