MODEL 1
REMARK VINA RESULT:    -5.113      0.000      0.000
REMARK INTER + INTRA:          -5.113
REMARK INTER:                  -5.113
REMARK INTRA:                   0.000
REMARK UNBOUND:                 0.000
REMARK SMILES C[C@@H]1CCC=C2CC[C@H]3[C@@H](C3(C)C)[C@]21C
REMARK SMILES IDX 1 1 2 2 3 3 4 4 5 5 6 6 14 7 10 8 9 9 11 10 12 11 13 12 8 13
REMARK SMILES IDX 7 14 15 15
REMARK H PARENT
REMARK Flexibility Score: inf
ROOT
ATOM      1  C   UNL     1     135.523 137.815 138.585  1.00  0.00     0.008 C 
ATOM      2  C   UNL     1     135.770 139.002 137.634  1.00  0.00    -0.004 C 
ATOM      3  C   UNL     1     134.427 139.692 137.313  1.00  0.00     0.008 C 
ATOM      4  C   UNL     1     134.622 140.932 136.435  1.00  0.00     0.027 C 
ATOM      5  C   UNL     1     135.638 140.760 135.335  1.00  0.00    -0.027 C 
ATOM      6  C   UNL     1     136.577 139.791 135.335  1.00  0.00    -0.068 C 
ATOM      7  C   UNL     1     136.529 138.602 136.322  1.00  0.00    -0.005 C 
ATOM      8  C   UNL     1     138.006 138.100 136.566  1.00  0.00     0.009 C 
ATOM      9  C   UNL     1     138.848 139.427 136.686  1.00  0.00    -0.000 C 
ATOM     10  C   UNL     1     139.208 138.229 137.517  1.00  0.00    -0.028 C 
ATOM     11  C   UNL     1     138.949 138.340 139.023  1.00  0.00     0.012 C 
ATOM     12  C   UNL     1     140.503 137.508 137.114  1.00  0.00     0.012 C 
ATOM     13  C   UNL     1     139.140 139.805 135.224  1.00  0.00     0.009 C 
ATOM     14  C   UNL     1     137.806 139.922 134.425  1.00  0.00     0.031 C 
ATOM     15  C   UNL     1     135.783 137.457 135.586  1.00  0.00     0.017 C 
ENDROOT
TORSDOF 0
ENDMDL
MODEL 2
REMARK VINA RESULT:    -5.111      3.063      4.964
REMARK INTER + INTRA:          -5.111
REMARK INTER:                  -5.111
REMARK INTRA:                   0.000
REMARK UNBOUND:                 0.000
REMARK SMILES C[C@@H]1CCC=C2CC[C@H]3[C@@H](C3(C)C)[C@]21C
REMARK SMILES IDX 1 1 2 2 3 3 4 4 5 5 6 6 14 7 10 8 9 9 11 10 12 11 13 12 8 13
REMARK SMILES IDX 7 14 15 15
REMARK H PARENT
REMARK Flexibility Score: inf
ROOT
ATOM      1  C   UNL     1     135.632 136.014 138.258  1.00  0.00     0.008 C 
ATOM      2  C   UNL     1     134.231 136.057 137.619  1.00  0.00    -0.004 C 
ATOM      3  C   UNL     1     133.640 134.633 137.578  1.00  0.00     0.008 C 
ATOM      4  C   UNL     1     132.210 134.627 137.027  1.00  0.00     0.027 C 
ATOM      5  C   UNL     1     131.996 135.543 135.848  1.00  0.00    -0.027 C 
ATOM      6  C   UNL     1     132.826 136.562 135.539  1.00  0.00    -0.068 C 
ATOM      7  C   UNL     1     134.215 136.718 136.198  1.00  0.00    -0.005 C 
ATOM      8  C   UNL     1     134.592 138.251 136.202  1.00  0.00     0.009 C 
ATOM      9  C   UNL     1     133.247 138.977 136.589  1.00  0.00    -0.000 C 
ATOM     10  C   UNL     1     134.562 139.524 137.066  1.00  0.00    -0.028 C 
ATOM     11  C   UNL     1     134.847 139.404 138.567  1.00  0.00     0.012 C 
ATOM     12  C   UNL     1     135.014 140.834 136.404  1.00  0.00     0.012 C 
ATOM     13  C   UNL     1     132.498 139.090 135.251  1.00  0.00     0.009 C 
ATOM     14  C   UNL     1     132.341 137.679 134.604  1.00  0.00     0.031 C 
ATOM     15  C   UNL     1     135.226 136.011 135.254  1.00  0.00     0.017 C 
ENDROOT
TORSDOF 0
ENDMDL
MODEL 3
REMARK VINA RESULT:    -5.093      3.348      4.985
REMARK INTER + INTRA:          -5.093
REMARK INTER:                  -5.093
REMARK INTRA:                   0.000
REMARK UNBOUND:                 0.000
REMARK SMILES C[C@@H]1CCC=C2CC[C@H]3[C@@H](C3(C)C)[C@]21C
REMARK SMILES IDX 1 1 2 2 3 3 4 4 5 5 6 6 14 7 10 8 9 9 11 10 12 11 13 12 8 13
REMARK SMILES IDX 7 14 15 15
REMARK H PARENT
REMARK Flexibility Score: inf
ROOT
ATOM      1  C   UNL     1     137.079 136.659 138.376  1.00  0.00     0.008 C 
ATOM      2  C   UNL     1     138.467 136.609 137.709  1.00  0.00    -0.004 C 
ATOM      3  C   UNL     1     139.081 138.024 137.692  1.00  0.00     0.008 C 
ATOM      4  C   UNL     1     140.499 138.020 137.113  1.00  0.00     0.027 C 
ATOM      5  C   UNL     1     140.676 137.131 135.908  1.00  0.00    -0.027 C 
ATOM      6  C   UNL     1     139.824 136.133 135.590  1.00  0.00    -0.068 C 
ATOM      7  C   UNL     1     138.445 135.984 136.272  1.00  0.00    -0.005 C 
ATOM      8  C   UNL     1     138.042 134.457 136.245  1.00  0.00     0.009 C 
ATOM      9  C   UNL     1     139.381 133.700 136.588  1.00  0.00    -0.000 C 
ATOM     10  C   UNL     1     138.067 133.162 137.076  1.00  0.00    -0.028 C 
ATOM     11  C   UNL     1     137.812 133.250 138.585  1.00  0.00     0.012 C 
ATOM     12  C   UNL     1     137.580 131.877 136.391  1.00  0.00     0.012 C 
ATOM     13  C   UNL     1     140.104 133.609 135.233  1.00  0.00     0.009 C 
ATOM     14  C   UNL     1     140.271 135.032 134.619  1.00  0.00     0.031 C 
ATOM     15  C   UNL     1     137.428 136.730 135.366  1.00  0.00     0.017 C 
ENDROOT
TORSDOF 0
ENDMDL
MODEL 4
REMARK VINA RESULT:    -5.072      4.351      6.964
REMARK INTER + INTRA:          -5.072
REMARK INTER:                  -5.072
REMARK INTRA:                   0.000
REMARK UNBOUND:                 0.000
REMARK SMILES C[C@@H]1CCC=C2CC[C@H]3[C@@H](C3(C)C)[C@]21C
REMARK SMILES IDX 1 1 2 2 3 3 4 4 5 5 6 6 14 7 10 8 9 9 11 10 12 11 13 12 8 13
REMARK SMILES IDX 7 14 15 15
REMARK H PARENT
REMARK Flexibility Score: inf
ROOT
ATOM      1  C   UNL     1     136.660 135.687 138.342  1.00  0.00     0.008 C 
ATOM      2  C   UNL     1     136.621 134.285 137.704  1.00  0.00    -0.004 C 
ATOM      3  C   UNL     1     138.044 133.688 137.686  1.00  0.00     0.008 C 
ATOM      4  C   UNL     1     138.052 132.258 137.137  1.00  0.00     0.027 C 
ATOM      5  C   UNL     1     137.155 132.046 135.944  1.00  0.00    -0.027 C 
ATOM      6  C   UNL     1     136.144 132.879 135.618  1.00  0.00    -0.068 C 
ATOM      7  C   UNL     1     135.983 134.270 136.272  1.00  0.00    -0.005 C 
ATOM      8  C   UNL     1     134.451 134.653 136.251  1.00  0.00     0.009 C 
ATOM      9  C   UNL     1     133.714 133.312 136.628  1.00  0.00    -0.000 C 
ATOM     10  C   UNL     1     133.165 134.629 137.095  1.00  0.00    -0.028 C 
ATOM     11  C   UNL     1     133.262 134.916 138.597  1.00  0.00     0.012 C 
ATOM     12  C   UNL     1     131.868 135.086 136.411  1.00  0.00     0.012 C 
ATOM     13  C   UNL     1     133.620 132.561 135.290  1.00  0.00     0.009 C 
ATOM     14  C   UNL     1     135.040 132.398 134.666  1.00  0.00     0.031 C 
ATOM     15  C   UNL     1     136.709 135.276 135.339  1.00  0.00     0.017 C 
ENDROOT
TORSDOF 0
ENDMDL
MODEL 5
REMARK VINA RESULT:    -5.050      1.153      4.313
REMARK INTER + INTRA:          -5.050
REMARK INTER:                  -5.050
REMARK INTRA:                   0.000
REMARK UNBOUND:                 0.000
REMARK SMILES C[C@@H]1CCC=C2CC[C@H]3[C@@H](C3(C)C)[C@]21C
REMARK SMILES IDX 1 1 2 2 3 3 4 4 5 5 6 6 14 7 10 8 9 9 11 10 12 11 13 12 8 13
REMARK SMILES IDX 7 14 15 15
REMARK H PARENT
REMARK Flexibility Score: inf
ROOT
ATOM      1  C   UNL     1     139.323 138.539 135.789  1.00  0.00     0.008 C 
ATOM      2  C   UNL     1     138.373 139.026 136.900  1.00  0.00    -0.004 C 
ATOM      3  C   UNL     1     138.955 138.648 138.278  1.00  0.00     0.008 C 
ATOM      4  C   UNL     1     138.091 139.182 139.425  1.00  0.00     0.027 C 
ATOM      5  C   UNL     1     136.606 139.049 139.197  1.00  0.00    -0.027 C 
ATOM      6  C   UNL     1     136.056 138.864 137.978  1.00  0.00    -0.068 C 
ATOM      7  C   UNL     1     136.906 138.496 136.741  1.00  0.00    -0.005 C 
ATOM      8  C   UNL     1     136.168 139.037 135.454  1.00  0.00     0.009 C 
ATOM      9  C   UNL     1     135.641 140.459 135.882  1.00  0.00    -0.000 C 
ATOM     10  C   UNL     1     136.109 140.222 134.475  1.00  0.00    -0.028 C 
ATOM     11  C   UNL     1     137.418 140.906 134.066  1.00  0.00     0.012 C 
ATOM     12  C   UNL     1     135.008 140.196 133.405  1.00  0.00     0.012 C 
ATOM     13  C   UNL     1     134.317 140.155 136.603  1.00  0.00     0.009 C 
ATOM     14  C   UNL     1     134.562 139.147 137.768  1.00  0.00     0.031 C 
ATOM     15  C   UNL     1     136.891 136.946 136.648  1.00  0.00     0.017 C 
ENDROOT
TORSDOF 0
ENDMDL
MODEL 6
REMARK VINA RESULT:    -5.031      3.173      5.011
REMARK INTER + INTRA:          -5.031
REMARK INTER:                  -5.031
REMARK INTRA:                   0.000
REMARK UNBOUND:                 0.000
REMARK SMILES C[C@@H]1CCC=C2CC[C@H]3[C@@H](C3(C)C)[C@]21C
REMARK SMILES IDX 1 1 2 2 3 3 4 4 5 5 6 6 14 7 10 8 9 9 11 10 12 11 13 12 8 13
REMARK SMILES IDX 7 14 15 15
REMARK H PARENT
REMARK Flexibility Score: inf
ROOT
ATOM      1  C   UNL     1     138.543 133.340 135.930  1.00  0.00     0.008 C 
ATOM      2  C   UNL     1     139.013 134.329 137.014  1.00  0.00    -0.004 C 
ATOM      3  C   UNL     1     138.628 133.788 138.407  1.00  0.00     0.008 C 
ATOM      4  C   UNL     1     139.146 134.693 139.530  1.00  0.00     0.027 C 
ATOM      5  C   UNL     1     139.004 136.168 139.253  1.00  0.00    -0.027 C 
ATOM      6  C   UNL     1     138.825 136.678 138.016  1.00  0.00    -0.068 C 
ATOM      7  C   UNL     1     138.474 135.786 136.804  1.00  0.00    -0.005 C 
ATOM      8  C   UNL     1     139.020 136.487 135.498  1.00  0.00     0.009 C 
ATOM      9  C   UNL     1     140.435 137.038 135.921  1.00  0.00    -0.000 C 
ATOM     10  C   UNL     1     140.213 136.523 134.528  1.00  0.00    -0.028 C 
ATOM     11  C   UNL     1     140.911 135.207 134.167  1.00  0.00     0.012 C 
ATOM     12  C   UNL     1     140.188 137.590 133.423  1.00  0.00     0.012 C 
ATOM     13  C   UNL     1     140.114 138.382 136.597  1.00  0.00     0.009 C 
ATOM     14  C   UNL     1     139.099 138.167 137.761  1.00  0.00     0.031 C 
ATOM     15  C   UNL     1     136.925 135.787 136.697  1.00  0.00     0.017 C 
ENDROOT
TORSDOF 0
ENDMDL
MODEL 7
REMARK VINA RESULT:    -5.027      4.640      6.650
REMARK INTER + INTRA:          -5.027
REMARK INTER:                  -5.027
REMARK INTRA:                   0.000
REMARK UNBOUND:                 0.000
REMARK SMILES C[C@@H]1CCC=C2CC[C@H]3[C@@H](C3(C)C)[C@]21C
REMARK SMILES IDX 1 1 2 2 3 3 4 4 5 5 6 6 14 7 10 8 9 9 11 10 12 11 13 12 8 13
REMARK SMILES IDX 7 14 15 15
REMARK H PARENT
REMARK Flexibility Score: inf
ROOT
ATOM      1  C   UNL     1     133.331 134.037 136.022  1.00  0.00     0.008 C 
ATOM      2  C   UNL     1     134.323 133.561 137.100  1.00  0.00    -0.004 C 
ATOM      3  C   UNL     1     133.776 133.919 138.498  1.00  0.00     0.008 C 
ATOM      4  C   UNL     1     134.685 133.395 139.614  1.00  0.00     0.027 C 
ATOM      5  C   UNL     1     136.159 133.556 139.342  1.00  0.00    -0.027 C 
ATOM      6  C   UNL     1     136.669 133.759 138.109  1.00  0.00    -0.068 C 
ATOM      7  C   UNL     1     135.774 134.118 136.901  1.00  0.00    -0.005 C 
ATOM      8  C   UNL     1     136.483 133.599 135.588  1.00  0.00     0.009 C 
ATOM      9  C   UNL     1     137.048 132.184 135.991  1.00  0.00    -0.000 C 
ATOM     10  C   UNL     1     136.533 132.421 134.600  1.00  0.00    -0.028 C 
ATOM     11  C   UNL     1     135.225 131.715 134.227  1.00  0.00     0.012 C 
ATOM     12  C   UNL     1     137.601 132.474 133.497  1.00  0.00     0.012 C 
ATOM     13  C   UNL     1     138.388 132.509 136.673  1.00  0.00     0.009 C 
ATOM     14  C   UNL     1     138.160 133.505 137.852  1.00  0.00     0.031 C 
ATOM     15  C   UNL     1     135.759 135.669 136.817  1.00  0.00     0.017 C 
ENDROOT
TORSDOF 0
ENDMDL
MODEL 8
REMARK VINA RESULT:    -5.023      3.128      6.056
REMARK INTER + INTRA:          -5.023
REMARK INTER:                  -5.023
REMARK INTRA:                   0.000
REMARK UNBOUND:                 0.000
REMARK SMILES C[C@@H]1CCC=C2CC[C@H]3[C@@H](C3(C)C)[C@]21C
REMARK SMILES IDX 1 1 2 2 3 3 4 4 5 5 6 6 14 7 10 8 9 9 11 10 12 11 13 12 8 13
REMARK SMILES IDX 7 14 15 15
REMARK H PARENT
REMARK Flexibility Score: inf
ROOT
ATOM      1  C   UNL     1     134.146 139.362 136.065  1.00  0.00     0.008 C 
ATOM      2  C   UNL     1     133.634 138.371 137.129  1.00  0.00    -0.004 C 
ATOM      3  C   UNL     1     133.985 138.899 138.535  1.00  0.00     0.008 C 
ATOM      4  C   UNL     1     133.425 137.993 139.637  1.00  0.00     0.027 C 
ATOM      5  C   UNL     1     133.558 136.518 139.355  1.00  0.00    -0.027 C 
ATOM      6  C   UNL     1     133.767 136.014 138.121  1.00  0.00    -0.068 C 
ATOM      7  C   UNL     1     134.162 136.910 136.925  1.00  0.00    -0.005 C 
ATOM      8  C   UNL     1     133.645 136.223 135.600  1.00  0.00     0.009 C 
ATOM      9  C   UNL     1     132.214 135.686 135.978  1.00  0.00    -0.000 C 
ATOM     10  C   UNL     1     132.480 136.206 134.595  1.00  0.00    -0.028 C 
ATOM     11  C   UNL     1     131.808 137.532 134.223  1.00  0.00     0.012 C 
ATOM     12  C   UNL     1     132.525 135.146 133.485  1.00  0.00     0.012 C 
ATOM     13  C   UNL     1     132.499 134.334 136.654  1.00  0.00     0.009 C 
ATOM     14  C   UNL     1     133.484 134.531 137.848  1.00  0.00     0.031 C 
ATOM     15  C   UNL     1     135.713 136.892 136.862  1.00  0.00     0.017 C 
ENDROOT
TORSDOF 0
ENDMDL
MODEL 9
REMARK VINA RESULT:    -4.911      1.042      2.034
REMARK INTER + INTRA:          -4.911
REMARK INTER:                  -4.911
REMARK INTRA:                   0.000
REMARK UNBOUND:                 0.000
REMARK SMILES C[C@@H]1CCC=C2CC[C@H]3[C@@H](C3(C)C)[C@]21C
REMARK SMILES IDX 1 1 2 2 3 3 4 4 5 5 6 6 14 7 10 8 9 9 11 10 12 11 13 12 8 13
REMARK SMILES IDX 7 14 15 15
REMARK H PARENT
REMARK Flexibility Score: inf
ROOT
ATOM      1  C   UNL     1     135.274 139.302 137.318  1.00  0.00     0.008 C 
ATOM      2  C   UNL     1     136.450 139.700 136.405  1.00  0.00    -0.004 C 
ATOM      3  C   UNL     1     135.910 140.434 135.161  1.00  0.00     0.008 C 
ATOM      4  C   UNL     1     137.044 140.927 134.256  1.00  0.00     0.027 C 
ATOM      5  C   UNL     1     138.178 139.947 134.093  1.00  0.00    -0.027 C 
ATOM      6  C   UNL     1     138.401 138.920 134.941  1.00  0.00    -0.068 C 
ATOM      7  C   UNL     1     137.360 138.490 135.999  1.00  0.00    -0.005 C 
ATOM      8  C   UNL     1     138.128 137.832 137.212  1.00  0.00     0.009 C 
ATOM      9  C   UNL     1     139.391 138.754 137.411  1.00  0.00    -0.000 C 
ATOM     10  C   UNL     1     138.719 138.129 138.600  1.00  0.00    -0.028 C 
ATOM     11  C   UNL     1     137.964 139.079 139.536  1.00  0.00     0.012 C 
ATOM     12  C   UNL     1     139.503 136.999 139.286  1.00  0.00     0.012 C 
ATOM     13  C   UNL     1     140.400 138.215 136.384  1.00  0.00     0.009 C 
ATOM     14  C   UNL     1     139.772 138.232 134.957  1.00  0.00     0.031 C 
ATOM     15  C   UNL     1     136.513 137.365 135.343  1.00  0.00     0.017 C 
ENDROOT
TORSDOF 0
ENDMDL
