MODEL 1
REMARK VINA RESULT:    -4.582      0.000      0.000
REMARK INTER + INTRA:          -6.751
REMARK INTER:                  -6.457
REMARK INTRA:                  -0.294
REMARK UNBOUND:                -0.294
REMARK SMILES CCCCCCCCC(=O)[O-]
REMARK SMILES IDX 6 1 7 2 8 3 9 4 10 5 11 6 5 7 4 8 3 9 2 10 1 11
REMARK H PARENT
REMARK Flexibility Score: inf
ROOT
ATOM      1  C   UNL     1       2.691  19.433  49.875  1.00  0.00     0.000 C 
ENDROOT
BRANCH   1   2
ATOM      2  C   UNL     1       3.281  20.842  50.064  1.00  0.00     0.006 C 
BRANCH   2   3
ATOM      3  C   UNL     1       2.221  21.947  50.221  1.00  0.00     0.053 C 
BRANCH   3   4
ATOM      4  C   UNL     1       0.952  21.448  50.844  1.00  0.00     0.041 C 
ATOM      5  O   UNL     1      -0.127  21.473  50.195  1.00  0.00    -0.550 OA
ATOM      6  O   UNL     1       0.955  20.985  52.154  1.00  0.00    -0.550 OA
ENDBRANCH   3   4
ENDBRANCH   2   3
ENDBRANCH   1   2
BRANCH   1   7
ATOM      7  C   UNL     1       3.256  18.405  50.866  1.00  0.00     0.000 C 
BRANCH   7   8
ATOM      8  C   UNL     1       3.888  19.099  52.079  1.00  0.00    -0.000 C 
BRANCH   8   9
ATOM      9  C   UNL     1       4.722  18.109  52.906  1.00  0.00    -0.000 C 
BRANCH   9  10
ATOM     10  C   UNL     1       4.633  18.381  54.416  1.00  0.00    -0.003 C 
ATOM     11  C   UNL     1       5.381  17.339  55.249  1.00  0.00     0.004 C 
ENDBRANCH   9  10
ENDBRANCH   8   9
ENDBRANCH   7   8
ENDBRANCH   1   7
TORSDOF 7
ENDMDL
MODEL 2
REMARK VINA RESULT:    -4.418      2.985      5.111
REMARK INTER + INTRA:          -6.520
REMARK INTER:                  -6.112
REMARK INTRA:                  -0.408
REMARK UNBOUND:                -0.294
REMARK SMILES CCCCCCCCC(=O)[O-]
REMARK SMILES IDX 6 1 7 2 8 3 9 4 10 5 11 6 5 7 4 8 3 9 2 10 1 11
REMARK H PARENT
REMARK Flexibility Score: inf
ROOT
ATOM      1  C   UNL     1       3.291  18.366  50.897  1.00  0.00     0.000 C 
ENDROOT
BRANCH   1   2
ATOM      2  C   UNL     1       4.266  19.001  51.907  1.00  0.00     0.006 C 
BRANCH   2   3
ATOM      3  C   UNL     1       3.793  18.917  53.369  1.00  0.00     0.053 C 
BRANCH   3   4
ATOM      4  C   UNL     1       4.771  18.206  54.255  1.00  0.00     0.041 C 
ATOM      5  O   UNL     1       4.702  18.332  55.506  1.00  0.00    -0.550 OA
ATOM      6  O   UNL     1       5.779  17.431  53.698  1.00  0.00    -0.550 OA
ENDBRANCH   3   4
ENDBRANCH   2   3
ENDBRANCH   1   2
BRANCH   1   7
ATOM      7  C   UNL     1       2.743  19.372  49.875  1.00  0.00     0.000 C 
BRANCH   7   8
ATOM      8  C   UNL     1       3.244  20.791  50.176  1.00  0.00    -0.000 C 
BRANCH   8   9
ATOM      9  C   UNL     1       2.113  21.818  50.014  1.00  0.00    -0.000 C 
BRANCH   9  10
ATOM     10  C   UNL     1       0.785  21.333  50.613  1.00  0.00    -0.003 C 
ATOM     11  C   UNL     1       0.906  20.954  52.089  1.00  0.00     0.004 C 
ENDBRANCH   9  10
ENDBRANCH   8   9
ENDBRANCH   7   8
ENDBRANCH   1   7
TORSDOF 7
ENDMDL
MODEL 3
REMARK VINA RESULT:    -3.816     15.929     16.696
REMARK INTER + INTRA:          -5.672
REMARK INTER:                  -5.174
REMARK INTRA:                  -0.498
REMARK UNBOUND:                -0.294
REMARK SMILES CCCCCCCCC(=O)[O-]
REMARK SMILES IDX 6 1 7 2 8 3 9 4 10 5 11 6 5 7 4 8 3 9 2 10 1 11
REMARK H PARENT
REMARK Flexibility Score: inf
ROOT
ATOM      1  C   UNL     1       9.094   5.142  50.654  1.00  0.00     0.000 C 
ENDROOT
BRANCH   1   2
ATOM      2  C   UNL     1       9.853   6.364  51.205  1.00  0.00     0.006 C 
BRANCH   2   3
ATOM      3  C   UNL     1      11.057   6.002  52.093  1.00  0.00     0.053 C 
BRANCH   3   4
ATOM      4  C   UNL     1      11.935   4.953  51.480  1.00  0.00     0.041 C 
ATOM      5  O   UNL     1      12.659   5.231  50.487  1.00  0.00    -0.550 OA
ATOM      6  O   UNL     1      11.931   3.659  51.986  1.00  0.00    -0.550 OA
ENDBRANCH   3   4
ENDBRANCH   2   3
ENDBRANCH   1   2
BRANCH   1   7
ATOM      7  C   UNL     1       7.772   4.874  51.386  1.00  0.00     0.000 C 
BRANCH   7   8
ATOM      8  C   UNL     1       8.017   4.157  52.720  1.00  0.00    -0.000 C 
BRANCH   8   9
ATOM      9  C   UNL     1       6.752   4.170  53.591  1.00  0.00    -0.000 C 
BRANCH   9  10
ATOM     10  C   UNL     1       7.020   4.688  55.012  1.00  0.00    -0.003 C 
ATOM     11  C   UNL     1       8.385   5.365  55.147  1.00  0.00     0.004 C 
ENDBRANCH   9  10
ENDBRANCH   8   9
ENDBRANCH   7   8
ENDBRANCH   1   7
TORSDOF 7
ENDMDL
MODEL 4
REMARK VINA RESULT:    -3.721     16.041     17.459
REMARK INTER + INTRA:          -5.538
REMARK INTER:                  -4.795
REMARK INTRA:                  -0.743
REMARK UNBOUND:                -0.294
REMARK SMILES CCCCCCCCC(=O)[O-]
REMARK SMILES IDX 6 1 7 2 8 3 9 4 10 5 11 6 5 7 4 8 3 9 2 10 1 11
REMARK H PARENT
REMARK Flexibility Score: inf
ROOT
ATOM      1  C   UNL     1      10.455   6.276  51.240  1.00  0.00     0.000 C 
ENDROOT
BRANCH   1   2
ATOM      2  C   UNL     1      11.360   5.150  50.706  1.00  0.00     0.006 C 
BRANCH   2   3
ATOM      3  C   UNL     1      12.022   4.306  51.809  1.00  0.00     0.053 C 
BRANCH   3   4
ATOM      4  C   UNL     1      11.559   2.880  51.805  1.00  0.00     0.041 C 
ATOM      5  O   UNL     1      12.017   2.061  52.644  1.00  0.00    -0.550 OA
ATOM      6  O   UNL     1      10.645   2.448  50.852  1.00  0.00    -0.550 OA
ENDBRANCH   3   4
ENDBRANCH   2   3
ENDBRANCH   1   2
BRANCH   1   7
ATOM      7  C   UNL     1       9.102   6.355  50.520  1.00  0.00     0.000 C 
BRANCH   7   8
ATOM      8  C   UNL     1       8.395   4.994  50.527  1.00  0.00    -0.000 C 
BRANCH   8   9
ATOM      9  C   UNL     1       7.413   4.891  51.704  1.00  0.00    -0.000 C 
BRANCH   9  10
ATOM     10  C   UNL     1       7.977   4.067  52.872  1.00  0.00    -0.003 C 
ATOM     11  C   UNL     1       8.535   4.941  53.996  1.00  0.00     0.004 C 
ENDBRANCH   9  10
ENDBRANCH   8   9
ENDBRANCH   7   8
ENDBRANCH   1   7
TORSDOF 7
ENDMDL
MODEL 5
REMARK VINA RESULT:    -3.700     16.533     18.011
REMARK INTER + INTRA:          -5.508
REMARK INTER:                  -5.035
REMARK INTRA:                  -0.472
REMARK UNBOUND:                -0.294
REMARK SMILES CCCCCCCCC(=O)[O-]
REMARK SMILES IDX 6 1 7 2 8 3 9 4 10 5 11 6 5 7 4 8 3 9 2 10 1 11
REMARK H PARENT
REMARK Flexibility Score: inf
ROOT
ATOM      1  C   UNL     1       8.049   2.400  50.060  1.00  0.00     0.000 C 
ENDROOT
BRANCH   1   2
ATOM      2  C   UNL     1       9.384   1.936  50.673  1.00  0.00     0.006 C 
BRANCH   2   3
ATOM      3  C   UNL     1      10.549   2.915  50.444  1.00  0.00     0.053 C 
BRANCH   3   4
ATOM      4  C   UNL     1      11.424   3.068  51.651  1.00  0.00     0.041 C 
ATOM      5  O   UNL     1      11.801   4.210  52.023  1.00  0.00    -0.550 OA
ATOM      6  O   UNL     1      11.851   1.944  52.348  1.00  0.00    -0.550 OA
ENDBRANCH   3   4
ENDBRANCH   2   3
ENDBRANCH   1   2
BRANCH   1   7
ATOM      7  C   UNL     1       6.975   2.701  51.113  1.00  0.00     0.000 C 
BRANCH   7   8
ATOM      8  C   UNL     1       7.144   4.115  51.685  1.00  0.00    -0.000 C 
BRANCH   8   9
ATOM      9  C   UNL     1       7.340   4.073  53.208  1.00  0.00    -0.000 C 
BRANCH   9  10
ATOM     10  C   UNL     1       8.555   4.891  53.669  1.00  0.00    -0.003 C 
ATOM     11  C   UNL     1       8.420   5.390  55.108  1.00  0.00     0.004 C 
ENDBRANCH   9  10
ENDBRANCH   8   9
ENDBRANCH   7   8
ENDBRANCH   1   7
TORSDOF 7
ENDMDL
MODEL 6
REMARK VINA RESULT:    -3.695     14.160     15.171
REMARK INTER + INTRA:          -5.501
REMARK INTER:                  -4.901
REMARK INTRA:                  -0.600
REMARK UNBOUND:                -0.294
REMARK SMILES CCCCCCCCC(=O)[O-]
REMARK SMILES IDX 6 1 7 2 8 3 9 4 10 5 11 6 5 7 4 8 3 9 2 10 1 11
REMARK H PARENT
REMARK Flexibility Score: inf
ROOT
ATOM      1  C   UNL     1       7.831   5.443  51.112  1.00  0.00     0.000 C 
ENDROOT
BRANCH   1   2
ATOM      2  C   UNL     1       6.429   5.617  50.499  1.00  0.00     0.006 C 
BRANCH   2   3
ATOM      3  C   UNL     1       5.285   5.149  51.415  1.00  0.00     0.053 C 
BRANCH   3   4
ATOM      4  C   UNL     1       3.955   5.717  51.019  1.00  0.00     0.041 C 
ATOM      5  O   UNL     1       3.845   6.940  50.737  1.00  0.00    -0.550 OA
ATOM      6  O   UNL     1       2.831   4.902  50.993  1.00  0.00    -0.550 OA
ENDBRANCH   3   4
ENDBRANCH   2   3
ENDBRANCH   1   2
BRANCH   1   7
ATOM      7  C   UNL     1       8.186   3.977  51.398  1.00  0.00     0.000 C 
BRANCH   7   8
ATOM      8  C   UNL     1       8.543   3.775  52.876  1.00  0.00    -0.000 C 
BRANCH   8   9
ATOM      9  C   UNL     1       8.951   5.104  53.530  1.00  0.00    -0.000 C 
BRANCH   9  10
ATOM     10  C   UNL     1       8.339   5.285  54.928  1.00  0.00    -0.003 C 
ATOM     11  C   UNL     1       6.946   4.666  55.048  1.00  0.00     0.004 C 
ENDBRANCH   9  10
ENDBRANCH   8   9
ENDBRANCH   7   8
ENDBRANCH   1   7
TORSDOF 7
ENDMDL
MODEL 7
REMARK VINA RESULT:    -3.680     14.942     16.996
REMARK INTER + INTRA:          -5.479
REMARK INTER:                  -5.149
REMARK INTRA:                  -0.331
REMARK UNBOUND:                -0.294
REMARK SMILES CCCCCCCCC(=O)[O-]
REMARK SMILES IDX 6 1 7 2 8 3 9 4 10 5 11 6 5 7 4 8 3 9 2 10 1 11
REMARK H PARENT
REMARK Flexibility Score: inf
ROOT
ATOM      1  C   UNL     1       8.201   4.505  53.388  1.00  0.00     0.000 C 
ENDROOT
BRANCH   1   2
ATOM      2  C   UNL     1       9.235   4.012  52.359  1.00  0.00     0.006 C 
BRANCH   2   3
ATOM      3  C   UNL     1      10.401   4.989  52.130  1.00  0.00     0.053 C 
BRANCH   3   4
ATOM      4  C   UNL     1      11.672   4.295  51.741  1.00  0.00     0.041 C 
ATOM      5  O   UNL     1      12.537   4.894  51.049  1.00  0.00    -0.550 OA
ATOM      6  O   UNL     1      11.886   2.975  52.117  1.00  0.00    -0.550 OA
ENDBRANCH   3   4
ENDBRANCH   2   3
ENDBRANCH   1   2
BRANCH   1   7
ATOM      7  C   UNL     1       6.774   4.027  53.084  1.00  0.00     0.000 C 
BRANCH   7   8
ATOM      8  C   UNL     1       6.536   3.928  51.572  1.00  0.00    -0.000 C 
BRANCH   8   9
ATOM      9  C   UNL     1       6.024   5.261  51.007  1.00  0.00    -0.000 C 
BRANCH   9  10
ATOM     10  C   UNL     1       4.576   5.560  51.422  1.00  0.00    -0.003 C 
ATOM     11  C   UNL     1       3.984   6.760  50.681  1.00  0.00     0.004 C 
ENDBRANCH   9  10
ENDBRANCH   8   9
ENDBRANCH   7   8
ENDBRANCH   1   7
TORSDOF 7
ENDMDL
MODEL 8
REMARK VINA RESULT:    -3.502     16.106     17.230
REMARK INTER + INTRA:          -5.229
REMARK INTER:                  -4.555
REMARK INTRA:                  -0.674
REMARK UNBOUND:                -0.294
REMARK SMILES CCCCCCCCC(=O)[O-]
REMARK SMILES IDX 6 1 7 2 8 3 9 4 10 5 11 6 5 7 4 8 3 9 2 10 1 11
REMARK H PARENT
REMARK Flexibility Score: inf
ROOT
ATOM      1  C   UNL     1       8.466   2.760  50.776  1.00  0.00     0.000 C 
ENDROOT
BRANCH   1   2
ATOM      2  C   UNL     1       8.071   4.035  51.545  1.00  0.00     0.006 C 
BRANCH   2   3
ATOM      3  C   UNL     1       7.074   3.789  52.690  1.00  0.00     0.053 C 
BRANCH   3   4
ATOM      4  C   UNL     1       7.461   4.489  53.958  1.00  0.00     0.041 C 
ATOM      5  O   UNL     1       6.679   4.497  54.944  1.00  0.00    -0.550 OA
ATOM      6  O   UNL     1       8.675   5.160  54.039  1.00  0.00    -0.550 OA
ENDBRANCH   3   4
ENDBRANCH   2   3
ENDBRANCH   1   2
BRANCH   1   7
ATOM      7  C   UNL     1       9.984   2.539  50.716  1.00  0.00     0.000 C 
BRANCH   7   8
ATOM      8  C   UNL     1      10.645   2.891  52.055  1.00  0.00    -0.000 C 
BRANCH   8   9
ATOM      9  C   UNL     1      11.902   3.747  51.839  1.00  0.00    -0.000 C 
BRANCH   9  10
ATOM     10  C   UNL     1      11.641   4.959  50.931  1.00  0.00    -0.003 C 
ATOM     11  C   UNL     1      11.147   6.182  51.704  1.00  0.00     0.004 C 
ENDBRANCH   9  10
ENDBRANCH   8   9
ENDBRANCH   7   8
ENDBRANCH   1   7
TORSDOF 7
ENDMDL
