MODEL 1
REMARK VINA RESULT:    -2.877      0.000      0.000
REMARK INTER + INTRA:          -2.877
REMARK INTER:                  -2.877
REMARK INTRA:                   0.000
REMARK UNBOUND:                 0.000
REMARK SMILES CC(=O)[O-]
REMARK SMILES IDX 1 1 2 2 3 3 4 4
REMARK H PARENT
REMARK Flexibility Score: inf
ROOT
ATOM      1  C   UNL     1       2.635   7.492 -14.490  1.00  0.00     0.063 C 
ATOM      2  C   UNL     1       3.282   8.118 -15.679  1.00  0.00     0.038 C 
ATOM      3  O   UNL     1       2.749   8.017 -16.814  1.00  0.00    -0.550 OA
ATOM      4  O   UNL     1       4.501   8.769 -15.546  1.00  0.00    -0.550 OA
ENDROOT
TORSDOF 0
ENDMDL
MODEL 2
REMARK VINA RESULT:    -2.845      0.101      1.622
REMARK INTER + INTRA:          -2.845
REMARK INTER:                  -2.845
REMARK INTRA:                   0.000
REMARK UNBOUND:                 0.000
REMARK SMILES CC(=O)[O-]
REMARK SMILES IDX 1 1 2 2 3 3 4 4
REMARK H PARENT
REMARK Flexibility Score: inf
ROOT
ATOM      1  C   UNL     1       2.754   7.528 -14.408  1.00  0.00     0.063 C 
ATOM      2  C   UNL     1       3.390   8.117 -15.621  1.00  0.00     0.038 C 
ATOM      3  O   UNL     1       4.485   8.731 -15.524  1.00  0.00    -0.550 OA
ATOM      4  O   UNL     1       2.751   8.038 -16.850  1.00  0.00    -0.550 OA
ENDROOT
TORSDOF 0
ENDMDL
MODEL 3
REMARK VINA RESULT:    -2.796     18.712     19.012
REMARK INTER + INTRA:          -2.796
REMARK INTER:                  -2.796
REMARK INTRA:                   0.000
REMARK UNBOUND:                 0.000
REMARK SMILES CC(=O)[O-]
REMARK SMILES IDX 1 1 2 2 3 3 4 4
REMARK H PARENT
REMARK Flexibility Score: inf
ROOT
ATOM      1  C   UNL     1      19.492  -0.790 -17.248  1.00  0.00     0.063 C 
ATOM      2  C   UNL     1      19.140  -2.216 -16.988  1.00  0.00     0.038 C 
ATOM      3  O   UNL     1      19.248  -3.070 -17.907  1.00  0.00    -0.550 OA
ATOM      4  O   UNL     1      18.643  -2.595 -15.749  1.00  0.00    -0.550 OA
ENDROOT
TORSDOF 0
ENDMDL
MODEL 4
REMARK VINA RESULT:    -2.767     13.176     13.413
REMARK INTER + INTRA:          -2.767
REMARK INTER:                  -2.767
REMARK INTRA:                   0.000
REMARK UNBOUND:                 0.000
REMARK SMILES CC(=O)[O-]
REMARK SMILES IDX 1 1 2 2 3 3 4 4
REMARK H PARENT
REMARK Flexibility Score: inf
ROOT
ATOM      1  C   UNL     1      14.612   6.445 -20.529  1.00  0.00     0.063 C 
ATOM      2  C   UNL     1      15.514   7.465 -21.138  1.00  0.00     0.038 C 
ATOM      3  O   UNL     1      15.569   7.591 -22.389  1.00  0.00    -0.550 OA
ATOM      4  O   UNL     1      16.334   8.240 -20.330  1.00  0.00    -0.550 OA
ENDROOT
TORSDOF 0
ENDMDL
MODEL 5
REMARK VINA RESULT:    -2.712     15.391     15.781
REMARK INTER + INTRA:          -2.712
REMARK INTER:                  -2.712
REMARK INTRA:                   0.000
REMARK UNBOUND:                 0.000
REMARK SMILES CC(=O)[O-]
REMARK SMILES IDX 1 1 2 2 3 3 4 4
REMARK H PARENT
REMARK Flexibility Score: inf
ROOT
ATOM      1  C   UNL     1      18.379  12.620 -21.479  1.00  0.00     0.063 C 
ATOM      2  C   UNL     1      17.547  12.458 -20.252  1.00  0.00     0.038 C 
ATOM      3  O   UNL     1      16.742  13.364 -19.912  1.00  0.00    -0.550 OA
ATOM      4  O   UNL     1      17.696  11.333 -19.454  1.00  0.00    -0.550 OA
ENDROOT
TORSDOF 0
ENDMDL
MODEL 6
REMARK VINA RESULT:    -2.704     14.979     15.072
REMARK INTER + INTRA:          -2.704
REMARK INTER:                  -2.704
REMARK INTRA:                   0.000
REMARK UNBOUND:                 0.000
REMARK SMILES CC(=O)[O-]
REMARK SMILES IDX 1 1 2 2 3 3 4 4
REMARK H PARENT
REMARK Flexibility Score: inf
ROOT
ATOM      1  C   UNL     1      17.379   8.917 -20.524  1.00  0.00     0.063 C 
ATOM      2  C   UNL     1      17.705   9.745 -19.327  1.00  0.00     0.038 C 
ATOM      3  O   UNL     1      17.889   9.195 -18.210  1.00  0.00    -0.550 OA
ATOM      4  O   UNL     1      17.754  11.129 -19.431  1.00  0.00    -0.550 OA
ENDROOT
TORSDOF 0
ENDMDL
MODEL 7
REMARK VINA RESULT:    -2.702     14.919     14.996
REMARK INTER + INTRA:          -2.702
REMARK INTER:                  -2.702
REMARK INTRA:                   0.000
REMARK UNBOUND:                 0.000
REMARK SMILES CC(=O)[O-]
REMARK SMILES IDX 1 1 2 2 3 3 4 4
REMARK H PARENT
REMARK Flexibility Score: inf
ROOT
ATOM      1  C   UNL     1      17.195   8.803 -20.381  1.00  0.00     0.063 C 
ATOM      2  C   UNL     1      17.655   9.659 -19.250  1.00  0.00     0.038 C 
ATOM      3  O   UNL     1      17.748  10.905 -19.399  1.00  0.00    -0.550 OA
ATOM      4  O   UNL     1      18.033   9.079 -18.046  1.00  0.00    -0.550 OA
ENDROOT
TORSDOF 0
ENDMDL
MODEL 8
REMARK VINA RESULT:    -2.584      8.626      8.914
REMARK INTER + INTRA:          -2.584
REMARK INTER:                  -2.584
REMARK INTRA:                   0.000
REMARK UNBOUND:                 0.000
REMARK SMILES CC(=O)[O-]
REMARK SMILES IDX 1 1 2 2 3 3 4 4
REMARK H PARENT
REMARK Flexibility Score: inf
ROOT
ATOM      1  C   UNL     1       8.708  14.201 -20.308  1.00  0.00     0.063 C 
ATOM      2  C   UNL     1       8.723  12.769 -20.724  1.00  0.00     0.038 C 
ATOM      3  O   UNL     1       7.703  12.255 -21.252  1.00  0.00    -0.550 OA
ATOM      4  O   UNL     1       9.842  11.986 -20.482  1.00  0.00    -0.550 OA
ENDROOT
TORSDOF 0
ENDMDL
MODEL 9
REMARK VINA RESULT:    -2.568     12.091     12.636
REMARK INTER + INTRA:          -2.568
REMARK INTER:                  -2.568
REMARK INTRA:                   0.000
REMARK UNBOUND:                 0.000
REMARK SMILES CC(=O)[O-]
REMARK SMILES IDX 1 1 2 2 3 3 4 4
REMARK H PARENT
REMARK Flexibility Score: inf
ROOT
ATOM      1  C   UNL     1      15.608   7.603 -21.634  1.00  0.00     0.063 C 
ATOM      2  C   UNL     1      14.536   6.982 -20.802  1.00  0.00     0.038 C 
ATOM      3  O   UNL     1      13.470   7.611 -20.574  1.00  0.00    -0.550 OA
ATOM      4  O   UNL     1      14.734   5.731 -20.233  1.00  0.00    -0.550 OA
ENDROOT
TORSDOF 0
ENDMDL
