MODEL 1
REMARK VINA RESULT:    34.245      0.000      0.000
REMARK INTER + INTRA:          52.465
REMARK INTER:                  50.260
REMARK INTRA:                   2.205
REMARK UNBOUND:                 2.205
REMARK SMILES Cc1cc2c(C(C)C)c(O)c(O)c(C=O)c2c(O)c1-c1c(C)cc2c(C(C)C)c(O)c(O)c(C=O)c2c1O
REMARK SMILES IDX 1 1 2 2 3 3 4 4 16 5 13 6 11 7 9 8 5 9 17 10 19 11 20 12
REMARK SMILES IDX 37 13 21 14 36 15 23 16 22 17 24 18 33 19 25 20 31 21 29 22
REMARK SMILES IDX 38 23 34 25 35 26 26 27 27 28 28 29 32 30 30 32 18 34 6 36
REMARK SMILES IDX 7 37 8 38 14 39 15 40 10 41 12 43
REMARK H PARENT 38 24 32 31 30 33 18 35 10 42 12 44
REMARK Flexibility Score: inf
ROOT
ATOM      1  C   UNL     1       6.057 -35.369  19.661  1.00  0.00     0.045 C 
ATOM      2  C   UNL     1       4.803 -36.009  19.113  1.00  0.00    -0.039 A 
ATOM      3  C   UNL     1       4.526 -35.916  17.749  1.00  0.00     0.013 A 
ATOM      4  C   UNL     1       3.366 -36.477  17.175  1.00  0.00    -0.006 A 
ATOM      5  C   UNL     1       2.429 -37.131  18.036  1.00  0.00     0.039 A 
ATOM      6  C   UNL     1       1.214 -37.635  17.482  1.00  0.00     0.072 A 
ATOM      7  C   UNL     1       0.976 -37.534  16.098  1.00  0.00     0.169 A 
ATOM      8  C   UNL     1       1.929 -36.959  15.251  1.00  0.00     0.162 A 
ATOM      9  C   UNL     1       3.123 -36.404  15.765  1.00  0.00     0.008 A 
ATOM     10  C   UNL     1       2.751 -37.284  19.422  1.00  0.00     0.132 A 
ATOM     11  C   UNL     1       3.929 -36.718  19.950  1.00  0.00     0.031 A 
ENDROOT
BRANCH  11  12
ATOM     12  C   UNL     1       4.256 -36.880  21.391  1.00  0.00     0.031 A 
ATOM     13  C   UNL     1       4.655 -38.138  21.892  1.00  0.00     0.132 A 
ATOM     14  C   UNL     1       4.143 -35.780  22.257  1.00  0.00    -0.039 A 
ATOM     15  C   UNL     1       4.975 -38.299  23.277  1.00  0.00     0.039 A 
ATOM     16  C   UNL     1       4.439 -35.936  23.611  1.00  0.00     0.013 A 
ATOM     17  C   UNL     1       3.678 -34.435  21.751  1.00  0.00     0.045 C 
ATOM     18  C   UNL     1       4.907 -37.160  24.138  1.00  0.00    -0.006 A 
ATOM     19  C   UNL     1       5.320 -39.567  23.838  1.00  0.00     0.072 A 
ATOM     20  C   UNL     1       5.270 -37.276  25.515  1.00  0.00     0.008 A 
ATOM     21  C   UNL     1       5.520 -39.689  25.228  1.00  0.00     0.169 A 
ATOM     22  C   UNL     1       5.456 -38.565  26.057  1.00  0.00     0.162 A 
BRANCH  13  23
ATOM     23  O   UNL     1       4.718 -39.228  21.017  1.00  0.00    -0.507 OA
ATOM     24  H   UNL     1       4.169 -39.308  20.170  1.00  0.00     0.293 HD
ENDBRANCH  13  23
BRANCH  19  25
ATOM     25  C   UNL     1       5.461 -40.778  23.007  1.00  0.00     0.264 C 
ATOM     26  O   UNL     1       5.472 -40.694  21.749  1.00  0.00    -0.298 OA
ENDBRANCH  19  25
BRANCH  20  27
ATOM     27  C   UNL     1       5.441 -36.040  26.415  1.00  0.00     0.017 C 
ATOM     28  C   UNL     1       6.123 -34.898  25.654  1.00  0.00     0.012 C 
ATOM     29  C   UNL     1       4.133 -35.566  27.078  1.00  0.00     0.012 C 
ENDBRANCH  20  27
BRANCH  21  30
ATOM     30  O   UNL     1       5.820 -40.922  25.821  1.00  0.00    -0.504 OA
ATOM     31  H   UNL     1       5.299 -41.773  25.657  1.00  0.00     0.293 HD
ENDBRANCH  21  30
BRANCH  22  32
ATOM     32  O   UNL     1       5.583 -38.728  27.439  1.00  0.00    -0.504 OA
ATOM     33  H   UNL     1       6.304 -38.275  27.984  1.00  0.00     0.293 HD
ENDBRANCH  22  32
ENDBRANCH  11  12
BRANCH  10  34
ATOM     34  O   UNL     1       1.914 -38.021  20.267  1.00  0.00    -0.507 OA
ATOM     35  H   UNL     1       1.144 -37.624  20.791  1.00  0.00     0.293 HD
ENDBRANCH  10  34
BRANCH   9  36
ATOM     36  C   UNL     1       4.111 -35.778  14.755  1.00  0.00     0.017 C 
ATOM     37  C   UNL     1       3.443 -34.711  13.875  1.00  0.00     0.012 C 
ATOM     38  C   UNL     1       4.920 -36.816  13.949  1.00  0.00     0.012 C 
ENDBRANCH   9  36
BRANCH   6  39
ATOM     39  C   UNL     1       0.154 -38.224  18.327  1.00  0.00     0.264 C 
ATOM     40  O   UNL     1      -0.781 -37.508  18.773  1.00  0.00    -0.298 OA
ENDBRANCH   6  39
BRANCH   8  41
ATOM     41  O   UNL     1       1.676 -36.924  13.875  1.00  0.00    -0.504 OA
ATOM     42  H   UNL     1       1.881 -36.121  13.293  1.00  0.00     0.293 HD
ENDBRANCH   8  41
BRANCH   7  43
ATOM     43  O   UNL     1      -0.222 -37.979  15.525  1.00  0.00    -0.504 OA
ATOM     44  H   UNL     1      -0.924 -37.369  15.128  1.00  0.00     0.293 HD
ENDBRANCH   7  43
TORSDOF 11
ENDMDL
MODEL 2
REMARK VINA RESULT:    34.937      0.788      8.937
REMARK INTER + INTRA:          53.482
REMARK INTER:                  53.947
REMARK INTRA:                  -0.465
REMARK UNBOUND:                 2.205
REMARK SMILES Cc1cc2c(C(C)C)c(O)c(O)c(C=O)c2c(O)c1-c1c(C)cc2c(C(C)C)c(O)c(O)c(C=O)c2c1O
REMARK SMILES IDX 1 1 2 2 3 3 4 4 16 5 13 6 11 7 9 8 5 9 17 10 19 11 20 12
REMARK SMILES IDX 37 13 21 14 36 15 23 16 22 17 24 18 33 19 25 20 31 21 29 22
REMARK SMILES IDX 38 23 34 25 35 26 26 27 27 28 28 29 32 30 30 32 18 34 6 36
REMARK SMILES IDX 7 37 8 38 14 39 15 40 10 41 12 43
REMARK H PARENT 38 24 32 31 30 33 18 35 10 42 12 44
REMARK Flexibility Score: inf
ROOT
ATOM      1  C   UNL     1       4.027 -34.925  21.631  1.00  0.00     0.045 C 
ATOM      2  C   UNL     1       4.297 -36.322  22.140  1.00  0.00    -0.039 A 
ATOM      3  C   UNL     1       4.639 -36.509  23.479  1.00  0.00     0.013 A 
ATOM      4  C   UNL     1       4.918 -37.783  24.015  1.00  0.00    -0.006 A 
ATOM      5  C   UNL     1       4.883 -38.913  23.138  1.00  0.00     0.039 A 
ATOM      6  C   UNL     1       5.240 -40.198  23.649  1.00  0.00     0.072 A 
ATOM      7  C   UNL     1       5.566 -40.348  25.010  1.00  0.00     0.169 A 
ATOM      8  C   UNL     1       5.529 -39.252  25.877  1.00  0.00     0.162 A 
ATOM      9  C   UNL     1       5.228 -37.955  25.404  1.00  0.00     0.008 A 
ATOM     10  C   UNL     1       4.464 -38.725  21.784  1.00  0.00     0.132 A 
ATOM     11  C   UNL     1       4.181 -37.434  21.294  1.00  0.00     0.031 A 
ENDROOT
BRANCH  11  12
ATOM     12  C   UNL     1       3.747 -37.247  19.884  1.00  0.00     0.031 A 
ATOM     13  C   UNL     1       2.412 -37.511  19.509  1.00  0.00     0.132 A 
ATOM     14  C   UNL     1       4.680 -36.830  18.920  1.00  0.00    -0.039 A 
ATOM     15  C   UNL     1       1.988 -37.329  18.156  1.00  0.00     0.039 A 
ATOM     16  C   UNL     1       4.275 -36.666  17.596  1.00  0.00     0.013 A 
ATOM     17  C   UNL     1       6.124 -36.582  19.289  1.00  0.00     0.045 C 
ATOM     18  C   UNL     1       2.934 -36.853  17.195  1.00  0.00    -0.006 A 
ATOM     19  C   UNL     1       0.665 -37.645  17.721  1.00  0.00     0.072 A 
ATOM     20  C   UNL     1       2.529 -36.611  15.846  1.00  0.00     0.008 A 
ATOM     21  C   UNL     1       0.333 -37.550  16.354  1.00  0.00     0.169 A 
ATOM     22  C   UNL     1       1.266 -37.078  15.428  1.00  0.00     0.162 A 
BRANCH  13  23
ATOM     23  O   UNL     1       1.513 -37.968  20.480  1.00  0.00    -0.507 OA
ATOM     24  H   UNL     1       0.682 -38.506  20.274  1.00  0.00     0.293 HD
ENDBRANCH  13  23
BRANCH  19  25
ATOM     25  C   UNL     1      -0.381 -38.092  18.661  1.00  0.00     0.264 C 
ATOM     26  O   UNL     1      -0.960 -37.265  19.415  1.00  0.00    -0.298 OA
ENDBRANCH  19  25
BRANCH  20  27
ATOM     27  C   UNL     1       3.441 -35.880  14.845  1.00  0.00     0.017 C 
ATOM     28  C   UNL     1       4.328 -36.872  14.085  1.00  0.00     0.012 C 
ATOM     29  C   UNL     1       2.684 -34.951  13.875  1.00  0.00     0.012 C 
ENDBRANCH  20  27
BRANCH  21  30
ATOM     30  O   UNL     1      -0.942 -37.889  15.884  1.00  0.00    -0.504 OA
ATOM     31  H   UNL     1      -1.278 -38.838  15.786  1.00  0.00     0.293 HD
ENDBRANCH  21  30
BRANCH  22  32
ATOM     32  O   UNL     1       0.933 -37.065  14.070  1.00  0.00    -0.504 OA
ATOM     33  H   UNL     1       0.006 -37.280  13.727  1.00  0.00     0.293 HD
ENDBRANCH  22  32
ENDBRANCH  11  12
BRANCH  10  34
ATOM     34  O   UNL     1       4.303 -39.824  20.932  1.00  0.00    -0.507 OA
ATOM     35  H   UNL     1       4.870 -39.994  20.111  1.00  0.00     0.293 HD
ENDBRANCH  10  34
BRANCH   9  36
ATOM     36  C   UNL     1       5.223 -36.803  26.433  1.00  0.00     0.017 C 
ATOM     37  C   UNL     1       3.800 -36.388  26.834  1.00  0.00     0.012 C 
ATOM     38  C   UNL     1       6.119 -35.610  26.038  1.00  0.00     0.012 C 
ENDBRANCH   9  36
BRANCH   6  39
ATOM     39  C   UNL     1       5.329 -41.388  22.778  1.00  0.00     0.264 C 
ATOM     40  O   UNL     1       5.949 -42.415  23.159  1.00  0.00    -0.298 OA
ENDBRANCH   6  39
BRANCH   8  41
ATOM     41  O   UNL     1       5.810 -39.454  27.234  1.00  0.00    -0.504 OA
ATOM     42  H   UNL     1       6.697 -39.213  27.659  1.00  0.00     0.293 HD
ENDBRANCH   8  41
BRANCH   7  43
ATOM     43  O   UNL     1       5.961 -41.584  25.538  1.00  0.00    -0.504 OA
ATOM     44  H   UNL     1       6.570 -42.237  25.062  1.00  0.00     0.293 HD
ENDBRANCH   7  43
TORSDOF 11
ENDMDL
MODEL 3
REMARK VINA RESULT:    37.058      1.708      2.990
REMARK INTER + INTRA:          56.594
REMARK INTER:                  54.123
REMARK INTRA:                   2.470
REMARK UNBOUND:                 2.205
REMARK SMILES Cc1cc2c(C(C)C)c(O)c(O)c(C=O)c2c(O)c1-c1c(C)cc2c(C(C)C)c(O)c(O)c(C=O)c2c1O
REMARK SMILES IDX 1 1 2 2 3 3 4 4 16 5 13 6 11 7 9 8 5 9 17 10 19 11 20 12
REMARK SMILES IDX 37 13 21 14 36 15 23 16 22 17 24 18 33 19 25 20 31 21 29 22
REMARK SMILES IDX 38 23 34 25 35 26 26 27 27 28 28 29 32 30 30 32 18 34 6 36
REMARK SMILES IDX 7 37 8 38 14 39 15 40 10 41 12 43
REMARK H PARENT 38 24 32 31 30 33 18 35 10 42 12 44
REMARK Flexibility Score: inf
ROOT
ATOM      1  C   UNL     1       6.123 -36.086  19.634  1.00  0.00     0.045 C 
ATOM      2  C   UNL     1       4.769 -36.548  19.147  1.00  0.00    -0.039 A 
ATOM      3  C   UNL     1       4.461 -36.458  17.790  1.00  0.00     0.013 A 
ATOM      4  C   UNL     1       3.211 -36.857  17.273  1.00  0.00    -0.006 A 
ATOM      5  C   UNL     1       2.219 -37.336  18.185  1.00  0.00     0.039 A 
ATOM      6  C   UNL     1       0.923 -37.670  17.686  1.00  0.00     0.072 A 
ATOM      7  C   UNL     1       0.654 -37.578  16.306  1.00  0.00     0.169 A 
ATOM      8  C   UNL     1       1.651 -37.177  15.412  1.00  0.00     0.162 A 
ATOM      9  C   UNL     1       2.932 -36.791  15.868  1.00  0.00     0.008 A 
ATOM     10  C   UNL     1       2.563 -37.493  19.564  1.00  0.00     0.132 A 
ATOM     11  C   UNL     1       3.830 -37.093  20.035  1.00  0.00     0.031 A 
ENDROOT
BRANCH  11  12
ATOM     12  C   UNL     1       4.181 -37.258  21.471  1.00  0.00     0.031 A 
ATOM     13  C   UNL     1       4.506 -36.132  22.257  1.00  0.00     0.132 A 
ATOM     14  C   UNL     1       4.210 -38.544  22.034  1.00  0.00    -0.039 A 
ATOM     15  C   UNL     1       4.839 -36.285  23.640  1.00  0.00     0.039 A 
ATOM     16  C   UNL     1       4.550 -38.699  23.378  1.00  0.00     0.013 A 
ATOM     17  C   UNL     1       3.907 -39.767  21.201  1.00  0.00     0.045 C 
ATOM     18  C   UNL     1       4.814 -37.593  24.215  1.00  0.00    -0.006 A 
ATOM     19  C   UNL     1       5.237 -35.182  24.456  1.00  0.00     0.072 A 
ATOM     20  C   UNL     1       5.092 -37.773  25.606  1.00  0.00     0.008 A 
ATOM     21  C   UNL     1       5.660 -35.404  25.782  1.00  0.00     0.169 A 
ATOM     22  C   UNL     1       5.624 -36.688  26.332  1.00  0.00     0.162 A 
BRANCH  13  23
ATOM     23  O   UNL     1       4.512 -34.866  21.660  1.00  0.00    -0.507 OA
ATOM     24  H   UNL     1       4.369 -34.706  20.671  1.00  0.00     0.293 HD
ENDBRANCH  13  23
BRANCH  19  25
ATOM     25  C   UNL     1       5.239 -33.795  23.949  1.00  0.00     0.264 C 
ATOM     26  O   UNL     1       6.120 -32.977  24.326  1.00  0.00    -0.298 OA
ENDBRANCH  19  25
BRANCH  20  27
ATOM     27  C   UNL     1       4.845 -39.117  26.314  1.00  0.00     0.017 C 
ATOM     28  C   UNL     1       5.466 -40.275  25.525  1.00  0.00     0.012 C 
ATOM     29  C   UNL     1       5.300 -39.138  27.787  1.00  0.00     0.012 C 
ENDBRANCH  20  27
BRANCH  21  30
ATOM     30  O   UNL     1       6.095 -34.354  26.599  1.00  0.00    -0.504 OA
ATOM     31  H   UNL     1       7.066 -34.117  26.752  1.00  0.00     0.293 HD
ENDBRANCH  21  30
BRANCH  22  32
ATOM     32  O   UNL     1       6.120 -36.891  27.623  1.00  0.00    -0.504 OA
ATOM     33  H   UNL     1       6.430 -36.135  28.221  1.00  0.00     0.293 HD
ENDBRANCH  22  32
ENDBRANCH  11  12
BRANCH  10  34
ATOM     34  O   UNL     1       1.657 -38.071  20.460  1.00  0.00    -0.507 OA
ATOM     35  H   UNL     1       0.828 -37.605  20.808  1.00  0.00     0.293 HD
ENDBRANCH  10  34
BRANCH   9  36
ATOM     36  C   UNL     1       3.965 -36.351  14.807  1.00  0.00     0.017 C 
ATOM     37  C   UNL     1       3.470 -35.159  13.975  1.00  0.00     0.012 C 
ATOM     38  C   UNL     1       4.510 -37.511  13.949  1.00  0.00     0.012 C 
ENDBRANCH   9  36
BRANCH   6  39
ATOM     39  C   UNL     1      -0.181 -38.068  18.583  1.00  0.00     0.264 C 
ATOM     40  O   UNL     1      -0.540 -39.272  18.662  1.00  0.00    -0.298 OA
ENDBRANCH   6  39
BRANCH   8  41
ATOM     41  O   UNL     1       1.358 -37.148  14.043  1.00  0.00    -0.504 OA
ATOM     42  H   UNL     1       1.399 -36.304  13.484  1.00  0.00     0.293 HD
ENDBRANCH   8  41
BRANCH   7  43
ATOM     43  O   UNL     1      -0.616 -37.856  15.786  1.00  0.00    -0.504 OA
ATOM     44  H   UNL     1      -0.795 -38.520  15.044  1.00  0.00     0.293 HD
ENDBRANCH   7  43
TORSDOF 11
ENDMDL
