MODEL 1
REMARK VINA RESULT:    -1.009      0.000      0.000
REMARK INTER + INTRA:          -1.963
REMARK INTER:                  -1.659
REMARK INTRA:                  -0.304
REMARK UNBOUND:                -0.304
REMARK SMILES C[C@@H]1O[C@@H](OC[C@@H]2O[C@H](Oc3c(-c4ccc(O)c(O)c4)oc4cc(O)cc(O)c4c3=O)[C@@H](O)[C@@H](O)[C@@H]2O)[C@H](O)[C@@H](O)[C@@H]1O
REMARK SMILES IDX 7 1 36 2 34 3 32 4 9 5 8 6 6 7 5 8 4 9 1 10 2 11 42 12 3 13
REMARK SMILES IDX 40 14 38 15 43 16 41 18 39 20 37 22 35 24 10 26 11 27 12 28
REMARK SMILES IDX 30 29 21 30 29 31 31 32 22 33 27 34 23 35 26 36 24 37 13 38
REMARK SMILES IDX 20 39 14 40 18 41 15 42 16 43 19 44 17 46 28 48 25 50 33 52
REMARK H PARENT 43 17 41 19 39 21 37 23 35 25 19 45 17 47 28 49 25 51 33 53
REMARK Flexibility Score: inf
ROOT
ATOM      1  C   UNL     1     -29.570  20.515  54.343  1.00  0.00     0.180 C 
ATOM      2  C   UNL     1     -28.137  20.717  54.942  1.00  0.00     0.177 C 
ATOM      3  C   UNL     1     -27.766  19.587  55.922  1.00  0.00     0.180 C 
ATOM      4  C   UNL     1     -28.046  18.226  55.274  1.00  0.00     0.214 C 
ATOM      5  C   UNL     1     -29.500  18.178  54.782  1.00  0.00     0.339 C 
ATOM      6  O   UNL     1     -29.780  19.202  53.839  1.00  0.00    -0.332 OA
ENDROOT
BRANCH   1   7
ATOM      7  C   UNL     1     -30.757  21.002  55.220  1.00  0.00     0.198 C 
BRANCH   7   8
ATOM      8  O   UNL     1     -30.459  22.236  55.843  1.00  0.00    -0.347 OA
BRANCH   8   9
ATOM      9  C   UNL     1     -30.613  22.193  57.254  1.00  0.00     0.281 C 
ATOM     10  C   UNL     1     -31.309  24.400  59.418  1.00  0.00     0.041 C 
ATOM     11  C   UNL     1     -30.192  23.352  59.268  1.00  0.00     0.150 C 
ATOM     12  C   UNL     1     -30.482  22.013  60.014  1.00  0.00     0.174 C 
ATOM     13  O   UNL     1     -29.830  23.188  57.897  1.00  0.00    -0.344 OA
ATOM     14  C   UNL     1     -29.799  20.842  59.268  1.00  0.00     0.179 C 
ATOM     15  C   UNL     1     -30.322  20.772  57.815  1.00  0.00     0.202 C 
BRANCH  12  16
ATOM     16  O   UNL     1     -31.866  21.774  60.103  1.00  0.00    -0.388 OA
ATOM     17  H   UNL     1     -32.312  22.470  59.553  1.00  0.00     0.211 HD
ENDBRANCH  12  16
BRANCH  14  18
ATOM     18  O   UNL     1     -28.385  20.940  59.254  1.00  0.00    -0.387 OA
ATOM     19  H   UNL     1     -28.117  21.873  59.441  1.00  0.00     0.211 HD
ENDBRANCH  14  18
BRANCH  15  20
ATOM     20  O   UNL     1     -31.498  20.001  57.772  1.00  0.00    -0.385 OA
ATOM     21  H   UNL     1     -31.660  19.774  56.816  1.00  0.00     0.211 HD
ENDBRANCH  15  20
ENDBRANCH   8   9
ENDBRANCH   7   8
ENDBRANCH   1   7
BRANCH   2  22
ATOM     22  O   UNL     1     -28.010  21.957  55.589  1.00  0.00    -0.387 OA
ATOM     23  H   UNL     1     -27.093  22.308  55.405  1.00  0.00     0.211 HD
ENDBRANCH   2  22
BRANCH   3  24
ATOM     24  O   UNL     1     -26.410  19.671  56.267  1.00  0.00    -0.387 OA
ATOM     25  H   UNL     1     -26.350  19.510  57.249  1.00  0.00     0.211 HD
ENDBRANCH   3  24
BRANCH   5  26
ATOM     26  O   UNL     1     -30.415  18.216  55.882  1.00  0.00    -0.454 OA
BRANCH  26  27
ATOM     27  C   UNL     1     -30.953  17.042  56.422  1.00  0.00     0.214 A 
ATOM     28  C   UNL     1     -30.284  16.339  57.441  1.00  0.00     0.180 A 
ATOM     29  C   UNL     1     -32.194  16.570  55.984  1.00  0.00     0.239 A 
ATOM     30  O   UNL     1     -30.882  15.329  58.056  1.00  0.00    -0.452 OA
ATOM     31  C   UNL     1     -32.788  15.468  56.636  1.00  0.00     0.111 A 
ATOM     32  O   UNL     1     -32.775  17.158  55.030  1.00  0.00    -0.285 OA
ATOM     33  C   UNL     1     -32.087  14.885  57.719  1.00  0.00     0.146 A 
ATOM     34  C   UNL     1     -34.050  14.942  56.271  1.00  0.00     0.134 A 
ATOM     35  C   UNL     1     -32.653  13.832  58.442  1.00  0.00     0.094 A 
ATOM     36  C   UNL     1     -34.602  13.881  57.006  1.00  0.00     0.093 A 
ATOM     37  C   UNL     1     -33.913  13.332  58.091  1.00  0.00     0.123 A 
BRANCH  28  38
ATOM     38  C   UNL     1     -28.911  16.697  57.835  1.00  0.00     0.025 A 
ATOM     39  C   UNL     1     -28.686  17.583  58.898  1.00  0.00     0.062 A 
ATOM     40  C   UNL     1     -27.823  16.186  57.115  1.00  0.00     0.016 A 
ATOM     41  C   UNL     1     -27.384  17.928  59.271  1.00  0.00     0.158 A 
ATOM     42  C   UNL     1     -26.518  16.520  57.489  1.00  0.00     0.051 A 
ATOM     43  C   UNL     1     -26.292  17.393  58.562  1.00  0.00     0.157 A 
BRANCH  41  44
ATOM     44  O   UNL     1     -27.195  18.797  60.343  1.00  0.00    -0.504 OA
ATOM     45  H   UNL     1     -27.010  19.781  60.201  1.00  0.00     0.293 HD
ENDBRANCH  41  44
BRANCH  43  46
ATOM     46  O   UNL     1     -24.990  17.730  58.928  1.00  0.00    -0.504 OA
ATOM     47  H   UNL     1     -24.388  17.072  59.401  1.00  0.00     0.293 HD
ENDBRANCH  43  46
ENDBRANCH  28  38
BRANCH  34  48
ATOM     48  O   UNL     1     -34.752  15.459  55.185  1.00  0.00    -0.507 OA
ATOM     49  H   UNL     1     -34.365  16.191  54.603  1.00  0.00     0.293 HD
ENDBRANCH  34  48
BRANCH  37  50
ATOM     50  O   UNL     1     -34.488  12.288  58.810  1.00  0.00    -0.508 OA
ATOM     51  H   UNL     1     -34.307  12.170  59.801  1.00  0.00     0.293 HD
ENDBRANCH  37  50
ENDBRANCH  26  27
ENDBRANCH   5  26
BRANCH   4  52
ATOM     52  O   UNL     1     -27.184  18.009  54.185  1.00  0.00    -0.384 OA
ATOM     53  H   UNL     1     -27.246  17.049  53.951  1.00  0.00     0.211 HD
ENDBRANCH   4  52
TORSDOF 16
ENDMDL
MODEL 2
REMARK VINA RESULT:    -0.518      1.732      4.837
REMARK INTER + INTRA:          -1.156
REMARK INTER:                  -0.637
REMARK INTRA:                  -0.519
REMARK UNBOUND:                -0.304
REMARK SMILES C[C@@H]1O[C@@H](OC[C@@H]2O[C@H](Oc3c(-c4ccc(O)c(O)c4)oc4cc(O)cc(O)c4c3=O)[C@@H](O)[C@@H](O)[C@@H]2O)[C@H](O)[C@@H](O)[C@@H]1O
REMARK SMILES IDX 7 1 36 2 34 3 32 4 9 5 8 6 6 7 5 8 4 9 1 10 2 11 42 12 3 13
REMARK SMILES IDX 40 14 38 15 43 16 41 18 39 20 37 22 35 24 10 26 11 27 12 28
REMARK SMILES IDX 30 29 21 30 29 31 31 32 22 33 27 34 23 35 26 36 24 37 13 38
REMARK SMILES IDX 20 39 14 40 18 41 15 42 16 43 19 44 17 46 28 48 25 50 33 52
REMARK H PARENT 43 17 41 19 39 21 37 23 35 25 19 45 17 47 28 49 25 51 33 53
REMARK Flexibility Score: inf
ROOT
ATOM      1  C   UNL     1     -29.444  20.665  59.408  1.00  0.00     0.180 C 
ATOM      2  C   UNL     1     -28.526  21.346  58.336  1.00  0.00     0.177 C 
ATOM      3  C   UNL     1     -28.693  20.695  56.950  1.00  0.00     0.180 C 
ATOM      4  C   UNL     1     -30.183  20.590  56.601  1.00  0.00     0.214 C 
ATOM      5  C   UNL     1     -30.926  19.862  57.731  1.00  0.00     0.339 C 
ATOM      6  O   UNL     1     -30.791  20.528  58.978  1.00  0.00    -0.332 OA
ENDROOT
BRANCH   1   7
ATOM      7  C   UNL     1     -28.897  19.359  60.050  1.00  0.00     0.198 C 
BRANCH   7   8
ATOM      8  O   UNL     1     -27.530  19.489  60.386  1.00  0.00    -0.347 OA
BRANCH   8   9
ATOM      9  C   UNL     1     -26.722  18.472  59.809  1.00  0.00     0.281 C 
ATOM     10  C   UNL     1     -23.892  17.271  60.575  1.00  0.00     0.041 C 
ATOM     11  C   UNL     1     -24.507  17.846  59.286  1.00  0.00     0.150 C 
ATOM     12  C   UNL     1     -25.113  16.763  58.341  1.00  0.00     0.174 C 
ATOM     13  O   UNL     1     -25.395  18.923  59.584  1.00  0.00    -0.344 OA
ATOM     14  C   UNL     1     -26.291  17.369  57.542  1.00  0.00     0.179 C 
ATOM     15  C   UNL     1     -27.369  17.895  58.518  1.00  0.00     0.202 C 
BRANCH  12  16
ATOM     16  O   UNL     1     -25.562  15.648  59.074  1.00  0.00    -0.388 OA
ATOM     17  H   UNL     1     -26.392  15.331  58.631  1.00  0.00     0.211 HD
ENDBRANCH  12  16
BRANCH  14  18
ATOM     18  O   UNL     1     -25.894  18.415  56.672  1.00  0.00    -0.387 OA
ATOM     19  H   UNL     1     -25.398  19.100  57.185  1.00  0.00     0.211 HD
ENDBRANCH  14  18
BRANCH  15  20
ATOM     20  O   UNL     1     -28.249  16.852  58.859  1.00  0.00    -0.385 OA
ATOM     21  H   UNL     1     -28.294  16.244  58.073  1.00  0.00     0.211 HD
ENDBRANCH  15  20
ENDBRANCH   8   9
ENDBRANCH   7   8
ENDBRANCH   1   7
BRANCH   2  22
ATOM     22  O   UNL     1     -27.172  21.313  58.709  1.00  0.00    -0.387 OA
ATOM     23  H   UNL     1     -26.637  21.066  57.902  1.00  0.00     0.211 HD
ENDBRANCH   2  22
BRANCH   3  24
ATOM     24  O   UNL     1     -28.037  21.459  55.974  1.00  0.00    -0.387 OA
ATOM     25  H   UNL     1     -28.728  21.735  55.310  1.00  0.00     0.211 HD
ENDBRANCH   3  24
BRANCH   5  26
ATOM     26  O   UNL     1     -30.509  18.495  57.820  1.00  0.00    -0.454 OA
BRANCH  26  27
ATOM     27  C   UNL     1     -31.225  17.473  57.185  1.00  0.00     0.214 A 
ATOM     28  C   UNL     1     -30.951  17.116  55.852  1.00  0.00     0.180 A 
ATOM     29  C   UNL     1     -32.200  16.756  57.886  1.00  0.00     0.239 A 
ATOM     30  O   UNL     1     -31.517  16.042  55.320  1.00  0.00    -0.452 OA
ATOM     31  C   UNL     1     -32.811  15.638  57.279  1.00  0.00     0.111 A 
ATOM     32  O   UNL     1     -32.495  17.105  59.063  1.00  0.00    -0.285 OA
ATOM     33  C   UNL     1     -32.399  15.291  55.969  1.00  0.00     0.146 A 
ATOM     34  C   UNL     1     -33.789  14.845  57.925  1.00  0.00     0.134 A 
ATOM     35  C   UNL     1     -32.924  14.158  55.341  1.00  0.00     0.094 A 
ATOM     36  C   UNL     1     -34.306  13.713  57.277  1.00  0.00     0.093 A 
ATOM     37  C   UNL     1     -33.873  13.364  55.995  1.00  0.00     0.123 A 
BRANCH  28  38
ATOM     38  C   UNL     1     -30.050  17.929  55.018  1.00  0.00     0.025 A 
ATOM     39  C   UNL     1     -28.683  17.626  54.947  1.00  0.00     0.062 A 
ATOM     40  C   UNL     1     -30.551  19.042  54.328  1.00  0.00     0.016 A 
ATOM     41  C   UNL     1     -27.825  18.398  54.159  1.00  0.00     0.158 A 
ATOM     42  C   UNL     1     -29.700  19.813  53.532  1.00  0.00     0.051 A 
ATOM     43  C   UNL     1     -28.336  19.499  53.447  1.00  0.00     0.157 A 
BRANCH  41  44
ATOM     44  O   UNL     1     -26.475  18.058  54.096  1.00  0.00    -0.504 OA
ATOM     45  H   UNL     1     -26.161  17.111  54.253  1.00  0.00     0.293 HD
ENDBRANCH  41  44
BRANCH  43  46
ATOM     46  O   UNL     1     -27.488  20.274  52.657  1.00  0.00    -0.504 OA
ATOM     47  H   UNL     1     -26.484  20.211  52.742  1.00  0.00     0.293 HD
ENDBRANCH  43  46
ENDBRANCH  28  38
BRANCH  34  48
ATOM     48  O   UNL     1     -34.250  15.177  59.196  1.00  0.00    -0.507 OA
ATOM     49  H   UNL     1     -34.244  14.507  59.955  1.00  0.00     0.293 HD
ENDBRANCH  34  48
BRANCH  37  50
ATOM     50  O   UNL     1     -34.395  12.230  55.380  1.00  0.00    -0.508 OA
ATOM     51  H   UNL     1     -34.614  12.222  54.390  1.00  0.00     0.293 HD
ENDBRANCH  37  50
ENDBRANCH  26  27
ENDBRANCH   5  26
BRANCH   4  52
ATOM     52  O   UNL     1     -30.743  21.869  56.432  1.00  0.00    -0.384 OA
ATOM     53  H   UNL     1     -30.247  22.308  55.696  1.00  0.00     0.211 HD
ENDBRANCH   4  52
TORSDOF 16
ENDMDL
MODEL 3
REMARK VINA RESULT:    -0.368      1.734      4.879
REMARK INTER + INTRA:          -0.908
REMARK INTER:                  -0.112
REMARK INTRA:                  -0.796
REMARK UNBOUND:                -0.304
REMARK SMILES C[C@@H]1O[C@@H](OC[C@@H]2O[C@H](Oc3c(-c4ccc(O)c(O)c4)oc4cc(O)cc(O)c4c3=O)[C@@H](O)[C@@H](O)[C@@H]2O)[C@H](O)[C@@H](O)[C@@H]1O
REMARK SMILES IDX 7 1 36 2 34 3 32 4 9 5 8 6 6 7 5 8 4 9 1 10 2 11 42 12 3 13
REMARK SMILES IDX 40 14 38 15 43 16 41 18 39 20 37 22 35 24 10 26 11 27 12 28
REMARK SMILES IDX 30 29 21 30 29 31 31 32 22 33 27 34 23 35 26 36 24 37 13 38
REMARK SMILES IDX 20 39 14 40 18 41 15 42 16 43 19 44 17 46 28 48 25 50 33 52
REMARK H PARENT 43 17 41 19 39 21 37 23 35 25 19 45 17 47 28 49 25 51 33 53
REMARK Flexibility Score: inf
ROOT
ATOM      1  C   UNL     1     -26.361  17.473  56.856  1.00  0.00     0.180 C 
ATOM      2  C   UNL     1     -26.265  18.961  57.340  1.00  0.00     0.177 C 
ATOM      3  C   UNL     1     -27.630  19.490  57.822  1.00  0.00     0.180 C 
ATOM      4  C   UNL     1     -28.255  18.494  58.806  1.00  0.00     0.214 C 
ATOM      5  C   UNL     1     -28.313  17.101  58.162  1.00  0.00     0.339 C 
ATOM      6  O   UNL     1     -27.028  16.629  57.786  1.00  0.00    -0.332 OA
ENDROOT
BRANCH   1   7
ATOM      7  C   UNL     1     -26.864  17.254  55.401  1.00  0.00     0.198 C 
BRANCH   7   8
ATOM      8  O   UNL     1     -26.262  18.172  54.510  1.00  0.00    -0.347 OA
BRANCH   8   9
ATOM      9  C   UNL     1     -27.211  18.874  53.718  1.00  0.00     0.281 C 
ATOM     10  C   UNL     1     -27.063  20.201  50.846  1.00  0.00     0.041 C 
ATOM     11  C   UNL     1     -27.508  20.688  52.236  1.00  0.00     0.150 C 
ATOM     12  C   UNL     1     -29.041  20.551  52.491  1.00  0.00     0.174 C 
ATOM     13  O   UNL     1     -26.694  20.114  53.258  1.00  0.00    -0.344 OA
ATOM     14  C   UNL     1     -29.301  20.322  53.999  1.00  0.00     0.179 C 
ATOM     15  C   UNL     1     -28.561  19.048  54.470  1.00  0.00     0.202 C 
BRANCH  12  16
ATOM     16  O   UNL     1     -29.581  19.482  51.750  1.00  0.00    -0.388 OA
ATOM     17  H   UNL     1     -29.958  18.841  52.407  1.00  0.00     0.211 HD
ENDBRANCH  12  16
BRANCH  14  18
ATOM     18  O   UNL     1     -28.906  21.420  54.804  1.00  0.00    -0.387 OA
ATOM     19  H   UNL     1     -29.453  21.439  55.627  1.00  0.00     0.211 HD
ENDBRANCH  14  18
BRANCH  15  20
ATOM     20  O   UNL     1     -29.371  17.920  54.247  1.00  0.00    -0.385 OA
ATOM     21  H   UNL     1     -29.746  18.011  53.329  1.00  0.00     0.211 HD
ENDBRANCH  15  20
ENDBRANCH   8   9
ENDBRANCH   7   8
ENDBRANCH   1   7
BRANCH   2  22
ATOM     22  O   UNL     1     -25.763  19.805  56.336  1.00  0.00    -0.387 OA
ATOM     23  H   UNL     1     -25.273  19.240  55.674  1.00  0.00     0.211 HD
ENDBRANCH   2  22
BRANCH   3  24
ATOM     24  O   UNL     1     -27.472  20.733  58.451  1.00  0.00    -0.387 OA
ATOM     25  H   UNL     1     -28.322  20.921  58.937  1.00  0.00     0.211 HD
ENDBRANCH   3  24
BRANCH   5  26
ATOM     26  O   UNL     1     -29.220  17.086  57.055  1.00  0.00    -0.454 OA
BRANCH  26  27
ATOM     27  C   UNL     1     -30.549  16.672  57.209  1.00  0.00     0.214 A 
ATOM     28  C   UNL     1     -31.560  17.589  57.554  1.00  0.00     0.180 A 
ATOM     29  C   UNL     1     -30.903  15.339  56.976  1.00  0.00     0.239 A 
ATOM     30  O   UNL     1     -32.831  17.218  57.531  1.00  0.00    -0.452 OA
ATOM     31  C   UNL     1     -32.264  14.968  56.995  1.00  0.00     0.111 A 
ATOM     32  O   UNL     1     -29.998  14.497  56.723  1.00  0.00    -0.285 OA
ATOM     33  C   UNL     1     -33.221  15.980  57.252  1.00  0.00     0.146 A 
ATOM     34  C   UNL     1     -32.709  13.647  56.749  1.00  0.00     0.134 A 
ATOM     35  C   UNL     1     -34.586  15.684  57.222  1.00  0.00     0.094 A 
ATOM     36  C   UNL     1     -34.085  13.369  56.726  1.00  0.00     0.093 A 
ATOM     37  C   UNL     1     -35.021  14.382  56.954  1.00  0.00     0.123 A 
BRANCH  28  38
ATOM     38  C   UNL     1     -31.229  18.965  57.959  1.00  0.00     0.025 A 
ATOM     39  C   UNL     1     -31.154  19.988  57.003  1.00  0.00     0.062 A 
ATOM     40  C   UNL     1     -30.941  19.248  59.301  1.00  0.00     0.016 A 
ATOM     41  C   UNL     1     -30.837  21.295  57.384  1.00  0.00     0.158 A 
ATOM     42  C   UNL     1     -30.632  20.554  59.691  1.00  0.00     0.051 A 
ATOM     43  C   UNL     1     -30.573  21.580  58.737  1.00  0.00     0.157 A 
BRANCH  41  44
ATOM     44  O   UNL     1     -30.789  22.291  56.412  1.00  0.00    -0.504 OA
ATOM     45  H   UNL     1     -31.380  22.259  55.592  1.00  0.00     0.293 HD
ENDBRANCH  41  44
BRANCH  43  46
ATOM     46  O   UNL     1     -30.258  22.881  59.127  1.00  0.00    -0.504 OA
ATOM     47  H   UNL     1     -30.495  23.676  58.553  1.00  0.00     0.293 HD
ENDBRANCH  43  46
ENDBRANCH  28  38
BRANCH  34  48
ATOM     48  O   UNL     1     -31.799  12.616  56.533  1.00  0.00    -0.507 OA
ATOM     49  H   UNL     1     -32.102  11.661  56.395  1.00  0.00     0.293 HD
ENDBRANCH  34  48
BRANCH  37  50
ATOM     50  O   UNL     1     -36.380  14.079  56.914  1.00  0.00    -0.508 OA
ATOM     51  H   UNL     1     -36.807  13.490  57.621  1.00  0.00     0.293 HD
ENDBRANCH  37  50
ENDBRANCH  26  27
ENDBRANCH   5  26
BRANCH   4  52
ATOM     52  O   UNL     1     -27.496  18.423  59.987  1.00  0.00    -0.384 OA
ATOM     53  H   UNL     1     -26.735  19.049  59.882  1.00  0.00     0.211 HD
ENDBRANCH   4  52
TORSDOF 16
ENDMDL
MODEL 4
REMARK VINA RESULT:    -0.243      2.611      6.765
REMARK INTER + INTRA:          -0.704
REMARK INTER:                  -0.443
REMARK INTRA:                  -0.260
REMARK UNBOUND:                -0.304
REMARK SMILES C[C@@H]1O[C@@H](OC[C@@H]2O[C@H](Oc3c(-c4ccc(O)c(O)c4)oc4cc(O)cc(O)c4c3=O)[C@@H](O)[C@@H](O)[C@@H]2O)[C@H](O)[C@@H](O)[C@@H]1O
REMARK SMILES IDX 7 1 36 2 34 3 32 4 9 5 8 6 6 7 5 8 4 9 1 10 2 11 42 12 3 13
REMARK SMILES IDX 40 14 38 15 43 16 41 18 39 20 37 22 35 24 10 26 11 27 12 28
REMARK SMILES IDX 30 29 21 30 29 31 31 32 22 33 27 34 23 35 26 36 24 37 13 38
REMARK SMILES IDX 20 39 14 40 18 41 15 42 16 43 19 44 17 46 28 48 25 50 33 52
REMARK H PARENT 43 17 41 19 39 21 37 23 35 25 19 45 17 47 28 49 25 51 33 53
REMARK Flexibility Score: inf
ROOT
ATOM      1  C   UNL     1     -31.292  16.475  56.178  1.00  0.00     0.180 C 
ATOM      2  C   UNL     1     -30.610  15.456  57.153  1.00  0.00     0.177 C 
ATOM      3  C   UNL     1     -31.602  14.383  57.638  1.00  0.00     0.180 C 
ATOM      4  C   UNL     1     -32.345  13.782  56.438  1.00  0.00     0.214 C 
ATOM      5  C   UNL     1     -32.989  14.907  55.615  1.00  0.00     0.339 C 
ATOM      6  O   UNL     1     -32.030  15.842  55.141  1.00  0.00    -0.332 OA
ENDROOT
BRANCH   1   7
ATOM      7  C   UNL     1     -32.089  17.634  56.841  1.00  0.00     0.198 C 
BRANCH   7   8
ATOM      8  O   UNL     1     -31.247  18.439  57.642  1.00  0.00    -0.347 OA
BRANCH   8   9
ATOM      9  C   UNL     1     -30.192  19.040  56.902  1.00  0.00     0.281 C 
ATOM     10  C   UNL     1     -27.793  17.848  55.211  1.00  0.00     0.041 C 
ATOM     11  C   UNL     1     -27.903  18.879  56.348  1.00  0.00     0.150 C 
ATOM     12  C   UNL     1     -27.993  20.355  55.853  1.00  0.00     0.174 C 
ATOM     13  O   UNL     1     -28.927  18.509  57.270  1.00  0.00    -0.344 OA
ATOM     14  C   UNL     1     -28.814  21.194  56.862  1.00  0.00     0.179 C 
ATOM     15  C   UNL     1     -30.229  20.590  57.015  1.00  0.00     0.202 C 
BRANCH  12  16
ATOM     16  O   UNL     1     -28.594  20.424  54.581  1.00  0.00    -0.388 OA
ATOM     17  H   UNL     1     -27.858  20.395  53.916  1.00  0.00     0.211 HD
ENDBRANCH  12  16
BRANCH  14  18
ATOM     18  O   UNL     1     -28.202  21.286  58.136  1.00  0.00    -0.387 OA
ATOM     19  H   UNL     1     -27.257  21.002  58.070  1.00  0.00     0.211 HD
ENDBRANCH  14  18
BRANCH  15  20
ATOM     20  O   UNL     1     -31.077  21.112  56.021  1.00  0.00    -0.385 OA
ATOM     21  H   UNL     1     -31.621  21.826  56.452  1.00  0.00     0.211 HD
ENDBRANCH  15  20
ENDBRANCH   8   9
ENDBRANCH   7   8
ENDBRANCH   1   7
BRANCH   2  22
ATOM     22  O   UNL     1     -30.036  16.099  58.263  1.00  0.00    -0.387 OA
ATOM     23  H   UNL     1     -29.633  15.397  58.850  1.00  0.00     0.211 HD
ENDBRANCH   2  22
BRANCH   3  24
ATOM     24  O   UNL     1     -30.921  13.366  58.323  1.00  0.00    -0.387 OA
ATOM     25  H   UNL     1     -31.548  12.595  58.395  1.00  0.00     0.211 HD
ENDBRANCH   3  24
BRANCH   5  26
ATOM     26  O   UNL     1     -34.027  15.554  56.357  1.00  0.00    -0.454 OA
BRANCH  26  27
ATOM     27  C   UNL     1     -34.631  14.934  57.457  1.00  0.00     0.214 A 
ATOM     28  C   UNL     1     -35.463  13.810  57.290  1.00  0.00     0.180 A 
ATOM     29  C   UNL     1     -34.379  15.396  58.753  1.00  0.00     0.239 A 
ATOM     30  O   UNL     1     -35.889  13.135  58.348  1.00  0.00    -0.452 OA
ATOM     31  C   UNL     1     -34.879  14.675  59.858  1.00  0.00     0.111 A 
ATOM     32  O   UNL     1     -33.683  16.437  58.910  1.00  0.00    -0.285 OA
ATOM     33  C   UNL     1     -35.622  13.498  59.596  1.00  0.00     0.146 A 
ATOM     34  C   UNL     1     -34.652  15.061  61.200  1.00  0.00     0.134 A 
ATOM     35  C   UNL     1     -36.089  12.709  60.651  1.00  0.00     0.094 A 
ATOM     36  C   UNL     1     -35.131  14.258  62.246  1.00  0.00     0.093 A 
ATOM     37  C   UNL     1     -35.840  13.083  61.977  1.00  0.00     0.123 A 
BRANCH  28  38
ATOM     38  C   UNL     1     -35.887  13.372  55.950  1.00  0.00     0.025 A 
ATOM     39  C   UNL     1     -36.315  14.311  55.000  1.00  0.00     0.062 A 
ATOM     40  C   UNL     1     -35.909  12.007  55.636  1.00  0.00     0.016 A 
ATOM     41  C   UNL     1     -36.722  13.897  53.728  1.00  0.00     0.158 A 
ATOM     42  C   UNL     1     -36.305  11.588  54.364  1.00  0.00     0.051 A 
ATOM     43  C   UNL     1     -36.718  12.526  53.407  1.00  0.00     0.157 A 
BRANCH  41  44
ATOM     44  O   UNL     1     -37.124  14.856  52.802  1.00  0.00    -0.504 OA
ATOM     45  H   UNL     1     -36.452  15.405  52.282  1.00  0.00     0.293 HD
ENDBRANCH  41  44
BRANCH  43  46
ATOM     46  O   UNL     1     -37.120  12.105  52.141  1.00  0.00    -0.504 OA
ATOM     47  H   UNL     1     -37.925  12.505  51.683  1.00  0.00     0.293 HD
ENDBRANCH  43  46
ENDBRANCH  28  38
BRANCH  34  48
ATOM     48  O   UNL     1     -33.962  16.233  61.498  1.00  0.00    -0.507 OA
ATOM     49  H   UNL     1     -34.362  17.145  61.319  1.00  0.00     0.293 HD
ENDBRANCH  34  48
BRANCH  37  50
ATOM     50  O   UNL     1     -36.294  12.300  63.034  1.00  0.00    -0.508 OA
ATOM     51  H   UNL     1     -35.654  11.737  63.584  1.00  0.00     0.293 HD
ENDBRANCH  37  50
ENDBRANCH  26  27
ENDBRANCH   5  26
BRANCH   4  52
ATOM     52  O   UNL     1     -31.458  13.062  55.618  1.00  0.00    -0.384 OA
ATOM     53  H   UNL     1     -31.391  12.148  55.995  1.00  0.00     0.211 HD
ENDBRANCH   4  52
TORSDOF 16
ENDMDL
MODEL 5
REMARK VINA RESULT:     1.276      1.575      7.350
REMARK INTER + INTRA:           1.793
REMARK INTER:                   2.320
REMARK INTRA:                  -0.527
REMARK UNBOUND:                -0.304
REMARK SMILES C[C@@H]1O[C@@H](OC[C@@H]2O[C@H](Oc3c(-c4ccc(O)c(O)c4)oc4cc(O)cc(O)c4c3=O)[C@@H](O)[C@@H](O)[C@@H]2O)[C@H](O)[C@@H](O)[C@@H]1O
REMARK SMILES IDX 7 1 36 2 34 3 32 4 9 5 8 6 6 7 5 8 4 9 1 10 2 11 42 12 3 13
REMARK SMILES IDX 40 14 38 15 43 16 41 18 39 20 37 22 35 24 10 26 11 27 12 28
REMARK SMILES IDX 30 29 21 30 29 31 31 32 22 33 27 34 23 35 26 36 24 37 13 38
REMARK SMILES IDX 20 39 14 40 18 41 15 42 16 43 19 44 17 46 28 48 25 50 33 52
REMARK H PARENT 43 17 41 19 39 21 37 23 35 25 19 45 17 47 28 49 25 51 33 53
REMARK Flexibility Score: inf
ROOT
ATOM      1  C   UNL     1     -29.051  16.487  56.971  1.00  0.00     0.180 C 
ATOM      2  C   UNL     1     -27.537  16.875  57.079  1.00  0.00     0.177 C 
ATOM      3  C   UNL     1     -27.354  18.297  57.644  1.00  0.00     0.180 C 
ATOM      4  C   UNL     1     -28.191  18.462  58.918  1.00  0.00     0.214 C 
ATOM      5  C   UNL     1     -29.651  18.084  58.629  1.00  0.00     0.339 C 
ATOM      6  O   UNL     1     -29.777  16.748  58.166  1.00  0.00    -0.332 OA
ENDROOT
BRANCH   1   7
ATOM      7  C   UNL     1     -29.802  16.993  55.708  1.00  0.00     0.198 C 
BRANCH   7   8
ATOM      8  O   UNL     1     -31.193  17.083  55.943  1.00  0.00    -0.347 OA
BRANCH   8   9
ATOM      9  C   UNL     1     -31.762  15.849  56.360  1.00  0.00     0.281 C 
ATOM     10  C   UNL     1     -31.133  12.830  55.637  1.00  0.00     0.041 C 
ATOM     11  C   UNL     1     -32.406  13.693  55.644  1.00  0.00     0.150 C 
ATOM     12  C   UNL     1     -33.235  13.583  56.961  1.00  0.00     0.174 C 
ATOM     13  O   UNL     1     -32.112  15.034  55.251  1.00  0.00    -0.344 OA
ATOM     14  C   UNL     1     -33.981  14.913  57.220  1.00  0.00     0.179 C 
ATOM     15  C   UNL     1     -32.964  16.073  57.321  1.00  0.00     0.202 C 
BRANCH  12  16
ATOM     16  O   UNL     1     -32.402  13.286  58.057  1.00  0.00    -0.388 OA
ATOM     17  H   UNL     1     -31.898  14.115  58.265  1.00  0.00     0.211 HD
ENDBRANCH  12  16
BRANCH  14  18
ATOM     18  O   UNL     1     -34.942  15.215  56.223  1.00  0.00    -0.387 OA
ATOM     19  H   UNL     1     -34.678  16.042  55.750  1.00  0.00     0.211 HD
ENDBRANCH  14  18
BRANCH  15  20
ATOM     20  O   UNL     1     -32.494  16.178  58.642  1.00  0.00    -0.385 OA
ATOM     21  H   UNL     1     -33.265  16.471  59.200  1.00  0.00     0.211 HD
ENDBRANCH  15  20
ENDBRANCH   8   9
ENDBRANCH   7   8
ENDBRANCH   1   7
BRANCH   2  22
ATOM     22  O   UNL     1     -26.882  16.775  55.841  1.00  0.00    -0.387 OA
ATOM     23  H   UNL     1     -27.502  16.323  55.200  1.00  0.00     0.211 HD
ENDBRANCH   2  22
BRANCH   3  24
ATOM     24  O   UNL     1     -26.003  18.532  57.937  1.00  0.00    -0.387 OA
ATOM     25  H   UNL     1     -25.858  19.515  57.867  1.00  0.00     0.211 HD
ENDBRANCH   3  24
BRANCH   5  26
ATOM     26  O   UNL     1     -30.249  19.012  57.718  1.00  0.00    -0.454 OA
BRANCH  26  27
ATOM     27  C   UNL     1     -30.205  20.391  57.951  1.00  0.00     0.214 A 
ATOM     28  C   UNL     1     -29.690  21.275  56.984  1.00  0.00     0.180 A 
ATOM     29  C   UNL     1     -30.716  20.922  59.140  1.00  0.00     0.239 A 
ATOM     30  O   UNL     1     -29.809  22.585  57.148  1.00  0.00    -0.452 OA
ATOM     31  C   UNL     1     -30.795  22.322  59.300  1.00  0.00     0.111 A 
ATOM     32  O   UNL     1     -31.126  20.136  60.039  1.00  0.00    -0.285 OA
ATOM     33  C   UNL     1     -30.346  23.134  58.230  1.00  0.00     0.146 A 
ATOM     34  C   UNL     1     -31.318  22.939  60.460  1.00  0.00     0.134 A 
ATOM     35  C   UNL     1     -30.457  24.525  58.306  1.00  0.00     0.094 A 
ATOM     36  C   UNL     1     -31.419  24.338  60.520  1.00  0.00     0.093 A 
ATOM     37  C   UNL     1     -30.998  25.129  59.447  1.00  0.00     0.123 A 
BRANCH  28  38
ATOM     38  C   UNL     1     -29.001  20.770  55.785  1.00  0.00     0.025 A 
ATOM     39  C   UNL     1     -29.715  20.545  54.599  1.00  0.00     0.062 A 
ATOM     40  C   UNL     1     -27.634  20.467  55.841  1.00  0.00     0.016 A 
ATOM     41  C   UNL     1     -29.064  20.061  53.460  1.00  0.00     0.158 A 
ATOM     42  C   UNL     1     -26.976  19.992  54.703  1.00  0.00     0.051 A 
ATOM     43  C   UNL     1     -27.685  19.783  53.512  1.00  0.00     0.157 A 
BRANCH  41  44
ATOM     44  O   UNL     1     -29.799  19.866  52.293  1.00  0.00    -0.504 OA
ATOM     45  H   UNL     1     -30.611  19.265  52.274  1.00  0.00     0.293 HD
ENDBRANCH  41  44
BRANCH  43  46
ATOM     46  O   UNL     1     -27.028  19.302  52.381  1.00  0.00    -0.504 OA
ATOM     47  H   UNL     1     -26.609  19.927  51.709  1.00  0.00     0.293 HD
ENDBRANCH  43  46
ENDBRANCH  28  38
BRANCH  34  48
ATOM     48  O   UNL     1     -31.731  22.177  61.550  1.00  0.00    -0.507 OA
ATOM     49  H   UNL     1     -31.703  22.541  62.494  1.00  0.00     0.293 HD
ENDBRANCH  34  48
BRANCH  37  50
ATOM     50  O   UNL     1     -31.120  26.514  59.528  1.00  0.00    -0.508 OA
ATOM     51  H   UNL     1     -30.691  27.120  58.837  1.00  0.00     0.293 HD
ENDBRANCH  37  50
ENDBRANCH  26  27
ENDBRANCH   5  26
BRANCH   4  52
ATOM     52  O   UNL     1     -27.696  17.637  59.944  1.00  0.00    -0.384 OA
ATOM     53  H   UNL     1     -26.730  17.503  59.771  1.00  0.00     0.211 HD
ENDBRANCH   4  52
TORSDOF 16
ENDMDL
MODEL 6
REMARK VINA RESULT:     1.836      1.669      4.091
REMARK INTER + INTRA:           2.713
REMARK INTER:                  -3.239
REMARK INTRA:                   5.952
REMARK UNBOUND:                -0.304
REMARK SMILES C[C@@H]1O[C@@H](OC[C@@H]2O[C@H](Oc3c(-c4ccc(O)c(O)c4)oc4cc(O)cc(O)c4c3=O)[C@@H](O)[C@@H](O)[C@@H]2O)[C@H](O)[C@@H](O)[C@@H]1O
REMARK SMILES IDX 7 1 36 2 34 3 32 4 9 5 8 6 6 7 5 8 4 9 1 10 2 11 42 12 3 13
REMARK SMILES IDX 40 14 38 15 43 16 41 18 39 20 37 22 35 24 10 26 11 27 12 28
REMARK SMILES IDX 30 29 21 30 29 31 31 32 22 33 27 34 23 35 26 36 24 37 13 38
REMARK SMILES IDX 20 39 14 40 18 41 15 42 16 43 19 44 17 46 28 48 25 50 33 52
REMARK H PARENT 43 17 41 19 39 21 37 23 35 25 19 45 17 47 28 49 25 51 33 53
REMARK Flexibility Score: inf
ROOT
ATOM      1  C   UNL     1     -27.680  19.008  55.226  1.00  0.00     0.180 C 
ATOM      2  C   UNL     1     -27.860  19.661  53.813  1.00  0.00     0.177 C 
ATOM      3  C   UNL     1     -29.291  19.466  53.276  1.00  0.00     0.180 C 
ATOM      4  C   UNL     1     -30.309  19.873  54.348  1.00  0.00     0.214 C 
ATOM      5  C   UNL     1     -30.017  19.113  55.650  1.00  0.00     0.339 C 
ATOM      6  O   UNL     1     -28.709  19.367  56.139  1.00  0.00    -0.332 OA
ENDROOT
BRANCH   1   7
ATOM      7  C   UNL     1     -27.387  17.481  55.245  1.00  0.00     0.198 C 
BRANCH   7   8
ATOM      8  O   UNL     1     -27.609  16.935  56.530  1.00  0.00    -0.347 OA
BRANCH   8   9
ATOM      9  C   UNL     1     -27.185  17.798  57.576  1.00  0.00     0.281 C 
ATOM     10  C   UNL     1     -26.664  20.919  57.720  1.00  0.00     0.041 C 
ATOM     11  C   UNL     1     -25.845  19.672  58.095  1.00  0.00     0.150 C 
ATOM     12  C   UNL     1     -25.976  19.259  59.593  1.00  0.00     0.174 C 
ATOM     13  O   UNL     1     -26.091  18.609  57.174  1.00  0.00    -0.344 OA
ATOM     14  C   UNL     1     -25.806  17.727  59.729  1.00  0.00     0.179 C 
ATOM     15  C   UNL     1     -26.876  17.005  58.877  1.00  0.00     0.202 C 
BRANCH  12  16
ATOM     16  O   UNL     1     -27.226  19.645  60.115  1.00  0.00    -0.388 OA
ATOM     17  H   UNL     1     -27.048  20.089  60.984  1.00  0.00     0.211 HD
ENDBRANCH  12  16
BRANCH  14  18
ATOM     18  O   UNL     1     -24.518  17.275  59.349  1.00  0.00    -0.387 OA
ATOM     19  H   UNL     1     -24.389  17.423  58.381  1.00  0.00     0.211 HD
ENDBRANCH  14  18
BRANCH  15  20
ATOM     20  O   UNL     1     -28.056  16.855  59.627  1.00  0.00    -0.385 OA
ATOM     21  H   UNL     1     -28.303  17.759  59.961  1.00  0.00     0.211 HD
ENDBRANCH  15  20
ENDBRANCH   8   9
ENDBRANCH   7   8
ENDBRANCH   1   7
BRANCH   2  22
ATOM     22  O   UNL     1     -26.937  19.157  52.882  1.00  0.00    -0.387 OA
ATOM     23  H   UNL     1     -27.159  19.546  51.988  1.00  0.00     0.211 HD
ENDBRANCH   2  22
BRANCH   3  24
ATOM     24  O   UNL     1     -29.487  20.244  52.126  1.00  0.00    -0.387 OA
ATOM     25  H   UNL     1     -28.696  20.096  51.538  1.00  0.00     0.211 HD
ENDBRANCH   3  24
BRANCH   5  26
ATOM     26  O   UNL     1     -30.251  17.710  55.487  1.00  0.00    -0.454 OA
BRANCH  26  27
ATOM     27  C   UNL     1     -31.048  16.996  56.390  1.00  0.00     0.214 A 
ATOM     28  C   UNL     1     -31.529  17.598  57.568  1.00  0.00     0.180 A 
ATOM     29  C   UNL     1     -31.418  15.676  56.112  1.00  0.00     0.239 A 
ATOM     30  O   UNL     1     -32.415  16.967  58.325  1.00  0.00    -0.452 OA
ATOM     31  C   UNL     1     -32.335  15.018  56.958  1.00  0.00     0.111 A 
ATOM     32  O   UNL     1     -30.945  15.107  55.089  1.00  0.00    -0.285 OA
ATOM     33  C   UNL     1     -32.845  15.738  58.066  1.00  0.00     0.146 A 
ATOM     34  C   UNL     1     -32.778  13.692  56.736  1.00  0.00     0.134 A 
ATOM     35  C   UNL     1     -33.803  15.160  58.902  1.00  0.00     0.094 A 
ATOM     36  C   UNL     1     -33.738  13.127  57.589  1.00  0.00     0.093 A 
ATOM     37  C   UNL     1     -34.256  13.857  58.664  1.00  0.00     0.123 A 
BRANCH  28  38
ATOM     38  C   UNL     1     -31.053  18.926  57.991  1.00  0.00     0.025 A 
ATOM     39  C   UNL     1     -31.324  20.059  57.210  1.00  0.00     0.062 A 
ATOM     40  C   UNL     1     -30.283  19.053  59.155  1.00  0.00     0.016 A 
ATOM     41  C   UNL     1     -30.870  21.319  57.607  1.00  0.00     0.158 A 
ATOM     42  C   UNL     1     -29.834  20.312  59.562  1.00  0.00     0.051 A 
ATOM     43  C   UNL     1     -30.119  21.448  58.791  1.00  0.00     0.157 A 
BRANCH  41  44
ATOM     44  O   UNL     1     -31.172  22.427  56.817  1.00  0.00    -0.504 OA
ATOM     45  H   UNL     1     -32.030  22.946  56.942  1.00  0.00     0.293 HD
ENDBRANCH  41  44
BRANCH  43  46
ATOM     46  O   UNL     1     -29.663  22.702  59.195  1.00  0.00    -0.504 OA
ATOM     47  H   UNL     1     -29.331  23.382  58.528  1.00  0.00     0.293 HD
ENDBRANCH  43  46
ENDBRANCH  28  38
BRANCH  34  48
ATOM     48  O   UNL     1     -32.269  12.937  55.683  1.00  0.00    -0.507 OA
ATOM     49  H   UNL     1     -32.622  12.012  55.475  1.00  0.00     0.293 HD
ENDBRANCH  34  48
BRANCH  37  50
ATOM     50  O   UNL     1     -35.216  13.276  59.488  1.00  0.00    -0.508 OA
ATOM     51  H   UNL     1     -35.857  12.574  59.133  1.00  0.00     0.293 HD
ENDBRANCH  37  50
ENDBRANCH  26  27
ENDBRANCH   5  26
BRANCH   4  52
ATOM     52  O   UNL     1     -30.239  21.256  54.597  1.00  0.00    -0.384 OA
ATOM     53  H   UNL     1     -29.299  21.531  54.446  1.00  0.00     0.211 HD
ENDBRANCH   4  52
TORSDOF 16
ENDMDL
MODEL 7
REMARK VINA RESULT:     1.875      1.451      3.952
REMARK INTER + INTRA:           2.777
REMARK INTER:                  -4.418
REMARK INTRA:                   7.194
REMARK UNBOUND:                -0.304
REMARK SMILES C[C@@H]1O[C@@H](OC[C@@H]2O[C@H](Oc3c(-c4ccc(O)c(O)c4)oc4cc(O)cc(O)c4c3=O)[C@@H](O)[C@@H](O)[C@@H]2O)[C@H](O)[C@@H](O)[C@@H]1O
REMARK SMILES IDX 7 1 36 2 34 3 32 4 9 5 8 6 6 7 5 8 4 9 1 10 2 11 42 12 3 13
REMARK SMILES IDX 40 14 38 15 43 16 41 18 39 20 37 22 35 24 10 26 11 27 12 28
REMARK SMILES IDX 30 29 21 30 29 31 31 32 22 33 27 34 23 35 26 36 24 37 13 38
REMARK SMILES IDX 20 39 14 40 18 41 15 42 16 43 19 44 17 46 28 48 25 50 33 52
REMARK H PARENT 43 17 41 19 39 21 37 23 35 25 19 45 17 47 28 49 25 51 33 53
REMARK Flexibility Score: inf
ROOT
ATOM      1  C   UNL     1     -27.691  19.032  58.780  1.00  0.00     0.180 C 
ATOM      2  C   UNL     1     -26.325  18.300  59.005  1.00  0.00     0.177 C 
ATOM      3  C   UNL     1     -26.355  16.860  58.457  1.00  0.00     0.180 C 
ATOM      4  C   UNL     1     -26.898  16.861  57.023  1.00  0.00     0.214 C 
ATOM      5  C   UNL     1     -28.257  17.576  56.987  1.00  0.00     0.339 C 
ATOM      6  O   UNL     1     -28.170  18.917  57.447  1.00  0.00    -0.332 OA
ENDROOT
BRANCH   1   7
ATOM      7  C   UNL     1     -28.804  18.748  59.828  1.00  0.00     0.198 C 
BRANCH   7   8
ATOM      8  O   UNL     1     -29.980  19.475  59.534  1.00  0.00    -0.347 OA
BRANCH   8   9
ATOM      9  C   UNL     1     -29.766  20.507  58.580  1.00  0.00     0.281 C 
ATOM     10  C   UNL     1     -27.203  21.477  56.990  1.00  0.00     0.041 C 
ATOM     11  C   UNL     1     -28.258  22.177  57.865  1.00  0.00     0.150 C 
ATOM     12  C   UNL     1     -29.439  22.794  57.054  1.00  0.00     0.174 C 
ATOM     13  O   UNL     1     -28.668  21.332  58.940  1.00  0.00    -0.344 OA
ATOM     14  C   UNL     1     -30.725  22.783  57.916  1.00  0.00     0.179 C 
ATOM     15  C   UNL     1     -31.060  21.333  58.336  1.00  0.00     0.202 C 
BRANCH  12  16
ATOM     16  O   UNL     1     -29.662  22.077  55.863  1.00  0.00    -0.388 OA
ATOM     17  H   UNL     1     -28.883  21.474  55.743  1.00  0.00     0.211 HD
ENDBRANCH  12  16
BRANCH  14  18
ATOM     18  O   UNL     1     -30.627  23.597  59.072  1.00  0.00    -0.387 OA
ATOM     19  H   UNL     1     -30.130  24.423  58.853  1.00  0.00     0.211 HD
ENDBRANCH  14  18
BRANCH  15  20
ATOM     20  O   UNL     1     -31.829  20.716  57.333  1.00  0.00    -0.385 OA
ATOM     21  H   UNL     1     -31.460  19.800  57.209  1.00  0.00     0.211 HD
ENDBRANCH  15  20
ENDBRANCH   8   9
ENDBRANCH   7   8
ENDBRANCH   1   7
BRANCH   2  22
ATOM     22  O   UNL     1     -25.960  18.278  60.361  1.00  0.00    -0.387 OA
ATOM     23  H   UNL     1     -25.106  18.788  60.458  1.00  0.00     0.211 HD
ENDBRANCH   2  22
BRANCH   3  24
ATOM     24  O   UNL     1     -25.065  16.310  58.468  1.00  0.00    -0.387 OA
ATOM     25  H   UNL     1     -25.123  15.447  58.963  1.00  0.00     0.211 HD
ENDBRANCH   3  24
BRANCH   5  26
ATOM     26  O   UNL     1     -29.244  16.837  57.714  1.00  0.00    -0.454 OA
BRANCH  26  27
ATOM     27  C   UNL     1     -30.532  16.644  57.202  1.00  0.00     0.214 A 
ATOM     28  C   UNL     1     -30.880  17.106  55.918  1.00  0.00     0.180 A 
ATOM     29  C   UNL     1     -31.488  15.944  57.945  1.00  0.00     0.239 A 
ATOM     30  O   UNL     1     -32.044  16.770  55.382  1.00  0.00    -0.452 OA
ATOM     31  C   UNL     1     -32.734  15.633  57.358  1.00  0.00     0.111 A 
ATOM     32  O   UNL     1     -31.207  15.576  59.119  1.00  0.00    -0.285 OA
ATOM     33  C   UNL     1     -32.958  16.052  56.024  1.00  0.00     0.146 A 
ATOM     34  C   UNL     1     -33.747  14.911  58.032  1.00  0.00     0.134 A 
ATOM     35  C   UNL     1     -34.147  15.720  55.371  1.00  0.00     0.094 A 
ATOM     36  C   UNL     1     -34.936  14.589  57.361  1.00  0.00     0.093 A 
ATOM     37  C   UNL     1     -35.136  14.984  56.034  1.00  0.00     0.123 A 
BRANCH  28  38
ATOM     38  C   UNL     1     -29.972  17.977  55.154  1.00  0.00     0.025 A 
ATOM     39  C   UNL     1     -28.705  17.517  54.768  1.00  0.00     0.062 A 
ATOM     40  C   UNL     1     -30.355  19.290  54.851  1.00  0.00     0.016 A 
ATOM     41  C   UNL     1     -27.839  18.343  54.045  1.00  0.00     0.158 A 
ATOM     42  C   UNL     1     -29.499  20.119  54.121  1.00  0.00     0.051 A 
ATOM     43  C   UNL     1     -28.238  19.654  53.720  1.00  0.00     0.157 A 
BRANCH  41  44
ATOM     44  O   UNL     1     -26.595  17.849  53.661  1.00  0.00    -0.504 OA
ATOM     45  H   UNL     1     -25.885  17.616  54.342  1.00  0.00     0.293 HD
ENDBRANCH  41  44
BRANCH  43  46
ATOM     46  O   UNL     1     -27.382  20.485  52.998  1.00  0.00    -0.504 OA
ATOM     47  H   UNL     1     -27.066  21.367  53.371  1.00  0.00     0.293 HD
ENDBRANCH  43  46
ENDBRANCH  28  38
BRANCH  34  48
ATOM     48  O   UNL     1     -33.582  14.518  59.358  1.00  0.00    -0.507 OA
ATOM     49  H   UNL     1     -34.072  13.719  59.740  1.00  0.00     0.293 HD
ENDBRANCH  34  48
BRANCH  37  50
ATOM     50  O   UNL     1     -36.321  14.641  55.389  1.00  0.00    -0.508 OA
ATOM     51  H   UNL     1     -36.378  14.611  54.376  1.00  0.00     0.293 HD
ENDBRANCH  37  50
ENDBRANCH  26  27
ENDBRANCH   5  26
BRANCH   4  52
ATOM     52  O   UNL     1     -26.008  17.522  56.157  1.00  0.00    -0.384 OA
ATOM     53  H   UNL     1     -25.837  16.912  55.395  1.00  0.00     0.211 HD
ENDBRANCH   4  52
TORSDOF 16
ENDMDL
MODEL 8
REMARK VINA RESULT:     1.891      1.499      4.068
REMARK INTER + INTRA:           2.802
REMARK INTER:                  -0.435
REMARK INTRA:                   3.238
REMARK UNBOUND:                -0.304
REMARK SMILES C[C@@H]1O[C@@H](OC[C@@H]2O[C@H](Oc3c(-c4ccc(O)c(O)c4)oc4cc(O)cc(O)c4c3=O)[C@@H](O)[C@@H](O)[C@@H]2O)[C@H](O)[C@@H](O)[C@@H]1O
REMARK SMILES IDX 7 1 36 2 34 3 32 4 9 5 8 6 6 7 5 8 4 9 1 10 2 11 42 12 3 13
REMARK SMILES IDX 40 14 38 15 43 16 41 18 39 20 37 22 35 24 10 26 11 27 12 28
REMARK SMILES IDX 30 29 21 30 29 31 31 32 22 33 27 34 23 35 26 36 24 37 13 38
REMARK SMILES IDX 20 39 14 40 18 41 15 42 16 43 19 44 17 46 28 48 25 50 33 52
REMARK H PARENT 43 17 41 19 39 21 37 23 35 25 19 45 17 47 28 49 25 51 33 53
REMARK Flexibility Score: inf
ROOT
ATOM      1  C   UNL     1     -29.731  21.166  57.002  1.00  0.00     0.180 C 
ATOM      2  C   UNL     1     -30.113  22.111  58.191  1.00  0.00     0.177 C 
ATOM      3  C   UNL     1     -30.906  21.362  59.280  1.00  0.00     0.180 C 
ATOM      4  C   UNL     1     -30.179  20.063  59.650  1.00  0.00     0.214 C 
ATOM      5  C   UNL     1     -29.920  19.238  58.381  1.00  0.00     0.339 C 
ATOM      6  O   UNL     1     -29.139  19.946  57.431  1.00  0.00    -0.332 OA
ENDROOT
BRANCH   1   7
ATOM      7  C   UNL     1     -30.828  20.937  55.925  1.00  0.00     0.198 C 
BRANCH   7   8
ATOM      8  O   UNL     1     -30.545  19.794  55.143  1.00  0.00    -0.347 OA
BRANCH   8   9
ATOM      9  C   UNL     1     -29.192  19.741  54.713  1.00  0.00     0.281 C 
ATOM     10  C   UNL     1     -26.508  20.947  55.888  1.00  0.00     0.041 C 
ATOM     11  C   UNL     1     -27.193  20.982  54.511  1.00  0.00     0.150 C 
ATOM     12  C   UNL     1     -26.692  19.877  53.531  1.00  0.00     0.174 C 
ATOM     13  O   UNL     1     -28.612  21.036  54.652  1.00  0.00    -0.344 OA
ATOM     14  C   UNL     1     -27.833  19.483  52.562  1.00  0.00     0.179 C 
ATOM     15  C   UNL     1     -29.051  18.975  53.368  1.00  0.00     0.202 C 
BRANCH  12  16
ATOM     16  O   UNL     1     -26.255  18.738  54.235  1.00  0.00    -0.388 OA
ATOM     17  H   UNL     1     -26.980  18.499  54.869  1.00  0.00     0.211 HD
ENDBRANCH  12  16
BRANCH  14  18
ATOM     18  O   UNL     1     -28.238  20.547  51.718  1.00  0.00    -0.387 OA
ATOM     19  H   UNL     1     -28.249  20.237  50.779  1.00  0.00     0.211 HD
ENDBRANCH  14  18
BRANCH  15  20
ATOM     20  O   UNL     1     -28.909  17.599  53.624  1.00  0.00    -0.385 OA
ATOM     21  H   UNL     1     -29.494  17.388  54.401  1.00  0.00     0.211 HD
ENDBRANCH  15  20
ENDBRANCH   8   9
ENDBRANCH   7   8
ENDBRANCH   1   7
BRANCH   2  22
ATOM     22  O   UNL     1     -30.851  23.225  57.758  1.00  0.00    -0.387 OA
ATOM     23  H   UNL     1     -31.822  22.995  57.823  1.00  0.00     0.211 HD
ENDBRANCH   2  22
BRANCH   3  24
ATOM     24  O   UNL     1     -31.039  22.165  60.422  1.00  0.00    -0.387 OA
ATOM     25  H   UNL     1     -30.716  21.626  61.194  1.00  0.00     0.211 HD
ENDBRANCH   3  24
BRANCH   5  26
ATOM     26  O   UNL     1     -31.149  18.778  57.810  1.00  0.00    -0.454 OA
BRANCH  26  27
ATOM     27  C   UNL     1     -31.283  17.470  57.329  1.00  0.00     0.214 A 
ATOM     28  C   UNL     1     -30.223  16.549  57.424  1.00  0.00     0.180 A 
ATOM     29  C   UNL     1     -32.498  17.041  56.784  1.00  0.00     0.239 A 
ATOM     30  O   UNL     1     -30.419  15.274  57.121  1.00  0.00    -0.452 OA
ATOM     31  C   UNL     1     -32.663  15.684  56.436  1.00  0.00     0.111 A 
ATOM     32  O   UNL     1     -33.436  17.873  56.640  1.00  0.00    -0.285 OA
ATOM     33  C   UNL     1     -31.573  14.807  56.661  1.00  0.00     0.146 A 
ATOM     34  C   UNL     1     -33.865  15.164  55.900  1.00  0.00     0.134 A 
ATOM     35  C   UNL     1     -31.700  13.442  56.393  1.00  0.00     0.094 A 
ATOM     36  C   UNL     1     -33.972  13.790  55.635  1.00  0.00     0.093 A 
ATOM     37  C   UNL     1     -32.899  12.929  55.886  1.00  0.00     0.123 A 
BRANCH  28  38
ATOM     38  C   UNL     1     -28.879  16.980  57.845  1.00  0.00     0.025 A 
ATOM     39  C   UNL     1     -27.848  17.109  56.902  1.00  0.00     0.062 A 
ATOM     40  C   UNL     1     -28.615  17.218  59.200  1.00  0.00     0.016 A 
ATOM     41  C   UNL     1     -26.571  17.514  57.299  1.00  0.00     0.158 A 
ATOM     42  C   UNL     1     -27.342  17.632  59.602  1.00  0.00     0.051 A 
ATOM     43  C   UNL     1     -26.315  17.777  58.658  1.00  0.00     0.157 A 
BRANCH  41  44
ATOM     44  O   UNL     1     -25.574  17.649  56.335  1.00  0.00    -0.504 OA
ATOM     45  H   UNL     1     -24.814  16.987  56.265  1.00  0.00     0.293 HD
ENDBRANCH  41  44
BRANCH  43  46
ATOM     46  O   UNL     1     -25.044  18.183  59.063  1.00  0.00    -0.504 OA
ATOM     47  H   UNL     1     -24.917  18.859  59.802  1.00  0.00     0.293 HD
ENDBRANCH  43  46
ENDBRANCH  28  38
BRANCH  34  48
ATOM     48  O   UNL     1     -34.944  15.999  55.625  1.00  0.00    -0.507 OA
ATOM     49  H   UNL     1     -35.846  15.862  56.063  1.00  0.00     0.293 HD
ENDBRANCH  34  48
BRANCH  37  50
ATOM     50  O   UNL     1     -33.037  11.569  55.624  1.00  0.00    -0.508 OA
ATOM     51  H   UNL     1     -33.732  11.228  54.969  1.00  0.00     0.293 HD
ENDBRANCH  37  50
ENDBRANCH  26  27
ENDBRANCH   5  26
BRANCH   4  52
ATOM     52  O   UNL     1     -28.950  20.344  60.275  1.00  0.00    -0.384 OA
ATOM     53  H   UNL     1     -28.241  19.935  59.718  1.00  0.00     0.211 HD
ENDBRANCH   4  52
TORSDOF 16
ENDMDL
