MODEL 1
REMARK VINA RESULT:    -6.577      0.000      0.000
REMARK INTER + INTRA:          -8.474
REMARK INTER:                  -8.115
REMARK INTRA:                  -0.358
REMARK UNBOUND:                -0.358
REMARK SMILES Oc1cc(O)c2cc(O)c(-c3cc(O)c(O)c(O)c3)[o+]c2c1
REMARK SMILES IDX 10 1 20 2 21 3 22 4 2 5 3 6 4 7 6 8 7 9 8 10 11 11 12 12
REMARK SMILES IDX 13 13 19 14 15 15 17 16 14 17 16 19 18 21 9 23 1 25 5 27
REMARK H PARENT 14 18 16 20 18 22 9 24 1 26 5 28
REMARK Flexibility Score: inf
ROOT
ATOM      1  C   UNL     1      31.417 -35.930  36.076  1.00  0.00     0.402 A 
ATOM      2  O   UNL     1      30.125 -36.216  35.920  1.00  0.00    -0.202 OA
ATOM      3  C   UNL     1      29.690 -37.375  35.438  1.00  0.00     0.368 A 
ATOM      4  C   UNL     1      28.315 -37.600  35.310  1.00  0.00     0.162 A 
ATOM      5  C   UNL     1      27.843 -38.819  34.807  1.00  0.00     0.128 A 
ATOM      6  C   UNL     1      28.750 -39.815  34.431  1.00  0.00     0.093 A 
ATOM      7  C   UNL     1      30.132 -39.605  34.552  1.00  0.00     0.136 A 
ATOM      8  C   UNL     1      30.605 -38.380  35.058  1.00  0.00     0.125 A 
ATOM      9  C   UNL     1      31.972 -38.111  35.194  1.00  0.00     0.078 A 
ATOM     10  C   UNL     1      32.392 -36.875  35.696  1.00  0.00     0.223 A 
ENDROOT
BRANCH   1  11
ATOM     11  C   UNL     1      31.780 -34.607  36.631  1.00  0.00     0.091 A 
ATOM     12  C   UNL     1      31.826 -33.460  35.821  1.00  0.00     0.068 A 
ATOM     13  C   UNL     1      32.195 -32.221  36.361  1.00  0.00     0.162 A 
ATOM     14  C   UNL     1      32.141 -34.502  37.984  1.00  0.00     0.068 A 
ATOM     15  C   UNL     1      32.531 -32.119  37.717  1.00  0.00     0.200 A 
ATOM     16  C   UNL     1      32.508 -33.264  38.531  1.00  0.00     0.162 A 
BRANCH  13  17
ATOM     17  O   UNL     1      32.233 -31.084  35.555  1.00  0.00    -0.504 OA
ATOM     18  H   UNL     1      31.639 -30.992  34.740  1.00  0.00     0.293 HD
ENDBRANCH  13  17
BRANCH  15  19
ATOM     19  O   UNL     1      32.891 -30.876  38.239  1.00  0.00    -0.502 OA
ATOM     20  H   UNL     1      32.294 -30.063  38.156  1.00  0.00     0.293 HD
ENDBRANCH  15  19
BRANCH  16  21
ATOM     21  O   UNL     1      32.851 -33.170  39.879  1.00  0.00    -0.504 OA
ATOM     22  H   UNL     1      33.091 -32.283  40.306  1.00  0.00     0.293 HD
ENDBRANCH  16  21
ENDBRANCH   1  11
BRANCH  10  23
ATOM     23  O   UNL     1      33.752 -36.583  35.787  1.00  0.00    -0.500 OA
ATOM     24  H   UNL     1      34.190 -35.898  35.182  1.00  0.00     0.294 HD
ENDBRANCH  10  23
BRANCH   5  25
ATOM     25  O   UNL     1      26.477 -39.050  34.677  1.00  0.00    -0.507 OA
ATOM     26  H   UNL     1      25.964 -39.595  35.361  1.00  0.00     0.293 HD
ENDBRANCH   5  25
BRANCH   7  27
ATOM     27  O   UNL     1      31.025 -40.608  34.173  1.00  0.00    -0.507 OA
ATOM     28  H   UNL     1      31.045 -41.506  34.640  1.00  0.00     0.293 HD
ENDBRANCH   7  27
TORSDOF 7
ENDMDL
MODEL 2
REMARK VINA RESULT:    -6.495      1.726      2.604
REMARK INTER + INTRA:          -8.373
REMARK INTER:                  -7.996
REMARK INTRA:                  -0.376
REMARK UNBOUND:                -0.358
REMARK SMILES Oc1cc(O)c2cc(O)c(-c3cc(O)c(O)c(O)c3)[o+]c2c1
REMARK SMILES IDX 10 1 20 2 21 3 22 4 2 5 3 6 4 7 6 8 7 9 8 10 11 11 12 12
REMARK SMILES IDX 13 13 19 14 15 15 17 16 14 17 16 19 18 21 9 23 1 25 5 27
REMARK H PARENT 14 18 16 20 18 22 9 24 1 26 5 28
REMARK Flexibility Score: inf
ROOT
ATOM      1  C   UNL     1      31.784 -35.195  35.677  1.00  0.00     0.402 A 
ATOM      2  O   UNL     1      31.095 -36.301  35.957  1.00  0.00    -0.202 OA
ATOM      3  C   UNL     1      31.091 -37.374  35.173  1.00  0.00     0.368 A 
ATOM      4  C   UNL     1      30.345 -38.498  35.541  1.00  0.00     0.162 A 
ATOM      5  C   UNL     1      30.336 -39.637  34.725  1.00  0.00     0.128 A 
ATOM      6  C   UNL     1      31.075 -39.649  33.538  1.00  0.00     0.093 A 
ATOM      7  C   UNL     1      31.828 -38.529  33.154  1.00  0.00     0.136 A 
ATOM      8  C   UNL     1      31.837 -37.385  33.975  1.00  0.00     0.125 A 
ATOM      9  C   UNL     1      32.563 -36.236  33.639  1.00  0.00     0.078 A 
ATOM     10  C   UNL     1      32.534 -35.123  34.485  1.00  0.00     0.223 A 
ENDROOT
BRANCH   1  11
ATOM     11  C   UNL     1      31.717 -34.067  36.632  1.00  0.00     0.091 A 
ATOM     12  C   UNL     1      32.568 -34.000  37.747  1.00  0.00     0.068 A 
ATOM     13  C   UNL     1      32.473 -32.934  38.653  1.00  0.00     0.162 A 
ATOM     14  C   UNL     1      30.744 -33.069  36.455  1.00  0.00     0.068 A 
ATOM     15  C   UNL     1      31.516 -31.931  38.457  1.00  0.00     0.200 A 
ATOM     16  C   UNL     1      30.646 -32.000  37.357  1.00  0.00     0.162 A 
BRANCH  13  17
ATOM     17  O   UNL     1      33.325 -32.868  39.755  1.00  0.00    -0.504 OA
ATOM     18  H   UNL     1      34.052 -32.166  39.821  1.00  0.00     0.293 HD
ENDBRANCH  13  17
BRANCH  15  19
ATOM     19  O   UNL     1      31.439 -30.875  39.367  1.00  0.00    -0.502 OA
ATOM     20  H   UNL     1      32.245 -30.315  39.612  1.00  0.00     0.293 HD
ENDBRANCH  15  19
BRANCH  16  21
ATOM     21  O   UNL     1      29.685 -31.009  37.162  1.00  0.00    -0.504 OA
ATOM     22  H   UNL     1      29.034 -31.044  36.386  1.00  0.00     0.293 HD
ENDBRANCH  16  21
ENDBRANCH   1  11
BRANCH  10  23
ATOM     23  O   UNL     1      33.214 -33.958  34.131  1.00  0.00    -0.500 OA
ATOM     24  H   UNL     1      32.726 -33.085  33.972  1.00  0.00     0.294 HD
ENDBRANCH  10  23
BRANCH   5  25
ATOM     25  O   UNL     1      29.596 -40.760  35.085  1.00  0.00    -0.507 OA
ATOM     26  H   UNL     1      28.814 -40.696  35.727  1.00  0.00     0.293 HD
ENDBRANCH   5  25
BRANCH   7  27
ATOM     27  O   UNL     1      32.560 -38.555  31.967  1.00  0.00    -0.507 OA
ATOM     28  H   UNL     1      32.156 -38.891  31.101  1.00  0.00     0.293 HD
ENDBRANCH   7  27
TORSDOF 7
ENDMDL
MODEL 3
REMARK VINA RESULT:    -6.455      1.770      2.146
REMARK INTER + INTRA:          -8.323
REMARK INTER:                  -7.943
REMARK INTRA:                  -0.379
REMARK UNBOUND:                -0.358
REMARK SMILES Oc1cc(O)c2cc(O)c(-c3cc(O)c(O)c(O)c3)[o+]c2c1
REMARK SMILES IDX 10 1 20 2 21 3 22 4 2 5 3 6 4 7 6 8 7 9 8 10 11 11 12 12
REMARK SMILES IDX 13 13 19 14 15 15 17 16 14 17 16 19 18 21 9 23 1 25 5 27
REMARK H PARENT 14 18 16 20 18 22 9 24 1 26 5 28
REMARK Flexibility Score: inf
ROOT
ATOM      1  C   UNL     1      31.681 -35.124  35.790  1.00  0.00     0.402 A 
ATOM      2  O   UNL     1      31.021 -36.252  36.051  1.00  0.00    -0.202 OA
ATOM      3  C   UNL     1      31.024 -37.302  35.236  1.00  0.00     0.368 A 
ATOM      4  C   UNL     1      30.308 -38.452  35.586  1.00  0.00     0.162 A 
ATOM      5  C   UNL     1      30.307 -39.567  34.738  1.00  0.00     0.128 A 
ATOM      6  C   UNL     1      31.024 -39.530  33.537  1.00  0.00     0.093 A 
ATOM      7  C   UNL     1      31.745 -38.384  33.171  1.00  0.00     0.136 A 
ATOM      8  C   UNL     1      31.747 -37.264  34.024  1.00  0.00     0.125 A 
ATOM      9  C   UNL     1      32.442 -36.091  33.709  1.00  0.00     0.078 A 
ATOM     10  C   UNL     1      32.406 -35.003  34.587  1.00  0.00     0.223 A 
ENDROOT
BRANCH   1  11
ATOM     11  C   UNL     1      31.609 -34.025  36.778  1.00  0.00     0.091 A 
ATOM     12  C   UNL     1      30.635 -33.019  36.684  1.00  0.00     0.068 A 
ATOM     13  C   UNL     1      30.598 -31.973  37.617  1.00  0.00     0.162 A 
ATOM     14  C   UNL     1      32.569 -33.954  37.801  1.00  0.00     0.068 A 
ATOM     15  C   UNL     1      31.544 -31.921  38.649  1.00  0.00     0.200 A 
ATOM     16  C   UNL     1      32.536 -32.912  38.739  1.00  0.00     0.162 A 
BRANCH  13  17
ATOM     17  O   UNL     1      29.625 -30.979  37.524  1.00  0.00    -0.504 OA
ATOM     18  H   UNL     1      29.611 -30.190  38.159  1.00  0.00     0.293 HD
ENDBRANCH  13  17
BRANCH  15  19
ATOM     19  O   UNL     1      31.490 -30.875  39.572  1.00  0.00    -0.502 OA
ATOM     20  H   UNL     1      32.165 -30.782  40.320  1.00  0.00     0.293 HD
ENDBRANCH  15  19
BRANCH  16  21
ATOM     21  O   UNL     1      33.486 -32.859  39.757  1.00  0.00    -0.504 OA
ATOM     22  H   UNL     1      33.584 -32.043  40.352  1.00  0.00     0.293 HD
ENDBRANCH  16  21
ENDBRANCH   1  11
BRANCH  10  23
ATOM     23  O   UNL     1      33.056 -33.815  34.254  1.00  0.00    -0.500 OA
ATOM     24  H   UNL     1      32.974 -32.985  34.830  1.00  0.00     0.294 HD
ENDBRANCH  10  23
BRANCH   5  25
ATOM     25  O   UNL     1      29.597 -40.715  35.079  1.00  0.00    -0.507 OA
ATOM     26  H   UNL     1      29.056 -41.228  34.391  1.00  0.00     0.293 HD
ENDBRANCH   5  25
BRANCH   7  27
ATOM     27  O   UNL     1      32.455 -38.361  31.971  1.00  0.00    -0.507 OA
ATOM     28  H   UNL     1      32.810 -39.210  31.547  1.00  0.00     0.293 HD
ENDBRANCH   7  27
TORSDOF 7
ENDMDL
MODEL 4
REMARK VINA RESULT:    -6.418      2.469      7.150
REMARK INTER + INTRA:          -8.278
REMARK INTER:                  -7.944
REMARK INTRA:                  -0.334
REMARK UNBOUND:                -0.358
REMARK SMILES Oc1cc(O)c2cc(O)c(-c3cc(O)c(O)c(O)c3)[o+]c2c1
REMARK SMILES IDX 10 1 20 2 21 3 22 4 2 5 3 6 4 7 6 8 7 9 8 10 11 11 12 12
REMARK SMILES IDX 13 13 19 14 15 15 17 16 14 17 16 19 18 21 9 23 1 25 5 27
REMARK H PARENT 14 18 16 20 18 22 9 24 1 26 5 28
REMARK Flexibility Score: inf
ROOT
ATOM      1  C   UNL     1      32.898 -35.676  34.994  1.00  0.00     0.402 A 
ATOM      2  O   UNL     1      32.903 -35.368  36.290  1.00  0.00    -0.202 OA
ATOM      3  C   UNL     1      32.550 -34.174  36.756  1.00  0.00     0.368 A 
ATOM      4  C   UNL     1      32.579 -33.932  38.133  1.00  0.00     0.162 A 
ATOM      5  C   UNL     1      32.205 -32.680  38.638  1.00  0.00     0.128 A 
ATOM      6  C   UNL     1      31.802 -31.668  37.760  1.00  0.00     0.093 A 
ATOM      7  C   UNL     1      31.768 -31.894  36.376  1.00  0.00     0.136 A 
ATOM      8  C   UNL     1      32.144 -33.154  35.870  1.00  0.00     0.125 A 
ATOM      9  C   UNL     1      32.138 -33.435  34.499  1.00  0.00     0.078 A 
ATOM     10  C   UNL     1      32.526 -34.700  34.047  1.00  0.00     0.223 A 
ENDROOT
BRANCH   1  11
ATOM     11  C   UNL     1      33.304 -37.042  34.596  1.00  0.00     0.091 A 
ATOM     12  C   UNL     1      34.656 -37.418  34.545  1.00  0.00     0.068 A 
ATOM     13  C   UNL     1      35.022 -38.710  34.143  1.00  0.00     0.162 A 
ATOM     14  C   UNL     1      32.322 -37.968  34.208  1.00  0.00     0.068 A 
ATOM     15  C   UNL     1      34.036 -39.636  33.779  1.00  0.00     0.200 A 
ATOM     16  C   UNL     1      32.682 -39.263  33.807  1.00  0.00     0.162 A 
BRANCH  13  17
ATOM     17  O   UNL     1      36.365 -39.081  34.100  1.00  0.00    -0.504 OA
ATOM     18  H   UNL     1      36.881 -39.101  33.228  1.00  0.00     0.293 HD
ENDBRANCH  13  17
BRANCH  15  19
ATOM     19  O   UNL     1      34.418 -40.920  33.386  1.00  0.00    -0.502 OA
ATOM     20  H   UNL     1      34.916 -41.093  32.523  1.00  0.00     0.293 HD
ENDBRANCH  15  19
BRANCH  16  21
ATOM     21  O   UNL     1      31.697 -40.178  33.437  1.00  0.00    -0.504 OA
ATOM     22  H   UNL     1      30.711 -39.976  33.558  1.00  0.00     0.293 HD
ENDBRANCH  16  21
ENDBRANCH   1  11
BRANCH  10  23
ATOM     23  O   UNL     1      32.570 -34.970  32.679  1.00  0.00    -0.500 OA
ATOM     24  H   UNL     1      31.808 -34.716  32.062  1.00  0.00     0.294 HD
ENDBRANCH  10  23
BRANCH   5  25
ATOM     25  O   UNL     1      32.230 -32.431  40.007  1.00  0.00    -0.507 OA
ATOM     26  H   UNL     1      32.150 -33.182  40.684  1.00  0.00     0.293 HD
ENDBRANCH   5  25
BRANCH   7  27
ATOM     27  O   UNL     1      31.365 -30.876  35.513  1.00  0.00    -0.507 OA
ATOM     28  H   UNL     1      30.387 -30.709  35.307  1.00  0.00     0.293 HD
ENDBRANCH   7  27
TORSDOF 7
ENDMDL
MODEL 5
REMARK VINA RESULT:    -6.392      0.838      1.981
REMARK INTER + INTRA:          -8.245
REMARK INTER:                  -8.191
REMARK INTRA:                  -0.054
REMARK UNBOUND:                -0.358
REMARK SMILES Oc1cc(O)c2cc(O)c(-c3cc(O)c(O)c(O)c3)[o+]c2c1
REMARK SMILES IDX 10 1 20 2 21 3 22 4 2 5 3 6 4 7 6 8 7 9 8 10 11 11 12 12
REMARK SMILES IDX 13 13 19 14 15 15 17 16 14 17 16 19 18 21 9 23 1 25 5 27
REMARK H PARENT 14 18 16 20 18 22 9 24 1 26 5 28
REMARK Flexibility Score: inf
ROOT
ATOM      1  C   UNL     1      30.854 -35.866  36.093  1.00  0.00     0.402 A 
ATOM      2  O   UNL     1      29.612 -35.877  35.610  1.00  0.00    -0.202 OA
ATOM      3  C   UNL     1      29.013 -36.979  35.168  1.00  0.00     0.368 A 
ATOM      4  C   UNL     1      27.705 -36.907  34.680  1.00  0.00     0.162 A 
ATOM      5  C   UNL     1      27.061 -38.061  34.216  1.00  0.00     0.128 A 
ATOM      6  C   UNL     1      27.730 -39.290  34.240  1.00  0.00     0.093 A 
ATOM      7  C   UNL     1      29.043 -39.378  34.726  1.00  0.00     0.136 A 
ATOM      8  C   UNL     1      29.689 -38.218  35.193  1.00  0.00     0.125 A 
ATOM      9  C   UNL     1      31.001 -38.243  35.681  1.00  0.00     0.078 A 
ATOM     10  C   UNL     1      31.600 -37.061  36.127  1.00  0.00     0.223 A 
ENDROOT
BRANCH   1  11
ATOM     11  C   UNL     1      31.411 -34.578  36.563  1.00  0.00     0.091 A 
ATOM     12  C   UNL     1      32.080 -34.475  37.794  1.00  0.00     0.068 A 
ATOM     13  C   UNL     1      32.580 -33.241  38.232  1.00  0.00     0.162 A 
ATOM     14  C   UNL     1      31.219 -33.420  35.792  1.00  0.00     0.068 A 
ATOM     15  C   UNL     1      32.405 -32.095  37.446  1.00  0.00     0.200 A 
ATOM     16  C   UNL     1      31.718 -32.184  36.224  1.00  0.00     0.162 A 
BRANCH  13  17
ATOM     17  O   UNL     1      33.250 -33.144  39.451  1.00  0.00    -0.504 OA
ATOM     18  H   UNL     1      34.021 -33.759  39.682  1.00  0.00     0.293 HD
ENDBRANCH  13  17
BRANCH  15  19
ATOM     19  O   UNL     1      32.913 -30.875  37.896  1.00  0.00    -0.502 OA
ATOM     20  H   UNL     1      33.403 -30.788  38.777  1.00  0.00     0.293 HD
ENDBRANCH  15  19
BRANCH  16  21
ATOM     21  O   UNL     1      31.533 -31.044  35.442  1.00  0.00    -0.504 OA
ATOM     22  H   UNL     1      32.063 -30.890  34.592  1.00  0.00     0.293 HD
ENDBRANCH  16  21
ENDBRANCH   1  11
BRANCH  10  23
ATOM     23  O   UNL     1      32.923 -37.072  36.568  1.00  0.00    -0.500 OA
ATOM     24  H   UNL     1      33.636 -37.617  36.097  1.00  0.00     0.294 HD
ENDBRANCH  10  23
BRANCH   5  25
ATOM     25  O   UNL     1      25.758 -37.999  33.728  1.00  0.00    -0.507 OA
ATOM     26  H   UNL     1      25.331 -38.787  33.254  1.00  0.00     0.293 HD
ENDBRANCH   5  25
BRANCH   7  27
ATOM     27  O   UNL     1      29.698 -40.609  34.744  1.00  0.00    -0.507 OA
ATOM     28  H   UNL     1      29.329 -41.400  35.258  1.00  0.00     0.293 HD
ENDBRANCH   7  27
TORSDOF 7
ENDMDL
MODEL 6
REMARK VINA RESULT:    -6.358      1.886      4.131
REMARK INTER + INTRA:          -8.203
REMARK INTER:                  -7.829
REMARK INTRA:                  -0.374
REMARK UNBOUND:                -0.358
REMARK SMILES Oc1cc(O)c2cc(O)c(-c3cc(O)c(O)c(O)c3)[o+]c2c1
REMARK SMILES IDX 10 1 20 2 21 3 22 4 2 5 3 6 4 7 6 8 7 9 8 10 11 11 12 12
REMARK SMILES IDX 13 13 19 14 15 15 17 16 14 17 16 19 18 21 9 23 1 25 5 27
REMARK H PARENT 14 18 16 20 18 22 9 24 1 26 5 28
REMARK Flexibility Score: inf
ROOT
ATOM      1  C   UNL     1      32.512 -35.795  35.848  1.00  0.00     0.402 A 
ATOM      2  O   UNL     1      33.707 -36.326  35.596  1.00  0.00    -0.202 OA
ATOM      3  C   UNL     1      33.873 -37.461  34.924  1.00  0.00     0.368 A 
ATOM      4  C   UNL     1      35.163 -37.949  34.697  1.00  0.00     0.162 A 
ATOM      5  C   UNL     1      35.351 -39.142  33.987  1.00  0.00     0.128 A 
ATOM      6  C   UNL     1      34.243 -39.848  33.504  1.00  0.00     0.093 A 
ATOM      7  C   UNL     1      32.942 -39.372  33.725  1.00  0.00     0.136 A 
ATOM      8  C   UNL     1      32.755 -38.173  34.438  1.00  0.00     0.125 A 
ATOM      9  C   UNL     1      31.480 -37.654  34.696  1.00  0.00     0.078 A 
ATOM     10  C   UNL     1      31.347 -36.462  35.415  1.00  0.00     0.223 A 
ENDROOT
BRANCH   1  11
ATOM     11  C   UNL     1      32.455 -34.521  36.599  1.00  0.00     0.091 A 
ATOM     12  C   UNL     1      32.464 -34.498  38.003  1.00  0.00     0.068 A 
ATOM     13  C   UNL     1      32.386 -33.282  38.696  1.00  0.00     0.162 A 
ATOM     14  C   UNL     1      32.332 -33.311  35.896  1.00  0.00     0.068 A 
ATOM     15  C   UNL     1      32.288 -32.077  37.988  1.00  0.00     0.200 A 
ATOM     16  C   UNL     1      32.256 -32.092  36.584  1.00  0.00     0.162 A 
BRANCH  13  17
ATOM     17  O   UNL     1      32.403 -33.262  40.090  1.00  0.00    -0.504 OA
ATOM     18  H   UNL     1      31.615 -33.594  40.634  1.00  0.00     0.293 HD
ENDBRANCH  13  17
BRANCH  15  19
ATOM     19  O   UNL     1      32.215 -30.875  38.694  1.00  0.00    -0.502 OA
ATOM     20  H   UNL     1      32.977 -30.208  38.702  1.00  0.00     0.293 HD
ENDBRANCH  15  19
BRANCH  16  21
ATOM     21  O   UNL     1      32.148 -30.896  35.875  1.00  0.00    -0.504 OA
ATOM     22  H   UNL     1      32.961 -30.329  35.661  1.00  0.00     0.293 HD
ENDBRANCH  16  21
ENDBRANCH   1  11
BRANCH  10  23
ATOM     23  O   UNL     1      30.079 -35.966  35.718  1.00  0.00    -0.500 OA
ATOM     24  H   UNL     1      29.309 -36.040  35.063  1.00  0.00     0.294 HD
ENDBRANCH  10  23
BRANCH   5  25
ATOM     25  O   UNL     1      36.632 -39.635  33.756  1.00  0.00    -0.507 OA
ATOM     26  H   UNL     1      37.355 -39.586  34.465  1.00  0.00     0.293 HD
ENDBRANCH   5  25
BRANCH   7  27
ATOM     27  O   UNL     1      31.847 -40.086  33.239  1.00  0.00    -0.507 OA
ATOM     28  H   UNL     1      31.876 -41.092  33.126  1.00  0.00     0.293 HD
ENDBRANCH   7  27
TORSDOF 7
ENDMDL
MODEL 7
REMARK VINA RESULT:    -6.336      1.238      7.261
REMARK INTER + INTRA:          -8.176
REMARK INTER:                  -7.992
REMARK INTRA:                  -0.184
REMARK UNBOUND:                -0.358
REMARK SMILES Oc1cc(O)c2cc(O)c(-c3cc(O)c(O)c(O)c3)[o+]c2c1
REMARK SMILES IDX 10 1 20 2 21 3 22 4 2 5 3 6 4 7 6 8 7 9 8 10 11 11 12 12
REMARK SMILES IDX 13 13 19 14 15 15 17 16 14 17 16 19 18 21 9 23 1 25 5 27
REMARK H PARENT 14 18 16 20 18 22 9 24 1 26 5 28
REMARK Flexibility Score: inf
ROOT
ATOM      1  C   UNL     1      30.097 -35.725  35.278  1.00  0.00     0.402 A 
ATOM      2  O   UNL     1      30.810 -35.533  36.387  1.00  0.00    -0.202 OA
ATOM      3  C   UNL     1      31.356 -34.364  36.707  1.00  0.00     0.368 A 
ATOM      4  C   UNL     1      32.088 -34.242  37.893  1.00  0.00     0.162 A 
ATOM      5  C   UNL     1      32.665 -33.015  38.243  1.00  0.00     0.128 A 
ATOM      6  C   UNL     1      32.509 -31.907  37.404  1.00  0.00     0.093 A 
ATOM      7  C   UNL     1      31.779 -32.012  36.211  1.00  0.00     0.136 A 
ATOM      8  C   UNL     1      31.199 -33.246  35.859  1.00  0.00     0.125 A 
ATOM      9  C   UNL     1      30.467 -33.413  34.678  1.00  0.00     0.078 A 
ATOM     10  C   UNL     1      29.916 -34.661  34.371  1.00  0.00     0.223 A 
ENDROOT
BRANCH   1  11
ATOM     11  C   UNL     1      29.531 -37.071  35.034  1.00  0.00     0.091 A 
ATOM     12  C   UNL     1      28.152 -37.263  34.851  1.00  0.00     0.068 A 
ATOM     13  C   UNL     1      27.634 -38.549  34.644  1.00  0.00     0.162 A 
ATOM     14  C   UNL     1      30.382 -38.188  35.041  1.00  0.00     0.068 A 
ATOM     15  C   UNL     1      28.491 -39.656  34.629  1.00  0.00     0.200 A 
ATOM     16  C   UNL     1      29.869 -39.476  34.833  1.00  0.00     0.162 A 
BRANCH  13  17
ATOM     17  O   UNL     1      26.265 -38.735  34.455  1.00  0.00    -0.504 OA
ATOM     18  H   UNL     1      25.624 -37.951  34.418  1.00  0.00     0.293 HD
ENDBRANCH  13  17
BRANCH  15  19
ATOM     19  O   UNL     1      27.958 -40.929  34.417  1.00  0.00    -0.502 OA
ATOM     20  H   UNL     1      27.045 -41.068  34.002  1.00  0.00     0.293 HD
ENDBRANCH  15  19
BRANCH  16  21
ATOM     21  O   UNL     1      30.725 -40.576  34.829  1.00  0.00    -0.504 OA
ATOM     22  H   UNL     1      31.076 -40.974  33.965  1.00  0.00     0.293 HD
ENDBRANCH  16  21
ENDBRANCH   1  11
BRANCH  10  23
ATOM     23  O   UNL     1      29.229 -34.846  33.172  1.00  0.00    -0.500 OA
ATOM     24  H   UNL     1      29.035 -34.073  32.546  1.00  0.00     0.294 HD
ENDBRANCH  10  23
BRANCH   5  25
ATOM     25  O   UNL     1      33.394 -32.886  39.422  1.00  0.00    -0.507 OA
ATOM     26  H   UNL     1      34.353 -33.211  39.491  1.00  0.00     0.293 HD
ENDBRANCH   5  25
BRANCH   7  27
ATOM     27  O   UNL     1      31.632 -30.899  35.383  1.00  0.00    -0.507 OA
ATOM     28  H   UNL     1      32.322 -30.158  35.362  1.00  0.00     0.293 HD
ENDBRANCH   7  27
TORSDOF 7
ENDMDL
MODEL 8
REMARK VINA RESULT:    -6.292      1.672      2.891
REMARK INTER + INTRA:          -8.121
REMARK INTER:                  -7.842
REMARK INTRA:                  -0.279
REMARK UNBOUND:                -0.358
REMARK SMILES Oc1cc(O)c2cc(O)c(-c3cc(O)c(O)c(O)c3)[o+]c2c1
REMARK SMILES IDX 10 1 20 2 21 3 22 4 2 5 3 6 4 7 6 8 7 9 8 10 11 11 12 12
REMARK SMILES IDX 13 13 19 14 15 15 17 16 14 17 16 19 18 21 9 23 1 25 5 27
REMARK H PARENT 14 18 16 20 18 22 9 24 1 26 5 28
REMARK Flexibility Score: inf
ROOT
ATOM      1  C   UNL     1      30.855 -35.945  36.695  1.00  0.00     0.402 A 
ATOM      2  O   UNL     1      31.736 -36.370  35.791  1.00  0.00    -0.202 OA
ATOM      3  C   UNL     1      31.623 -37.533  35.156  1.00  0.00     0.368 A 
ATOM      4  C   UNL     1      32.589 -37.905  34.215  1.00  0.00     0.162 A 
ATOM      5  C   UNL     1      32.478 -39.125  33.536  1.00  0.00     0.128 A 
ATOM      6  C   UNL     1      31.399 -39.975  33.800  1.00  0.00     0.093 A 
ATOM      7  C   UNL     1      30.422 -39.616  34.741  1.00  0.00     0.136 A 
ATOM      8  C   UNL     1      30.533 -38.389  35.423  1.00  0.00     0.125 A 
ATOM      9  C   UNL     1      29.594 -37.983  36.378  1.00  0.00     0.078 A 
ATOM     10  C   UNL     1      29.753 -36.757  37.032  1.00  0.00     0.223 A 
ENDROOT
BRANCH   1  11
ATOM     11  C   UNL     1      31.084 -34.627  37.330  1.00  0.00     0.091 A 
ATOM     12  C   UNL     1      30.217 -33.546  37.104  1.00  0.00     0.068 A 
ATOM     13  C   UNL     1      30.465 -32.299  37.696  1.00  0.00     0.162 A 
ATOM     14  C   UNL     1      32.222 -34.436  38.131  1.00  0.00     0.068 A 
ATOM     15  C   UNL     1      31.589 -32.122  38.512  1.00  0.00     0.200 A 
ATOM     16  C   UNL     1      32.473 -33.192  38.727  1.00  0.00     0.162 A 
BRANCH  13  17
ATOM     17  O   UNL     1      29.598 -31.230  37.475  1.00  0.00    -0.504 OA
ATOM     18  H   UNL     1      29.937 -30.278  37.409  1.00  0.00     0.293 HD
ENDBRANCH  13  17
BRANCH  15  19
ATOM     19  O   UNL     1      31.817 -30.875  39.098  1.00  0.00    -0.502 OA
ATOM     20  H   UNL     1      32.631 -30.689  39.668  1.00  0.00     0.293 HD
ENDBRANCH  15  19
BRANCH  16  21
ATOM     21  O   UNL     1      33.599 -33.018  39.531  1.00  0.00    -0.504 OA
ATOM     22  H   UNL     1      33.873 -32.103  39.870  1.00  0.00     0.293 HD
ENDBRANCH  16  21
ENDBRANCH   1  11
BRANCH  10  23
ATOM     23  O   UNL     1      28.849 -36.370  38.020  1.00  0.00    -0.500 OA
ATOM     24  H   UNL     1      28.749 -35.401  38.299  1.00  0.00     0.294 HD
ENDBRANCH  10  23
BRANCH   5  25
ATOM     25  O   UNL     1      33.435 -39.503  32.598  1.00  0.00    -0.507 OA
ATOM     26  H   UNL     1      33.676 -40.476  32.449  1.00  0.00     0.293 HD
ENDBRANCH   5  25
BRANCH   7  27
ATOM     27  O   UNL     1      29.351 -40.473  34.995  1.00  0.00    -0.507 OA
ATOM     28  H   UNL     1      28.709 -40.752  34.263  1.00  0.00     0.293 HD
ENDBRANCH   7  27
TORSDOF 7
ENDMDL
MODEL 9
REMARK VINA RESULT:    -6.077      4.081      7.165
REMARK INTER + INTRA:          -7.857
REMARK INTER:                  -7.486
REMARK INTRA:                  -0.371
REMARK UNBOUND:                -0.358
REMARK SMILES Oc1cc(O)c2cc(O)c(-c3cc(O)c(O)c(O)c3)[o+]c2c1
REMARK SMILES IDX 10 1 20 2 21 3 22 4 2 5 3 6 4 7 6 8 7 9 8 10 11 11 12 12
REMARK SMILES IDX 13 13 19 14 15 15 17 16 14 17 16 19 18 21 9 23 1 25 5 27
REMARK H PARENT 14 18 16 20 18 22 9 24 1 26 5 28
REMARK Flexibility Score: inf
ROOT
ATOM      1  C   UNL     1      32.338 -38.478  33.570  1.00  0.00     0.402 A 
ATOM      2  O   UNL     1      32.884 -38.775  32.391  1.00  0.00    -0.202 OA
ATOM      3  C   UNL     1      34.193 -38.733  32.165  1.00  0.00     0.368 A 
ATOM      4  C   UNL     1      34.688 -39.065  30.900  1.00  0.00     0.162 A 
ATOM      5  C   UNL     1      36.066 -39.028  30.650  1.00  0.00     0.128 A 
ATOM      6  C   UNL     1      36.950 -38.659  31.669  1.00  0.00     0.093 A 
ATOM      7  C   UNL     1      36.469 -38.322  32.943  1.00  0.00     0.136 A 
ATOM      8  C   UNL     1      35.084 -38.359  33.194  1.00  0.00     0.125 A 
ATOM      9  C   UNL     1      34.546 -38.026  34.443  1.00  0.00     0.078 A 
ATOM     10  C   UNL     1      33.163 -38.073  34.639  1.00  0.00     0.223 A 
ENDROOT
BRANCH   1  11
ATOM     11  C   UNL     1      30.866 -38.569  33.703  1.00  0.00     0.091 A 
ATOM     12  C   UNL     1      30.030 -37.503  33.331  1.00  0.00     0.068 A 
ATOM     13  C   UNL     1      28.641 -37.601  33.487  1.00  0.00     0.162 A 
ATOM     14  C   UNL     1      30.295 -39.722  34.264  1.00  0.00     0.068 A 
ATOM     15  C   UNL     1      28.076 -38.763  34.026  1.00  0.00     0.200 A 
ATOM     16  C   UNL     1      28.905 -39.826  34.421  1.00  0.00     0.162 A 
BRANCH  13  17
ATOM     17  O   UNL     1      27.813 -36.543  33.111  1.00  0.00    -0.504 OA
ATOM     18  H   UNL     1      27.881 -36.118  32.194  1.00  0.00     0.293 HD
ENDBRANCH  13  17
BRANCH  15  19
ATOM     19  O   UNL     1      26.690 -38.845  34.170  1.00  0.00    -0.502 OA
ATOM     20  H   UNL     1      26.178 -39.698  33.983  1.00  0.00     0.293 HD
ENDBRANCH  15  19
BRANCH  16  21
ATOM     21  O   UNL     1      28.349 -40.982  34.967  1.00  0.00    -0.504 OA
ATOM     22  H   UNL     1      27.364 -41.198  34.862  1.00  0.00     0.293 HD
ENDBRANCH  16  21
ENDBRANCH   1  11
BRANCH  10  23
ATOM     23  O   UNL     1      32.618 -37.694  35.866  1.00  0.00    -0.500 OA
ATOM     24  H   UNL     1      33.074 -37.919  36.742  1.00  0.00     0.294 HD
ENDBRANCH  10  23
BRANCH   5  25
ATOM     25  O   UNL     1      36.567 -39.357  29.393  1.00  0.00    -0.507 OA
ATOM     26  H   UNL     1      36.193 -38.941  28.548  1.00  0.00     0.293 HD
ENDBRANCH   5  25
BRANCH   7  27
ATOM     27  O   UNL     1      37.361 -37.955  33.950  1.00  0.00    -0.507 OA
ATOM     28  H   UNL     1      37.981 -38.629  34.384  1.00  0.00     0.293 HD
ENDBRANCH   7  27
TORSDOF 7
ENDMDL
