MODEL 1
REMARK VINA RESULT:    -6.703      0.000      0.000
REMARK INTER + INTRA:         -10.999
REMARK INTER:                  -9.642
REMARK INTRA:                  -1.357
REMARK UNBOUND:                -1.357
REMARK SMILES O=c1c(O[C@H]2O[C@@H](CO)[C@H](O)[C@@H](O)[C@@H]2O)c(-c2ccc(O)cc2)oc2cc(O)cc(O)c12
REMARK SMILES IDX 4 1 3 2 16 3 24 4 2 5 25 6 1 7 32 8 26 9 30 10 27 11 29 12
REMARK SMILES IDX 17 13 18 14 19 15 20 16 23 17 22 18 21 19 31 21 28 23 5 25
REMARK SMILES IDX 14 26 6 27 12 28 7 29 10 30 15 31 13 33 8 35 9 36 11 38
REMARK H PARENT 21 20 31 22 28 24 15 32 13 34 9 37 11 39
REMARK Flexibility Score: inf
ROOT
ATOM      1  O   UNL     1      13.973 -36.348   0.016  1.00  0.00    -0.454 OA
ENDROOT
BRANCH   1   2
ATOM      2  C   UNL     1      14.930 -36.739  -0.941  1.00  0.00     0.214 A 
ATOM      3  C   UNL     1      14.647 -36.538  -2.301  1.00  0.00     0.180 A 
ATOM      4  O   UNL     1      15.474 -36.996  -3.233  1.00  0.00    -0.452 OA
ATOM      5  C   UNL     1      16.149 -37.358  -0.596  1.00  0.00     0.239 A 
ATOM      6  C   UNL     1      16.620 -37.603  -2.957  1.00  0.00     0.146 A 
ATOM      7  O   UNL     1      16.416 -37.559   0.619  1.00  0.00    -0.285 OA
ATOM      8  C   UNL     1      17.044 -37.771  -1.614  1.00  0.00     0.111 A 
ATOM      9  C   UNL     1      17.398 -38.078  -4.018  1.00  0.00     0.094 A 
ATOM     10  C   UNL     1      18.316 -38.376  -1.377  1.00  0.00     0.134 A 
ATOM     11  C   UNL     1      18.607 -38.724  -3.772  1.00  0.00     0.123 A 
ATOM     12  C   UNL     1      19.061 -38.868  -2.458  1.00  0.00     0.093 A 
BRANCH   3  13
ATOM     13  C   UNL     1      13.408 -35.869  -2.742  1.00  0.00     0.021 A 
ATOM     14  C   UNL     1      12.213 -36.602  -2.829  1.00  0.00     0.016 A 
ATOM     15  C   UNL     1      11.034 -35.982  -3.255  1.00  0.00     0.047 A 
ATOM     16  C   UNL     1      11.039 -34.626  -3.616  1.00  0.00     0.115 A 
ATOM     17  C   UNL     1      13.415 -34.519  -3.123  1.00  0.00     0.016 A 
ATOM     18  C   UNL     1      12.233 -33.899  -3.549  1.00  0.00     0.047 A 
BRANCH  16  19
ATOM     19  O   UNL     1       9.866 -33.998  -4.049  1.00  0.00    -0.508 OA
ATOM     20  H   UNL     1       9.133 -33.742  -3.397  1.00  0.00     0.293 HD
ENDBRANCH  16  19
ENDBRANCH   3  13
BRANCH  10  21
ATOM     21  O   UNL     1      18.901 -38.496  -0.115  1.00  0.00    -0.507 OA
ATOM     22  H   UNL     1      18.684 -39.217   0.552  1.00  0.00     0.293 HD
ENDBRANCH  10  21
BRANCH  11  23
ATOM     23  O   UNL     1      19.357 -39.210  -4.844  1.00  0.00    -0.508 OA
ATOM     24  H   UNL     1      18.963 -39.277  -5.777  1.00  0.00     0.293 HD
ENDBRANCH  11  23
ENDBRANCH   1   2
BRANCH   1  25
ATOM     25  C   UNL     1      13.475 -35.018   0.180  1.00  0.00     0.339 C 
ATOM     26  C   UNL     1      14.621 -34.002   0.371  1.00  0.00     0.214 C 
ATOM     27  O   UNL     1      12.501 -34.937   1.207  1.00  0.00    -0.332 OA
ATOM     28  C   UNL     1      15.273 -34.122   1.769  1.00  0.00     0.180 C 
ATOM     29  C   UNL     1      13.007 -35.124   2.522  1.00  0.00     0.179 C 
ATOM     30  C   UNL     1      14.207 -34.197   2.881  1.00  0.00     0.177 C 
BRANCH  26  31
ATOM     31  O   UNL     1      14.119 -32.698   0.216  1.00  0.00    -0.384 OA
ATOM     32  H   UNL     1      13.372 -32.597   0.862  1.00  0.00     0.211 HD
ENDBRANCH  26  31
BRANCH  28  33
ATOM     33  O   UNL     1      16.193 -35.184   1.890  1.00  0.00    -0.387 OA
ATOM     34  H   UNL     1      15.747 -36.053   1.706  1.00  0.00     0.211 HD
ENDBRANCH  28  33
BRANCH  29  35
ATOM     35  C   UNL     1      13.181 -36.612   2.896  1.00  0.00     0.191 C 
BRANCH  35  36
ATOM     36  O   UNL     1      14.528 -36.972   2.970  1.00  0.00    -0.394 OA
ATOM     37  H   UNL     1      14.928 -36.427   3.694  1.00  0.00     0.210 HD
ENDBRANCH  35  36
ENDBRANCH  29  35
BRANCH  30  38
ATOM     38  O   UNL     1      13.731 -32.898   3.125  1.00  0.00    -0.387 OA
ATOM     39  H   UNL     1      14.522 -32.299   3.180  1.00  0.00     0.211 HD
ENDBRANCH  30  38
ENDBRANCH   1  25
TORSDOF 11
ENDMDL
MODEL 2
REMARK VINA RESULT:    -6.629      1.387      2.367
REMARK INTER + INTRA:         -10.892
REMARK INTER:                  -9.108
REMARK INTRA:                  -1.784
REMARK UNBOUND:                -1.357
REMARK SMILES O=c1c(O[C@H]2O[C@@H](CO)[C@H](O)[C@@H](O)[C@@H]2O)c(-c2ccc(O)cc2)oc2cc(O)cc(O)c12
REMARK SMILES IDX 4 1 3 2 16 3 24 4 2 5 25 6 1 7 32 8 26 9 30 10 27 11 29 12
REMARK SMILES IDX 17 13 18 14 19 15 20 16 23 17 22 18 21 19 31 21 28 23 5 25
REMARK SMILES IDX 14 26 6 27 12 28 7 29 10 30 15 31 13 33 8 35 9 36 11 38
REMARK H PARENT 21 20 31 22 28 24 15 32 13 34 9 37 11 39
REMARK Flexibility Score: inf
ROOT
ATOM      1  O   UNL     1      14.111 -36.461   0.175  1.00  0.00    -0.454 OA
ENDROOT
BRANCH   1   2
ATOM      2  C   UNL     1      15.073 -36.775  -0.803  1.00  0.00     0.214 A 
ATOM      3  C   UNL     1      14.945 -36.210  -2.083  1.00  0.00     0.180 A 
ATOM      4  O   UNL     1      15.768 -36.571  -3.061  1.00  0.00    -0.452 OA
ATOM      5  C   UNL     1      16.144 -37.662  -0.568  1.00  0.00     0.239 A 
ATOM      6  C   UNL     1      16.774 -37.418  -2.892  1.00  0.00     0.146 A 
ATOM      7  O   UNL     1      16.268 -38.189   0.570  1.00  0.00    -0.285 OA
ATOM      8  C   UNL     1      17.047 -37.971  -1.615  1.00  0.00     0.111 A 
ATOM      9  C   UNL     1      17.557 -37.756  -4.001  1.00  0.00     0.094 A 
ATOM     10  C   UNL     1      18.182 -38.828  -1.478  1.00  0.00     0.134 A 
ATOM     11  C   UNL     1      18.622 -38.643  -3.868  1.00  0.00     0.123 A 
ATOM     12  C   UNL     1      18.931 -39.173  -2.612  1.00  0.00     0.093 A 
BRANCH   3  13
ATOM     13  C   UNL     1      13.871 -35.250  -2.400  1.00  0.00     0.021 A 
ATOM     14  C   UNL     1      13.977 -33.918  -1.969  1.00  0.00     0.016 A 
ATOM     15  C   UNL     1      12.960 -33.001  -2.255  1.00  0.00     0.047 A 
ATOM     16  C   UNL     1      11.818 -33.409  -2.959  1.00  0.00     0.115 A 
ATOM     17  C   UNL     1      12.718 -35.661  -3.086  1.00  0.00     0.016 A 
ATOM     18  C   UNL     1      11.701 -34.741  -3.371  1.00  0.00     0.047 A 
BRANCH  16  19
ATOM     19  O   UNL     1      10.793 -32.500  -3.245  1.00  0.00    -0.508 OA
ATOM     20  H   UNL     1      10.904 -31.787  -3.956  1.00  0.00     0.293 HD
ENDBRANCH  16  19
ENDBRANCH   3  13
BRANCH  10  21
ATOM     21  O   UNL     1      18.628 -39.345  -0.259  1.00  0.00    -0.507 OA
ATOM     22  H   UNL     1      18.425 -40.270   0.080  1.00  0.00     0.293 HD
ENDBRANCH  10  21
BRANCH  11  23
ATOM     23  O   UNL     1      19.376 -38.985  -4.992  1.00  0.00    -0.508 OA
ATOM     24  H   UNL     1      18.963 -39.005  -5.919  1.00  0.00     0.293 HD
ENDBRANCH  11  23
ENDBRANCH   1   2
BRANCH   1  25
ATOM     25  C   UNL     1      13.011 -37.299   0.540  1.00  0.00     0.339 C 
ATOM     26  C   UNL     1      11.657 -36.621   0.242  1.00  0.00     0.214 C 
ATOM     27  O   UNL     1      13.108 -37.750   1.881  1.00  0.00    -0.332 OA
ATOM     28  C   UNL     1      11.351 -35.478   1.239  1.00  0.00     0.180 C 
ATOM     29  C   UNL     1      12.924 -36.740   2.864  1.00  0.00     0.179 C 
ATOM     30  C   UNL     1      11.611 -35.918   2.694  1.00  0.00     0.177 C 
BRANCH  26  31
ATOM     31  O   UNL     1      10.629 -37.577   0.319  1.00  0.00    -0.384 OA
ATOM     32  H   UNL     1      10.982 -38.338   0.849  1.00  0.00     0.211 HD
ENDBRANCH  26  31
BRANCH  28  33
ATOM     33  O   UNL     1      12.020 -34.269   0.959  1.00  0.00    -0.387 OA
ATOM     34  H   UNL     1      12.303 -34.241   0.007  1.00  0.00     0.211 HD
ENDBRANCH  28  33
BRANCH  29  35
ATOM     35  C   UNL     1      14.199 -35.909   3.121  1.00  0.00     0.191 C 
BRANCH  35  36
ATOM     36  O   UNL     1      15.357 -36.653   2.887  1.00  0.00    -0.394 OA
ATOM     37  H   UNL     1      15.584 -37.101   3.741  1.00  0.00     0.210 HD
ENDBRANCH  35  36
ENDBRANCH  29  35
BRANCH  30  38
ATOM     38  O   UNL     1      10.521 -36.694   3.123  1.00  0.00    -0.387 OA
ATOM     39  H   UNL     1      10.802 -37.166   3.952  1.00  0.00     0.211 HD
ENDBRANCH  30  38
ENDBRANCH   1  25
TORSDOF 11
ENDMDL
MODEL 3
REMARK VINA RESULT:    -6.564      1.732      5.840
REMARK INTER + INTRA:         -10.799
REMARK INTER:                  -9.968
REMARK INTRA:                  -0.832
REMARK UNBOUND:                -1.357
REMARK SMILES O=c1c(O[C@H]2O[C@@H](CO)[C@H](O)[C@@H](O)[C@@H]2O)c(-c2ccc(O)cc2)oc2cc(O)cc(O)c12
REMARK SMILES IDX 4 1 3 2 16 3 24 4 2 5 25 6 1 7 32 8 26 9 30 10 27 11 29 12
REMARK SMILES IDX 17 13 18 14 19 15 20 16 23 17 22 18 21 19 31 21 28 23 5 25
REMARK SMILES IDX 14 26 6 27 12 28 7 29 10 30 15 31 13 33 8 35 9 36 11 38
REMARK H PARENT 21 20 31 22 28 24 15 32 13 34 9 37 11 39
REMARK Flexibility Score: inf
ROOT
ATOM      1  O   UNL     1      15.140 -37.422  -0.077  1.00  0.00    -0.454 OA
ENDROOT
BRANCH   1   2
ATOM      2  C   UNL     1      14.205 -36.964  -1.026  1.00  0.00     0.214 A 
ATOM      3  C   UNL     1      14.593 -36.884  -2.373  1.00  0.00     0.180 A 
ATOM      4  O   UNL     1      13.778 -36.352  -3.275  1.00  0.00    -0.452 OA
ATOM      5  C   UNL     1      12.904 -36.547  -0.679  1.00  0.00     0.239 A 
ATOM      6  C   UNL     1      12.554 -35.926  -2.992  1.00  0.00     0.146 A 
ATOM      7  O   UNL     1      12.541 -36.599   0.526  1.00  0.00    -0.285 OA
ATOM      8  C   UNL     1      12.032 -36.050  -1.680  1.00  0.00     0.111 A 
ATOM      9  C   UNL     1      11.793 -35.349  -4.014  1.00  0.00     0.094 A 
ATOM     10  C   UNL     1      10.685 -35.633  -1.445  1.00  0.00     0.134 A 
ATOM     11  C   UNL     1      10.505 -34.887  -3.759  1.00  0.00     0.123 A 
ATOM     12  C   UNL     1       9.957 -35.032  -2.481  1.00  0.00     0.093 A 
BRANCH   3  13
ATOM     13  C   UNL     1      15.926 -37.330  -2.821  1.00  0.00     0.021 A 
ATOM     14  C   UNL     1      16.241 -38.698  -2.819  1.00  0.00     0.016 A 
ATOM     15  C   UNL     1      17.506 -39.131  -3.232  1.00  0.00     0.047 A 
ATOM     16  C   UNL     1      18.475 -38.201  -3.634  1.00  0.00     0.115 A 
ATOM     17  C   UNL     1      16.905 -36.399  -3.204  1.00  0.00     0.016 A 
ATOM     18  C   UNL     1      18.170 -36.835  -3.617  1.00  0.00     0.047 A 
BRANCH  16  19
ATOM     19  O   UNL     1      19.745 -38.625  -4.044  1.00  0.00    -0.508 OA
ATOM     20  H   UNL     1      20.217 -39.395  -3.586  1.00  0.00     0.293 HD
ENDBRANCH  16  19
ENDBRANCH   3  13
BRANCH  10  21
ATOM     21  O   UNL     1      10.014 -35.806  -0.233  1.00  0.00    -0.507 OA
ATOM     22  H   UNL     1       9.202 -36.386  -0.104  1.00  0.00     0.293 HD
ENDBRANCH  10  21
BRANCH  11  23
ATOM     23  O   UNL     1       9.771 -34.293  -4.787  1.00  0.00    -0.508 OA
ATOM     24  H   UNL     1       9.595 -34.780  -5.659  1.00  0.00     0.293 HD
ENDBRANCH  11  23
ENDBRANCH   1   2
BRANCH   1  25
ATOM     25  C   UNL     1      15.225 -36.964   1.275  1.00  0.00     0.339 C 
ATOM     26  C   UNL     1      15.725 -35.507   1.351  1.00  0.00     0.214 C 
ATOM     27  O   UNL     1      15.987 -37.843   2.087  1.00  0.00    -0.332 OA
ATOM     28  C   UNL     1      17.235 -35.396   1.029  1.00  0.00     0.180 C 
ATOM     29  C   UNL     1      17.378 -37.865   1.796  1.00  0.00     0.179 C 
ATOM     30  C   UNL     1      18.050 -36.460   1.791  1.00  0.00     0.177 C 
BRANCH  26  31
ATOM     31  O   UNL     1      15.500 -35.003   2.644  1.00  0.00    -0.384 OA
ATOM     32  H   UNL     1      15.494 -34.013   2.571  1.00  0.00     0.211 HD
ENDBRANCH  26  31
BRANCH  28  33
ATOM     33  O   UNL     1      17.537 -35.430  -0.348  1.00  0.00    -0.387 OA
ATOM     34  H   UNL     1      16.799 -35.027  -0.877  1.00  0.00     0.211 HD
ENDBRANCH  28  33
BRANCH  29  35
ATOM     35  C   UNL     1      17.729 -38.774   0.598  1.00  0.00     0.191 C 
BRANCH  35  36
ATOM     36  O   UNL     1      18.687 -38.188  -0.232  1.00  0.00    -0.394 OA
ATOM     37  H   UNL     1      18.859 -38.832  -0.965  1.00  0.00     0.210 HD
ENDBRANCH  35  36
ENDBRANCH  29  35
BRANCH  30  38
ATOM     38  O   UNL     1      18.218 -36.023   3.116  1.00  0.00    -0.387 OA
ATOM     39  H   UNL     1      18.127 -35.033   3.114  1.00  0.00     0.211 HD
ENDBRANCH  30  38
ENDBRANCH   1  25
TORSDOF 11
ENDMDL
MODEL 4
REMARK VINA RESULT:    -6.488      2.520      4.793
REMARK INTER + INTRA:         -10.690
REMARK INTER:                  -9.044
REMARK INTRA:                  -1.646
REMARK UNBOUND:                -1.357
REMARK SMILES O=c1c(O[C@H]2O[C@@H](CO)[C@H](O)[C@@H](O)[C@@H]2O)c(-c2ccc(O)cc2)oc2cc(O)cc(O)c12
REMARK SMILES IDX 4 1 3 2 16 3 24 4 2 5 25 6 1 7 32 8 26 9 30 10 27 11 29 12
REMARK SMILES IDX 17 13 18 14 19 15 20 16 23 17 22 18 21 19 31 21 28 23 5 25
REMARK SMILES IDX 14 26 6 27 12 28 7 29 10 30 15 31 13 33 8 35 9 36 11 38
REMARK H PARENT 21 20 31 22 28 24 15 32 13 34 9 37 11 39
REMARK Flexibility Score: inf
ROOT
ATOM      1  O   UNL     1      13.493 -35.397  -1.813  1.00  0.00    -0.454 OA
ENDROOT
BRANCH   1   2
ATOM      2  C   UNL     1      14.580 -36.046  -1.196  1.00  0.00     0.214 A 
ATOM      3  C   UNL     1      14.954 -37.320  -1.654  1.00  0.00     0.180 A 
ATOM      4  O   UNL     1      15.899 -38.008  -1.024  1.00  0.00    -0.452 OA
ATOM      5  C   UNL     1      15.290 -35.490  -0.113  1.00  0.00     0.239 A 
ATOM      6  C   UNL     1      16.578 -37.535   0.012  1.00  0.00     0.146 A 
ATOM      7  O   UNL     1      14.961 -34.353   0.321  1.00  0.00    -0.285 OA
ATOM      8  C   UNL     1      16.343 -36.221   0.492  1.00  0.00     0.111 A 
ATOM      9  C   UNL     1      17.529 -38.360   0.623  1.00  0.00     0.094 A 
ATOM     10  C   UNL     1      17.147 -35.740   1.570  1.00  0.00     0.134 A 
ATOM     11  C   UNL     1      18.262 -37.903   1.715  1.00  0.00     0.123 A 
ATOM     12  C   UNL     1      18.070 -36.599   2.182  1.00  0.00     0.093 A 
BRANCH   3  13
ATOM     13  C   UNL     1      14.281 -37.957  -2.801  1.00  0.00     0.021 A 
ATOM     14  C   UNL     1      13.528 -39.126  -2.607  1.00  0.00     0.016 A 
ATOM     15  C   UNL     1      12.894 -39.745  -3.689  1.00  0.00     0.047 A 
ATOM     16  C   UNL     1      13.020 -39.213  -4.980  1.00  0.00     0.115 A 
ATOM     17  C   UNL     1      14.423 -37.439  -4.098  1.00  0.00     0.016 A 
ATOM     18  C   UNL     1      13.787 -38.060  -5.180  1.00  0.00     0.047 A 
BRANCH  16  19
ATOM     19  O   UNL     1      12.393 -39.829  -6.070  1.00  0.00    -0.508 OA
ATOM     20  H   UNL     1      12.180 -40.819  -6.066  1.00  0.00     0.293 HD
ENDBRANCH  16  19
ENDBRANCH   3  13
BRANCH  10  21
ATOM     21  O   UNL     1      17.096 -34.434   2.060  1.00  0.00    -0.507 OA
ATOM     22  H   UNL     1      16.767 -34.175   2.975  1.00  0.00     0.293 HD
ENDBRANCH  10  21
BRANCH  11  23
ATOM     23  O   UNL     1      19.188 -38.751   2.324  1.00  0.00    -0.508 OA
ATOM     24  H   UNL     1      20.178 -38.527   2.340  1.00  0.00     0.293 HD
ENDBRANCH  11  23
ENDBRANCH   1   2
BRANCH   1  25
ATOM     25  C   UNL     1      12.123 -35.553  -1.432  1.00  0.00     0.339 C 
ATOM     26  C   UNL     1      11.259 -36.050  -2.609  1.00  0.00     0.214 C 
ATOM     27  O   UNL     1      11.601 -34.377  -0.833  1.00  0.00    -0.332 OA
ATOM     28  C   UNL     1      11.027 -34.943  -3.664  1.00  0.00     0.180 C 
ATOM     29  C   UNL     1      11.437 -33.280  -1.722  1.00  0.00     0.179 C 
ATOM     30  C   UNL     1      10.613 -33.614  -3.001  1.00  0.00     0.177 C 
BRANCH  26  31
ATOM     31  O   UNL     1      10.012 -36.481  -2.123  1.00  0.00    -0.384 OA
ATOM     32  H   UNL     1       9.328 -35.868  -2.498  1.00  0.00     0.211 HD
ENDBRANCH  26  31
BRANCH  28  33
ATOM     33  O   UNL     1      12.112 -34.744  -4.543  1.00  0.00    -0.387 OA
ATOM     34  H   UNL     1      12.665 -35.566  -4.605  1.00  0.00     0.211 HD
ENDBRANCH  28  33
BRANCH  29  35
ATOM     35  C   UNL     1      12.747 -32.497  -1.961  1.00  0.00     0.191 C 
BRANCH  35  36
ATOM     36  O   UNL     1      13.459 -32.306  -0.776  1.00  0.00    -0.394 OA
ATOM     37  H   UNL     1      13.078 -31.500  -0.343  1.00  0.00     0.210 HD
ENDBRANCH  35  36
ENDBRANCH  29  35
BRANCH  30  38
ATOM     38  O   UNL     1       9.251 -33.693  -2.666  1.00  0.00    -0.387 OA
ATOM     39  H   UNL     1       8.975 -32.796  -2.337  1.00  0.00     0.211 HD
ENDBRANCH  30  38
ENDBRANCH   1  25
TORSDOF 11
ENDMDL
MODEL 5
REMARK VINA RESULT:    -6.332      1.991      5.673
REMARK INTER + INTRA:         -10.466
REMARK INTER:                  -8.952
REMARK INTRA:                  -1.514
REMARK UNBOUND:                -1.357
REMARK SMILES O=c1c(O[C@H]2O[C@@H](CO)[C@H](O)[C@@H](O)[C@@H]2O)c(-c2ccc(O)cc2)oc2cc(O)cc(O)c12
REMARK SMILES IDX 4 1 3 2 16 3 24 4 2 5 25 6 1 7 32 8 26 9 30 10 27 11 29 12
REMARK SMILES IDX 17 13 18 14 19 15 20 16 23 17 22 18 21 19 31 21 28 23 5 25
REMARK SMILES IDX 14 26 6 27 12 28 7 29 10 30 15 31 13 33 8 35 9 36 11 38
REMARK H PARENT 21 20 31 22 28 24 15 32 13 34 9 37 11 39
REMARK Flexibility Score: inf
ROOT
ATOM      1  O   UNL     1      15.224 -36.938  -1.211  1.00  0.00    -0.454 OA
ENDROOT
BRANCH   1   2
ATOM      2  C   UNL     1      14.076 -36.859  -2.022  1.00  0.00     0.214 A 
ATOM      3  C   UNL     1      13.056 -35.963  -1.663  1.00  0.00     0.180 A 
ATOM      4  O   UNL     1      11.912 -35.943  -2.338  1.00  0.00    -0.452 OA
ATOM      5  C   UNL     1      13.886 -37.667  -3.162  1.00  0.00     0.239 A 
ATOM      6  C   UNL     1      11.681 -36.699  -3.403  1.00  0.00     0.146 A 
ATOM      7  O   UNL     1      14.785 -38.486  -3.493  1.00  0.00    -0.285 OA
ATOM      8  C   UNL     1      12.683 -37.569  -3.904  1.00  0.00     0.111 A 
ATOM      9  C   UNL     1      10.427 -36.623  -4.018  1.00  0.00     0.094 A 
ATOM     10  C   UNL     1      12.401 -38.313  -5.090  1.00  0.00     0.134 A 
ATOM     11  C   UNL     1      10.141 -37.402  -5.136  1.00  0.00     0.123 A 
ATOM     12  C   UNL     1      11.126 -38.240  -5.667  1.00  0.00     0.093 A 
BRANCH   3  13
ATOM     13  C   UNL     1      13.190 -35.063  -0.502  1.00  0.00     0.021 A 
ATOM     14  C   UNL     1      12.517 -35.361   0.693  1.00  0.00     0.016 A 
ATOM     15  C   UNL     1      12.629 -34.509   1.797  1.00  0.00     0.047 A 
ATOM     16  C   UNL     1      13.401 -33.341   1.713  1.00  0.00     0.115 A 
ATOM     17  C   UNL     1      13.946 -33.884  -0.590  1.00  0.00     0.016 A 
ATOM     18  C   UNL     1      14.057 -33.032   0.516  1.00  0.00     0.047 A 
BRANCH  16  19
ATOM     19  O   UNL     1      13.515 -32.481   2.811  1.00  0.00    -0.508 OA
ATOM     20  H   UNL     1      12.982 -31.621   2.865  1.00  0.00     0.293 HD
ENDBRANCH  16  19
ENDBRANCH   3  13
BRANCH  10  21
ATOM     21  O   UNL     1      13.335 -39.114  -5.750  1.00  0.00    -0.507 OA
ATOM     22  H   UNL     1      13.407 -40.113  -5.651  1.00  0.00     0.293 HD
ENDBRANCH  10  21
BRANCH  11  23
ATOM     23  O   UNL     1       8.875 -37.328  -5.720  1.00  0.00    -0.508 OA
ATOM     24  H   UNL     1       8.205 -38.084  -5.625  1.00  0.00     0.293 HD
ENDBRANCH  11  23
ENDBRANCH   1   2
BRANCH   1  25
ATOM     25  C   UNL     1      15.330 -37.715  -0.015  1.00  0.00     0.339 C 
ATOM     26  C   UNL     1      15.849 -36.871   1.168  1.00  0.00     0.214 C 
ATOM     27  O   UNL     1      16.091 -38.896  -0.214  1.00  0.00    -0.332 OA
ATOM     28  C   UNL     1      17.355 -36.547   1.030  1.00  0.00     0.180 C 
ATOM     29  C   UNL     1      17.478 -38.679  -0.434  1.00  0.00     0.179 C 
ATOM     30  C   UNL     1      18.167 -37.803   0.654  1.00  0.00     0.177 C 
BRANCH  26  31
ATOM     31  O   UNL     1      15.644 -37.573   2.368  1.00  0.00    -0.384 OA
ATOM     32  H   UNL     1      14.665 -37.591   2.529  1.00  0.00     0.211 HD
ENDBRANCH  26  31
BRANCH  28  33
ATOM     33  O   UNL     1      17.642 -35.487   0.145  1.00  0.00    -0.387 OA
ATOM     34  H   UNL     1      17.562 -35.789  -0.798  1.00  0.00     0.211 HD
ENDBRANCH  28  33
BRANCH  29  35
ATOM     35  C   UNL     1      17.805 -38.302  -1.895  1.00  0.00     0.191 C 
BRANCH  35  36
ATOM     36  O   UNL     1      17.422 -39.306  -2.786  1.00  0.00    -0.394 OA
ATOM     37  H   UNL     1      17.575 -38.950  -3.698  1.00  0.00     0.210 HD
ENDBRANCH  35  36
ENDBRANCH  29  35
BRANCH  30  38
ATOM     38  O   UNL     1      18.355 -38.572   1.816  1.00  0.00    -0.387 OA
ATOM     39  H   UNL     1      19.335 -38.695   1.933  1.00  0.00     0.211 HD
ENDBRANCH  30  38
ENDBRANCH   1  25
TORSDOF 11
ENDMDL
MODEL 6
REMARK VINA RESULT:    -6.322      2.666      5.407
REMARK INTER + INTRA:         -10.451
REMARK INTER:                  -9.060
REMARK INTRA:                  -1.391
REMARK UNBOUND:                -1.357
REMARK SMILES O=c1c(O[C@H]2O[C@@H](CO)[C@H](O)[C@@H](O)[C@@H]2O)c(-c2ccc(O)cc2)oc2cc(O)cc(O)c12
REMARK SMILES IDX 4 1 3 2 16 3 24 4 2 5 25 6 1 7 32 8 26 9 30 10 27 11 29 12
REMARK SMILES IDX 17 13 18 14 19 15 20 16 23 17 22 18 21 19 31 21 28 23 5 25
REMARK SMILES IDX 14 26 6 27 12 28 7 29 10 30 15 31 13 33 8 35 9 36 11 38
REMARK H PARENT 21 20 31 22 28 24 15 32 13 34 9 37 11 39
REMARK Flexibility Score: inf
ROOT
ATOM      1  O   UNL     1      13.814 -37.486  -1.864  1.00  0.00    -0.454 OA
ENDROOT
BRANCH   1   2
ATOM      2  C   UNL     1      14.650 -36.888  -0.902  1.00  0.00     0.214 A 
ATOM      3  C   UNL     1      14.451 -35.536  -0.580  1.00  0.00     0.180 A 
ATOM      4  O   UNL     1      15.291 -34.911   0.238  1.00  0.00    -0.452 OA
ATOM      5  C   UNL     1      15.705 -37.578  -0.270  1.00  0.00     0.239 A 
ATOM      6  C   UNL     1      16.309 -35.512   0.837  1.00  0.00     0.146 A 
ATOM      7  O   UNL     1      15.908 -38.788  -0.555  1.00  0.00    -0.285 OA
ATOM      8  C   UNL     1      16.540 -36.899   0.653  1.00  0.00     0.111 A 
ATOM      9  C   UNL     1      17.152 -34.749   1.651  1.00  0.00     0.094 A 
ATOM     10  C   UNL     1      17.613 -37.508   1.373  1.00  0.00     0.134 A 
ATOM     11  C   UNL     1      18.235 -35.340   2.297  1.00  0.00     0.123 A 
ATOM     12  C   UNL     1      18.459 -36.713   2.157  1.00  0.00     0.093 A 
BRANCH   3  13
ATOM     13  C   UNL     1      13.351 -34.754  -1.174  1.00  0.00     0.021 A 
ATOM     14  C   UNL     1      13.636 -33.579  -1.887  1.00  0.00     0.016 A 
ATOM     15  C   UNL     1      12.600 -32.823  -2.446  1.00  0.00     0.047 A 
ATOM     16  C   UNL     1      11.266 -33.224  -2.284  1.00  0.00     0.115 A 
ATOM     17  C   UNL     1      12.014 -35.142  -0.995  1.00  0.00     0.016 A 
ATOM     18  C   UNL     1      10.978 -34.384  -1.556  1.00  0.00     0.047 A 
BRANCH  16  19
ATOM     19  O   UNL     1      10.222 -32.472  -2.835  1.00  0.00    -0.508 OA
ATOM     20  H   UNL     1      10.388 -31.562  -3.247  1.00  0.00     0.293 HD
ENDBRANCH  16  19
ENDBRANCH   3  13
BRANCH  10  21
ATOM     21  O   UNL     1      17.876 -38.879   1.371  1.00  0.00    -0.507 OA
ATOM     22  H   UNL     1      17.933 -39.455   2.194  1.00  0.00     0.293 HD
ENDBRANCH  10  21
BRANCH  11  23
ATOM     23  O   UNL     1      19.077 -34.555   3.086  1.00  0.00    -0.508 OA
ATOM     24  H   UNL     1      19.074 -34.630   4.098  1.00  0.00     0.293 HD
ENDBRANCH  11  23
ENDBRANCH   1   2
BRANCH   1  25
ATOM     25  C   UNL     1      14.115 -37.592  -3.258  1.00  0.00     0.339 C 
ATOM     26  C   UNL     1      12.922 -37.153  -4.132  1.00  0.00     0.214 C 
ATOM     27  O   UNL     1      14.594 -38.882  -3.602  1.00  0.00    -0.332 OA
ATOM     28  C   UNL     1      11.778 -38.195  -4.116  1.00  0.00     0.180 C 
ATOM     29  C   UNL     1      13.621 -39.916  -3.529  1.00  0.00     0.179 C 
ATOM     30  C   UNL     1      12.318 -39.623  -4.330  1.00  0.00     0.177 C 
BRANCH  26  31
ATOM     31  O   UNL     1      13.354 -36.976  -5.458  1.00  0.00    -0.384 OA
ATOM     32  H   UNL     1      12.913 -36.155  -5.799  1.00  0.00     0.211 HD
ENDBRANCH  26  31
BRANCH  28  33
ATOM     33  O   UNL     1      10.960 -38.140  -2.969  1.00  0.00    -0.387 OA
ATOM     34  H   UNL     1      11.355 -38.679  -2.233  1.00  0.00     0.211 HD
ENDBRANCH  28  33
BRANCH  29  35
ATOM     35  C   UNL     1      13.414 -40.448  -2.094  1.00  0.00     0.191 C 
BRANCH  35  36
ATOM     36  O   UNL     1      12.135 -40.159  -1.615  1.00  0.00    -0.394 OA
ATOM     37  H   UNL     1      12.241 -39.889  -0.668  1.00  0.00     0.210 HD
ENDBRANCH  35  36
ENDBRANCH  29  35
BRANCH  30  38
ATOM     38  O   UNL     1      12.569 -39.800  -5.702  1.00  0.00    -0.387 OA
ATOM     39  H   UNL     1      13.512 -40.102  -5.793  1.00  0.00     0.211 HD
ENDBRANCH  30  38
ENDBRANCH   1  25
TORSDOF 11
ENDMDL
MODEL 7
REMARK VINA RESULT:    -6.307      2.708      5.392
REMARK INTER + INTRA:         -10.429
REMARK INTER:                  -8.876
REMARK INTRA:                  -1.553
REMARK UNBOUND:                -1.357
REMARK SMILES O=c1c(O[C@H]2O[C@@H](CO)[C@H](O)[C@@H](O)[C@@H]2O)c(-c2ccc(O)cc2)oc2cc(O)cc(O)c12
REMARK SMILES IDX 4 1 3 2 16 3 24 4 2 5 25 6 1 7 32 8 26 9 30 10 27 11 29 12
REMARK SMILES IDX 17 13 18 14 19 15 20 16 23 17 22 18 21 19 31 21 28 23 5 25
REMARK SMILES IDX 14 26 6 27 12 28 7 29 10 30 15 31 13 33 8 35 9 36 11 38
REMARK H PARENT 21 20 31 22 28 24 15 32 13 34 9 37 11 39
REMARK Flexibility Score: inf
ROOT
ATOM      1  O   UNL     1      13.989 -37.588  -2.044  1.00  0.00    -0.454 OA
ENDROOT
BRANCH   1   2
ATOM      2  C   UNL     1      14.777 -36.981  -1.048  1.00  0.00     0.214 A 
ATOM      3  C   UNL     1      14.557 -35.628  -0.743  1.00  0.00     0.180 A 
ATOM      4  O   UNL     1      15.355 -34.994   0.108  1.00  0.00    -0.452 OA
ATOM      5  C   UNL     1      15.805 -37.662  -0.365  1.00  0.00     0.239 A 
ATOM      6  C   UNL     1      16.348 -35.587   0.757  1.00  0.00     0.146 A 
ATOM      7  O   UNL     1      16.027 -38.873  -0.633  1.00  0.00    -0.285 OA
ATOM      8  C   UNL     1      16.593 -36.974   0.592  1.00  0.00     0.111 A 
ATOM      9  C   UNL     1      17.149 -34.815   1.605  1.00  0.00     0.094 A 
ATOM     10  C   UNL     1      17.635 -37.574   1.364  1.00  0.00     0.134 A 
ATOM     11  C   UNL     1      18.203 -35.397   2.303  1.00  0.00     0.123 A 
ATOM     12  C   UNL     1      18.441 -36.770   2.182  1.00  0.00     0.093 A 
BRANCH   3  13
ATOM     13  C   UNL     1      13.482 -34.855  -1.392  1.00  0.00     0.021 A 
ATOM     14  C   UNL     1      12.306 -34.566  -0.682  1.00  0.00     0.016 A 
ATOM     15  C   UNL     1      11.274 -33.842  -1.290  1.00  0.00     0.047 A 
ATOM     16  C   UNL     1      11.400 -33.414  -2.620  1.00  0.00     0.115 A 
ATOM     17  C   UNL     1      13.597 -34.443  -2.729  1.00  0.00     0.016 A 
ATOM     18  C   UNL     1      12.563 -33.719  -3.336  1.00  0.00     0.047 A 
BRANCH  16  19
ATOM     19  O   UNL     1      10.371 -32.693  -3.238  1.00  0.00    -0.508 OA
ATOM     20  H   UNL     1      10.568 -31.995  -3.945  1.00  0.00     0.293 HD
ENDBRANCH  16  19
ENDBRANCH   3  13
BRANCH  10  21
ATOM     21  O   UNL     1      17.905 -38.944   1.381  1.00  0.00    -0.507 OA
ATOM     22  H   UNL     1      18.151 -39.491   0.574  1.00  0.00     0.293 HD
ENDBRANCH  10  21
BRANCH  11  23
ATOM     23  O   UNL     1      19.005 -34.604   3.125  1.00  0.00    -0.508 OA
ATOM     24  H   UNL     1      19.146 -34.831   4.104  1.00  0.00     0.293 HD
ENDBRANCH  11  23
ENDBRANCH   1   2
BRANCH   1  25
ATOM     25  C   UNL     1      12.661 -38.082  -1.850  1.00  0.00     0.339 C 
ATOM     26  C   UNL     1      12.665 -39.499  -1.239  1.00  0.00     0.214 C 
ATOM     27  O   UNL     1      11.885 -38.004  -3.035  1.00  0.00    -0.332 OA
ATOM     28  C   UNL     1      13.106 -40.569  -2.265  1.00  0.00     0.180 C 
ATOM     29  C   UNL     1      12.282 -38.900  -4.065  1.00  0.00     0.179 C 
ATOM     30  C   UNL     1      12.379 -40.388  -3.612  1.00  0.00     0.177 C 
BRANCH  26  31
ATOM     31  O   UNL     1      11.374 -39.814  -0.781  1.00  0.00    -0.384 OA
ATOM     32  H   UNL     1      10.759 -39.134  -1.162  1.00  0.00     0.211 HD
ENDBRANCH  26  31
BRANCH  28  33
ATOM     33  O   UNL     1      14.500 -40.647  -2.459  1.00  0.00    -0.387 OA
ATOM     34  H   UNL     1      14.752 -41.535  -2.828  1.00  0.00     0.211 HD
ENDBRANCH  28  33
BRANCH  29  35
ATOM     35  C   UNL     1      13.477 -38.378  -4.891  1.00  0.00     0.191 C 
BRANCH  35  36
ATOM     36  O   UNL     1      13.394 -37.001  -5.106  1.00  0.00    -0.394 OA
ATOM     37  H   UNL     1      13.357 -36.576  -4.212  1.00  0.00     0.210 HD
ENDBRANCH  35  36
ENDBRANCH  29  35
BRANCH  30  38
ATOM     38  O   UNL     1      11.084 -40.919  -3.492  1.00  0.00    -0.387 OA
ATOM     39  H   UNL     1      11.121 -41.633  -2.800  1.00  0.00     0.211 HD
ENDBRANCH  30  38
ENDBRANCH   1  25
TORSDOF 11
ENDMDL
MODEL 8
REMARK VINA RESULT:    -6.275      2.660      6.129
REMARK INTER + INTRA:         -10.383
REMARK INTER:                  -9.201
REMARK INTRA:                  -1.183
REMARK UNBOUND:                -1.357
REMARK SMILES O=c1c(O[C@H]2O[C@@H](CO)[C@H](O)[C@@H](O)[C@@H]2O)c(-c2ccc(O)cc2)oc2cc(O)cc(O)c12
REMARK SMILES IDX 4 1 3 2 16 3 24 4 2 5 25 6 1 7 32 8 26 9 30 10 27 11 29 12
REMARK SMILES IDX 17 13 18 14 19 15 20 16 23 17 22 18 21 19 31 21 28 23 5 25
REMARK SMILES IDX 14 26 6 27 12 28 7 29 10 30 15 31 13 33 8 35 9 36 11 38
REMARK H PARENT 21 20 31 22 28 24 15 32 13 34 9 37 11 39
REMARK Flexibility Score: inf
ROOT
ATOM      1  O   UNL     1      14.032 -35.638  -2.871  1.00  0.00    -0.454 OA
ENDROOT
BRANCH   1   2
ATOM      2  C   UNL     1      13.441 -36.722  -3.548  1.00  0.00     0.214 A 
ATOM      3  C   UNL     1      14.213 -37.870  -3.790  1.00  0.00     0.180 A 
ATOM      4  O   UNL     1      13.725 -38.864  -4.522  1.00  0.00    -0.452 OA
ATOM      5  C   UNL     1      12.115 -36.695  -4.026  1.00  0.00     0.239 A 
ATOM      6  C   UNL     1      12.492 -38.873  -5.011  1.00  0.00     0.146 A 
ATOM      7  O   UNL     1      11.411 -35.669  -3.830  1.00  0.00    -0.285 OA
ATOM      8  C   UNL     1      11.600 -37.804  -4.743  1.00  0.00     0.111 A 
ATOM      9  C   UNL     1      12.093 -39.957  -5.800  1.00  0.00     0.094 A 
ATOM     10  C   UNL     1      10.265 -37.895  -5.242  1.00  0.00     0.134 A 
ATOM     11  C   UNL     1      10.809 -40.005  -6.335  1.00  0.00     0.123 A 
ATOM     12  C   UNL     1       9.902 -38.979  -6.054  1.00  0.00     0.093 A 
BRANCH   3  13
ATOM     13  C   UNL     1      15.598 -37.988  -3.295  1.00  0.00     0.021 A 
ATOM     14  C   UNL     1      16.644 -37.368  -3.996  1.00  0.00     0.016 A 
ATOM     15  C   UNL     1      17.962 -37.482  -3.542  1.00  0.00     0.047 A 
ATOM     16  C   UNL     1      18.252 -38.231  -2.393  1.00  0.00     0.115 A 
ATOM     17  C   UNL     1      15.892 -38.755  -2.157  1.00  0.00     0.016 A 
ATOM     18  C   UNL     1      17.213 -38.868  -1.704  1.00  0.00     0.047 A 
BRANCH  16  19
ATOM     19  O   UNL     1      19.569 -38.355  -1.934  1.00  0.00    -0.508 OA
ATOM     20  H   UNL     1      19.976 -39.262  -1.739  1.00  0.00     0.293 HD
ENDBRANCH  16  19
ENDBRANCH   3  13
BRANCH  10  21
ATOM     21  O   UNL     1       9.259 -36.971  -4.955  1.00  0.00    -0.507 OA
ATOM     22  H   UNL     1       8.589 -37.064  -4.209  1.00  0.00     0.293 HD
ENDBRANCH  10  21
BRANCH  11  23
ATOM     23  O   UNL     1      10.439 -41.084  -7.139  1.00  0.00    -0.508 OA
ATOM     24  H   UNL     1      10.392 -40.999  -8.149  1.00  0.00     0.293 HD
ENDBRANCH  11  23
ENDBRANCH   1   2
BRANCH   1  25
ATOM     25  C   UNL     1      14.614 -35.706  -1.566  1.00  0.00     0.339 C 
ATOM     26  C   UNL     1      13.681 -36.419  -0.565  1.00  0.00     0.214 C 
ATOM     27  O   UNL     1      15.034 -34.432  -1.104  1.00  0.00    -0.332 OA
ATOM     28  C   UNL     1      12.469 -35.539  -0.176  1.00  0.00     0.180 C 
ATOM     29  C   UNL     1      13.977 -33.530  -0.805  1.00  0.00     0.179 C 
ATOM     30  C   UNL     1      12.908 -34.103   0.173  1.00  0.00     0.177 C 
BRANCH  26  31
ATOM     31  O   UNL     1      14.402 -36.737   0.599  1.00  0.00    -0.384 OA
ATOM     32  H   UNL     1      14.933 -35.934   0.839  1.00  0.00     0.211 HD
ENDBRANCH  26  31
BRANCH  28  33
ATOM     33  O   UNL     1      11.433 -35.524  -1.133  1.00  0.00    -0.387 OA
ATOM     34  H   UNL     1      10.796 -36.268  -0.968  1.00  0.00     0.211 HD
ENDBRANCH  28  33
BRANCH  29  35
ATOM     35  C   UNL     1      13.419 -32.818  -2.057  1.00  0.00     0.191 C 
BRANCH  35  36
ATOM     36  O   UNL     1      12.106 -33.207  -2.330  1.00  0.00    -0.394 OA
ATOM     37  H   UNL     1      12.055 -34.179  -2.148  1.00  0.00     0.210 HD
ENDBRANCH  35  36
ENDBRANCH  29  35
BRANCH  30  38
ATOM     38  O   UNL     1      13.429 -34.104   1.478  1.00  0.00    -0.387 OA
ATOM     39  H   UNL     1      12.781 -33.621   2.056  1.00  0.00     0.211 HD
ENDBRANCH  30  38
ENDBRANCH   1  25
TORSDOF 11
ENDMDL
MODEL 9
REMARK VINA RESULT:    -6.263      2.440      4.659
REMARK INTER + INTRA:         -10.366
REMARK INTER:                  -9.127
REMARK INTRA:                  -1.239
REMARK UNBOUND:                -1.357
REMARK SMILES O=c1c(O[C@H]2O[C@@H](CO)[C@H](O)[C@@H](O)[C@@H]2O)c(-c2ccc(O)cc2)oc2cc(O)cc(O)c12
REMARK SMILES IDX 4 1 3 2 16 3 24 4 2 5 25 6 1 7 32 8 26 9 30 10 27 11 29 12
REMARK SMILES IDX 17 13 18 14 19 15 20 16 23 17 22 18 21 19 31 21 28 23 5 25
REMARK SMILES IDX 14 26 6 27 12 28 7 29 10 30 15 31 13 33 8 35 9 36 11 38
REMARK H PARENT 21 20 31 22 28 24 15 32 13 34 9 37 11 39
REMARK Flexibility Score: inf
ROOT
ATOM      1  O   UNL     1      13.351 -35.668  -1.591  1.00  0.00    -0.454 OA
ENDROOT
BRANCH   1   2
ATOM      2  C   UNL     1      14.507 -36.234  -1.021  1.00  0.00     0.214 A 
ATOM      3  C   UNL     1      14.983 -37.454  -1.530  1.00  0.00     0.180 A 
ATOM      4  O   UNL     1      16.001 -38.073  -0.944  1.00  0.00    -0.452 OA
ATOM      5  C   UNL     1      15.191 -35.650   0.064  1.00  0.00     0.239 A 
ATOM      6  C   UNL     1      16.661 -37.572   0.091  1.00  0.00     0.146 A 
ATOM      7  O   UNL     1      14.772 -34.562   0.543  1.00  0.00    -0.285 OA
ATOM      8  C   UNL     1      16.320 -36.302   0.620  1.00  0.00     0.111 A 
ATOM      9  C   UNL     1      17.697 -38.326   0.652  1.00  0.00     0.094 A 
ATOM     10  C   UNL     1      17.105 -35.783   1.696  1.00  0.00     0.134 A 
ATOM     11  C   UNL     1      18.414 -37.840   1.742  1.00  0.00     0.123 A 
ATOM     12  C   UNL     1      18.118 -36.574   2.257  1.00  0.00     0.093 A 
BRANCH   3  13
ATOM     13  C   UNL     1      14.341 -38.113  -2.682  1.00  0.00     0.021 A 
ATOM     14  C   UNL     1      13.632 -39.311  -2.495  1.00  0.00     0.016 A 
ATOM     15  C   UNL     1      13.028 -39.951  -3.582  1.00  0.00     0.047 A 
ATOM     16  C   UNL     1      13.140 -39.411  -4.872  1.00  0.00     0.115 A 
ATOM     17  C   UNL     1      14.469 -37.586  -3.976  1.00  0.00     0.016 A 
ATOM     18  C   UNL     1      13.864 -38.228  -5.064  1.00  0.00     0.047 A 
BRANCH  16  19
ATOM     19  O   UNL     1      12.543 -40.047  -5.967  1.00  0.00    -0.508 OA
ATOM     20  H   UNL     1      12.212 -41.002  -5.906  1.00  0.00     0.293 HD
ENDBRANCH  16  19
ENDBRANCH   3  13
BRANCH  10  21
ATOM     21  O   UNL     1      16.949 -34.503   2.230  1.00  0.00    -0.507 OA
ATOM     22  H   UNL     1      17.704 -33.866   2.425  1.00  0.00     0.293 HD
ENDBRANCH  10  21
BRANCH  11  23
ATOM     23  O   UNL     1      19.428 -38.618   2.302  1.00  0.00    -0.508 OA
ATOM     24  H   UNL     1      20.407 -38.418   2.124  1.00  0.00     0.293 HD
ENDBRANCH  11  23
ENDBRANCH   1   2
BRANCH   1  25
ATOM     25  C   UNL     1      13.313 -34.431  -2.307  1.00  0.00     0.339 C 
ATOM     26  C   UNL     1      12.711 -33.297  -1.452  1.00  0.00     0.214 C 
ATOM     27  O   UNL     1      12.669 -34.564  -3.564  1.00  0.00    -0.332 OA
ATOM     28  C   UNL     1      11.181 -33.451  -1.281  1.00  0.00     0.180 C 
ATOM     29  C   UNL     1      11.268 -34.795  -3.493  1.00  0.00     0.179 C 
ATOM     30  C   UNL     1      10.494 -33.757  -2.628  1.00  0.00     0.177 C 
BRANCH  26  31
ATOM     31  O   UNL     1      12.975 -32.059  -2.065  1.00  0.00    -0.384 OA
ATOM     32  H   UNL     1      13.675 -31.611  -1.521  1.00  0.00     0.211 HD
ENDBRANCH  26  31
BRANCH  28  33
ATOM     33  O   UNL     1      10.799 -34.393  -0.304  1.00  0.00    -0.387 OA
ATOM     34  H   UNL     1      10.134 -33.998   0.319  1.00  0.00     0.211 HD
ENDBRANCH  28  33
BRANCH  29  35
ATOM     35  C   UNL     1      10.915 -36.275  -3.230  1.00  0.00     0.191 C 
BRANCH  35  36
ATOM     36  O   UNL     1      10.312 -36.449  -1.983  1.00  0.00    -0.394 OA
ATOM     37  H   UNL     1      10.972 -36.916  -1.411  1.00  0.00     0.210 HD
ENDBRANCH  35  36
ENDBRANCH  29  35
BRANCH  30  38
ATOM     38  O   UNL     1      10.374 -32.554  -3.346  1.00  0.00    -0.387 OA
ATOM     39  H   UNL     1       9.586 -32.646  -3.945  1.00  0.00     0.211 HD
ENDBRANCH  30  38
ENDBRANCH   1  25
TORSDOF 11
ENDMDL
