MODEL 1
REMARK VINA RESULT:    -4.245      0.000      0.000
REMARK INTER + INTRA:          -8.495
REMARK INTER:                  -7.224
REMARK INTRA:                  -1.271
REMARK UNBOUND:                -1.271
REMARK SMILES CCCCCCCCCCCCCC(=O)[O-]
REMARK SMILES IDX 8 1 9 2 10 3 11 4 12 5 13 6 14 7 15 8 16 9 7 10 6 11 5 12
REMARK SMILES IDX 4 13 3 14 2 15 1 16
REMARK H PARENT
REMARK Flexibility Score: inf
ROOT
ATOM      1  C   UNL     1     -44.283 -37.293  36.459  1.00  0.00     0.000 C 
ENDROOT
BRANCH   1   2
ATOM      2  C   UNL     1     -45.655 -37.858  36.869  1.00  0.00     0.000 C 
BRANCH   2   3
ATOM      3  C   UNL     1     -46.434 -36.917  37.801  1.00  0.00     0.000 C 
BRANCH   3   4
ATOM      4  C   UNL     1     -46.548 -37.466  39.232  1.00  0.00     0.000 C 
BRANCH   4   5
ATOM      5  C   UNL     1     -46.313 -36.387  40.304  1.00  0.00     0.006 C 
BRANCH   5   6
ATOM      6  C   UNL     1     -44.952 -35.698  40.140  1.00  0.00     0.053 C 
BRANCH   6   7
ATOM      7  C   UNL     1     -45.087 -34.207  40.103  1.00  0.00     0.041 C 
ATOM      8  O   UNL     1     -45.573 -33.639  39.090  1.00  0.00    -0.550 OA
ATOM      9  O   UNL     1     -44.640 -33.442  41.172  1.00  0.00    -0.550 OA
ENDBRANCH   6   7
ENDBRANCH   5   6
ENDBRANCH   4   5
ENDBRANCH   3   4
ENDBRANCH   2   3
ENDBRANCH   1   2
BRANCH   1  10
ATOM     10  C   UNL     1     -44.155 -35.758  36.532  1.00  0.00     0.000 C 
BRANCH  10  11
ATOM     11  C   UNL     1     -42.797 -35.238  37.037  1.00  0.00    -0.000 C 
BRANCH  11  12
ATOM     12  C   UNL     1     -41.608 -35.819  36.258  1.00  0.00    -0.000 C 
BRANCH  12  13
ATOM     13  C   UNL     1     -40.277 -35.311  36.830  1.00  0.00    -0.000 C 
BRANCH  13  14
ATOM     14  C   UNL     1     -40.468 -34.233  37.909  1.00  0.00    -0.000 C 
BRANCH  14  15
ATOM     15  C   UNL     1     -39.910 -34.658  39.275  1.00  0.00    -0.003 C 
ATOM     16  C   UNL     1     -39.152 -35.979  39.171  1.00  0.00     0.004 C 
ENDBRANCH  14  15
ENDBRANCH  13  14
ENDBRANCH  12  13
ENDBRANCH  11  12
ENDBRANCH  10  11
ENDBRANCH   1  10
TORSDOF 12
ENDMDL
MODEL 2
REMARK VINA RESULT:    -4.128      2.650      5.735
REMARK INTER + INTRA:          -8.295
REMARK INTER:                  -6.562
REMARK INTRA:                  -1.733
REMARK UNBOUND:                -1.271
REMARK SMILES CCCCCCCCCCCCCC(=O)[O-]
REMARK SMILES IDX 8 1 9 2 10 3 11 4 12 5 13 6 14 7 15 8 16 9 7 10 6 11 5 12
REMARK SMILES IDX 4 13 3 14 2 15 1 16
REMARK H PARENT
REMARK Flexibility Score: inf
ROOT
ATOM      1  C   UNL     1     -44.507 -35.387  36.513  1.00  0.00     0.000 C 
ENDROOT
BRANCH   1   2
ATOM      2  C   UNL     1     -44.218 -34.347  37.611  1.00  0.00     0.000 C 
BRANCH   2   3
ATOM      3  C   UNL     1     -43.682 -34.979  38.906  1.00  0.00     0.000 C 
BRANCH   3   4
ATOM      4  C   UNL     1     -42.380 -34.319  39.388  1.00  0.00     0.000 C 
BRANCH   4   5
ATOM      5  C   UNL     1     -41.547 -33.735  38.235  1.00  0.00     0.006 C 
BRANCH   5   6
ATOM      6  C   UNL     1     -40.159 -34.382  38.138  1.00  0.00     0.053 C 
BRANCH   6   7
ATOM      7  C   UNL     1     -40.059 -35.305  36.962  1.00  0.00     0.041 C 
ATOM      8  O   UNL     1     -41.021 -35.415  36.159  1.00  0.00    -0.550 OA
ATOM      9  O   UNL     1     -38.914 -36.068  36.774  1.00  0.00    -0.550 OA
ENDBRANCH   6   7
ENDBRANCH   5   6
ENDBRANCH   4   5
ENDBRANCH   3   4
ENDBRANCH   2   3
ENDBRANCH   1   2
BRANCH   1  10
ATOM     10  C   UNL     1     -44.430 -36.859  36.964  1.00  0.00     0.000 C 
BRANCH  10  11
ATOM     11  C   UNL     1     -45.716 -37.677  36.746  1.00  0.00    -0.000 C 
BRANCH  11  12
ATOM     12  C   UNL     1     -46.811 -37.352  37.773  1.00  0.00    -0.000 C 
BRANCH  12  13
ATOM     13  C   UNL     1     -46.323 -37.629  39.202  1.00  0.00    -0.000 C 
BRANCH  13  14
ATOM     14  C   UNL     1     -46.640 -36.478  40.170  1.00  0.00    -0.000 C 
BRANCH  14  15
ATOM     15  C   UNL     1     -47.786 -35.585  39.672  1.00  0.00    -0.003 C 
ATOM     16  C   UNL     1     -47.342 -34.128  39.570  1.00  0.00     0.004 C 
ENDBRANCH  14  15
ENDBRANCH  13  14
ENDBRANCH  12  13
ENDBRANCH  11  12
ENDBRANCH  10  11
ENDBRANCH   1  10
TORSDOF 12
ENDMDL
MODEL 3
REMARK VINA RESULT:    -4.048      2.597      3.534
REMARK INTER + INTRA:          -8.158
REMARK INTER:                  -6.615
REMARK INTRA:                  -1.544
REMARK UNBOUND:                -1.271
REMARK SMILES CCCCCCCCCCCCCC(=O)[O-]
REMARK SMILES IDX 8 1 9 2 10 3 11 4 12 5 13 6 14 7 15 8 16 9 7 10 6 11 5 12
REMARK SMILES IDX 4 13 3 14 2 15 1 16
REMARK H PARENT
REMARK Flexibility Score: inf
ROOT
ATOM      1  C   UNL     1     -44.555 -35.364  36.917  1.00  0.00     0.000 C 
ENDROOT
BRANCH   1   2
ATOM      2  C   UNL     1     -44.258 -34.208  37.891  1.00  0.00     0.000 C 
BRANCH   2   3
ATOM      3  C   UNL     1     -43.956 -34.693  39.318  1.00  0.00     0.000 C 
BRANCH   3   4
ATOM      4  C   UNL     1     -43.580 -33.541  40.265  1.00  0.00     0.000 C 
BRANCH   4   5
ATOM      5  C   UNL     1     -43.446 -32.193  39.536  1.00  0.00     0.006 C 
BRANCH   5   6
ATOM      6  C   UNL     1     -42.043 -31.593  39.684  1.00  0.00     0.053 C 
BRANCH   6   7
ATOM      7  C   UNL     1     -41.862 -30.384  38.817  1.00  0.00     0.041 C 
ATOM      8  O   UNL     1     -42.856 -29.847  38.264  1.00  0.00    -0.550 OA
ATOM      9  O   UNL     1     -40.590 -29.875  38.593  1.00  0.00    -0.550 OA
ENDBRANCH   6   7
ENDBRANCH   5   6
ENDBRANCH   4   5
ENDBRANCH   3   4
ENDBRANCH   2   3
ENDBRANCH   1   2
BRANCH   1  10
ATOM     10  C   UNL     1     -43.320 -36.143  36.424  1.00  0.00     0.000 C 
BRANCH  10  11
ATOM     11  C   UNL     1     -42.083 -35.279  36.115  1.00  0.00    -0.000 C 
BRANCH  11  12
ATOM     12  C   UNL     1     -40.791 -36.103  36.007  1.00  0.00    -0.000 C 
BRANCH  12  13
ATOM     13  C   UNL     1     -39.773 -35.667  37.069  1.00  0.00    -0.000 C 
BRANCH  13  14
ATOM     14  C   UNL     1     -40.291 -34.519  37.951  1.00  0.00    -0.000 C 
BRANCH  14  15
ATOM     15  C   UNL     1     -40.184 -34.831  39.451  1.00  0.00    -0.003 C 
ATOM     16  C   UNL     1     -39.177 -35.950  39.708  1.00  0.00     0.004 C 
ENDBRANCH  14  15
ENDBRANCH  13  14
ENDBRANCH  12  13
ENDBRANCH  11  12
ENDBRANCH  10  11
ENDBRANCH   1  10
TORSDOF 12
ENDMDL
MODEL 4
REMARK VINA RESULT:    -4.041      2.218      3.730
REMARK INTER + INTRA:          -8.147
REMARK INTER:                  -6.754
REMARK INTRA:                  -1.393
REMARK UNBOUND:                -1.271
REMARK SMILES CCCCCCCCCCCCCC(=O)[O-]
REMARK SMILES IDX 8 1 9 2 10 3 11 4 12 5 13 6 14 7 15 8 16 9 7 10 6 11 5 12
REMARK SMILES IDX 4 13 3 14 2 15 1 16
REMARK H PARENT
REMARK Flexibility Score: inf
ROOT
ATOM      1  C   UNL     1     -44.620 -32.517  38.016  1.00  0.00     0.000 C 
ENDROOT
BRANCH   1   2
ATOM      2  C   UNL     1     -45.301 -33.873  37.758  1.00  0.00     0.000 C 
BRANCH   2   3
ATOM      3  C   UNL     1     -44.295 -35.019  37.563  1.00  0.00     0.000 C 
BRANCH   3   4
ATOM      4  C   UNL     1     -44.751 -36.030  36.499  1.00  0.00     0.000 C 
BRANCH   4   5
ATOM      5  C   UNL     1     -45.152 -37.388  37.101  1.00  0.00     0.006 C 
BRANCH   5   6
ATOM      6  C   UNL     1     -46.574 -37.368  37.674  1.00  0.00     0.053 C 
BRANCH   6   7
ATOM      7  C   UNL     1     -46.570 -37.447  39.171  1.00  0.00     0.041 C 
ATOM      8  O   UNL     1     -46.658 -36.398  39.860  1.00  0.00    -0.550 OA
ATOM      9  O   UNL     1     -46.433 -38.676  39.802  1.00  0.00    -0.550 OA
ENDBRANCH   6   7
ENDBRANCH   5   6
ENDBRANCH   4   5
ENDBRANCH   3   4
ENDBRANCH   2   3
ENDBRANCH   1   2
BRANCH   1  10
ATOM     10  C   UNL     1     -43.882 -32.398  39.365  1.00  0.00     0.000 C 
BRANCH  10  11
ATOM     11  C   UNL     1     -42.509 -31.705  39.300  1.00  0.00    -0.000 C 
BRANCH  11  12
ATOM     12  C   UNL     1     -41.400 -32.627  38.770  1.00  0.00    -0.000 C 
BRANCH  12  13
ATOM     13  C   UNL     1     -41.433 -33.988  39.479  1.00  0.00    -0.000 C 
BRANCH  13  14
ATOM     14  C   UNL     1     -40.569 -35.045  38.773  1.00  0.00    -0.000 C 
BRANCH  14  15
ATOM     15  C   UNL     1     -40.271 -34.685  37.311  1.00  0.00    -0.003 C 
ATOM     16  C   UNL     1     -40.845 -35.732  36.360  1.00  0.00     0.004 C 
ENDBRANCH  14  15
ENDBRANCH  13  14
ENDBRANCH  12  13
ENDBRANCH  11  12
ENDBRANCH  10  11
ENDBRANCH   1  10
TORSDOF 12
ENDMDL
MODEL 5
REMARK VINA RESULT:    -4.010      1.963      2.823
REMARK INTER + INTRA:          -8.094
REMARK INTER:                  -6.838
REMARK INTRA:                  -1.257
REMARK UNBOUND:                -1.271
REMARK SMILES CCCCCCCCCCCCCC(=O)[O-]
REMARK SMILES IDX 8 1 9 2 10 3 11 4 12 5 13 6 14 7 15 8 16 9 7 10 6 11 5 12
REMARK SMILES IDX 4 13 3 14 2 15 1 16
REMARK H PARENT
REMARK Flexibility Score: inf
ROOT
ATOM      1  C   UNL     1     -44.354 -35.639  38.177  1.00  0.00     0.000 C 
ENDROOT
BRANCH   1   2
ATOM      2  C   UNL     1     -45.679 -35.084  37.622  1.00  0.00     0.000 C 
BRANCH   2   3
ATOM      3  C   UNL     1     -45.513 -33.719  36.935  1.00  0.00     0.000 C 
BRANCH   3   4
ATOM      4  C   UNL     1     -46.578 -32.703  37.378  1.00  0.00     0.000 C 
BRANCH   4   5
ATOM      5  C   UNL     1     -46.008 -31.604  38.292  1.00  0.00     0.006 C 
BRANCH   5   6
ATOM      6  C   UNL     1     -44.486 -31.713  38.446  1.00  0.00     0.053 C 
BRANCH   6   7
ATOM      7  C   UNL     1     -44.096 -32.122  39.834  1.00  0.00     0.041 C 
ATOM      8  O   UNL     1     -42.889 -32.341  40.114  1.00  0.00    -0.550 OA
ATOM      9  O   UNL     1     -45.072 -32.295  40.806  1.00  0.00    -0.550 OA
ENDBRANCH   6   7
ENDBRANCH   5   6
ENDBRANCH   4   5
ENDBRANCH   3   4
ENDBRANCH   2   3
ENDBRANCH   1   2
BRANCH   1  10
ATOM     10  C   UNL     1     -43.078 -35.088  37.508  1.00  0.00     0.000 C 
BRANCH  10  11
ATOM     11  C   UNL     1     -42.677 -35.782  36.195  1.00  0.00    -0.000 C 
BRANCH  11  12
ATOM     12  C   UNL     1     -41.157 -35.813  35.975  1.00  0.00    -0.000 C 
BRANCH  12  13
ATOM     13  C   UNL     1     -40.432 -34.982  37.045  1.00  0.00    -0.000 C 
BRANCH  13  14
ATOM     14  C   UNL     1     -39.278 -35.749  37.709  1.00  0.00    -0.000 C 
BRANCH  14  15
ATOM     15  C   UNL     1     -39.437 -35.852  39.233  1.00  0.00    -0.003 C 
ATOM     16  C   UNL     1     -40.140 -34.620  39.796  1.00  0.00     0.004 C 
ENDBRANCH  14  15
ENDBRANCH  13  14
ENDBRANCH  12  13
ENDBRANCH  11  12
ENDBRANCH  10  11
ENDBRANCH   1  10
TORSDOF 12
ENDMDL
MODEL 6
REMARK VINA RESULT:    -4.006      2.433      5.345
REMARK INTER + INTRA:          -8.088
REMARK INTER:                  -6.249
REMARK INTRA:                  -1.840
REMARK UNBOUND:                -1.271
REMARK SMILES CCCCCCCCCCCCCC(=O)[O-]
REMARK SMILES IDX 8 1 9 2 10 3 11 4 12 5 13 6 14 7 15 8 16 9 7 10 6 11 5 12
REMARK SMILES IDX 4 13 3 14 2 15 1 16
REMARK H PARENT
REMARK Flexibility Score: inf
ROOT
ATOM      1  C   UNL     1     -46.221 -37.604  38.364  1.00  0.00     0.000 C 
ENDROOT
BRANCH   1   2
ATOM      2  C   UNL     1     -45.882 -37.313  36.891  1.00  0.00     0.000 C 
BRANCH   2   3
ATOM      3  C   UNL     1     -44.515 -36.632  36.716  1.00  0.00     0.000 C 
BRANCH   3   4
ATOM      4  C   UNL     1     -44.636 -35.114  36.501  1.00  0.00     0.000 C 
BRANCH   4   5
ATOM      5  C   UNL     1     -44.005 -34.299  37.644  1.00  0.00     0.006 C 
BRANCH   5   6
ATOM      6  C   UNL     1     -43.007 -35.129  38.461  1.00  0.00     0.053 C 
BRANCH   6   7
ATOM      7  C   UNL     1     -41.590 -34.741  38.166  1.00  0.00     0.041 C 
ATOM      8  O   UNL     1     -40.965 -33.980  38.949  1.00  0.00    -0.550 OA
ATOM      9  O   UNL     1     -40.974 -35.192  37.007  1.00  0.00    -0.550 OA
ENDBRANCH   6   7
ENDBRANCH   5   6
ENDBRANCH   4   5
ENDBRANCH   3   4
ENDBRANCH   2   3
ENDBRANCH   1   2
BRANCH   1  10
ATOM     10  C   UNL     1     -47.681 -37.321  38.772  1.00  0.00     0.000 C 
BRANCH  10  11
ATOM     11  C   UNL     1     -47.870 -36.147  39.748  1.00  0.00    -0.000 C 
BRANCH  11  12
ATOM     12  C   UNL     1     -46.548 -35.455  40.114  1.00  0.00    -0.000 C 
BRANCH  12  13
ATOM     13  C   UNL     1     -46.707 -33.928  40.101  1.00  0.00    -0.000 C 
BRANCH  13  14
ATOM     14  C   UNL     1     -47.785 -33.452  39.114  1.00  0.00    -0.000 C 
BRANCH  14  15
ATOM     15  C   UNL     1     -47.214 -32.569  37.995  1.00  0.00    -0.003 C 
ATOM     16  C   UNL     1     -46.243 -31.533  38.555  1.00  0.00     0.004 C 
ENDBRANCH  14  15
ENDBRANCH  13  14
ENDBRANCH  12  13
ENDBRANCH  11  12
ENDBRANCH  10  11
ENDBRANCH   1  10
TORSDOF 12
ENDMDL
MODEL 7
REMARK VINA RESULT:    -3.987      2.867      4.296
REMARK INTER + INTRA:          -8.055
REMARK INTER:                  -6.201
REMARK INTRA:                  -1.853
REMARK UNBOUND:                -1.271
REMARK SMILES CCCCCCCCCCCCCC(=O)[O-]
REMARK SMILES IDX 8 1 9 2 10 3 11 4 12 5 13 6 14 7 15 8 16 9 7 10 6 11 5 12
REMARK SMILES IDX 4 13 3 14 2 15 1 16
REMARK H PARENT
REMARK Flexibility Score: inf
ROOT
ATOM      1  C   UNL     1     -45.776 -31.321  38.129  1.00  0.00     0.000 C 
ENDROOT
BRANCH   1   2
ATOM      2  C   UNL     1     -46.084 -32.225  36.922  1.00  0.00     0.000 C 
BRANCH   2   3
ATOM      3  C   UNL     1     -46.026 -33.722  37.266  1.00  0.00     0.000 C 
BRANCH   3   4
ATOM      4  C   UNL     1     -44.774 -34.410  36.697  1.00  0.00     0.000 C 
BRANCH   4   5
ATOM      5  C   UNL     1     -44.459 -35.744  37.396  1.00  0.00     0.006 C 
BRANCH   5   6
ATOM      6  C   UNL     1     -45.519 -36.113  38.441  1.00  0.00     0.053 C 
BRANCH   6   7
ATOM      7  C   UNL     1     -46.331 -37.298  38.013  1.00  0.00     0.041 C 
ATOM      8  O   UNL     1     -45.836 -38.159  37.240  1.00  0.00    -0.550 OA
ATOM      9  O   UNL     1     -47.645 -37.430  38.440  1.00  0.00    -0.550 OA
ENDBRANCH   6   7
ENDBRANCH   5   6
ENDBRANCH   4   5
ENDBRANCH   3   4
ENDBRANCH   2   3
ENDBRANCH   1   2
BRANCH   1  10
ATOM     10  C   UNL     1     -44.426 -30.578  38.068  1.00  0.00     0.000 C 
BRANCH  10  11
ATOM     11  C   UNL     1     -43.225 -31.357  38.633  1.00  0.00    -0.000 C 
BRANCH  11  12
ATOM     12  C   UNL     1     -43.614 -32.311  39.773  1.00  0.00    -0.000 C 
BRANCH  12  13
ATOM     13  C   UNL     1     -42.691 -33.537  39.801  1.00  0.00    -0.000 C 
BRANCH  13  14
ATOM     14  C   UNL     1     -41.639 -33.513  38.681  1.00  0.00    -0.000 C 
BRANCH  14  15
ATOM     15  C   UNL     1     -40.942 -34.868  38.495  1.00  0.00    -0.003 C 
ATOM     16  C   UNL     1     -40.796 -35.212  37.015  1.00  0.00     0.004 C 
ENDBRANCH  14  15
ENDBRANCH  13  14
ENDBRANCH  12  13
ENDBRANCH  11  12
ENDBRANCH  10  11
ENDBRANCH   1  10
TORSDOF 12
ENDMDL
MODEL 8
REMARK VINA RESULT:    -3.985      2.903      5.804
REMARK INTER + INTRA:          -8.052
REMARK INTER:                  -6.437
REMARK INTRA:                  -1.615
REMARK UNBOUND:                -1.271
REMARK SMILES CCCCCCCCCCCCCC(=O)[O-]
REMARK SMILES IDX 8 1 9 2 10 3 11 4 12 5 13 6 14 7 15 8 16 9 7 10 6 11 5 12
REMARK SMILES IDX 4 13 3 14 2 15 1 16
REMARK H PARENT
REMARK Flexibility Score: inf
ROOT
ATOM      1  C   UNL     1     -45.109 -32.733  40.384  1.00  0.00     0.000 C 
ENDROOT
BRANCH   1   2
ATOM      2  C   UNL     1     -44.237 -31.548  39.930  1.00  0.00     0.000 C 
BRANCH   2   3
ATOM      3  C   UNL     1     -42.732 -31.819  40.089  1.00  0.00     0.000 C 
BRANCH   3   4
ATOM      4  C   UNL     1     -42.134 -32.554  38.878  1.00  0.00     0.000 C 
BRANCH   4   5
ATOM      5  C   UNL     1     -41.836 -34.035  39.168  1.00  0.00     0.006 C 
BRANCH   5   6
ATOM      6  C   UNL     1     -41.419 -34.798  37.905  1.00  0.00     0.053 C 
BRANCH   6   7
ATOM      7  C   UNL     1     -39.979 -35.208  37.955  1.00  0.00     0.041 C 
ATOM      8  O   UNL     1     -39.436 -35.740  36.952  1.00  0.00    -0.550 OA
ATOM      9  O   UNL     1     -39.248 -35.036  39.123  1.00  0.00    -0.550 OA
ENDBRANCH   6   7
ENDBRANCH   5   6
ENDBRANCH   4   5
ENDBRANCH   3   4
ENDBRANCH   2   3
ENDBRANCH   1   2
BRANCH   1  10
ATOM     10  C   UNL     1     -46.048 -33.309  39.306  1.00  0.00     0.000 C 
BRANCH  10  11
ATOM     11  C   UNL     1     -45.832 -32.754  37.886  1.00  0.00    -0.000 C 
BRANCH  11  12
ATOM     12  C   UNL     1     -45.263 -33.800  36.916  1.00  0.00    -0.000 C 
BRANCH  12  13
ATOM     13  C   UNL     1     -45.094 -35.158  37.612  1.00  0.00    -0.000 C 
BRANCH  13  14
ATOM     14  C   UNL     1     -44.693 -36.277  36.638  1.00  0.00    -0.000 C 
BRANCH  14  15
ATOM     15  C   UNL     1     -45.346 -37.624  36.982  1.00  0.00    -0.003 C 
ATOM     16  C   UNL     1     -46.661 -37.420  37.730  1.00  0.00     0.004 C 
ENDBRANCH  14  15
ENDBRANCH  13  14
ENDBRANCH  12  13
ENDBRANCH  11  12
ENDBRANCH  10  11
ENDBRANCH   1  10
TORSDOF 12
ENDMDL
MODEL 9
REMARK VINA RESULT:    -3.965      8.242     10.931
REMARK INTER + INTRA:          -8.018
REMARK INTER:                  -5.938
REMARK INTRA:                  -2.080
REMARK UNBOUND:                -1.271
REMARK SMILES CCCCCCCCCCCCCC(=O)[O-]
REMARK SMILES IDX 8 1 9 2 10 3 11 4 12 5 13 6 14 7 15 8 16 9 7 10 6 11 5 12
REMARK SMILES IDX 4 13 3 14 2 15 1 16
REMARK H PARENT
REMARK Flexibility Score: inf
ROOT
ATOM      1  C   UNL     1     -38.865 -25.012  39.026  1.00  0.00     0.000 C 
ENDROOT
BRANCH   1   2
ATOM      2  C   UNL     1     -37.799 -25.801  39.808  1.00  0.00     0.000 C 
BRANCH   2   3
ATOM      3  C   UNL     1     -37.990 -27.323  39.709  1.00  0.00     0.000 C 
BRANCH   3   4
ATOM      4  C   UNL     1     -38.398 -27.955  41.050  1.00  0.00     0.000 C 
BRANCH   4   5
ATOM      5  C   UNL     1     -39.924 -28.008  41.241  1.00  0.00     0.006 C 
BRANCH   5   6
ATOM      6  C   UNL     1     -40.660 -28.321  39.932  1.00  0.00     0.053 C 
BRANCH   6   7
ATOM      7  C   UNL     1     -41.636 -29.445  40.100  1.00  0.00     0.041 C 
ATOM      8  O   UNL     1     -42.527 -29.384  40.986  1.00  0.00    -0.550 OA
ATOM      9  O   UNL     1     -41.538 -30.576  39.300  1.00  0.00    -0.550 OA
ENDBRANCH   6   7
ENDBRANCH   5   6
ENDBRANCH   4   5
ENDBRANCH   3   4
ENDBRANCH   2   3
ENDBRANCH   1   2
BRANCH   1  10
ATOM     10  C   UNL     1     -39.774 -24.108  39.882  1.00  0.00     0.000 C 
BRANCH  10  11
ATOM     11  C   UNL     1     -39.584 -24.242  41.403  1.00  0.00    -0.000 C 
BRANCH  11  12
ATOM     12  C   UNL     1     -40.872 -24.654  42.132  1.00  0.00    -0.000 C 
BRANCH  12  13
ATOM     13  C   UNL     1     -42.074 -24.628  41.177  1.00  0.00    -0.000 C 
BRANCH  13  14
ATOM     14  C   UNL     1     -43.021 -25.821  41.384  1.00  0.00    -0.000 C 
BRANCH  14  15
ATOM     15  C   UNL     1     -43.868 -26.126  40.140  1.00  0.00    -0.003 C 
ATOM     16  C   UNL     1     -43.102 -25.800  38.861  1.00  0.00     0.004 C 
ENDBRANCH  14  15
ENDBRANCH  13  14
ENDBRANCH  12  13
ENDBRANCH  11  12
ENDBRANCH  10  11
ENDBRANCH   1  10
TORSDOF 12
ENDMDL
