MODEL 1
REMARK VINA RESULT:    65.671      0.000      0.000
REMARK INTER + INTRA:          92.200
REMARK INTER:                  92.545
REMARK INTRA:                  -0.345
REMARK UNBOUND:                -0.345
REMARK SMILES COc1c(O[C@@H]2O[C@H](C(=O)[O-])[C@@H](O)[C@@H](O)[C@@H]2O)cc(O)c2c(=O)cc(-c3ccccc3)oc12
REMARK SMILES IDX 5 1 6 2 8 3 12 4 7 5 14 6 16 7 9 8 10 9 11 10 13 11 15 13
REMARK SMILES IDX 17 15 4 17 3 18 18 19 33 20 19 21 21 22 32 23 22 24 25 25
REMARK SMILES IDX 24 26 23 27 2 28 1 29 20 30 26 32 27 33 31 34 28 35 30 36
REMARK SMILES IDX 29 37
REMARK H PARENT 13 12 15 14 17 16 20 31
REMARK Flexibility Score: inf
ROOT
ATOM      1  O   UNL     1       7.285  -8.176 -14.393  1.00  0.00    -0.458 OA
ENDROOT
BRANCH   1   2
ATOM      2  C   UNL     1       5.925  -8.532 -14.670  1.00  0.00     0.339 C 
ATOM      3  C   UNL     1       5.129  -9.845 -12.811  1.00  0.00     0.199 C 
ATOM      4  C   UNL     1       6.335 -10.773 -13.107  1.00  0.00     0.180 C 
ATOM      5  O   UNL     1       5.211  -8.567 -13.438  1.00  0.00    -0.328 OA
ATOM      6  C   UNL     1       6.462 -11.024 -14.632  1.00  0.00     0.181 C 
ATOM      7  C   UNL     1       5.840  -9.865 -15.452  1.00  0.00     0.214 C 
BRANCH   3   8
ATOM      8  C   UNL     1       4.995  -9.626 -11.333  1.00  0.00     0.073 C 
ATOM      9  O   UNL     1       6.003  -9.713 -10.583  1.00  0.00    -0.547 OA
ATOM     10  O   UNL     1       3.761  -9.293 -10.787  1.00  0.00    -0.547 OA
ENDBRANCH   3   8
BRANCH   4  11
ATOM     11  O   UNL     1       6.201 -11.998 -12.428  1.00  0.00    -0.387 OA
ATOM     12  H   UNL     1       6.897 -12.022 -11.721  1.00  0.00     0.211 HD
ENDBRANCH   4  11
BRANCH   6  13
ATOM     13  O   UNL     1       5.887 -12.251 -15.013  1.00  0.00    -0.387 OA
ATOM     14  H   UNL     1       6.140 -12.928 -14.329  1.00  0.00     0.211 HD
ENDBRANCH   6  13
BRANCH   7  15
ATOM     15  O   UNL     1       6.412  -9.765 -16.733  1.00  0.00    -0.384 OA
ATOM     16  H   UNL     1       6.477 -10.677 -17.115  1.00  0.00     0.211 HD
ENDBRANCH   7  15
ENDBRANCH   1   2
BRANCH   1  17
ATOM     17  C   UNL     1       8.343  -8.066 -15.314  1.00  0.00     0.172 A 
ATOM     18  C   UNL     1       9.334  -9.059 -15.282  1.00  0.00     0.205 A 
ATOM     19  C   UNL     1       8.439  -7.011 -16.238  1.00  0.00     0.097 A 
ATOM     20  C   UNL     1      10.424  -8.994 -16.187  1.00  0.00     0.188 A 
ATOM     21  C   UNL     1       9.507  -6.936 -17.135  1.00  0.00     0.134 A 
ATOM     22  C   UNL     1      10.511  -7.928 -17.119  1.00  0.00     0.111 A 
ATOM     23  O   UNL     1      11.367  -9.934 -16.172  1.00  0.00    -0.452 OA
ATOM     24  C   UNL     1      11.612  -7.908 -18.000  1.00  0.00     0.197 A 
ATOM     25  C   UNL     1      12.409  -9.952 -17.000  1.00  0.00     0.138 A 
ATOM     26  C   UNL     1      12.562  -8.924 -17.939  1.00  0.00     0.100 A 
ATOM     27  O   UNL     1      11.760  -6.987 -18.848  1.00  0.00    -0.289 OA
BRANCH  18  28
ATOM     28  O   UNL     1       9.165 -10.085 -14.333  1.00  0.00    -0.490 OA
ATOM     29  C   UNL     1      10.002 -10.350 -13.213  1.00  0.00     0.278 C 
ENDBRANCH  18  28
BRANCH  21  30
ATOM     30  O   UNL     1       9.562  -5.875 -18.040  1.00  0.00    -0.507 OA
ATOM     31  H   UNL     1       9.362  -6.002 -19.026  1.00  0.00     0.293 HD
ENDBRANCH  21  30
BRANCH  25  32
ATOM     32  C   UNL     1      13.390 -11.059 -16.899  1.00  0.00     0.017 A 
ATOM     33  C   UNL     1      12.983 -12.379 -17.165  1.00  0.00     0.012 A 
ATOM     34  C   UNL     1      14.739 -10.818 -16.567  1.00  0.00     0.012 A 
ATOM     35  C   UNL     1      13.897 -13.433 -17.084  1.00  0.00     0.001 A 
ATOM     36  C   UNL     1      15.649 -11.877 -16.489  1.00  0.00     0.001 A 
ATOM     37  C   UNL     1      15.227 -13.184 -16.745  1.00  0.00     0.000 A 
ENDBRANCH  25  32
ENDBRANCH   1  17
TORSDOF 9
ENDMDL
