MODEL 1
REMARK VINA RESULT:    -4.149      0.000      0.000
REMARK INTER + INTRA:          -9.081
REMARK INTER:                  -7.303
REMARK INTRA:                  -1.778
REMARK UNBOUND:                -1.778
REMARK SMILES CCCCCCCCCCCCCCC(=O)[O-]
REMARK SMILES IDX 9 1 10 2 11 3 12 4 13 5 14 6 15 7 16 8 17 9 8 10 7 11 6 12
REMARK SMILES IDX 5 13 4 14 3 15 2 16 1 17
REMARK H PARENT
REMARK Flexibility Score: inf
ROOT
ATOM      1  C   UNL     1      26.716  -0.489  -8.038  1.00  0.00     0.000 C 
ENDROOT
BRANCH   1   2
ATOM      2  C   UNL     1      25.991  -0.800  -9.360  1.00  0.00     0.000 C 
BRANCH   2   3
ATOM      3  C   UNL     1      24.517  -1.185  -9.157  1.00  0.00     0.000 C 
BRANCH   3   4
ATOM      4  C   UNL     1      23.871  -1.604 -10.485  1.00  0.00     0.000 C 
BRANCH   4   5
ATOM      5  C   UNL     1      24.734  -1.260 -11.712  1.00  0.00     0.006 C 
BRANCH   5   6
ATOM      6  C   UNL     1      24.085  -0.242 -12.667  1.00  0.00     0.053 C 
BRANCH   6   7
ATOM      7  C   UNL     1      25.082   0.435 -13.557  1.00  0.00     0.041 C 
ATOM      8  O   UNL     1      25.807  -0.243 -14.332  1.00  0.00    -0.550 OA
ATOM      9  O   UNL     1      25.188   1.821 -13.556  1.00  0.00    -0.550 OA
ENDBRANCH   6   7
ENDBRANCH   5   6
ENDBRANCH   4   5
ENDBRANCH   3   4
ENDBRANCH   2   3
ENDBRANCH   1   2
BRANCH   1  10
ATOM     10  C   UNL     1      27.848  -1.468  -7.667  1.00  0.00     0.000 C 
BRANCH  10  11
ATOM     11  C   UNL     1      27.604  -2.932  -8.077  1.00  0.00    -0.000 C 
BRANCH  11  12
ATOM     12  C   UNL     1      26.686  -3.681  -7.099  1.00  0.00    -0.000 C 
BRANCH  12  13
ATOM     13  C   UNL     1      25.595  -4.454  -7.856  1.00  0.00    -0.000 C 
BRANCH  13  14
ATOM     14  C   UNL     1      25.969  -4.722  -9.322  1.00  0.00    -0.000 C 
BRANCH  14  15
ATOM     15  C   UNL     1      24.755  -5.095 -10.185  1.00  0.00    -0.000 C 
BRANCH  15  16
ATOM     16  C   UNL     1      23.467  -5.087  -9.352  1.00  0.00    -0.003 C 
ATOM     17  C   UNL     1      22.625  -6.330  -9.627  1.00  0.00     0.004 C 
ENDBRANCH  15  16
ENDBRANCH  14  15
ENDBRANCH  13  14
ENDBRANCH  12  13
ENDBRANCH  11  12
ENDBRANCH  10  11
ENDBRANCH   1  10
TORSDOF 13
ENDMDL
MODEL 2
REMARK VINA RESULT:    -4.136      0.726      1.136
REMARK INTER + INTRA:          -9.057
REMARK INTER:                  -7.467
REMARK INTRA:                  -1.590
REMARK UNBOUND:                -1.778
REMARK SMILES CCCCCCCCCCCCCCC(=O)[O-]
REMARK SMILES IDX 9 1 10 2 11 3 12 4 13 5 14 6 15 7 16 8 17 9 8 10 7 11 6 12
REMARK SMILES IDX 5 13 4 14 3 15 2 16 1 17
REMARK H PARENT
REMARK Flexibility Score: inf
ROOT
ATOM      1  C   UNL     1      25.805  -0.711  -9.086  1.00  0.00     0.000 C 
ENDROOT
BRANCH   1   2
ATOM      2  C   UNL     1      24.410  -1.354  -8.996  1.00  0.00     0.000 C 
BRANCH   2   3
ATOM      3  C   UNL     1      23.797  -1.648 -10.373  1.00  0.00     0.000 C 
BRANCH   3   4
ATOM      4  C   UNL     1      24.683  -1.092 -11.498  1.00  0.00     0.000 C 
BRANCH   4   5
ATOM      5  C   UNL     1      23.900  -0.254 -12.525  1.00  0.00     0.006 C 
BRANCH   5   6
ATOM      6  C   UNL     1      24.739   0.842 -13.206  1.00  0.00     0.053 C 
BRANCH   6   7
ATOM      7  C   UNL     1      25.257   0.425 -14.548  1.00  0.00     0.041 C 
ATOM      8  O   UNL     1      24.816  -0.616 -15.105  1.00  0.00    -0.550 OA
ATOM      9  O   UNL     1      26.202   1.204 -15.203  1.00  0.00    -0.550 OA
ENDBRANCH   6   7
ENDBRANCH   5   6
ENDBRANCH   4   5
ENDBRANCH   3   4
ENDBRANCH   2   3
ENDBRANCH   1   2
BRANCH   1  10
ATOM     10  C   UNL     1      26.851  -1.276  -8.103  1.00  0.00     0.000 C 
BRANCH  10  11
ATOM     11  C   UNL     1      27.228  -2.751  -8.330  1.00  0.00    -0.000 C 
BRANCH  11  12
ATOM     12  C   UNL     1      26.680  -3.683  -7.238  1.00  0.00    -0.000 C 
BRANCH  12  13
ATOM     13  C   UNL     1      25.576  -4.593  -7.798  1.00  0.00    -0.000 C 
BRANCH  13  14
ATOM     14  C   UNL     1      25.888  -5.098  -9.215  1.00  0.00    -0.000 C 
BRANCH  14  15
ATOM     15  C   UNL     1      24.646  -5.137 -10.118  1.00  0.00    -0.000 C 
BRANCH  15  16
ATOM     16  C   UNL     1      23.362  -5.206  -9.282  1.00  0.00    -0.003 C 
ATOM     17  C   UNL     1      22.515  -6.414  -9.671  1.00  0.00     0.004 C 
ENDBRANCH  15  16
ENDBRANCH  14  15
ENDBRANCH  13  14
ENDBRANCH  12  13
ENDBRANCH  11  12
ENDBRANCH  10  11
ENDBRANCH   1  10
TORSDOF 13
ENDMDL
MODEL 3
REMARK VINA RESULT:    -4.072      0.922      1.875
REMARK INTER + INTRA:          -8.946
REMARK INTER:                  -7.584
REMARK INTRA:                  -1.361
REMARK UNBOUND:                -1.778
REMARK SMILES CCCCCCCCCCCCCCC(=O)[O-]
REMARK SMILES IDX 9 1 10 2 11 3 12 4 13 5 14 6 15 7 16 8 17 9 8 10 7 11 6 12
REMARK SMILES IDX 5 13 4 14 3 15 2 16 1 17
REMARK H PARENT
REMARK Flexibility Score: inf
ROOT
ATOM      1  C   UNL     1      26.167  -0.965  -9.122  1.00  0.00     0.000 C 
ENDROOT
BRANCH   1   2
ATOM      2  C   UNL     1      24.679  -1.262  -8.865  1.00  0.00     0.000 C 
BRANCH   2   3
ATOM      3  C   UNL     1      23.913  -1.626 -10.146  1.00  0.00     0.000 C 
BRANCH   3   4
ATOM      4  C   UNL     1      24.757  -1.326 -11.394  1.00  0.00     0.000 C 
BRANCH   4   5
ATOM      5  C   UNL     1      24.072  -0.347 -12.365  1.00  0.00     0.006 C 
BRANCH   5   6
ATOM      6  C   UNL     1      24.538  -0.488 -13.825  1.00  0.00     0.053 C 
BRANCH   6   7
ATOM      7  C   UNL     1      25.080   0.791 -14.386  1.00  0.00     0.041 C 
ATOM      8  O   UNL     1      25.318   0.895 -15.619  1.00  0.00    -0.550 OA
ATOM      9  O   UNL     1      25.290   1.883 -13.553  1.00  0.00    -0.550 OA
ENDBRANCH   6   7
ENDBRANCH   5   6
ENDBRANCH   4   5
ENDBRANCH   3   4
ENDBRANCH   2   3
ENDBRANCH   1   2
BRANCH   1  10
ATOM     10  C   UNL     1      26.906  -0.272  -7.958  1.00  0.00     0.000 C 
BRANCH  10  11
ATOM     11  C   UNL     1      27.909  -1.162  -7.202  1.00  0.00    -0.000 C 
BRANCH  11  12
ATOM     12  C   UNL     1      28.046  -2.564  -7.816  1.00  0.00    -0.000 C 
BRANCH  12  13
ATOM     13  C   UNL     1      28.244  -3.624  -6.722  1.00  0.00    -0.000 C 
BRANCH  13  14
ATOM     14  C   UNL     1      27.163  -4.716  -6.753  1.00  0.00    -0.000 C 
BRANCH  14  15
ATOM     15  C   UNL     1      25.855  -4.236  -7.399  1.00  0.00    -0.000 C 
BRANCH  15  16
ATOM     16  C   UNL     1      25.494  -5.099  -8.614  1.00  0.00    -0.003 C 
ATOM     17  C   UNL     1      23.990  -5.086  -8.873  1.00  0.00     0.004 C 
ENDBRANCH  15  16
ENDBRANCH  14  15
ENDBRANCH  13  14
ENDBRANCH  12  13
ENDBRANCH  11  12
ENDBRANCH  10  11
ENDBRANCH   1  10
TORSDOF 13
ENDMDL
MODEL 4
REMARK VINA RESULT:    -3.955      2.569      5.594
REMARK INTER + INTRA:          -8.739
REMARK INTER:                  -7.434
REMARK INTRA:                  -1.306
REMARK UNBOUND:                -1.778
REMARK SMILES CCCCCCCCCCCCCCC(=O)[O-]
REMARK SMILES IDX 9 1 10 2 11 3 12 4 13 5 14 6 15 7 16 8 17 9 8 10 7 11 6 12
REMARK SMILES IDX 5 13 4 14 3 15 2 16 1 17
REMARK H PARENT
REMARK Flexibility Score: inf
ROOT
ATOM      1  C   UNL     1      28.069  -1.158  -7.231  1.00  0.00     0.000 C 
ENDROOT
BRANCH   1   2
ATOM      2  C   UNL     1      28.195  -2.593  -7.774  1.00  0.00     0.000 C 
BRANCH   2   3
ATOM      3  C   UNL     1      28.148  -3.657  -6.667  1.00  0.00     0.000 C 
BRANCH   3   4
ATOM      4  C   UNL     1      26.869  -4.500  -6.771  1.00  0.00     0.000 C 
BRANCH   4   5
ATOM      5  C   UNL     1      26.215  -4.437  -8.163  1.00  0.00     0.006 C 
BRANCH   5   6
ATOM      6  C   UNL     1      24.689  -4.235  -8.128  1.00  0.00     0.053 C 
BRANCH   6   7
ATOM      7  C   UNL     1      23.983  -4.955  -9.236  1.00  0.00     0.041 C 
ATOM      8  O   UNL     1      22.922  -5.593  -9.006  1.00  0.00    -0.550 OA
ATOM      9  O   UNL     1      24.479  -4.892 -10.533  1.00  0.00    -0.550 OA
ENDBRANCH   6   7
ENDBRANCH   5   6
ENDBRANCH   4   5
ENDBRANCH   3   4
ENDBRANCH   2   3
ENDBRANCH   1   2
BRANCH   1  10
ATOM     10  C   UNL     1      26.956  -0.310  -7.880  1.00  0.00     0.000 C 
BRANCH  10  11
ATOM     11  C   UNL     1      26.364  -0.892  -9.176  1.00  0.00    -0.000 C 
BRANCH  11  12
ATOM     12  C   UNL     1      24.829  -0.937  -9.165  1.00  0.00    -0.000 C 
BRANCH  12  13
ATOM     13  C   UNL     1      24.284  -1.355 -10.539  1.00  0.00    -0.000 C 
BRANCH  13  14
ATOM     14  C   UNL     1      24.901  -0.548 -11.691  1.00  0.00    -0.000 C 
BRANCH  14  15
ATOM     15  C   UNL     1      24.094  -0.660 -12.993  1.00  0.00    -0.000 C 
BRANCH  15  16
ATOM     16  C   UNL     1      24.627   0.309 -14.055  1.00  0.00    -0.003 C 
ATOM     17  C   UNL     1      25.191   1.573 -13.415  1.00  0.00     0.004 C 
ENDBRANCH  15  16
ENDBRANCH  14  15
ENDBRANCH  13  14
ENDBRANCH  12  13
ENDBRANCH  11  12
ENDBRANCH  10  11
ENDBRANCH   1  10
TORSDOF 13
ENDMDL
MODEL 5
REMARK VINA RESULT:    -3.910      3.299      6.231
REMARK INTER + INTRA:          -8.660
REMARK INTER:                  -7.178
REMARK INTRA:                  -1.483
REMARK UNBOUND:                -1.778
REMARK SMILES CCCCCCCCCCCCCCC(=O)[O-]
REMARK SMILES IDX 9 1 10 2 11 3 12 4 13 5 14 6 15 7 16 8 17 9 8 10 7 11 6 12
REMARK SMILES IDX 5 13 4 14 3 15 2 16 1 17
REMARK H PARENT
REMARK Flexibility Score: inf
ROOT
ATOM      1  C   UNL     1      25.987  -1.552  -8.517  1.00  0.00     0.000 C 
ENDROOT
BRANCH   1   2
ATOM      2  C   UNL     1      26.718  -2.771  -7.925  1.00  0.00     0.000 C 
BRANCH   2   3
ATOM      3  C   UNL     1      25.759  -3.801  -7.310  1.00  0.00     0.000 C 
BRANCH   3   4
ATOM      4  C   UNL     1      26.054  -5.211  -7.843  1.00  0.00     0.000 C 
BRANCH   4   5
ATOM      5  C   UNL     1      25.320  -5.525  -9.160  1.00  0.00     0.006 C 
BRANCH   5   6
ATOM      6  C   UNL     1      23.785  -5.460  -9.050  1.00  0.00     0.053 C 
BRANCH   6   7
ATOM      7  C   UNL     1      23.105  -6.577  -9.781  1.00  0.00     0.041 C 
ATOM      8  O   UNL     1      23.779  -7.524 -10.266  1.00  0.00    -0.550 OA
ATOM      9  O   UNL     1      21.720  -6.591  -9.897  1.00  0.00    -0.550 OA
ENDBRANCH   6   7
ENDBRANCH   5   6
ENDBRANCH   4   5
ENDBRANCH   3   4
ENDBRANCH   2   3
ENDBRANCH   1   2
BRANCH   1  10
ATOM     10  C   UNL     1      24.467  -1.732  -8.710  1.00  0.00     0.000 C 
BRANCH  10  11
ATOM     11  C   UNL     1      23.991  -1.720 -10.174  1.00  0.00    -0.000 C 
BRANCH  11  12
ATOM     12  C   UNL     1      24.934  -2.483 -11.116  1.00  0.00    -0.000 C 
BRANCH  12  13
ATOM     13  C   UNL     1      25.513  -1.547 -12.188  1.00  0.00    -0.000 C 
BRANCH  13  14
ATOM     14  C   UNL     1      25.157  -0.072 -11.940  1.00  0.00    -0.000 C 
BRANCH  14  15
ATOM     15  C   UNL     1      24.394   0.559 -13.114  1.00  0.00    -0.000 C 
BRANCH  15  16
ATOM     16  C   UNL     1      25.269   1.581 -13.851  1.00  0.00    -0.003 C 
ATOM     17  C   UNL     1      25.671   1.070 -15.231  1.00  0.00     0.004 C 
ENDBRANCH  15  16
ENDBRANCH  14  15
ENDBRANCH  13  14
ENDBRANCH  12  13
ENDBRANCH  11  12
ENDBRANCH  10  11
ENDBRANCH   1  10
TORSDOF 13
ENDMDL
MODEL 6
REMARK VINA RESULT:    -3.907      1.293      1.929
REMARK INTER + INTRA:          -8.655
REMARK INTER:                  -7.104
REMARK INTRA:                  -1.551
REMARK UNBOUND:                -1.778
REMARK SMILES CCCCCCCCCCCCCCC(=O)[O-]
REMARK SMILES IDX 9 1 10 2 11 3 12 4 13 5 14 6 15 7 16 8 17 9 8 10 7 11 6 12
REMARK SMILES IDX 5 13 4 14 3 15 2 16 1 17
REMARK H PARENT
REMARK Flexibility Score: inf
ROOT
ATOM      1  C   UNL     1      25.874  -1.062  -9.317  1.00  0.00     0.000 C 
ENDROOT
BRANCH   1   2
ATOM      2  C   UNL     1      25.965  -1.008 -10.853  1.00  0.00     0.000 C 
BRANCH   2   3
ATOM      3  C   UNL     1      24.739  -1.623 -11.545  1.00  0.00     0.000 C 
BRANCH   3   4
ATOM      4  C   UNL     1      24.151  -0.654 -12.581  1.00  0.00     0.000 C 
BRANCH   4   5
ATOM      5  C   UNL     1      24.971   0.640 -12.732  1.00  0.00     0.006 C 
BRANCH   5   6
ATOM      6  C   UNL     1      24.933   1.241 -14.149  1.00  0.00     0.053 C 
BRANCH   6   7
ATOM      7  C   UNL     1      25.575   0.354 -15.172  1.00  0.00     0.041 C 
ATOM      8  O   UNL     1      24.872  -0.227 -16.042  1.00  0.00    -0.550 OA
ATOM      9  O   UNL     1      26.955   0.194 -15.188  1.00  0.00    -0.550 OA
ENDBRANCH   6   7
ENDBRANCH   5   6
ENDBRANCH   4   5
ENDBRANCH   3   4
ENDBRANCH   2   3
ENDBRANCH   1   2
BRANCH   1  10
ATOM     10  C   UNL     1      24.585  -1.701  -8.760  1.00  0.00     0.000 C 
BRANCH  10  11
ATOM     11  C   UNL     1      24.795  -2.675  -7.587  1.00  0.00    -0.000 C 
BRANCH  11  12
ATOM     12  C   UNL     1      26.066  -3.525  -7.736  1.00  0.00    -0.000 C 
BRANCH  12  13
ATOM     13  C   UNL     1      25.724  -4.939  -8.229  1.00  0.00    -0.000 C 
BRANCH  13  14
ATOM     14  C   UNL     1      25.788  -5.064  -9.759  1.00  0.00    -0.000 C 
BRANCH  14  15
ATOM     15  C   UNL     1      24.400  -5.185 -10.403  1.00  0.00    -0.000 C 
BRANCH  15  16
ATOM     16  C   UNL     1      23.320  -5.421  -9.340  1.00  0.00    -0.003 C 
ATOM     17  C   UNL     1      22.360  -6.528  -9.764  1.00  0.00     0.004 C 
ENDBRANCH  15  16
ENDBRANCH  14  15
ENDBRANCH  13  14
ENDBRANCH  12  13
ENDBRANCH  11  12
ENDBRANCH  10  11
ENDBRANCH   1  10
TORSDOF 13
ENDMDL
MODEL 7
REMARK VINA RESULT:    -3.892      1.437      2.649
REMARK INTER + INTRA:          -8.629
REMARK INTER:                  -7.063
REMARK INTRA:                  -1.566
REMARK UNBOUND:                -1.778
REMARK SMILES CCCCCCCCCCCCCCC(=O)[O-]
REMARK SMILES IDX 9 1 10 2 11 3 12 4 13 5 14 6 15 7 16 8 17 9 8 10 7 11 6 12
REMARK SMILES IDX 5 13 4 14 3 15 2 16 1 17
REMARK H PARENT
REMARK Flexibility Score: inf
ROOT
ATOM      1  C   UNL     1      25.608  -0.673 -10.633  1.00  0.00     0.000 C 
ENDROOT
BRANCH   1   2
ATOM      2  C   UNL     1      24.283  -1.222 -11.193  1.00  0.00     0.000 C 
BRANCH   2   3
ATOM      3  C   UNL     1      23.747  -0.397 -12.372  1.00  0.00     0.000 C 
BRANCH   3   4
ATOM      4  C   UNL     1      24.710   0.745 -12.727  1.00  0.00     0.000 C 
BRANCH   4   5
ATOM      5  C   UNL     1      24.942   0.890 -14.242  1.00  0.00     0.006 C 
BRANCH   5   6
ATOM      6  C   UNL     1      25.243  -0.439 -14.959  1.00  0.00     0.053 C 
BRANCH   6   7
ATOM      7  C   UNL     1      26.598  -0.983 -14.622  1.00  0.00     0.041 C 
ATOM      8  O   UNL     1      26.713  -1.956 -13.829  1.00  0.00    -0.550 OA
ATOM      9  O   UNL     1      27.733  -0.441 -15.211  1.00  0.00    -0.550 OA
ENDBRANCH   6   7
ENDBRANCH   5   6
ENDBRANCH   4   5
ENDBRANCH   3   4
ENDBRANCH   2   3
ENDBRANCH   1   2
BRANCH   1  10
ATOM     10  C   UNL     1      25.580  -0.301  -9.136  1.00  0.00     0.000 C 
BRANCH  10  11
ATOM     11  C   UNL     1      26.738  -0.877  -8.300  1.00  0.00    -0.000 C 
BRANCH  11  12
ATOM     12  C   UNL     1      27.052  -2.340  -8.644  1.00  0.00    -0.000 C 
BRANCH  12  13
ATOM     13  C   UNL     1      27.063  -3.210  -7.378  1.00  0.00    -0.000 C 
BRANCH  13  14
ATOM     14  C   UNL     1      25.908  -4.224  -7.346  1.00  0.00    -0.000 C 
BRANCH  14  15
ATOM     15  C   UNL     1      24.622  -3.676  -7.982  1.00  0.00    -0.000 C 
BRANCH  15  16
ATOM     16  C   UNL     1      23.973  -4.722  -8.896  1.00  0.00    -0.003 C 
ATOM     17  C   UNL     1      24.656  -4.764 -10.260  1.00  0.00     0.004 C 
ENDBRANCH  15  16
ENDBRANCH  14  15
ENDBRANCH  13  14
ENDBRANCH  12  13
ENDBRANCH  11  12
ENDBRANCH  10  11
ENDBRANCH   1  10
TORSDOF 13
ENDMDL
MODEL 8
REMARK VINA RESULT:    -3.884      1.196      1.937
REMARK INTER + INTRA:          -8.615
REMARK INTER:                  -6.716
REMARK INTRA:                  -1.898
REMARK UNBOUND:                -1.778
REMARK SMILES CCCCCCCCCCCCCCC(=O)[O-]
REMARK SMILES IDX 9 1 10 2 11 3 12 4 13 5 14 6 15 7 16 8 17 9 8 10 7 11 6 12
REMARK SMILES IDX 5 13 4 14 3 15 2 16 1 17
REMARK H PARENT
REMARK Flexibility Score: inf
ROOT
ATOM      1  C   UNL     1      26.014  -1.421  -9.011  1.00  0.00     0.000 C 
ENDROOT
BRANCH   1   2
ATOM      2  C   UNL     1      24.476  -1.482  -8.978  1.00  0.00     0.000 C 
BRANCH   2   3
ATOM      3  C   UNL     1      23.842  -1.338 -10.370  1.00  0.00     0.000 C 
BRANCH   3   4
ATOM      4  C   UNL     1      24.768  -0.561 -11.317  1.00  0.00     0.000 C 
BRANCH   4   5
ATOM      5  C   UNL     1      24.094  -0.193 -12.652  1.00  0.00     0.006 C 
BRANCH   5   6
ATOM      6  C   UNL     1      24.815   0.924 -13.428  1.00  0.00     0.053 C 
BRANCH   6   7
ATOM      7  C   UNL     1      25.198   0.511 -14.816  1.00  0.00     0.041 C 
ATOM      8  O   UNL     1      24.851  -0.614 -15.264  1.00  0.00    -0.550 OA
ATOM      9  O   UNL     1      25.910   1.383 -15.631  1.00  0.00    -0.550 OA
ENDBRANCH   6   7
ENDBRANCH   5   6
ENDBRANCH   4   5
ENDBRANCH   3   4
ENDBRANCH   2   3
ENDBRANCH   1   2
BRANCH   1  10
ATOM     10  C   UNL     1      26.729  -2.515  -8.193  1.00  0.00     0.000 C 
BRANCH  10  11
ATOM     11  C   UNL     1      25.806  -3.384  -7.320  1.00  0.00    -0.000 C 
BRANCH  11  12
ATOM     12  C   UNL     1      26.282  -4.841  -7.214  1.00  0.00    -0.000 C 
BRANCH  12  13
ATOM     13  C   UNL     1      25.690  -5.694  -8.346  1.00  0.00    -0.000 C 
BRANCH  13  14
ATOM     14  C   UNL     1      24.251  -5.288  -8.703  1.00  0.00    -0.000 C 
BRANCH  14  15
ATOM     15  C   UNL     1      24.082  -4.955 -10.193  1.00  0.00    -0.000 C 
BRANCH  15  16
ATOM     16  C   UNL     1      25.349  -5.308 -10.981  1.00  0.00    -0.003 C 
ATOM     17  C   UNL     1      25.970  -4.066 -11.613  1.00  0.00     0.004 C 
ENDBRANCH  15  16
ENDBRANCH  14  15
ENDBRANCH  13  14
ENDBRANCH  12  13
ENDBRANCH  11  12
ENDBRANCH  10  11
ENDBRANCH   1  10
TORSDOF 13
ENDMDL
MODEL 9
REMARK VINA RESULT:    -3.823      1.663      3.643
REMARK INTER + INTRA:          -8.507
REMARK INTER:                  -7.246
REMARK INTRA:                  -1.261
REMARK UNBOUND:                -1.778
REMARK SMILES CCCCCCCCCCCCCCC(=O)[O-]
REMARK SMILES IDX 9 1 10 2 11 3 12 4 13 5 14 6 15 7 16 8 17 9 8 10 7 11 6 12
REMARK SMILES IDX 5 13 4 14 3 15 2 16 1 17
REMARK H PARENT
REMARK Flexibility Score: inf
ROOT
ATOM      1  C   UNL     1      24.597  -2.846  -9.191  1.00  0.00     0.000 C 
ENDROOT
BRANCH   1   2
ATOM      2  C   UNL     1      24.333  -1.330  -9.248  1.00  0.00     0.000 C 
BRANCH   2   3
ATOM      3  C   UNL     1      25.377  -0.574 -10.084  1.00  0.00     0.000 C 
BRANCH   3   4
ATOM      4  C   UNL     1      25.403  -1.090 -11.530  1.00  0.00     0.000 C 
BRANCH   4   5
ATOM      5  C   UNL     1      24.203  -0.606 -12.365  1.00  0.00     0.006 C 
BRANCH   5   6
ATOM      6  C   UNL     1      24.492   0.657 -13.197  1.00  0.00     0.053 C 
BRANCH   6   7
ATOM      7  C   UNL     1      25.159   0.350 -14.502  1.00  0.00     0.041 C 
ATOM      8  O   UNL     1      24.802  -0.649 -15.181  1.00  0.00    -0.550 OA
ATOM      9  O   UNL     1      26.155   1.189 -14.989  1.00  0.00    -0.550 OA
ENDBRANCH   6   7
ENDBRANCH   5   6
ENDBRANCH   4   5
ENDBRANCH   3   4
ENDBRANCH   2   3
ENDBRANCH   1   2
BRANCH   1  10
ATOM     10  C   UNL     1      25.217  -3.352  -7.872  1.00  0.00     0.000 C 
BRANCH  10  11
ATOM     11  C   UNL     1      26.475  -4.224  -8.036  1.00  0.00    -0.000 C 
BRANCH  11  12
ATOM     12  C   UNL     1      26.984  -4.795  -6.704  1.00  0.00    -0.000 C 
BRANCH  12  13
ATOM     13  C   UNL     1      28.485  -4.518  -6.528  1.00  0.00    -0.000 C 
BRANCH  13  14
ATOM     14  C   UNL     1      29.010  -3.459  -7.509  1.00  0.00    -0.000 C 
BRANCH  14  15
ATOM     15  C   UNL     1      29.700  -2.284  -6.801  1.00  0.00    -0.000 C 
BRANCH  15  16
ATOM     16  C   UNL     1      28.670  -1.272  -6.286  1.00  0.00    -0.003 C 
ATOM     17  C   UNL     1      27.805  -0.737  -7.424  1.00  0.00     0.004 C 
ENDBRANCH  15  16
ENDBRANCH  14  15
ENDBRANCH  13  14
ENDBRANCH  12  13
ENDBRANCH  11  12
ENDBRANCH  10  11
ENDBRANCH   1  10
TORSDOF 13
ENDMDL
