MODEL 1
REMARK VINA RESULT:    -2.935      0.000      0.000
REMARK INTER + INTRA:          -4.464
REMARK INTER:                  -3.965
REMARK INTRA:                  -0.500
REMARK UNBOUND:                -0.500
REMARK SMILES O=C[C@H](O)[C@H](O)[C@@H](O)CO
REMARK SMILES IDX 7 1 9 2 10 3 5 5 3 6 2 7 1 8 4 9 6 11 8 13
REMARK H PARENT 10 4 4 10 6 12 8 14
REMARK Flexibility Score: inf
ROOT
ATOM      1  C   UNL     1      61.724  51.976   6.502  1.00  0.00     0.171 C 
ENDROOT
BRANCH   1   2
ATOM      2  C   UNL     1      60.332  52.534   6.149  1.00  0.00     0.190 C 
BRANCH   2   3
ATOM      3  O   UNL     1      59.975  53.598   6.991  1.00  0.00    -0.394 OA
ATOM      4  H   UNL     1      60.762  53.793   7.564  1.00  0.00     0.210 HD
ENDBRANCH   2   3
ENDBRANCH   1   2
BRANCH   1   5
ATOM      5  C   UNL     1      62.880  52.811   5.882  1.00  0.00     0.181 C 
BRANCH   5   6
ATOM      6  C   UNL     1      64.278  52.203   6.147  1.00  0.00     0.209 C 
BRANCH   6   7
ATOM      7  C   UNL     1      64.323  50.743   5.773  1.00  0.00     0.258 C 
ATOM      8  O   UNL     1      65.276  50.044   6.080  1.00  0.00    -0.300 OA
ENDBRANCH   6   7
BRANCH   6   9
ATOM      9  O   UNL     1      64.646  52.391   7.490  1.00  0.00    -0.383 OA
ATOM     10  H   UNL     1      65.441  52.985   7.491  1.00  0.00     0.211 HD
ENDBRANCH   6   9
ENDBRANCH   5   6
BRANCH   5  11
ATOM     11  O   UNL     1      62.843  54.125   6.380  1.00  0.00    -0.387 OA
ATOM     12  H   UNL     1      62.999  54.733   5.611  1.00  0.00     0.211 HD
ENDBRANCH   5  11
ENDBRANCH   1   5
BRANCH   1  13
ATOM     13  O   UNL     1      61.869  51.831   7.894  1.00  0.00    -0.388 OA
ATOM     14  H   UNL     1      62.531  52.503   8.205  1.00  0.00     0.211 HD
ENDBRANCH   1  13
TORSDOF 8
ENDMDL
MODEL 2
REMARK VINA RESULT:    -2.789      1.671      3.539
REMARK INTER + INTRA:          -4.267
REMARK INTER:                  -3.560
REMARK INTRA:                  -0.707
REMARK UNBOUND:                -0.500
REMARK SMILES O=C[C@H](O)[C@H](O)[C@@H](O)CO
REMARK SMILES IDX 7 1 9 2 10 3 5 5 3 6 2 7 1 8 4 9 6 11 8 13
REMARK H PARENT 10 4 4 10 6 12 8 14
REMARK Flexibility Score: inf
ROOT
ATOM      1  C   UNL     1      63.413  51.296   7.154  1.00  0.00     0.171 C 
ENDROOT
BRANCH   1   2
ATOM      2  C   UNL     1      63.005  50.427   8.359  1.00  0.00     0.190 C 
BRANCH   2   3
ATOM      3  O   UNL     1      62.853  51.197   9.522  1.00  0.00    -0.394 OA
ATOM      4  H   UNL     1      63.765  51.421   9.844  1.00  0.00     0.210 HD
ENDBRANCH   2   3
ENDBRANCH   1   2
BRANCH   1   5
ATOM      5  C   UNL     1      62.200  52.003   6.485  1.00  0.00     0.181 C 
BRANCH   5   6
ATOM      6  C   UNL     1      62.573  53.345   5.813  1.00  0.00     0.209 C 
BRANCH   6   7
ATOM      7  C   UNL     1      61.372  53.991   5.170  1.00  0.00     0.258 C 
ATOM      8  O   UNL     1      60.356  53.350   4.949  1.00  0.00    -0.300 OA
ENDBRANCH   6   7
BRANCH   6   9
ATOM      9  O   UNL     1      63.603  53.152   4.876  1.00  0.00    -0.383 OA
ATOM     10  H   UNL     1      63.168  52.932   4.011  1.00  0.00     0.211 HD
ENDBRANCH   6   9
ENDBRANCH   5   6
BRANCH   5  11
ATOM     11  O   UNL     1      61.191  52.225   7.439  1.00  0.00    -0.387 OA
ATOM     12  H   UNL     1      61.568  52.837   8.124  1.00  0.00     0.211 HD
ENDBRANCH   5  11
ENDBRANCH   1   5
BRANCH   1  13
ATOM     13  O   UNL     1      64.421  52.210   7.512  1.00  0.00    -0.388 OA
ATOM     14  H   UNL     1      64.320  53.017   6.942  1.00  0.00     0.211 HD
ENDBRANCH   1  13
TORSDOF 8
ENDMDL
MODEL 3
REMARK VINA RESULT:    -2.787      5.084      5.985
REMARK INTER + INTRA:          -4.264
REMARK INTER:                  -3.765
REMARK INTRA:                  -0.499
REMARK UNBOUND:                -0.500
REMARK SMILES O=C[C@H](O)[C@H](O)[C@@H](O)CO
REMARK SMILES IDX 7 1 9 2 10 3 5 5 3 6 2 7 1 8 4 9 6 11 8 13
REMARK H PARENT 10 4 4 10 6 12 8 14
REMARK Flexibility Score: inf
ROOT
ATOM      1  C   UNL     1      61.457  50.506  10.352  1.00  0.00     0.171 C 
ENDROOT
BRANCH   1   2
ATOM      2  C   UNL     1      61.975  50.745   8.921  1.00  0.00     0.190 C 
BRANCH   2   3
ATOM      3  O   UNL     1      63.283  51.254   8.923  1.00  0.00    -0.394 OA
ATOM      4  H   UNL     1      63.884  50.509   9.187  1.00  0.00     0.210 HD
ENDBRANCH   2   3
ENDBRANCH   1   2
BRANCH   1   5
ATOM      5  C   UNL     1      62.506  50.877  11.439  1.00  0.00     0.181 C 
BRANCH   5   6
ATOM      6  C   UNL     1      62.254  50.169  12.791  1.00  0.00     0.209 C 
BRANCH   6   7
ATOM      7  C   UNL     1      63.514  49.533  13.321  1.00  0.00     0.258 C 
ATOM      8  O   UNL     1      63.963  49.843  14.415  1.00  0.00    -0.300 OA
ENDBRANCH   6   7
BRANCH   6   9
ATOM      9  O   UNL     1      61.227  49.219  12.661  1.00  0.00    -0.383 OA
ATOM     10  H   UNL     1      60.377  49.724  12.572  1.00  0.00     0.211 HD
ENDBRANCH   6   9
ENDBRANCH   5   6
BRANCH   5  11
ATOM     11  O   UNL     1      62.517  52.268  11.638  1.00  0.00    -0.387 OA
ATOM     12  H   UNL     1      62.696  52.423  12.602  1.00  0.00     0.211 HD
ENDBRANCH   5  11
ENDBRANCH   1   5
BRANCH   1  13
ATOM     13  O   UNL     1      60.231  51.164  10.558  1.00  0.00    -0.388 OA
ATOM     14  H   UNL     1      59.628  50.542  11.044  1.00  0.00     0.211 HD
ENDBRANCH   1  13
TORSDOF 8
ENDMDL
MODEL 4
REMARK VINA RESULT:    -2.736     25.796     26.965
REMARK INTER + INTRA:          -4.196
REMARK INTER:                  -3.377
REMARK INTRA:                  -0.818
REMARK UNBOUND:                -0.500
REMARK SMILES O=C[C@H](O)[C@H](O)[C@@H](O)CO
REMARK SMILES IDX 7 1 9 2 10 3 5 5 3 6 2 7 1 8 4 9 6 11 8 13
REMARK H PARENT 10 4 4 10 6 12 8 14
REMARK Flexibility Score: inf
ROOT
ATOM      1  C   UNL     1      47.857  35.776  23.315  1.00  0.00     0.171 C 
ENDROOT
BRANCH   1   2
ATOM      2  C   UNL     1      47.608  36.139  24.791  1.00  0.00     0.190 C 
BRANCH   2   3
ATOM      3  O   UNL     1      47.198  37.474  24.932  1.00  0.00    -0.394 OA
ATOM      4  H   UNL     1      46.590  37.510  25.716  1.00  0.00     0.210 HD
ENDBRANCH   2   3
ENDBRANCH   1   2
BRANCH   1   5
ATOM      5  C   UNL     1      49.050  36.559  22.698  1.00  0.00     0.181 C 
BRANCH   5   6
ATOM      6  C   UNL     1      50.267  36.660  23.647  1.00  0.00     0.209 C 
BRANCH   6   7
ATOM      7  C   UNL     1      50.628  38.097  23.928  1.00  0.00     0.258 C 
ATOM      8  O   UNL     1      50.021  38.745  24.767  1.00  0.00    -0.300 OA
ENDBRANCH   6   7
BRANCH   6   9
ATOM      9  O   UNL     1      51.363  35.961  23.112  1.00  0.00    -0.383 OA
ATOM     10  H   UNL     1      51.430  36.219  22.156  1.00  0.00     0.211 HD
ENDBRANCH   6   9
ENDBRANCH   5   6
BRANCH   5  11
ATOM     11  O   UNL     1      48.636  37.853  22.335  1.00  0.00    -0.387 OA
ATOM     12  H   UNL     1      48.305  37.801  21.400  1.00  0.00     0.211 HD
ENDBRANCH   5  11
ENDBRANCH   1   5
BRANCH   1  13
ATOM     13  O   UNL     1      48.005  34.385  23.158  1.00  0.00    -0.388 OA
ATOM     14  H   UNL     1      47.798  33.955  24.029  1.00  0.00     0.211 HD
ENDBRANCH   1  13
TORSDOF 8
ENDMDL
MODEL 5
REMARK VINA RESULT:    -2.697      9.096      9.985
REMARK INTER + INTRA:          -4.143
REMARK INTER:                  -3.658
REMARK INTRA:                  -0.484
REMARK UNBOUND:                -0.500
REMARK SMILES O=C[C@H](O)[C@H](O)[C@@H](O)CO
REMARK SMILES IDX 7 1 9 2 10 3 5 5 3 6 2 7 1 8 4 9 6 11 8 13
REMARK H PARENT 10 4 4 10 6 12 8 14
REMARK Flexibility Score: inf
ROOT
ATOM      1  C   UNL     1      65.381  47.982  15.812  1.00  0.00     0.171 C 
ENDROOT
BRANCH   1   2
ATOM      2  C   UNL     1      65.098  47.636  17.286  1.00  0.00     0.190 C 
BRANCH   2   3
ATOM      3  O   UNL     1      65.284  48.748  18.122  1.00  0.00    -0.394 OA
ATOM      4  H   UNL     1      65.793  48.434  18.914  1.00  0.00     0.210 HD
ENDBRANCH   2   3
ENDBRANCH   1   2
BRANCH   1   5
ATOM      5  C   UNL     1      64.486  49.139  15.285  1.00  0.00     0.181 C 
BRANCH   5   6
ATOM      6  C   UNL     1      64.459  49.230  13.741  1.00  0.00     0.209 C 
BRANCH   6   7
ATOM      7  C   UNL     1      63.106  49.667  13.239  1.00  0.00     0.258 C 
ATOM      8  O   UNL     1      62.951  50.761  12.717  1.00  0.00    -0.300 OA
ENDBRANCH   6   7
BRANCH   6   9
ATOM      9  O   UNL     1      64.834  48.001  13.172  1.00  0.00    -0.383 OA
ATOM     10  H   UNL     1      64.035  47.645  12.703  1.00  0.00     0.211 HD
ENDBRANCH   6   9
ENDBRANCH   5   6
BRANCH   5  11
ATOM     11  O   UNL     1      64.925  50.364  15.815  1.00  0.00    -0.387 OA
ATOM     12  H   UNL     1      64.115  50.898  16.027  1.00  0.00     0.211 HD
ENDBRANCH   5  11
ENDBRANCH   1   5
BRANCH   1  13
ATOM     13  O   UNL     1      66.749  48.242  15.611  1.00  0.00    -0.388 OA
ATOM     14  H   UNL     1      66.861  49.222  15.501  1.00  0.00     0.211 HD
ENDBRANCH   1  13
TORSDOF 8
ENDMDL
MODEL 6
REMARK VINA RESULT:    -2.694      1.607      2.598
REMARK INTER + INTRA:          -4.138
REMARK INTER:                  -3.686
REMARK INTRA:                  -0.452
REMARK UNBOUND:                -0.500
REMARK SMILES O=C[C@H](O)[C@H](O)[C@@H](O)CO
REMARK SMILES IDX 7 1 9 2 10 3 5 5 3 6 2 7 1 8 4 9 6 11 8 13
REMARK H PARENT 10 4 4 10 6 12 8 14
REMARK Flexibility Score: inf
ROOT
ATOM      1  C   UNL     1      63.178  50.386   7.143  1.00  0.00     0.171 C 
ENDROOT
BRANCH   1   2
ATOM      2  C   UNL     1      62.596  50.306   8.568  1.00  0.00     0.190 C 
BRANCH   2   3
ATOM      3  O   UNL     1      63.182  51.256   9.419  1.00  0.00    -0.394 OA
ATOM      4  H   UNL     1      63.028  52.147   9.009  1.00  0.00     0.210 HD
ENDBRANCH   2   3
ENDBRANCH   1   2
BRANCH   1   5
ATOM      5  C   UNL     1      62.863  51.737   6.441  1.00  0.00     0.181 C 
BRANCH   5   6
ATOM      6  C   UNL     1      64.097  52.662   6.322  1.00  0.00     0.209 C 
BRANCH   6   7
ATOM      7  C   UNL     1      64.944  52.297   5.129  1.00  0.00     0.258 C 
ATOM      8  O   UNL     1      66.070  51.845   5.271  1.00  0.00    -0.300 OA
ENDBRANCH   6   7
BRANCH   6   9
ATOM      9  O   UNL     1      64.852  52.624   7.507  1.00  0.00    -0.383 OA
ATOM     10  H   UNL     1      65.617  52.014   7.340  1.00  0.00     0.211 HD
ENDBRANCH   6   9
ENDBRANCH   5   6
BRANCH   5  11
ATOM     11  O   UNL     1      61.843  52.411   7.136  1.00  0.00    -0.387 OA
ATOM     12  H   UNL     1      61.117  52.594   6.482  1.00  0.00     0.211 HD
ENDBRANCH   5  11
ENDBRANCH   1   5
BRANCH   1  13
ATOM     13  O   UNL     1      64.557  50.105   7.148  1.00  0.00    -0.388 OA
ATOM     14  H   UNL     1      64.825  49.871   6.221  1.00  0.00     0.211 HD
ENDBRANCH   1  13
TORSDOF 8
ENDMDL
MODEL 7
REMARK VINA RESULT:    -2.644      1.702      2.603
REMARK INTER + INTRA:          -4.071
REMARK INTER:                  -3.391
REMARK INTRA:                  -0.680
REMARK UNBOUND:                -0.500
REMARK SMILES O=C[C@H](O)[C@H](O)[C@@H](O)CO
REMARK SMILES IDX 7 1 9 2 10 3 5 5 3 6 2 7 1 8 4 9 6 11 8 13
REMARK H PARENT 10 4 4 10 6 12 8 14
REMARK Flexibility Score: inf
ROOT
ATOM      1  C   UNL     1      62.133  51.832   6.491  1.00  0.00     0.171 C 
ENDROOT
BRANCH   1   2
ATOM      2  C   UNL     1      62.494  53.032   5.595  1.00  0.00     0.190 C 
BRANCH   2   3
ATOM      3  O   UNL     1      62.943  54.125   6.353  1.00  0.00    -0.394 OA
ATOM      4  H   UNL     1      62.211  54.364   6.980  1.00  0.00     0.210 HD
ENDBRANCH   2   3
ENDBRANCH   1   2
BRANCH   1   5
ATOM      5  C   UNL     1      63.386  51.055   6.986  1.00  0.00     0.181 C 
BRANCH   5   6
ATOM      6  C   UNL     1      63.046  49.943   8.007  1.00  0.00     0.209 C 
BRANCH   6   7
ATOM      7  C   UNL     1      64.046  48.816   7.945  1.00  0.00     0.258 C 
ATOM      8  O   UNL     1      65.231  49.036   7.740  1.00  0.00    -0.300 OA
ENDBRANCH   6   7
BRANCH   6   9
ATOM      9  O   UNL     1      61.740  49.469   7.796  1.00  0.00    -0.383 OA
ATOM     10  H   UNL     1      61.236  49.634   8.635  1.00  0.00     0.211 HD
ENDBRANCH   6   9
ENDBRANCH   5   6
BRANCH   5  11
ATOM     11  O   UNL     1      64.307  51.948   7.561  1.00  0.00    -0.387 OA
ATOM     12  H   UNL     1      64.950  51.404   8.087  1.00  0.00     0.211 HD
ENDBRANCH   5  11
ENDBRANCH   1   5
BRANCH   1  13
ATOM     13  O   UNL     1      61.307  52.231   7.557  1.00  0.00    -0.388 OA
ATOM     14  H   UNL     1      61.486  53.191   7.740  1.00  0.00     0.211 HD
ENDBRANCH   1  13
TORSDOF 8
ENDMDL
MODEL 8
REMARK VINA RESULT:    -2.619      1.932      3.109
REMARK INTER + INTRA:          -4.038
REMARK INTER:                  -3.314
REMARK INTRA:                  -0.724
REMARK UNBOUND:                -0.500
REMARK SMILES O=C[C@H](O)[C@H](O)[C@@H](O)CO
REMARK SMILES IDX 7 1 9 2 10 3 5 5 3 6 2 7 1 8 4 9 6 11 8 13
REMARK H PARENT 10 4 4 10 6 12 8 14
REMARK Flexibility Score: inf
ROOT
ATOM      1  C   UNL     1      62.138  51.876   6.469  1.00  0.00     0.171 C 
ENDROOT
BRANCH   1   2
ATOM      2  C   UNL     1      62.628  53.051   5.602  1.00  0.00     0.190 C 
BRANCH   2   3
ATOM      3  O   UNL     1      63.071  54.124   6.390  1.00  0.00    -0.394 OA
ATOM      4  H   UNL     1      63.055  53.817   7.334  1.00  0.00     0.210 HD
ENDBRANCH   2   3
ENDBRANCH   1   2
BRANCH   1   5
ATOM      5  C   UNL     1      63.307  51.079   7.115  1.00  0.00     0.181 C 
BRANCH   5   6
ATOM      6  C   UNL     1      62.836  49.807   7.860  1.00  0.00     0.209 C 
BRANCH   6   7
ATOM      7  C   UNL     1      62.843  50.010   9.353  1.00  0.00     0.258 C 
ATOM      8  O   UNL     1      62.133  50.855   9.877  1.00  0.00    -0.300 OA
ENDBRANCH   6   7
BRANCH   6   9
ATOM      9  O   UNL     1      63.632  48.706   7.496  1.00  0.00    -0.383 OA
ATOM     10  H   UNL     1      64.082  48.392   8.323  1.00  0.00     0.211 HD
ENDBRANCH   6   9
ENDBRANCH   5   6
BRANCH   5  11
ATOM     11  O   UNL     1      64.013  51.905   8.008  1.00  0.00    -0.387 OA
ATOM     12  H   UNL     1      63.422  52.062   8.790  1.00  0.00     0.211 HD
ENDBRANCH   5  11
ENDBRANCH   1   5
BRANCH   1  13
ATOM     13  O   UNL     1      61.207  52.313   7.428  1.00  0.00    -0.388 OA
ATOM     14  H   UNL     1      61.560  52.081   8.327  1.00  0.00     0.211 HD
ENDBRANCH   1  13
TORSDOF 8
ENDMDL
MODEL 9
REMARK VINA RESULT:    -2.559      9.867     10.507
REMARK INTER + INTRA:          -3.956
REMARK INTER:                  -2.991
REMARK INTRA:                  -0.965
REMARK UNBOUND:                -0.500
REMARK SMILES O=C[C@H](O)[C@H](O)[C@@H](O)CO
REMARK SMILES IDX 7 1 9 2 10 3 5 5 3 6 2 7 1 8 4 9 6 11 8 13
REMARK H PARENT 10 4 4 10 6 12 8 14
REMARK Flexibility Score: inf
ROOT
ATOM      1  C   UNL     1      63.816  48.798  16.222  1.00  0.00     0.171 C 
ENDROOT
BRANCH   1   2
ATOM      2  C   UNL     1      64.148  49.277  17.648  1.00  0.00     0.190 C 
BRANCH   2   3
ATOM      3  O   UNL     1      65.246  48.585  18.181  1.00  0.00    -0.394 OA
ATOM      4  H   UNL     1      66.064  49.066  17.887  1.00  0.00     0.210 HD
ENDBRANCH   2   3
ENDBRANCH   1   2
BRANCH   1   5
ATOM      5  C   UNL     1      64.876  49.244  15.176  1.00  0.00     0.181 C 
BRANCH   5   6
ATOM      6  C   UNL     1      65.511  48.059  14.411  1.00  0.00     0.209 C 
BRANCH   6   7
ATOM      7  C   UNL     1      66.808  47.627  15.047  1.00  0.00     0.258 C 
ATOM      8  O   UNL     1      66.827  47.123  16.160  1.00  0.00    -0.300 OA
ENDBRANCH   6   7
BRANCH   6   9
ATOM      9  O   UNL     1      65.700  48.395  13.059  1.00  0.00    -0.383 OA
ATOM     10  H   UNL     1      66.585  48.033  12.794  1.00  0.00     0.211 HD
ENDBRANCH   6   9
ENDBRANCH   5   6
BRANCH   5  11
ATOM     11  O   UNL     1      65.889  49.986  15.808  1.00  0.00    -0.387 OA
ATOM     12  H   UNL     1      66.586  50.168  15.125  1.00  0.00     0.211 HD
ENDBRANCH   5  11
ENDBRANCH   1   5
BRANCH   1  13
ATOM     13  O   UNL     1      63.605  47.407  16.196  1.00  0.00    -0.388 OA
ATOM     14  H   UNL     1      62.644  47.246  16.001  1.00  0.00     0.211 HD
ENDBRANCH   1  13
TORSDOF 8
ENDMDL
