MODEL 1
REMARK VINA RESULT:    -5.529      0.000      0.000
REMARK INTER + INTRA:          -6.387
REMARK INTER:                  -6.176
REMARK INTRA:                  -0.212
REMARK UNBOUND:                -0.212
REMARK SMILES CC(C)c1ccc(C(=O)[O-])cc1
REMARK SMILES IDX 7 1 6 2 11 3 5 4 12 5 4 6 8 7 9 8 10 9 2 10 1 11 3 12
REMARK H PARENT
REMARK Flexibility Score: inf
ROOT
ATOM      1  C   UNL     1      19.647  34.118   9.388  1.00  0.00    -0.003 A 
ATOM      2  C   UNL     1      19.754  33.960  10.780  1.00  0.00     0.010 A 
ATOM      3  C   UNL     1      18.630  34.941   8.873  1.00  0.00     0.010 A 
ATOM      4  C   UNL     1      18.865  34.611  11.639  1.00  0.00     0.004 A 
ATOM      5  C   UNL     1      17.741  35.592   9.733  1.00  0.00     0.004 A 
ATOM      6  C   UNL     1      17.848  35.434  11.127  1.00  0.00    -0.045 A 
ENDROOT
BRANCH   1   7
ATOM      7  C   UNL     1      20.590  33.427   8.482  1.00  0.00     0.071 C 
ATOM      8  O   UNL     1      21.729  33.916   8.250  1.00  0.00    -0.545 OA
ATOM      9  O   UNL     1      20.234  32.229   7.875  1.00  0.00    -0.545 OA
ENDBRANCH   1   7
BRANCH   6  10
ATOM     10  C   UNL     1      16.890  36.134  12.072  1.00  0.00     0.013 C 
ATOM     11  C   UNL     1      15.735  36.787  11.305  1.00  0.00     0.012 C 
ATOM     12  C   UNL     1      16.365  35.169  13.142  1.00  0.00     0.012 C 
ENDBRANCH   6  10
TORSDOF 2
ENDMDL
MODEL 2
REMARK VINA RESULT:    -5.453      3.151      5.091
REMARK INTER + INTRA:          -6.302
REMARK INTER:                  -6.085
REMARK INTRA:                  -0.217
REMARK UNBOUND:                -0.212
REMARK SMILES CC(C)c1ccc(C(=O)[O-])cc1
REMARK SMILES IDX 7 1 6 2 11 3 5 4 12 5 4 6 8 7 9 8 10 9 2 10 1 11 3 12
REMARK H PARENT
REMARK Flexibility Score: inf
ROOT
ATOM      1  C   UNL     1      17.490  35.505  11.169  1.00  0.00    -0.003 A 
ATOM      2  C   UNL     1      18.415  34.798  11.955  1.00  0.00     0.010 A 
ATOM      3  C   UNL     1      17.676  35.550   9.775  1.00  0.00     0.010 A 
ATOM      4  C   UNL     1      19.503  34.150  11.362  1.00  0.00     0.004 A 
ATOM      5  C   UNL     1      18.763  34.902   9.183  1.00  0.00     0.004 A 
ATOM      6  C   UNL     1      19.690  34.195   9.971  1.00  0.00    -0.045 A 
ENDROOT
BRANCH   1   7
ATOM      7  C   UNL     1      16.340  36.189  11.800  1.00  0.00     0.071 C 
ATOM      8  O   UNL     1      15.715  35.646  12.750  1.00  0.00    -0.545 OA
ATOM      9  O   UNL     1      15.934  37.441  11.354  1.00  0.00    -0.545 OA
ENDBRANCH   1   7
BRANCH   6  10
ATOM     10  C   UNL     1      20.875  33.487   9.342  1.00  0.00     0.013 C 
ATOM     11  C   UNL     1      21.262  32.238  10.143  1.00  0.00     0.012 C 
ATOM     12  C   UNL     1      20.594  33.135   7.875  1.00  0.00     0.012 C 
ENDBRANCH   6  10
TORSDOF 2
ENDMDL
MODEL 3
REMARK VINA RESULT:    -5.421      3.136      5.221
REMARK INTER + INTRA:          -6.266
REMARK INTER:                  -6.049
REMARK INTRA:                  -0.218
REMARK UNBOUND:                -0.212
REMARK SMILES CC(C)c1ccc(C(=O)[O-])cc1
REMARK SMILES IDX 7 1 6 2 11 3 5 4 12 5 4 6 8 7 9 8 10 9 2 10 1 11 3 12
REMARK H PARENT
REMARK Flexibility Score: inf
ROOT
ATOM      1  C   UNL     1      17.501  35.504  11.090  1.00  0.00    -0.003 A 
ATOM      2  C   UNL     1      17.732  35.556   9.706  1.00  0.00     0.010 A 
ATOM      3  C   UNL     1      18.375  34.755  11.899  1.00  0.00     0.010 A 
ATOM      4  C   UNL     1      18.814  34.876   9.140  1.00  0.00     0.004 A 
ATOM      5  C   UNL     1      19.457  34.075  11.333  1.00  0.00     0.004 A 
ATOM      6  C   UNL     1      19.688  34.128   9.946  1.00  0.00    -0.045 A 
ENDROOT
BRANCH   1   7
ATOM      7  C   UNL     1      16.355  36.226  11.685  1.00  0.00     0.071 C 
ATOM      8  O   UNL     1      16.007  37.353  11.240  1.00  0.00    -0.545 OA
ATOM      9  O   UNL     1      15.644  35.670  12.742  1.00  0.00    -0.545 OA
ENDBRANCH   1   7
BRANCH   6  10
ATOM     10  C   UNL     1      20.859  33.394   9.318  1.00  0.00     0.013 C 
ATOM     11  C   UNL     1      21.269  32.181  10.161  1.00  0.00     0.012 C 
ATOM     12  C   UNL     1      20.541  32.981   7.875  1.00  0.00     0.012 C 
ENDBRANCH   6  10
TORSDOF 2
ENDMDL
MODEL 4
REMARK VINA RESULT:    -5.009      2.204      3.119
REMARK INTER + INTRA:          -5.806
REMARK INTER:                  -5.592
REMARK INTRA:                  -0.215
REMARK UNBOUND:                -0.212
REMARK SMILES CC(C)c1ccc(C(=O)[O-])cc1
REMARK SMILES IDX 7 1 6 2 11 3 5 4 12 5 4 6 8 7 9 8 10 9 2 10 1 11 3 12
REMARK H PARENT
REMARK Flexibility Score: inf
ROOT
ATOM      1  C   UNL     1      17.864  35.819  10.016  1.00  0.00    -0.003 A 
ATOM      2  C   UNL     1      18.579  34.743  10.565  1.00  0.00     0.010 A 
ATOM      3  C   UNL     1      16.764  36.337  10.724  1.00  0.00     0.010 A 
ATOM      4  C   UNL     1      18.205  34.193  11.794  1.00  0.00     0.004 A 
ATOM      5  C   UNL     1      16.390  35.788  11.953  1.00  0.00     0.004 A 
ATOM      6  C   UNL     1      17.107  34.709  12.502  1.00  0.00    -0.045 A 
ENDROOT
BRANCH   1   7
ATOM      7  C   UNL     1      18.264  36.397   8.714  1.00  0.00     0.071 C 
ATOM      8  O   UNL     1      18.901  35.705   7.875  1.00  0.00    -0.545 OA
ATOM      9  O   UNL     1      17.942  37.712   8.399  1.00  0.00    -0.545 OA
ENDBRANCH   1   7
BRANCH   6  10
ATOM     10  C   UNL     1      16.712  34.102  13.837  1.00  0.00     0.013 C 
ATOM     11  C   UNL     1      15.569  34.892  14.486  1.00  0.00     0.012 C 
ATOM     12  C   UNL     1      16.342  32.622  13.682  1.00  0.00     0.012 C 
ENDBRANCH   6  10
TORSDOF 2
ENDMDL
MODEL 5
REMARK VINA RESULT:    -4.795      0.887      2.012
REMARK INTER + INTRA:          -5.567
REMARK INTER:                  -5.357
REMARK INTRA:                  -0.210
REMARK UNBOUND:                -0.212
REMARK SMILES CC(C)c1ccc(C(=O)[O-])cc1
REMARK SMILES IDX 7 1 6 2 11 3 5 4 12 5 4 6 8 7 9 8 10 9 2 10 1 11 3 12
REMARK H PARENT
REMARK Flexibility Score: inf
ROOT
ATOM      1  C   UNL     1      20.029  33.838   9.673  1.00  0.00    -0.003 A 
ATOM      2  C   UNL     1      19.057  34.425   8.847  1.00  0.00     0.010 A 
ATOM      3  C   UNL     1      19.865  33.903  11.068  1.00  0.00     0.010 A 
ATOM      4  C   UNL     1      17.945  35.063   9.401  1.00  0.00     0.004 A 
ATOM      5  C   UNL     1      18.753  34.542  11.623  1.00  0.00     0.004 A 
ATOM      6  C   UNL     1      17.780  35.130  10.794  1.00  0.00    -0.045 A 
ENDROOT
BRANCH   1   7
ATOM      7  C   UNL     1      21.205  33.162   9.082  1.00  0.00     0.071 C 
ATOM      8  O   UNL     1      21.650  32.095   9.584  1.00  0.00    -0.545 OA
ATOM      9  O   UNL     1      21.835  33.696   7.964  1.00  0.00    -0.545 OA
ENDBRANCH   1   7
BRANCH   6  10
ATOM     10  C   UNL     1      16.566  35.827  11.382  1.00  0.00     0.013 C 
ATOM     11  C   UNL     1      16.368  35.444  12.853  1.00  0.00     0.012 C 
ATOM     12  C   UNL     1      16.669  37.349  11.217  1.00  0.00     0.012 C 
ENDBRANCH   6  10
TORSDOF 2
ENDMDL
MODEL 6
REMARK VINA RESULT:    -4.730      4.012      5.633
REMARK INTER + INTRA:          -5.494
REMARK INTER:                  -5.280
REMARK INTRA:                  -0.214
REMARK UNBOUND:                -0.212
REMARK SMILES CC(C)c1ccc(C(=O)[O-])cc1
REMARK SMILES IDX 7 1 6 2 11 3 5 4 12 5 4 6 8 7 9 8 10 9 2 10 1 11 3 12
REMARK H PARENT
REMARK Flexibility Score: inf
ROOT
ATOM      1  C   UNL     1      22.276  30.621  11.631  1.00  0.00    -0.003 A 
ATOM      2  C   UNL     1      22.406  30.355  10.258  1.00  0.00     0.010 A 
ATOM      3  C   UNL     1      21.582  31.775  12.037  1.00  0.00     0.010 A 
ATOM      4  C   UNL     1      21.855  31.222   9.311  1.00  0.00     0.004 A 
ATOM      5  C   UNL     1      21.032  32.642  11.090  1.00  0.00     0.004 A 
ATOM      6  C   UNL     1      21.163  32.376   9.715  1.00  0.00    -0.045 A 
ENDROOT
BRANCH   1   7
ATOM      7  C   UNL     1      22.860  29.699  12.630  1.00  0.00     0.071 C 
ATOM      8  O   UNL     1      23.125  28.506  12.323  1.00  0.00    -0.545 OA
ATOM      9  O   UNL     1      23.125  30.138  13.921  1.00  0.00    -0.545 OA
ENDBRANCH   1   7
BRANCH   6  10
ATOM     10  C   UNL     1      20.570  33.309   8.675  1.00  0.00     0.013 C 
ATOM     11  C   UNL     1      19.463  32.613   7.875  1.00  0.00     0.012 C 
ATOM     12  C   UNL     1      20.055  34.601   9.321  1.00  0.00     0.012 C 
ENDBRANCH   6  10
TORSDOF 2
ENDMDL
MODEL 7
REMARK VINA RESULT:    -4.690      3.428      4.845
REMARK INTER + INTRA:          -5.449
REMARK INTER:                  -5.240
REMARK INTRA:                  -0.209
REMARK UNBOUND:                -0.212
REMARK SMILES CC(C)c1ccc(C(=O)[O-])cc1
REMARK SMILES IDX 7 1 6 2 11 3 5 4 12 5 4 6 8 7 9 8 10 9 2 10 1 11 3 12
REMARK H PARENT
REMARK Flexibility Score: inf
ROOT
ATOM      1  C   UNL     1      16.791  34.881  12.416  1.00  0.00    -0.003 A 
ATOM      2  C   UNL     1      17.920  34.389  11.742  1.00  0.00     0.010 A 
ATOM      3  C   UNL     1      16.011  35.877  11.801  1.00  0.00     0.010 A 
ATOM      4  C   UNL     1      18.263  34.879  10.479  1.00  0.00     0.004 A 
ATOM      5  C   UNL     1      16.355  36.367  10.538  1.00  0.00     0.004 A 
ATOM      6  C   UNL     1      17.486  35.873   9.863  1.00  0.00    -0.045 A 
ENDROOT
BRANCH   1   7
ATOM      7  C   UNL     1      16.431  34.359  13.753  1.00  0.00     0.071 C 
ATOM      8  O   UNL     1      16.355  35.135  14.744  1.00  0.00    -0.545 OA
ATOM      9  O   UNL     1      16.171  33.006  13.934  1.00  0.00    -0.545 OA
ENDBRANCH   1   7
BRANCH   6  10
ATOM     10  C   UNL     1      17.871  36.396   8.491  1.00  0.00     0.013 C 
ATOM     11  C   UNL     1      18.262  37.877   8.554  1.00  0.00     0.012 C 
ATOM     12  C   UNL     1      18.995  35.554   7.875  1.00  0.00     0.012 C 
ENDBRANCH   6  10
TORSDOF 2
ENDMDL
MODEL 8
REMARK VINA RESULT:    -4.386     16.886     18.964
REMARK INTER + INTRA:          -5.110
REMARK INTER:                  -4.908
REMARK INTRA:                  -0.203
REMARK UNBOUND:                -0.212
REMARK SMILES CC(C)c1ccc(C(=O)[O-])cc1
REMARK SMILES IDX 7 1 6 2 11 3 5 4 12 5 4 6 8 7 9 8 10 9 2 10 1 11 3 12
REMARK H PARENT
REMARK Flexibility Score: inf
ROOT
ATOM      1  C   UNL     1       5.917  43.159  19.440  1.00  0.00    -0.003 A 
ATOM      2  C   UNL     1       7.029  43.272  20.291  1.00  0.00     0.010 A 
ATOM      3  C   UNL     1       4.626  43.206  19.997  1.00  0.00     0.010 A 
ATOM      4  C   UNL     1       6.856  43.429  21.669  1.00  0.00     0.004 A 
ATOM      5  C   UNL     1       4.454  43.364  21.375  1.00  0.00     0.004 A 
ATOM      6  C   UNL     1       5.567  43.477  22.227  1.00  0.00    -0.045 A 
ENDROOT
BRANCH   1   7
ATOM      7  C   UNL     1       6.105  42.992  17.982  1.00  0.00     0.071 C 
ATOM      8  O   UNL     1       5.445  43.691  17.168  1.00  0.00    -0.545 OA
ATOM      9  O   UNL     1       7.012  42.061  17.491  1.00  0.00    -0.545 OA
ENDBRANCH   1   7
BRANCH   6  10
ATOM     10  C   UNL     1       5.395  43.648  23.725  1.00  0.00     0.013 C 
ATOM     11  C   UNL     1       4.460  44.820  24.043  1.00  0.00     0.012 C 
ATOM     12  C   UNL     1       4.897  42.352  24.376  1.00  0.00     0.012 C 
ENDBRANCH   6  10
TORSDOF 2
ENDMDL
