MODEL 1
REMARK VINA RESULT:    -4.454      0.000      0.000
REMARK INTER + INTRA:          -5.971
REMARK INTER:                  -5.495
REMARK INTRA:                  -0.476
REMARK UNBOUND:                -0.476
REMARK SMILES CC(C)=CCC[C@H](C)c1ccc(C)cc1
REMARK SMILES IDX 6 1 7 2 8 3 9 4 13 5 12 6 11 7 14 8 10 9 15 10 5 11 4 12
REMARK SMILES IDX 2 13 1 14 3 15
REMARK H PARENT
REMARK Flexibility Score: inf
ROOT
ATOM      1  C   UNL     1      13.944  10.624 -42.218  1.00  0.00     0.012 C 
ENDROOT
BRANCH   1   2
ATOM      2  C   UNL     1      12.927  11.354 -43.125  1.00  0.00     0.016 C 
ATOM      3  C   UNL     1      13.002  12.882 -42.969  1.00  0.00     0.013 C 
BRANCH   2   4
ATOM      4  C   UNL     1      11.518  10.866 -42.841  1.00  0.00    -0.045 A 
ATOM      5  C   UNL     1       7.499   9.513 -42.019  1.00  0.00     0.044 C 
ATOM      6  C   UNL     1       8.890   9.974 -42.334  1.00  0.00    -0.051 A 
ATOM      7  C   UNL     1       9.122  11.293 -42.747  1.00  0.00     0.004 A 
ATOM      8  C   UNL     1       9.979   9.108 -42.151  1.00  0.00     0.004 A 
ATOM      9  C   UNL     1      10.424  11.734 -43.004  1.00  0.00     0.004 A 
ATOM     10  C   UNL     1      11.281   9.548 -42.408  1.00  0.00     0.004 A 
ENDBRANCH   2   4
ENDBRANCH   1   2
BRANCH   1  11
ATOM     11  C   UNL     1      13.417  10.406 -40.792  1.00  0.00     0.028 C 
BRANCH  11  12
ATOM     12  C   UNL     1      13.703  11.609 -39.928  1.00  0.00    -0.028 C 
ATOM     13  C   UNL     1      12.750  12.387 -39.365  1.00  0.00    -0.080 C 
ATOM     14  C   UNL     1      13.151  13.552 -38.495  1.00  0.00     0.039 C 
ATOM     15  C   UNL     1      11.279  12.163 -39.615  1.00  0.00     0.039 C 
ENDBRANCH  11  12
ENDBRANCH   1  11
TORSDOF 4
ENDMDL
MODEL 2
REMARK VINA RESULT:    -4.329      1.165      3.026
REMARK INTER + INTRA:          -5.818
REMARK INTER:                  -5.033
REMARK INTRA:                  -0.784
REMARK UNBOUND:                -0.476
REMARK SMILES CC(C)=CCC[C@H](C)c1ccc(C)cc1
REMARK SMILES IDX 6 1 7 2 8 3 9 4 13 5 12 6 11 7 14 8 10 9 15 10 5 11 4 12
REMARK SMILES IDX 2 13 1 14 3 15
REMARK H PARENT
REMARK Flexibility Score: inf
ROOT
ATOM      1  C   UNL     1      12.326  13.490 -42.587  1.00  0.00     0.012 C 
ENDROOT
BRANCH   1   2
ATOM      2  C   UNL     1      11.528  13.242 -41.287  1.00  0.00     0.016 C 
ATOM      3  C   UNL     1      12.440  12.866 -40.108  1.00  0.00     0.013 C 
BRANCH   2   4
ATOM      4  C   UNL     1      10.481  12.166 -41.505  1.00  0.00    -0.045 A 
ATOM      5  C   UNL     1       7.481   9.125 -42.148  1.00  0.00     0.044 C 
ATOM      6  C   UNL     1       8.544  10.161 -41.937  1.00  0.00    -0.051 A 
ATOM      7  C   UNL     1       8.826  11.099 -42.939  1.00  0.00     0.004 A 
ATOM      8  C   UNL     1       9.215  10.243 -40.708  1.00  0.00     0.004 A 
ATOM      9  C   UNL     1       9.791  12.090 -42.728  1.00  0.00     0.004 A 
ATOM     10  C   UNL     1      10.180  11.232 -40.495  1.00  0.00     0.004 A 
ENDBRANCH   2   4
ENDBRANCH   1   2
BRANCH   1  11
ATOM     11  C   UNL     1      13.412  12.431 -42.827  1.00  0.00     0.028 C 
BRANCH  11  12
ATOM     12  C   UNL     1      12.791  11.088 -43.123  1.00  0.00    -0.028 C 
ATOM     13  C   UNL     1      12.995   9.974 -42.382  1.00  0.00    -0.080 C 
ATOM     14  C   UNL     1      12.300   8.689 -42.755  1.00  0.00     0.039 C 
ATOM     15  C   UNL     1      13.943   9.952 -41.209  1.00  0.00     0.039 C 
ENDBRANCH  11  12
ENDBRANCH   1  11
TORSDOF 4
ENDMDL
MODEL 3
REMARK VINA RESULT:    -2.801      1.347      4.759
REMARK INTER + INTRA:          -3.931
REMARK INTER:                  -3.000
REMARK INTRA:                  -0.931
REMARK UNBOUND:                -0.476
REMARK SMILES CC(C)=CCC[C@H](C)c1ccc(C)cc1
REMARK SMILES IDX 6 1 7 2 8 3 9 4 13 5 12 6 11 7 14 8 10 9 15 10 5 11 4 12
REMARK SMILES IDX 2 13 1 14 3 15
REMARK H PARENT
REMARK Flexibility Score: inf
ROOT
ATOM      1  C   UNL     1      12.790   9.437 -41.985  1.00  0.00     0.012 C 
ENDROOT
BRANCH   1   2
ATOM      2  C   UNL     1      13.015  10.934 -42.298  1.00  0.00     0.016 C 
ATOM      3  C   UNL     1      14.290  11.169 -43.125  1.00  0.00     0.013 C 
BRANCH   2   4
ATOM      4  C   UNL     1      13.066  11.742 -41.014  1.00  0.00    -0.045 A 
ATOM      5  C   UNL     1      13.213  14.009 -37.340  1.00  0.00     0.044 C 
ATOM      6  C   UNL     1      13.186  13.239 -38.626  1.00  0.00    -0.051 A 
ATOM      7  C   UNL     1      13.932  12.060 -38.761  1.00  0.00     0.004 A 
ATOM      8  C   UNL     1      12.360  13.655 -39.681  1.00  0.00     0.004 A 
ATOM      9  C   UNL     1      13.878  11.320 -39.947  1.00  0.00     0.004 A 
ATOM     10  C   UNL     1      12.304  12.917 -40.867  1.00  0.00     0.004 A 
ENDBRANCH   2   4
ENDBRANCH   1   2
BRANCH   1  11
ATOM     11  C   UNL     1      11.473   8.902 -42.564  1.00  0.00     0.028 C 
BRANCH  11  12
ATOM     12  C   UNL     1      10.638  10.029 -43.121  1.00  0.00    -0.028 C 
ATOM     13  C   UNL     1       9.804  10.798 -42.383  1.00  0.00    -0.080 C 
ATOM     14  C   UNL     1       9.038  11.916 -43.041  1.00  0.00     0.039 C 
ATOM     15  C   UNL     1       9.571  10.546 -40.914  1.00  0.00     0.039 C 
ENDBRANCH  11  12
ENDBRANCH   1  11
TORSDOF 4
ENDMDL
MODEL 4
REMARK VINA RESULT:    -2.742      1.330      4.621
REMARK INTER + INTRA:          -3.859
REMARK INTER:                  -2.822
REMARK INTRA:                  -1.036
REMARK UNBOUND:                -0.476
REMARK SMILES CC(C)=CCC[C@H](C)c1ccc(C)cc1
REMARK SMILES IDX 6 1 7 2 8 3 9 4 13 5 12 6 11 7 14 8 10 9 15 10 5 11 4 12
REMARK SMILES IDX 2 13 1 14 3 15
REMARK H PARENT
REMARK Flexibility Score: inf
ROOT
ATOM      1  C   UNL     1      12.789   9.433 -41.985  1.00  0.00     0.012 C 
ENDROOT
BRANCH   1   2
ATOM      2  C   UNL     1      13.003  10.934 -42.286  1.00  0.00     0.016 C 
ATOM      3  C   UNL     1      14.268  11.184 -43.122  1.00  0.00     0.013 C 
BRANCH   2   4
ATOM      4  C   UNL     1      13.061  11.730 -40.995  1.00  0.00    -0.045 A 
ATOM      5  C   UNL     1      13.224  14.029 -37.341  1.00  0.00     0.044 C 
ATOM      6  C   UNL     1      13.143  13.216 -38.598  1.00  0.00    -0.051 A 
ATOM      7  C   UNL     1      12.374  13.662 -39.682  1.00  0.00     0.004 A 
ATOM      8  C   UNL     1      13.891  12.036 -38.725  1.00  0.00     0.004 A 
ATOM      9  C   UNL     1      12.328  12.923 -40.868  1.00  0.00     0.004 A 
ATOM     10  C   UNL     1      13.846  11.296 -39.910  1.00  0.00     0.004 A 
ENDBRANCH   2   4
ENDBRANCH   1   2
BRANCH   1  11
ATOM     11  C   UNL     1      11.473   8.894 -42.565  1.00  0.00     0.028 C 
BRANCH  11  12
ATOM     12  C   UNL     1      10.637  10.018 -43.125  1.00  0.00    -0.028 C 
ATOM     13  C   UNL     1       9.755  10.746 -42.401  1.00  0.00    -0.080 C 
ATOM     14  C   UNL     1       8.991  11.866 -43.059  1.00  0.00     0.039 C 
ATOM     15  C   UNL     1       9.465  10.446 -40.951  1.00  0.00     0.039 C 
ENDBRANCH  11  12
ENDBRANCH   1  11
TORSDOF 4
ENDMDL
MODEL 5
REMARK VINA RESULT:    -2.417     16.900     18.587
REMARK INTER + INTRA:          -3.458
REMARK INTER:                  -3.258
REMARK INTRA:                  -0.200
REMARK UNBOUND:                -0.476
REMARK SMILES CC(C)=CCC[C@H](C)c1ccc(C)cc1
REMARK SMILES IDX 6 1 7 2 8 3 9 4 13 5 12 6 11 7 14 8 10 9 15 10 5 11 4 12
REMARK SMILES IDX 2 13 1 14 3 15
REMARK H PARENT
REMARK Flexibility Score: inf
ROOT
ATOM      1  C   UNL     1       7.891   1.219 -26.893  1.00  0.00     0.012 C 
ENDROOT
BRANCH   1   2
ATOM      2  C   UNL     1       7.949   1.129 -25.352  1.00  0.00     0.016 C 
ATOM      3  C   UNL     1       6.564   0.881 -24.732  1.00  0.00     0.013 C 
BRANCH   2   4
ATOM      4  C   UNL     1       8.567   2.388 -24.770  1.00  0.00    -0.045 A 
ATOM      5  C   UNL     1      10.340   5.978 -23.149  1.00  0.00     0.044 C 
ATOM      6  C   UNL     1       9.697   4.742 -23.703  1.00  0.00    -0.051 A 
ATOM      7  C   UNL     1       9.292   4.696 -25.044  1.00  0.00     0.004 A 
ATOM      8  C   UNL     1       9.557   3.599 -22.902  1.00  0.00     0.004 A 
ATOM      9  C   UNL     1       8.726   3.531 -25.572  1.00  0.00     0.004 A 
ATOM     10  C   UNL     1       8.992   2.434 -23.428  1.00  0.00     0.004 A 
ENDBRANCH   2   4
ENDBRANCH   1   2
BRANCH   1  11
ATOM     11  C   UNL     1       9.285   1.228 -27.539  1.00  0.00     0.028 C 
BRANCH  11  12
ATOM     12  C   UNL     1       9.196   0.875 -29.003  1.00  0.00    -0.028 C 
ATOM     13  C   UNL     1       9.873   1.516 -29.984  1.00  0.00    -0.080 C 
ATOM     14  C   UNL     1       9.729   1.061 -31.414  1.00  0.00     0.039 C 
ATOM     15  C   UNL     1      10.742   2.718 -29.707  1.00  0.00     0.039 C 
ENDBRANCH  11  12
ENDBRANCH   1  11
TORSDOF 4
ENDMDL
MODEL 6
REMARK VINA RESULT:    -2.212      0.958      2.108
REMARK INTER + INTRA:          -3.205
REMARK INTER:                  -2.559
REMARK INTRA:                  -0.646
REMARK UNBOUND:                -0.476
REMARK SMILES CC(C)=CCC[C@H](C)c1ccc(C)cc1
REMARK SMILES IDX 6 1 7 2 8 3 9 4 13 5 12 6 11 7 14 8 10 9 15 10 5 11 4 12
REMARK SMILES IDX 2 13 1 14 3 15
REMARK H PARENT
REMARK Flexibility Score: inf
ROOT
ATOM      1  C   UNL     1      12.930  11.715 -40.857  1.00  0.00     0.012 C 
ENDROOT
BRANCH   1   2
ATOM      2  C   UNL     1      12.469  11.517 -42.320  1.00  0.00     0.016 C 
ATOM      3  C   UNL     1      12.510  12.827 -43.124  1.00  0.00     0.013 C 
BRANCH   2   4
ATOM      4  C   UNL     1      11.074  10.920 -42.360  1.00  0.00    -0.045 A 
ATOM      5  C   UNL     1       7.120   9.186 -42.484  1.00  0.00     0.044 C 
ATOM      6  C   UNL     1       8.487   9.796 -42.411  1.00  0.00    -0.051 A 
ATOM      7  C   UNL     1       9.587   9.023 -42.016  1.00  0.00     0.004 A 
ATOM      8  C   UNL     1       8.688  11.128 -42.805  1.00  0.00     0.004 A 
ATOM      9  C   UNL     1      10.869   9.581 -41.984  1.00  0.00     0.004 A 
ATOM     10  C   UNL     1       9.969  11.687 -42.774  1.00  0.00     0.004 A 
ENDBRANCH   2   4
ENDBRANCH   1   2
BRANCH   1  11
ATOM     11  C   UNL     1      12.280  12.937 -40.192  1.00  0.00     0.028 C 
BRANCH  11  12
ATOM     12  C   UNL     1      12.394  12.849 -38.690  1.00  0.00    -0.028 C 
ATOM     13  C   UNL     1      13.425  13.352 -37.972  1.00  0.00    -0.080 C 
ATOM     14  C   UNL     1      13.421  13.231 -36.470  1.00  0.00     0.039 C 
ATOM     15  C   UNL     1      14.621  13.997 -38.629  1.00  0.00     0.039 C 
ENDBRANCH  11  12
ENDBRANCH   1  11
TORSDOF 4
ENDMDL
MODEL 7
REMARK VINA RESULT:    -1.948      0.903      1.937
REMARK INTER + INTRA:          -2.879
REMARK INTER:                  -2.648
REMARK INTRA:                  -0.231
REMARK UNBOUND:                -0.476
REMARK SMILES CC(C)=CCC[C@H](C)c1ccc(C)cc1
REMARK SMILES IDX 6 1 7 2 8 3 9 4 13 5 12 6 11 7 14 8 10 9 15 10 5 11 4 12
REMARK SMILES IDX 2 13 1 14 3 15
REMARK H PARENT
REMARK Flexibility Score: inf
ROOT
ATOM      1  C   UNL     1      12.952  12.360 -42.768  1.00  0.00     0.012 C 
ENDROOT
BRANCH   1   2
ATOM      2  C   UNL     1      12.740  10.904 -42.292  1.00  0.00     0.016 C 
ATOM      3  C   UNL     1      13.549   9.897 -43.125  1.00  0.00     0.013 C 
BRANCH   2   4
ATOM      4  C   UNL     1      11.266  10.546 -42.322  1.00  0.00    -0.045 A 
ATOM      5  C   UNL     1       7.078   9.489 -42.416  1.00  0.00     0.044 C 
ATOM      6  C   UNL     1       8.528   9.865 -42.354  1.00  0.00    -0.051 A 
ATOM      7  C   UNL     1       9.487   8.925 -41.952  1.00  0.00     0.004 A 
ATOM      8  C   UNL     1       8.945  11.141 -42.763  1.00  0.00     0.004 A 
ATOM      9  C   UNL     1      10.844   9.263 -41.930  1.00  0.00     0.004 A 
ATOM     10  C   UNL     1      10.300  11.481 -42.742  1.00  0.00     0.004 A 
ENDBRANCH   2   4
ENDBRANCH   1   2
BRANCH   1  11
ATOM     11  C   UNL     1      12.248  13.386 -41.868  1.00  0.00     0.028 C 
BRANCH  11  12
ATOM     12  C   UNL     1      12.893  13.432 -40.505  1.00  0.00    -0.028 C 
ATOM     13  C   UNL     1      12.375  12.854 -39.396  1.00  0.00    -0.080 C 
ATOM     14  C   UNL     1      13.121  12.941 -38.089  1.00  0.00     0.039 C 
ATOM     15  C   UNL     1      11.037  12.157 -39.404  1.00  0.00     0.039 C 
ENDBRANCH  11  12
ENDBRANCH   1  11
TORSDOF 4
ENDMDL
MODEL 8
REMARK VINA RESULT:    -1.656      1.455      3.649
REMARK INTER + INTRA:          -2.518
REMARK INTER:                  -1.846
REMARK INTRA:                  -0.672
REMARK UNBOUND:                -0.476
REMARK SMILES CC(C)=CCC[C@H](C)c1ccc(C)cc1
REMARK SMILES IDX 6 1 7 2 8 3 9 4 13 5 12 6 11 7 14 8 10 9 15 10 5 11 4 12
REMARK SMILES IDX 2 13 1 14 3 15
REMARK H PARENT
REMARK Flexibility Score: inf
ROOT
ATOM      1  C   UNL     1      13.929  11.718 -38.968  1.00  0.00     0.012 C 
ENDROOT
BRANCH   1   2
ATOM      2  C   UNL     1      13.163  13.003 -39.354  1.00  0.00     0.016 C 
ATOM      3  C   UNL     1      12.591  13.731 -38.127  1.00  0.00     0.013 C 
BRANCH   2   4
ATOM      4  C   UNL     1      12.053  12.683 -40.338  1.00  0.00    -0.045 A 
ATOM      5  C   UNL     1       8.891  11.733 -43.125  1.00  0.00     0.044 C 
ATOM      6  C   UNL     1       9.971  12.086 -42.146  1.00  0.00    -0.051 A 
ATOM      7  C   UNL     1      10.016  11.467 -40.890  1.00  0.00     0.004 A 
ATOM      8  C   UNL     1      10.984  12.987 -42.507  1.00  0.00     0.004 A 
ATOM      9  C   UNL     1      11.044  11.767 -39.990  1.00  0.00     0.004 A 
ATOM     10  C   UNL     1      12.013  13.288 -41.609  1.00  0.00     0.004 A 
ENDBRANCH   2   4
ENDBRANCH   1   2
BRANCH   1  11
ATOM     11  C   UNL     1      14.577  11.028 -40.177  1.00  0.00     0.028 C 
BRANCH  11  12
ATOM     12  C   UNL     1      13.591  10.113 -40.860  1.00  0.00    -0.028 C 
ATOM     13  C   UNL     1      13.343  10.117 -42.190  1.00  0.00    -0.080 C 
ATOM     14  C   UNL     1      12.354   9.138 -42.770  1.00  0.00     0.039 C 
ATOM     15  C   UNL     1      13.990  11.109 -43.125  1.00  0.00     0.039 C 
ENDBRANCH  11  12
ENDBRANCH   1  11
TORSDOF 4
ENDMDL
