MODEL 1
REMARK VINA RESULT:    -3.319      0.000      0.000
REMARK INTER + INTRA:          -5.204
REMARK INTER:                  -5.065
REMARK INTRA:                  -0.140
REMARK UNBOUND:                -0.140
REMARK SMILES CC1=CCC[C@H](C)C(=O)C[C@@H](C(C)C)C(=O)C1
REMARK SMILES IDX 8 1 9 2 6 3 7 4 5 5 4 6 3 7 2 8 1 9 10 11 11 12 15 13 16 14
REMARK SMILES IDX 17 15 12 17 13 18 14 19
REMARK H PARENT
REMARK Flexibility Score: 70.00
ROOT
ATOM      1  C   UNL     1     -14.382  28.133  16.449  1.00  0.00     0.136 C 
ATOM      2  O   UNL     1     -13.701  29.149  16.435  1.00  0.00    -0.299 OA
ENDROOT
BRANCH   1   3
ATOM      3  C   UNL     1     -14.330  27.153  15.287  1.00  0.00     0.053 C 
ATOM      4  C   UNL     1     -13.578  27.699  14.061  1.00  0.00     0.016 C 
BRANCH   3   5
ATOM      5  C   UNL     1     -13.850  25.739  15.704  1.00  0.00     0.015 C 
BRANCH   5   6
ATOM      6  C   UNL     1     -14.817  24.550  15.519  1.00  0.00     0.028 C 
BRANCH   6   7
ATOM      7  C   UNL     1     -14.994  23.597  16.677  1.00  0.00    -0.028 C 
ATOM      8  C   UNL     1     -15.754  23.797  17.777  1.00  0.00    -0.070 CG0
ATOM      9  C   UNL     1     -16.040  22.594  18.646  1.00  0.00     0.039 C 
ATOM     10  G   UNL     1     -16.330  25.145  18.180  1.00  0.00     0.000 G0
ENDBRANCH   6   7
ENDBRANCH   5   6
ENDBRANCH   3   5
ENDBRANCH   1   3
BRANCH   1  11
ATOM     11  C   UNL     1     -15.366  27.908  17.579  1.00  0.00     0.087 C 
BRANCH  11  12
ATOM     12  C   UNL     1     -14.796  27.220  18.854  1.00  0.00     0.066 C 
BRANCH  12  13
ATOM     13  C   UNL     1     -15.434  25.875  19.170  1.00  0.00     0.140 C 
ATOM     14  O   UNL     1     -15.242  25.399  20.279  1.00  0.00    -0.299 OA
BRANCH  13  15
ATOM     15  C   UNL     1     -16.359  25.151  18.215  1.00  0.00     0.106 CG0
ATOM     16  G   UNL     1     -15.755  23.819  17.800  1.00  0.00     0.000 G0
ENDBRANCH  13  15
ENDBRANCH  12  13
BRANCH  12  17
ATOM     17  C   UNL     1     -14.843  28.167  20.094  1.00  0.00    -0.006 C 
ATOM     18  C   UNL     1     -15.764  29.377  19.851  1.00  0.00     0.008 C 
ATOM     19  C   UNL     1     -13.443  28.681  20.479  1.00  0.00     0.008 C 
ENDBRANCH  12  17
ENDBRANCH  11  12
ENDBRANCH   1  11
TORSDOF 1
ENDMDL
MODEL 2
REMARK VINA RESULT:    -3.281      1.668      4.035
REMARK INTER + INTRA:          -5.148
REMARK INTER:                  -5.129
REMARK INTRA:                  -0.019
REMARK UNBOUND:                -0.140
REMARK SMILES CC1=CCC[C@H](C)C(=O)C[C@@H](C(C)C)C(=O)C1
REMARK SMILES IDX 8 1 9 2 6 3 7 4 5 5 4 6 3 7 2 8 1 9 10 11 11 12 15 13 16 14
REMARK SMILES IDX 17 15 12 17 13 18 14 19
REMARK H PARENT
REMARK Flexibility Score: 70.00
ROOT
ATOM      1  C   UNL     1     -14.318  28.915  17.434  1.00  0.00     0.136 C 
ATOM      2  O   UNL     1     -15.239  29.630  17.063  1.00  0.00    -0.299 OA
ENDROOT
BRANCH   1   3
ATOM      3  C   UNL     1     -13.592  29.207  18.738  1.00  0.00     0.053 C 
ATOM      4  C   UNL     1     -13.757  30.660  19.218  1.00  0.00     0.016 C 
BRANCH   3   5
ATOM      5  C   UNL     1     -13.897  28.170  19.850  1.00  0.00     0.015 C 
BRANCH   5   6
ATOM      6  C   UNL     1     -15.159  27.294  19.712  1.00  0.00     0.028 C 
BRANCH   6   7
ATOM      7  C   UNL     1     -14.978  25.794  19.682  1.00  0.00    -0.028 C 
ATOM      8  C   UNL     1     -15.248  24.971  18.644  1.00  0.00    -0.070 CG0
ATOM      9  C   UNL     1     -14.696  23.566  18.717  1.00  0.00     0.039 C 
ATOM     10  G   UNL     1     -16.060  25.375  17.425  1.00  0.00     0.000 G0
ENDBRANCH   6   7
ENDBRANCH   5   6
ENDBRANCH   3   5
ENDBRANCH   1   3
BRANCH   1  11
ATOM     11  C   UNL     1     -13.827  27.801  16.532  1.00  0.00     0.087 C 
BRANCH  11  12
ATOM     12  C   UNL     1     -14.921  27.046  15.723  1.00  0.00     0.066 C 
BRANCH  12  13
ATOM     13  C   UNL     1     -15.207  25.639  16.228  1.00  0.00     0.140 C 
ATOM     14  O   UNL     1     -14.639  24.708  15.677  1.00  0.00    -0.299 OA
BRANCH  13  15
ATOM     15  C   UNL     1     -16.085  25.351  17.427  1.00  0.00     0.106 CG0
ATOM     16  G   UNL     1     -15.235  24.969  18.628  1.00  0.00     0.000 G0
ENDBRANCH  13  15
ENDBRANCH  12  13
BRANCH  12  17
ATOM     17  C   UNL     1     -14.609  27.037  14.193  1.00  0.00    -0.006 C 
ATOM     18  C   UNL     1     -13.421  27.956  13.851  1.00  0.00     0.008 C 
ATOM     19  C   UNL     1     -15.827  27.471  13.355  1.00  0.00     0.008 C 
ENDBRANCH  12  17
ENDBRANCH  11  12
ENDBRANCH   1  11
TORSDOF 1
ENDMDL
MODEL 3
REMARK VINA RESULT:    -3.110      1.712      4.082
REMARK INTER + INTRA:          -4.885
REMARK INTER:                  -4.736
REMARK INTRA:                  -0.149
REMARK UNBOUND:                -0.140
REMARK SMILES CC1=CCC[C@H](C)C(=O)C[C@@H](C(C)C)C(=O)C1
REMARK SMILES IDX 8 1 9 2 6 3 7 4 5 5 4 6 3 7 2 8 1 9 10 11 11 12 15 13 16 14
REMARK SMILES IDX 17 15 12 17 13 18 14 19
REMARK H PARENT
REMARK Flexibility Score: 70.00
ROOT
ATOM      1  C   UNL     1     -15.807  25.676  18.516  1.00  0.00     0.136 C 
ATOM      2  O   UNL     1     -17.009  25.868  18.639  1.00  0.00    -0.299 OA
ENDROOT
BRANCH   1   3
ATOM      3  C   UNL     1     -15.273  24.279  18.238  1.00  0.00     0.053 C 
ATOM      4  C   UNL     1     -15.950  23.187  19.084  1.00  0.00     0.016 C 
BRANCH   3   5
ATOM      5  C   UNL     1     -15.236  23.930  16.728  1.00  0.00     0.015 C 
BRANCH   5   6
ATOM      6  C   UNL     1     -14.373  24.803  15.793  1.00  0.00     0.028 C 
BRANCH   6   7
ATOM      7  C   UNL     1     -15.066  25.883  14.996  1.00  0.00    -0.028 C 
ATOM      8  C   UNL     1     -14.801  27.208  15.032  1.00  0.00    -0.070 CG0
ATOM      9  C   UNL     1     -15.385  28.059  13.929  1.00  0.00     0.039 C 
ATOM     10  G   UNL     1     -13.957  27.877  16.104  1.00  0.00     0.000 G0
ENDBRANCH   6   7
ENDBRANCH   5   6
ENDBRANCH   3   5
ENDBRANCH   1   3
BRANCH   1  11
ATOM     11  C   UNL     1     -14.839  26.817  18.755  1.00  0.00     0.087 C 
BRANCH  11  12
ATOM     12  C   UNL     1     -15.342  28.234  18.351  1.00  0.00     0.066 C 
BRANCH  12  13
ATOM     13  C   UNL     1     -14.790  28.735  17.025  1.00  0.00     0.140 C 
ATOM     14  O   UNL     1     -14.982  29.905  16.731  1.00  0.00    -0.299 OA
BRANCH  13  15
ATOM     15  C   UNL     1     -13.945  27.881  16.103  1.00  0.00     0.106 CG0
ATOM     16  G   UNL     1     -14.812  27.237  15.034  1.00  0.00     0.000 G0
ENDBRANCH  13  15
ENDBRANCH  12  13
BRANCH  12  17
ATOM     17  C   UNL     1     -15.103  29.279  19.487  1.00  0.00    -0.006 C 
ATOM     18  C   UNL     1     -14.245  28.696  20.624  1.00  0.00     0.008 C 
ATOM     19  C   UNL     1     -16.428  29.796  20.081  1.00  0.00     0.008 C 
ENDBRANCH  12  17
ENDBRANCH  11  12
ENDBRANCH   1  11
TORSDOF 1
ENDMDL
MODEL 4
REMARK VINA RESULT:    -3.101      2.148      4.339
REMARK INTER + INTRA:          -4.872
REMARK INTER:                  -4.936
REMARK INTRA:                   0.065
REMARK UNBOUND:                -0.140
REMARK SMILES CC1=CCC[C@H](C)C(=O)C[C@@H](C(C)C)C(=O)C1
REMARK SMILES IDX 8 1 9 2 6 3 7 4 5 5 4 6 3 7 2 8 1 9 10 11 11 12 15 13 16 14
REMARK SMILES IDX 17 15 12 17 13 18 14 19
REMARK H PARENT
REMARK Flexibility Score: 70.00
ROOT
ATOM      1  C   UNL     1     -14.517  28.153  19.288  1.00  0.00     0.136 C 
ATOM      2  O   UNL     1     -13.682  27.766  20.094  1.00  0.00    -0.299 OA
ENDROOT
BRANCH   1   3
ATOM      3  C   UNL     1     -14.498  29.589  18.787  1.00  0.00     0.053 C 
ATOM      4  C   UNL     1     -13.212  30.348  19.156  1.00  0.00     0.016 C 
BRANCH   3   5
ATOM      5  C   UNL     1     -14.858  29.714  17.284  1.00  0.00     0.015 C 
BRANCH   5   6
ATOM      6  C   UNL     1     -14.006  28.940  16.257  1.00  0.00     0.028 C 
BRANCH   6   7
ATOM      7  C   UNL     1     -14.663  28.527  14.961  1.00  0.00    -0.028 C 
ATOM      8  C   UNL     1     -15.143  27.301  14.655  1.00  0.00    -0.070 CG0
ATOM      9  C   UNL     1     -16.039  27.194  13.443  1.00  0.00     0.039 C 
ATOM     10  G   UNL     1     -14.838  26.045  15.453  1.00  0.00     0.000 G0
ENDBRANCH   6   7
ENDBRANCH   5   6
ENDBRANCH   3   5
ENDBRANCH   1   3
BRANCH   1  11
ATOM     11  C   UNL     1     -15.643  27.226  18.876  1.00  0.00     0.087 C 
BRANCH  11  12
ATOM     12  C   UNL     1     -15.223  25.952  18.086  1.00  0.00     0.066 C 
BRANCH  12  13
ATOM     13  C   UNL     1     -15.737  25.912  16.654  1.00  0.00     0.140 C 
ATOM     14  O   UNL     1     -16.946  25.855  16.483  1.00  0.00    -0.299 OA
BRANCH  13  15
ATOM     15  C   UNL     1     -14.834  26.029  15.445  1.00  0.00     0.106 CG0
ATOM     16  G   UNL     1     -15.143  27.301  14.672  1.00  0.00     0.000 G0
ENDBRANCH  13  15
ENDBRANCH  12  13
BRANCH  12  17
ATOM     17  C   UNL     1     -15.599  24.645  18.852  1.00  0.00    -0.006 C 
ATOM     18  C   UNL     1     -15.106  24.679  20.310  1.00  0.00     0.008 C 
ATOM     19  C   UNL     1     -15.026  23.390  18.165  1.00  0.00     0.008 C 
ENDBRANCH  12  17
ENDBRANCH  11  12
ENDBRANCH   1  11
TORSDOF 1
ENDMDL
MODEL 5
REMARK VINA RESULT:    -3.091      3.051      4.824
REMARK INTER + INTRA:          -4.857
REMARK INTER:                  -4.736
REMARK INTRA:                  -0.121
REMARK UNBOUND:                -0.140
REMARK SMILES CC1=CCC[C@H](C)C(=O)C[C@@H](C(C)C)C(=O)C1
REMARK SMILES IDX 8 1 9 2 6 3 7 4 5 5 4 6 3 7 2 8 1 9 10 11 11 12 15 13 16 14
REMARK SMILES IDX 17 15 12 17 13 18 14 19
REMARK H PARENT
REMARK Flexibility Score: 70.00
ROOT
ATOM      1  C   UNL     1     -13.988  27.799  16.158  1.00  0.00     0.136 C 
ATOM      2  O   UNL     1     -13.798  26.591  16.177  1.00  0.00    -0.299 OA
ENDROOT
BRANCH   1   3
ATOM      3  C   UNL     1     -14.029  28.553  14.838  1.00  0.00     0.053 C 
ATOM      4  C   UNL     1     -13.420  27.766  13.665  1.00  0.00     0.016 C 
BRANCH   3   5
ATOM      5  C   UNL     1     -15.430  29.130  14.509  1.00  0.00     0.015 C 
BRANCH   5   6
ATOM      6  C   UNL     1     -15.711  30.611  14.838  1.00  0.00     0.028 C 
BRANCH   6   7
ATOM      7  C   UNL     1     -16.980  30.940  15.589  1.00  0.00    -0.028 C 
ATOM      8  C   UNL     1     -17.099  31.142  16.920  1.00  0.00    -0.070 CG0
ATOM      9  C   UNL     1     -18.384  31.769  17.410  1.00  0.00     0.039 C 
ATOM     10  G   UNL     1     -16.027  30.782  17.935  1.00  0.00     0.000 G0
ENDBRANCH   6   7
ENDBRANCH   5   6
ENDBRANCH   3   5
ENDBRANCH   1   3
BRANCH   1  11
ATOM     11  C   UNL     1     -14.070  28.563  17.464  1.00  0.00     0.087 C 
BRANCH  11  12
ATOM     12  C   UNL     1     -15.303  28.249  18.362  1.00  0.00     0.066 C 
BRANCH  12  13
ATOM     13  C   UNL     1     -16.254  29.423  18.541  1.00  0.00     0.140 C 
ATOM     14  O   UNL     1     -17.221  29.268  19.272  1.00  0.00    -0.299 OA
BRANCH  13  15
ATOM     15  C   UNL     1     -16.012  30.788  17.931  1.00  0.00     0.106 CG0
ATOM     16  G   UNL     1     -17.110  31.126  16.936  1.00  0.00     0.000 G0
ENDBRANCH  13  15
ENDBRANCH  12  13
BRANCH  12  17
ATOM     17  C   UNL     1     -14.878  27.658  19.743  1.00  0.00    -0.006 C 
ATOM     18  C   UNL     1     -13.552  28.264  20.237  1.00  0.00     0.008 C 
ATOM     19  C   UNL     1     -14.733  26.125  19.692  1.00  0.00     0.008 C 
ENDBRANCH  12  17
ENDBRANCH  11  12
ENDBRANCH   1  11
TORSDOF 1
ENDMDL
MODEL 6
REMARK VINA RESULT:    -2.970      2.060      4.405
REMARK INTER + INTRA:          -4.673
REMARK INTER:                  -4.686
REMARK INTRA:                   0.013
REMARK UNBOUND:                -0.140
REMARK SMILES CC1=CCC[C@H](C)C(=O)C[C@@H](C(C)C)C(=O)C1
REMARK SMILES IDX 8 1 9 2 6 3 7 4 5 5 4 6 3 7 2 8 1 9 10 11 11 12 15 13 16 14
REMARK SMILES IDX 17 15 12 17 13 18 14 19
REMARK H PARENT
REMARK Flexibility Score: 70.00
ROOT
ATOM      1  C   UNL     1     -14.348  26.655  15.232  1.00  0.00     0.136 C 
ATOM      2  O   UNL     1     -14.728  25.954  14.304  1.00  0.00    -0.299 OA
ENDROOT
BRANCH   1   3
ATOM      3  C   UNL     1     -13.680  27.995  14.964  1.00  0.00     0.053 C 
ATOM      4  C   UNL     1     -13.404  28.252  13.473  1.00  0.00     0.016 C 
BRANCH   3   5
ATOM      5  C   UNL     1     -14.398  29.182  15.656  1.00  0.00     0.015 C 
BRANCH   5   6
ATOM      6  C   UNL     1     -13.982  29.557  17.093  1.00  0.00     0.028 C 
BRANCH   6   7
ATOM      7  C   UNL     1     -15.073  29.921  18.072  1.00  0.00    -0.028 C 
ATOM      8  C   UNL     1     -15.579  29.131  19.045  1.00  0.00    -0.070 CG0
ATOM      9  C   UNL     1     -16.426  29.798  20.104  1.00  0.00     0.039 C 
ATOM     10  G   UNL     1     -15.344  27.633  19.133  1.00  0.00     0.000 G0
ENDBRANCH   6   7
ENDBRANCH   5   6
ENDBRANCH   3   5
ENDBRANCH   1   3
BRANCH   1  11
ATOM     11  C   UNL     1     -14.443  26.131  16.651  1.00  0.00     0.087 C 
BRANCH  11  12
ATOM     12  C   UNL     1     -15.882  25.887  17.194  1.00  0.00     0.066 C 
BRANCH  12  13
ATOM     13  C   UNL     1     -16.327  26.893  18.245  1.00  0.00     0.140 C 
ATOM     14  O   UNL     1     -17.527  27.048  18.415  1.00  0.00    -0.299 OA
BRANCH  13  15
ATOM     15  C   UNL     1     -15.361  27.637  19.143  1.00  0.00     0.106 CG0
ATOM     16  G   UNL     1     -15.595  29.135  19.046  1.00  0.00     0.000 G0
ENDBRANCH  13  15
ENDBRANCH  12  13
BRANCH  12  17
ATOM     17  C   UNL     1     -16.068  24.423  17.705  1.00  0.00    -0.006 C 
ATOM     18  C   UNL     1     -14.714  23.728  17.942  1.00  0.00     0.008 C 
ATOM     19  C   UNL     1     -16.896  23.572  16.724  1.00  0.00     0.008 C 
ENDBRANCH  12  17
ENDBRANCH  11  12
ENDBRANCH   1  11
TORSDOF 1
ENDMDL
MODEL 7
REMARK VINA RESULT:    -2.931      3.387      6.010
REMARK INTER + INTRA:          -4.612
REMARK INTER:                  -4.833
REMARK INTRA:                   0.221
REMARK UNBOUND:                -0.140
REMARK SMILES CC1=CCC[C@H](C)C(=O)C[C@@H](C(C)C)C(=O)C1
REMARK SMILES IDX 8 1 9 2 6 3 7 4 5 5 4 6 3 7 2 8 1 9 10 11 11 12 15 13 16 14
REMARK SMILES IDX 17 15 12 17 13 18 14 19
REMARK H PARENT
REMARK Flexibility Score: 70.00
ROOT
ATOM      1  C   UNL     1     -14.663  28.259  19.489  1.00  0.00     0.136 C 
ATOM      2  O   UNL     1     -14.637  28.376  20.707  1.00  0.00    -0.299 OA
ENDROOT
BRANCH   1   3
ATOM      3  C   UNL     1     -13.449  28.633  18.652  1.00  0.00     0.053 C 
ATOM      4  C   UNL     1     -13.470  28.024  17.239  1.00  0.00     0.016 C 
BRANCH   3   5
ATOM      5  C   UNL     1     -13.159  30.156  18.645  1.00  0.00     0.015 C 
BRANCH   5   6
ATOM      6  C   UNL     1     -13.823  31.035  19.725  1.00  0.00     0.028 C 
BRANCH   6   7
ATOM      7  C   UNL     1     -14.828  32.069  19.275  1.00  0.00    -0.028 C 
ATOM      8  C   UNL     1     -16.173  31.979  19.366  1.00  0.00    -0.070 CG0
ATOM      9  C   UNL     1     -16.966  33.248  19.155  1.00  0.00     0.039 C 
ATOM     10  G   UNL     1     -16.921  30.691  19.668  1.00  0.00     0.000 G0
ENDBRANCH   6   7
ENDBRANCH   5   6
ENDBRANCH   3   5
ENDBRANCH   1   3
BRANCH   1  11
ATOM     11  C   UNL     1     -15.950  27.845  18.805  1.00  0.00     0.087 C 
BRANCH  11  12
ATOM     12  C   UNL     1     -16.531  28.856  17.774  1.00  0.00     0.066 C 
BRANCH  12  13
ATOM     13  C   UNL     1     -17.338  29.984  18.399  1.00  0.00     0.140 C 
ATOM     14  O   UNL     1     -18.400  30.285  17.875  1.00  0.00    -0.299 OA
BRANCH  13  15
ATOM     15  C   UNL     1     -16.933  30.684  19.679  1.00  0.00     0.106 CG0
ATOM     16  G   UNL     1     -16.190  31.973  19.367  1.00  0.00     0.000 G0
ENDBRANCH  13  15
ENDBRANCH  12  13
BRANCH  12  17
ATOM     17  C   UNL     1     -17.348  28.137  16.654  1.00  0.00    -0.006 C 
ATOM     18  C   UNL     1     -17.408  26.616  16.883  1.00  0.00     0.008 C 
ATOM     19  C   UNL     1     -16.764  28.405  15.254  1.00  0.00     0.008 C 
ENDBRANCH  12  17
ENDBRANCH  11  12
ENDBRANCH   1  11
TORSDOF 1
ENDMDL
MODEL 8
REMARK VINA RESULT:    -2.930      3.584      6.135
REMARK INTER + INTRA:          -4.611
REMARK INTER:                  -4.499
REMARK INTRA:                  -0.113
REMARK UNBOUND:                -0.140
REMARK SMILES CC1=CCC[C@H](C)C(=O)C[C@@H](C(C)C)C(=O)C1
REMARK SMILES IDX 8 1 9 2 6 3 7 4 5 5 4 6 3 7 2 8 1 9 10 11 11 12 15 13 16 14
REMARK SMILES IDX 17 15 12 17 13 18 14 19
REMARK H PARENT
REMARK Flexibility Score: 70.00
ROOT
ATOM      1  C   UNL     1     -16.474  30.814  18.939  1.00  0.00     0.136 C 
ATOM      2  O   UNL     1     -16.340  30.600  20.136  1.00  0.00    -0.299 OA
ENDROOT
BRANCH   1   3
ATOM      3  C   UNL     1     -16.931  32.178  18.445  1.00  0.00     0.053 C 
ATOM      4  C   UNL     1     -16.792  33.288  19.501  1.00  0.00     0.016 C 
BRANCH   3   5
ATOM      5  C   UNL     1     -16.314  32.570  17.078  1.00  0.00     0.015 C 
BRANCH   5   6
ATOM      6  C   UNL     1     -17.115  32.267  15.795  1.00  0.00     0.028 C 
BRANCH   6   7
ATOM      7  C   UNL     1     -16.343  31.929  14.542  1.00  0.00    -0.028 C 
ATOM      8  C   UNL     1     -15.998  30.694  14.116  1.00  0.00    -0.070 CG0
ATOM      9  C   UNL     1     -15.515  30.565  12.690  1.00  0.00     0.039 C 
ATOM     10  G   UNL     1     -16.072  29.445  14.979  1.00  0.00     0.000 G0
ENDBRANCH   6   7
ENDBRANCH   5   6
ENDBRANCH   3   5
ENDBRANCH   1   3
BRANCH   1  11
ATOM     11  C   UNL     1     -16.291  29.679  17.952  1.00  0.00     0.087 C 
BRANCH  11  12
ATOM     12  C   UNL     1     -14.858  29.506  17.368  1.00  0.00     0.066 C 
BRANCH  12  13
ATOM     13  C   UNL     1     -14.820  29.331  15.857  1.00  0.00     0.140 C 
ATOM     14  O   UNL     1     -13.755  29.022  15.344  1.00  0.00    -0.299 OA
BRANCH  13  15
ATOM     15  C   UNL     1     -16.050  29.433  14.980  1.00  0.00     0.106 CG0
ATOM     16  G   UNL     1     -15.999  30.699  14.141  1.00  0.00     0.000 G0
ENDBRANCH  13  15
ENDBRANCH  12  13
BRANCH  12  17
ATOM     17  C   UNL     1     -14.074  28.361  18.084  1.00  0.00    -0.006 C 
ATOM     18  C   UNL     1     -15.024  27.293  18.655  1.00  0.00     0.008 C 
ATOM     19  C   UNL     1     -13.188  28.897  19.225  1.00  0.00     0.008 C 
ENDBRANCH  12  17
ENDBRANCH  11  12
ENDBRANCH   1  11
TORSDOF 1
ENDMDL
MODEL 9
REMARK VINA RESULT:    -2.898      3.348      5.377
REMARK INTER + INTRA:          -4.563
REMARK INTER:                  -4.345
REMARK INTRA:                  -0.218
REMARK UNBOUND:                -0.140
REMARK SMILES CC1=CCC[C@H](C)C(=O)C[C@@H](C(C)C)C(=O)C1
REMARK SMILES IDX 8 1 9 2 6 3 7 4 5 5 4 6 3 7 2 8 1 9 10 11 11 12 15 13 16 14
REMARK SMILES IDX 17 15 12 17 13 18 14 19
REMARK H PARENT
REMARK Flexibility Score: 70.00
ROOT
ATOM      1  C   UNL     1     -15.605  31.477  19.075  1.00  0.00     0.136 C 
ATOM      2  O   UNL     1     -14.679  32.185  19.446  1.00  0.00    -0.299 OA
ENDROOT
BRANCH   1   3
ATOM      3  C   UNL     1     -16.829  32.093  18.414  1.00  0.00     0.053 C 
ATOM      4  C   UNL     1     -17.286  33.404  19.075  1.00  0.00     0.016 C 
BRANCH   3   5
ATOM      5  C   UNL     1     -16.694  32.212  16.874  1.00  0.00     0.015 C 
BRANCH   5   6
ATOM      6  C   UNL     1     -17.718  31.474  15.987  1.00  0.00     0.028 C 
BRANCH   6   7
ATOM      7  C   UNL     1     -18.833  30.720  16.672  1.00  0.00    -0.028 C 
ATOM      8  C   UNL     1     -18.785  29.448  17.127  1.00  0.00    -0.070 CG0
ATOM      9  C   UNL     1     -19.891  29.006  18.057  1.00  0.00     0.039 C 
ATOM     10  G   UNL     1     -17.695  28.455  16.761  1.00  0.00     0.000 G0
ENDBRANCH   6   7
ENDBRANCH   5   6
ENDBRANCH   3   5
ENDBRANCH   1   3
BRANCH   1  11
ATOM     11  C   UNL     1     -15.578  29.993  19.377  1.00  0.00     0.087 C 
BRANCH  11  12
ATOM     12  C   UNL     1     -15.492  29.047  18.144  1.00  0.00     0.066 C 
BRANCH  12  13
ATOM     13  C   UNL     1     -16.743  28.212  17.914  1.00  0.00     0.140 C 
ATOM     14  O   UNL     1     -17.028  27.368  18.750  1.00  0.00    -0.299 OA
BRANCH  13  15
ATOM     15  C   UNL     1     -17.689  28.437  16.753  1.00  0.00     0.106 CG0
ATOM     16  G   UNL     1     -18.765  29.441  17.134  1.00  0.00     0.000 G0
ENDBRANCH  13  15
ENDBRANCH  12  13
BRANCH  12  17
ATOM     17  C   UNL     1     -14.219  28.144  18.194  1.00  0.00    -0.006 C 
ATOM     18  C   UNL     1     -13.093  28.795  19.018  1.00  0.00     0.008 C 
ATOM     19  C   UNL     1     -13.681  27.830  16.784  1.00  0.00     0.008 C 
ENDBRANCH  12  17
ENDBRANCH  11  12
ENDBRANCH   1  11
TORSDOF 1
ENDMDL
