MODEL 1
REMARK VINA RESULT:    -4.600      0.000      0.000
REMARK INTER + INTRA:          -4.734
REMARK INTER:                  -4.734
REMARK INTRA:                   0.000
REMARK UNBOUND:                 0.000
REMARK SMILES Cc1cccc(O)c1C
REMARK SMILES IDX 1 1 2 2 8 3 6 4 5 5 4 6 3 7 9 8 7 9
REMARK H PARENT 7 10
REMARK Flexibility Score: inf
ROOT
ATOM      1  C   UNL     1      -7.385  -6.439  14.007  1.00  0.00     0.045 C 
ATOM      2  C   UNL     1      -6.101  -5.673  13.825  1.00  0.00    -0.045 A 
ATOM      3  C   UNL     1      -5.326  -5.769  12.635  1.00  0.00    -0.006 A 
ATOM      4  C   UNL     1      -4.126  -5.019  12.533  1.00  0.00     0.118 A 
ATOM      5  C   UNL     1      -3.719  -4.201  13.591  1.00  0.00     0.046 A 
ATOM      6  C   UNL     1      -4.482  -4.111  14.751  1.00  0.00     0.004 A 
ATOM      7  C   UNL     1      -5.664  -4.840  14.869  1.00  0.00     0.004 A 
ATOM      8  C   UNL     1      -5.746  -6.648  11.479  1.00  0.00     0.048 C 
ENDROOT
BRANCH   4   9
ATOM      9  O   UNL     1      -3.314  -5.064  11.396  1.00  0.00    -0.508 OA
ATOM     10  H   UNL     1      -3.475  -4.498  10.574  1.00  0.00     0.293 HD
ENDBRANCH   4   9
TORSDOF 1
ENDMDL
MODEL 2
REMARK VINA RESULT:    -4.582      1.216      2.582
REMARK INTER + INTRA:          -4.716
REMARK INTER:                  -4.716
REMARK INTRA:                   0.000
REMARK UNBOUND:                 0.000
REMARK SMILES Cc1cccc(O)c1C
REMARK SMILES IDX 1 1 2 2 8 3 6 4 5 5 4 6 3 7 9 8 7 9
REMARK H PARENT 7 10
REMARK Flexibility Score: inf
ROOT
ATOM      1  C   UNL     1      -7.366  -6.405  14.108  1.00  0.00     0.045 C 
ATOM      2  C   UNL     1      -6.094  -5.923  13.462  1.00  0.00    -0.045 A 
ATOM      3  C   UNL     1      -5.170  -5.084  14.145  1.00  0.00    -0.006 A 
ATOM      4  C   UNL     1      -3.991  -4.667  13.474  1.00  0.00     0.118 A 
ATOM      5  C   UNL     1      -3.750  -5.079  12.161  1.00  0.00     0.046 A 
ATOM      6  C   UNL     1      -4.658  -5.901  11.498  1.00  0.00     0.004 A 
ATOM      7  C   UNL     1      -5.820  -6.320  12.141  1.00  0.00     0.004 A 
ATOM      8  C   UNL     1      -5.411  -4.625  15.566  1.00  0.00     0.048 C 
ENDROOT
BRANCH   4   9
ATOM      9  O   UNL     1      -3.040  -3.843  14.083  1.00  0.00    -0.508 OA
ATOM     10  H   UNL     1      -3.030  -3.640  15.073  1.00  0.00     0.293 HD
ENDBRANCH   4   9
TORSDOF 1
ENDMDL
MODEL 3
REMARK VINA RESULT:    -4.509      1.435      2.497
REMARK INTER + INTRA:          -4.641
REMARK INTER:                  -4.641
REMARK INTRA:                   0.000
REMARK UNBOUND:                 0.000
REMARK SMILES Cc1cccc(O)c1C
REMARK SMILES IDX 1 1 2 2 8 3 6 4 5 5 4 6 3 7 9 8 7 9
REMARK H PARENT 7 10
REMARK Flexibility Score: inf
ROOT
ATOM      1  C   UNL     1      -5.129  -4.512  15.861  1.00  0.00     0.045 C 
ATOM      2  C   UNL     1      -4.914  -4.566  14.371  1.00  0.00    -0.045 A 
ATOM      3  C   UNL     1      -5.910  -5.057  13.482  1.00  0.00    -0.006 A 
ATOM      4  C   UNL     1      -5.639  -5.079  12.089  1.00  0.00     0.118 A 
ATOM      5  C   UNL     1      -4.409  -4.623  11.608  1.00  0.00     0.046 A 
ATOM      6  C   UNL     1      -3.439  -4.143  12.483  1.00  0.00     0.004 A 
ATOM      7  C   UNL     1      -3.687  -4.114  13.854  1.00  0.00     0.004 A 
ATOM      8  C   UNL     1      -7.247  -5.556  13.981  1.00  0.00     0.048 C 
ENDROOT
BRANCH   4   9
ATOM      9  O   UNL     1      -6.570  -5.548  11.157  1.00  0.00    -0.508 OA
ATOM     10  H   UNL     1      -6.848  -5.026  10.337  1.00  0.00     0.293 HD
ENDBRANCH   4   9
TORSDOF 1
ENDMDL
MODEL 4
REMARK VINA RESULT:    -4.455      1.411      2.532
REMARK INTER + INTRA:          -4.585
REMARK INTER:                  -4.585
REMARK INTRA:                   0.000
REMARK UNBOUND:                 0.000
REMARK SMILES Cc1cccc(O)c1C
REMARK SMILES IDX 1 1 2 2 8 3 6 4 5 5 4 6 3 7 9 8 7 9
REMARK H PARENT 7 10
REMARK Flexibility Score: inf
ROOT
ATOM      1  C   UNL     1      -5.502  -7.018  11.323  1.00  0.00     0.045 C 
ATOM      2  C   UNL     1      -5.514  -6.220  12.601  1.00  0.00    -0.045 A 
ATOM      3  C   UNL     1      -4.356  -5.551  13.085  1.00  0.00    -0.006 A 
ATOM      4  C   UNL     1      -4.440  -4.818  14.297  1.00  0.00     0.118 A 
ATOM      5  C   UNL     1      -5.648  -4.760  14.998  1.00  0.00     0.046 A 
ATOM      6  C   UNL     1      -6.778  -5.416  14.518  1.00  0.00     0.004 A 
ATOM      7  C   UNL     1      -6.714  -6.141  13.330  1.00  0.00     0.004 A 
ATOM      8  C   UNL     1      -3.039  -5.601  12.344  1.00  0.00     0.048 C 
ENDROOT
BRANCH   4   9
ATOM      9  O   UNL     1      -3.343  -4.137  14.833  1.00  0.00    -0.508 OA
ATOM     10  H   UNL     1      -3.172  -3.152  14.684  1.00  0.00     0.293 HD
ENDBRANCH   4   9
TORSDOF 1
ENDMDL
MODEL 5
REMARK VINA RESULT:    -4.431      9.646     10.630
REMARK INTER + INTRA:          -4.561
REMARK INTER:                  -4.561
REMARK INTRA:                   0.000
REMARK UNBOUND:                 0.000
REMARK SMILES Cc1cccc(O)c1C
REMARK SMILES IDX 1 1 2 2 8 3 6 4 5 5 4 6 3 7 9 8 7 9
REMARK H PARENT 7 10
REMARK Flexibility Score: inf
ROOT
ATOM      1  C   UNL     1      -1.321  -7.314   3.875  1.00  0.00     0.045 C 
ATOM      2  C   UNL     1      -2.638  -6.762   3.396  1.00  0.00    -0.045 A 
ATOM      3  C   UNL     1      -3.879  -7.380   3.719  1.00  0.00    -0.006 A 
ATOM      4  C   UNL     1      -5.081  -6.806   3.233  1.00  0.00     0.118 A 
ATOM      5  C   UNL     1      -5.038  -5.649   2.449  1.00  0.00     0.046 A 
ATOM      6  C   UNL     1      -3.821  -5.049   2.138  1.00  0.00     0.004 A 
ATOM      7  C   UNL     1      -2.630  -5.600   2.606  1.00  0.00     0.004 A 
ATOM      8  C   UNL     1      -3.949  -8.632   4.565  1.00  0.00     0.048 C 
ENDROOT
BRANCH   4   9
ATOM      9  O   UNL     1      -6.335  -7.358   3.510  1.00  0.00    -0.508 OA
ATOM     10  H   UNL     1      -7.184  -7.077   3.038  1.00  0.00     0.293 HD
ENDBRANCH   4   9
TORSDOF 1
ENDMDL
MODEL 6
REMARK VINA RESULT:    -4.425      1.892      2.917
REMARK INTER + INTRA:          -4.554
REMARK INTER:                  -4.554
REMARK INTRA:                   0.000
REMARK UNBOUND:                 0.000
REMARK SMILES Cc1cccc(O)c1C
REMARK SMILES IDX 1 1 2 2 8 3 6 4 5 5 4 6 3 7 9 8 7 9
REMARK H PARENT 7 10
REMARK Flexibility Score: inf
ROOT
ATOM      1  C   UNL     1      -3.047  -5.628  12.100  1.00  0.00     0.045 C 
ATOM      2  C   UNL     1      -4.081  -5.300  13.145  1.00  0.00    -0.045 A 
ATOM      3  C   UNL     1      -5.321  -5.994  13.226  1.00  0.00    -0.006 A 
ATOM      4  C   UNL     1      -6.248  -5.630  14.235  1.00  0.00     0.118 A 
ATOM      5  C   UNL     1      -5.941  -4.604  15.133  1.00  0.00     0.046 A 
ATOM      6  C   UNL     1      -4.726  -3.930  15.049  1.00  0.00     0.004 A 
ATOM      7  C   UNL     1      -3.803  -4.273  14.063  1.00  0.00     0.004 A 
ATOM      8  C   UNL     1      -5.675  -7.106  12.265  1.00  0.00     0.048 C 
ENDROOT
BRANCH   4   9
ATOM      9  O   UNL     1      -7.485  -6.268  14.375  1.00  0.00    -0.508 OA
ATOM     10  H   UNL     1      -8.215  -5.938  14.991  1.00  0.00     0.293 HD
ENDBRANCH   4   9
TORSDOF 1
ENDMDL
MODEL 7
REMARK VINA RESULT:    -4.376      1.752      2.765
REMARK INTER + INTRA:          -4.504
REMARK INTER:                  -4.504
REMARK INTRA:                   0.000
REMARK UNBOUND:                 0.000
REMARK SMILES Cc1cccc(O)c1C
REMARK SMILES IDX 1 1 2 2 8 3 6 4 5 5 4 6 3 7 9 8 7 9
REMARK H PARENT 7 10
REMARK Flexibility Score: inf
ROOT
ATOM      1  C   UNL     1      -5.850  -6.748  11.216  1.00  0.00     0.045 C 
ATOM      2  C   UNL     1      -5.240  -5.878  12.284  1.00  0.00    -0.045 A 
ATOM      3  C   UNL     1      -5.784  -5.799  13.596  1.00  0.00    -0.006 A 
ATOM      4  C   UNL     1      -5.157  -4.958  14.552  1.00  0.00     0.118 A 
ATOM      5  C   UNL     1      -4.022  -4.222  14.200  1.00  0.00     0.046 A 
ATOM      6  C   UNL     1      -3.494  -4.306  12.915  1.00  0.00     0.004 A 
ATOM      7  C   UNL     1      -4.097  -5.126  11.963  1.00  0.00     0.004 A 
ATOM      8  C   UNL     1      -7.012  -6.585  13.998  1.00  0.00     0.048 C 
ENDROOT
BRANCH   4   9
ATOM      9  O   UNL     1      -5.637  -4.830  15.859  1.00  0.00    -0.508 OA
ATOM     10  H   UNL     1      -6.616  -4.890  16.102  1.00  0.00     0.293 HD
ENDBRANCH   4   9
TORSDOF 1
ENDMDL
MODEL 8
REMARK VINA RESULT:    -4.372     14.193     15.034
REMARK INTER + INTRA:          -4.500
REMARK INTER:                  -4.500
REMARK INTRA:                   0.000
REMARK UNBOUND:                 0.000
REMARK SMILES Cc1cccc(O)c1C
REMARK SMILES IDX 1 1 2 2 8 3 6 4 5 5 4 6 3 7 9 8 7 9
REMARK H PARENT 7 10
REMARK Flexibility Score: inf
ROOT
ATOM      1  C   UNL     1       3.111   6.430  18.049  1.00  0.00     0.045 C 
ATOM      2  C   UNL     1       1.813   6.393  18.812  1.00  0.00    -0.045 A 
ATOM      3  C   UNL     1       0.826   7.408  18.675  1.00  0.00    -0.006 A 
ATOM      4  C   UNL     1      -0.373   7.309  19.426  1.00  0.00     0.118 A 
ATOM      5  C   UNL     1      -0.573   6.226  20.287  1.00  0.00     0.046 A 
ATOM      6  C   UNL     1       0.397   5.236  20.416  1.00  0.00     0.004 A 
ATOM      7  C   UNL     1       1.581   5.317  19.686  1.00  0.00     0.004 A 
ATOM      8  C   UNL     1       1.021   8.589  17.751  1.00  0.00     0.048 C 
ENDROOT
BRANCH   4   9
ATOM      9  O   UNL     1      -1.386   8.269  19.342  1.00  0.00    -0.508 OA
ATOM     10  H   UNL     1      -1.522   8.867  18.539  1.00  0.00     0.293 HD
ENDBRANCH   4   9
TORSDOF 1
ENDMDL
MODEL 9
REMARK VINA RESULT:    -4.356     15.857     16.649
REMARK INTER + INTRA:          -4.483
REMARK INTER:                  -4.483
REMARK INTRA:                   0.000
REMARK UNBOUND:                 0.000
REMARK SMILES Cc1cccc(O)c1C
REMARK SMILES IDX 1 1 2 2 8 3 6 4 5 5 4 6 3 7 9 8 7 9
REMARK H PARENT 7 10
REMARK Flexibility Score: inf
ROOT
ATOM      1  C   UNL     1      -2.518   6.623   3.497  1.00  0.00     0.045 C 
ATOM      2  C   UNL     1      -1.366   6.036   2.724  1.00  0.00    -0.045 A 
ATOM      3  C   UNL     1      -0.081   6.648   2.702  1.00  0.00    -0.006 A 
ATOM      4  C   UNL     1       0.958   6.040   1.952  1.00  0.00     0.118 A 
ATOM      5  C   UNL     1       0.714   4.857   1.248  1.00  0.00     0.046 A 
ATOM      6  C   UNL     1      -0.545   4.263   1.275  1.00  0.00     0.004 A 
ATOM      7  C   UNL     1      -1.577   4.847   2.005  1.00  0.00     0.004 A 
ATOM      8  C   UNL     1       0.204   7.928   3.454  1.00  0.00     0.048 C 
ENDROOT
BRANCH   4   9
ATOM      9  O   UNL     1       2.244   6.584   1.884  1.00  0.00    -0.508 OA
ATOM     10  H   UNL     1       2.454   7.547   2.108  1.00  0.00     0.293 HD
ENDBRANCH   4   9
TORSDOF 1
ENDMDL
