MODEL 1
REMARK VINA RESULT:    -4.873      0.000      0.000
REMARK INTER + INTRA:          -6.271
REMARK INTER:                  -6.155
REMARK INTRA:                  -0.116
REMARK UNBOUND:                -0.116
REMARK SMILES CSCC[C@H]([NH3+])C(=O)[O-]
REMARK SMILES IDX 4 1 5 2 6 3 7 7 8 8 9 9 3 10 2 11 1 12
REMARK H PARENT 6 4 6 5 6 6
REMARK Flexibility Score: inf
ROOT
ATOM      1  C   UNL     1     160.763 160.735 160.929  1.00  0.00     0.082 C 
ENDROOT
BRANCH   1   2
ATOM      2  C   UNL     1     160.095 159.758 159.937  1.00  0.00     0.228 C 
BRANCH   2   3
ATOM      3  N   UNL     1     160.507 158.377 160.219  1.00  0.00    -0.350 N 
ATOM      4  H   UNL     1     160.160 158.091 161.163  1.00  0.00     0.345 HD
ATOM      5  H   UNL     1     161.550 158.291 160.198  1.00  0.00     0.345 HD
ATOM      6  H   UNL     1     160.092 157.731 159.509  1.00  0.00     0.345 HD
ENDBRANCH   2   3
BRANCH   2   7
ATOM      7  C   UNL     1     160.428 160.118 158.512  1.00  0.00     0.099 C 
ATOM      8  O   UNL     1     160.646 161.316 158.189  1.00  0.00    -0.544 OA
ATOM      9  O   UNL     1     160.486 159.126 157.541  1.00  0.00    -0.544 OA
ENDBRANCH   2   7
ENDBRANCH   1   2
BRANCH   1  10
ATOM     10  C   UNL     1     159.746 161.406 161.857  1.00  0.00     0.076 C 
BRANCH  10  11
ATOM     11  S   UNL     1     160.365 161.382 163.573  1.00  0.00    -0.165 SA
ATOM     12  C   UNL     1     160.665 159.586 163.598  1.00  0.00     0.085 C 
ENDBRANCH  10  11
ENDBRANCH   1  10
TORSDOF 5
ENDMDL
MODEL 2
REMARK VINA RESULT:    -4.858      1.826      2.190
REMARK INTER + INTRA:          -6.252
REMARK INTER:                  -6.136
REMARK INTRA:                  -0.117
REMARK UNBOUND:                -0.116
REMARK SMILES CSCC[C@H]([NH3+])C(=O)[O-]
REMARK SMILES IDX 4 1 5 2 6 3 7 7 8 8 9 9 3 10 2 11 1 12
REMARK H PARENT 6 4 6 5 6 6
REMARK Flexibility Score: inf
ROOT
ATOM      1  C   UNL     1     160.246 160.212 160.947  1.00  0.00     0.082 C 
ENDROOT
BRANCH   1   2
ATOM      2  C   UNL     1     160.923 161.142 159.918  1.00  0.00     0.228 C 
BRANCH   2   3
ATOM      3  N   UNL     1     160.539 162.539 160.156  1.00  0.00    -0.350 N 
ATOM      4  H   UNL     1     160.347 162.684 161.173  1.00  0.00     0.345 HD
ATOM      5  H   UNL     1     159.682 162.785 159.607  1.00  0.00     0.345 HD
ATOM      6  H   UNL     1     161.322 163.175 159.877  1.00  0.00     0.345 HD
ENDBRANCH   2   3
BRANCH   2   7
ATOM      7  C   UNL     1     160.573 160.740 158.508  1.00  0.00     0.099 C 
ATOM      8  O   UNL     1     160.244 159.553 158.244  1.00  0.00    -0.544 OA
ATOM      9  O   UNL     1     160.622 161.680 157.486  1.00  0.00    -0.544 OA
ENDBRANCH   2   7
ENDBRANCH   1   2
BRANCH   1  10
ATOM     10  C   UNL     1     161.260 159.526 161.867  1.00  0.00     0.076 C 
BRANCH  10  11
ATOM     11  S   UNL     1     160.674 159.595 163.593  1.00  0.00    -0.165 SA
ATOM     12  C   UNL     1     160.328 161.382 163.563  1.00  0.00     0.085 C 
ENDBRANCH  10  11
ENDBRANCH   1  10
TORSDOF 5
ENDMDL
MODEL 3
REMARK VINA RESULT:    -4.848      3.330      4.317
REMARK INTER + INTRA:          -6.240
REMARK INTER:                  -6.159
REMARK INTRA:                  -0.080
REMARK UNBOUND:                -0.116
REMARK SMILES CSCC[C@H]([NH3+])C(=O)[O-]
REMARK SMILES IDX 4 1 5 2 6 3 7 7 8 8 9 9 3 10 2 11 1 12
REMARK H PARENT 6 4 6 5 6 6
REMARK Flexibility Score: inf
ROOT
ATOM      1  C   UNL     1     160.219 160.707 159.961  1.00  0.00     0.082 C 
ENDROOT
BRANCH   1   2
ATOM      2  C   UNL     1     160.920 159.739 160.939  1.00  0.00     0.228 C 
BRANCH   2   3
ATOM      3  N   UNL     1     160.553 158.350 160.640  1.00  0.00    -0.350 N 
ATOM      4  H   UNL     1     159.879 158.327 159.841  1.00  0.00     0.345 HD
ATOM      5  H   UNL     1     160.110 157.896 161.473  1.00  0.00     0.345 HD
ATOM      6  H   UNL     1     161.405 157.809 160.364  1.00  0.00     0.345 HD
ENDBRANCH   2   3
BRANCH   2   7
ATOM      7  C   UNL     1     160.578 160.070 162.370  1.00  0.00     0.099 C 
ATOM      8  O   UNL     1     160.505 159.158 163.238  1.00  0.00    -0.544 OA
ATOM      9  O   UNL     1     160.329 161.386 162.738  1.00  0.00    -0.544 OA
ENDBRANCH   2   7
ENDBRANCH   1   2
BRANCH   1  10
ATOM     10  C   UNL     1     161.218 161.496 159.109  1.00  0.00     0.076 C 
BRANCH  10  11
ATOM     11  S   UNL     1     160.708 161.449 157.358  1.00  0.00    -0.165 SA
ATOM     12  C   UNL     1     160.305 159.674 157.368  1.00  0.00     0.085 C 
ENDBRANCH  10  11
ENDBRANCH   1  10
TORSDOF 5
ENDMDL
MODEL 4
REMARK VINA RESULT:    -4.771      3.595      4.676
REMARK INTER + INTRA:          -6.142
REMARK INTER:                  -6.046
REMARK INTRA:                  -0.096
REMARK UNBOUND:                -0.116
REMARK SMILES CSCC[C@H]([NH3+])C(=O)[O-]
REMARK SMILES IDX 4 1 5 2 6 3 7 7 8 8 9 9 3 10 2 11 1 12
REMARK H PARENT 6 4 6 5 6 6
REMARK Flexibility Score: inf
ROOT
ATOM      1  C   UNL     1     160.775 160.132 159.937  1.00  0.00     0.082 C 
ENDROOT
BRANCH   1   2
ATOM      2  C   UNL     1     160.111 161.100 160.940  1.00  0.00     0.228 C 
BRANCH   2   3
ATOM      3  N   UNL     1     160.514 162.484 160.661  1.00  0.00    -0.350 N 
ATOM      4  H   UNL     1     160.617 162.622 159.630  1.00  0.00     0.345 HD
ATOM      5  H   UNL     1     161.425 162.705 161.128  1.00  0.00     0.345 HD
ATOM      6  H   UNL     1     159.780 163.144 161.008  1.00  0.00     0.345 HD
ENDBRANCH   2   3
BRANCH   2   7
ATOM      7  C   UNL     1     160.458 160.735 162.360  1.00  0.00     0.099 C 
ATOM      8  O   UNL     1     160.649 159.531 162.683  1.00  0.00    -0.544 OA
ATOM      9  O   UNL     1     160.559 161.726 163.328  1.00  0.00    -0.544 OA
ENDBRANCH   2   7
ENDBRANCH   1   2
BRANCH   1  10
ATOM     10  C   UNL     1     159.747 159.409 159.060  1.00  0.00     0.076 C 
BRANCH  10  11
ATOM     11  S   UNL     1     160.274 159.467 157.315  1.00  0.00    -0.165 SA
ATOM     12  C   UNL     1     160.633 161.252 157.327  1.00  0.00     0.085 C 
ENDBRANCH  10  11
ENDBRANCH   1  10
TORSDOF 5
ENDMDL
MODEL 5
REMARK VINA RESULT:    -4.766      3.508      4.526
REMARK INTER + INTRA:          -6.136
REMARK INTER:                  -6.043
REMARK INTRA:                  -0.093
REMARK UNBOUND:                -0.116
REMARK SMILES CSCC[C@H]([NH3+])C(=O)[O-]
REMARK SMILES IDX 4 1 5 2 6 3 7 7 8 8 9 9 3 10 2 11 1 12
REMARK H PARENT 6 4 6 5 6 6
REMARK Flexibility Score: inf
ROOT
ATOM      1  C   UNL     1     159.959 161.069 160.673  1.00  0.00     0.082 C 
ENDROOT
BRANCH   1   2
ATOM      2  C   UNL     1     160.844 160.185 161.578  1.00  0.00     0.228 C 
BRANCH   2   3
ATOM      3  N   UNL     1     160.612 158.764 161.295  1.00  0.00    -0.350 N 
ATOM      4  H   UNL     1     161.254 158.446 160.533  1.00  0.00     0.345 HD
ATOM      5  H   UNL     1     159.621 158.603 160.996  1.00  0.00     0.345 HD
ATOM      6  H   UNL     1     160.812 158.194 162.149  1.00  0.00     0.345 HD
ENDBRANCH   2   3
BRANCH   2   7
ATOM      7  C   UNL     1     160.589 160.472 163.036  1.00  0.00     0.099 C 
ATOM      8  O   UNL     1     160.575 161.658 163.462  1.00  0.00    -0.544 OA
ATOM      9  O   UNL     1     160.377 159.424 163.923  1.00  0.00    -0.544 OA
ENDBRANCH   2   7
ENDBRANCH   1   2
BRANCH   1  10
ATOM     10  C   UNL     1     160.750 161.694 159.519  1.00  0.00     0.076 C 
BRANCH  10  11
ATOM     11  S   UNL     1     160.564 160.673 158.019  1.00  0.00    -0.165 SA
ATOM     12  C   UNL     1     160.790 162.063 156.864  1.00  0.00     0.085 C 
ENDBRANCH  10  11
ENDBRANCH   1  10
TORSDOF 5
ENDMDL
MODEL 6
REMARK VINA RESULT:    -4.228      3.579      4.729
REMARK INTER + INTRA:          -5.456
REMARK INTER:                  -5.381
REMARK INTRA:                  -0.075
REMARK UNBOUND:                -0.116
REMARK SMILES CSCC[C@H]([NH3+])C(=O)[O-]
REMARK SMILES IDX 4 1 5 2 6 3 7 7 8 8 9 9 3 10 2 11 1 12
REMARK H PARENT 6 4 6 5 6 6
REMARK Flexibility Score: inf
ROOT
ATOM      1  C   UNL     1     160.419 159.491 161.764  1.00  0.00     0.082 C 
ENDROOT
BRANCH   1   2
ATOM      2  C   UNL     1     160.947 159.952 163.140  1.00  0.00     0.228 C 
BRANCH   2   3
ATOM      3  N   UNL     1     160.792 158.883 164.134  1.00  0.00    -0.350 N 
ATOM      4  H   UNL     1     161.248 159.165 165.031  1.00  0.00     0.345 HD
ATOM      5  H   UNL     1     161.229 157.995 163.793  1.00  0.00     0.345 HD
ATOM      6  H   UNL     1     159.776 158.718 164.323  1.00  0.00     0.345 HD
ENDBRANCH   2   3
BRANCH   2   7
ATOM      7  C   UNL     1     160.239 161.199 163.604  1.00  0.00     0.099 C 
ATOM      8  O   UNL     1     159.040 161.412 163.282  1.00  0.00    -0.544 OA
ATOM      9  O   UNL     1     160.914 162.130 164.385  1.00  0.00    -0.544 OA
ENDBRANCH   2   7
ENDBRANCH   1   2
BRANCH   1  10
ATOM     10  C   UNL     1     161.077 160.247 160.606  1.00  0.00     0.076 C 
BRANCH  10  11
ATOM     11  S   UNL     1     160.327 159.732 159.025  1.00  0.00    -0.165 SA
ATOM     12  C   UNL     1     160.704 161.292 158.166  1.00  0.00     0.085 C 
ENDBRANCH  10  11
ENDBRANCH   1  10
TORSDOF 5
ENDMDL
MODEL 7
REMARK VINA RESULT:    -3.991      1.734      1.908
REMARK INTER + INTRA:          -5.157
REMARK INTER:                  -5.013
REMARK INTRA:                  -0.144
REMARK UNBOUND:                -0.116
REMARK SMILES CSCC[C@H]([NH3+])C(=O)[O-]
REMARK SMILES IDX 4 1 5 2 6 3 7 7 8 8 9 9 3 10 2 11 1 12
REMARK H PARENT 6 4 6 5 6 6
REMARK Flexibility Score: inf
ROOT
ATOM      1  C   UNL     1     159.877 161.392 160.887  1.00  0.00     0.082 C 
ENDROOT
BRANCH   1   2
ATOM      2  C   UNL     1     160.749 160.861 159.729  1.00  0.00     0.228 C 
BRANCH   2   3
ATOM      3  N   UNL     1     160.683 161.768 158.577  1.00  0.00    -0.350 N 
ATOM      4  H   UNL     1     160.169 162.639 158.842  1.00  0.00     0.345 HD
ATOM      5  H   UNL     1     160.189 161.311 157.775  1.00  0.00     0.345 HD
ATOM      6  H   UNL     1     161.650 162.037 158.280  1.00  0.00     0.345 HD
ENDBRANCH   2   3
BRANCH   2   7
ATOM      7  C   UNL     1     160.326 159.473 159.322  1.00  0.00     0.099 C 
ATOM      8  O   UNL     1     160.447 159.091 158.127  1.00  0.00    -0.544 OA
ATOM      9  O   UNL     1     159.788 158.606 160.265  1.00  0.00    -0.544 OA
ENDBRANCH   2   7
ENDBRANCH   1   2
BRANCH   1  10
ATOM     10  C   UNL     1     160.712 161.805 162.103  1.00  0.00     0.076 C 
BRANCH  10  11
ATOM     11  S   UNL     1     159.934 161.178 163.629  1.00  0.00    -0.165 SA
ATOM     12  C   UNL     1     160.734 159.544 163.543  1.00  0.00     0.085 C 
ENDBRANCH  10  11
ENDBRANCH   1  10
TORSDOF 5
ENDMDL
MODEL 8
REMARK VINA RESULT:    -3.766     12.278     13.106
REMARK INTER + INTRA:          -4.873
REMARK INTER:                  -4.832
REMARK INTRA:                  -0.041
REMARK UNBOUND:                -0.116
REMARK SMILES CSCC[C@H]([NH3+])C(=O)[O-]
REMARK SMILES IDX 4 1 5 2 6 3 7 7 8 8 9 9 3 10 2 11 1 12
REMARK H PARENT 6 4 6 5 6 6
REMARK Flexibility Score: inf
ROOT
ATOM      1  C   UNL     1     166.739 168.102 153.269  1.00  0.00     0.082 C 
ENDROOT
BRANCH   1   2
ATOM      2  C   UNL     1     166.455 168.552 151.819  1.00  0.00     0.228 C 
BRANCH   2   3
ATOM      3  N   UNL     1     167.624 169.237 151.255  1.00  0.00    -0.350 N 
ATOM      4  H   UNL     1     168.315 168.532 150.911  1.00  0.00     0.345 HD
ATOM      5  H   UNL     1     168.083 169.841 151.976  1.00  0.00     0.345 HD
ATOM      6  H   UNL     1     167.331 169.830 150.444  1.00  0.00     0.345 HD
ENDBRANCH   2   3
BRANCH   2   7
ATOM      7  C   UNL     1     165.246 169.450 151.755  1.00  0.00     0.099 C 
ATOM      8  O   UNL     1     164.100 169.002 152.028  1.00  0.00    -0.544 OA
ATOM      9  O   UNL     1     165.389 170.781 151.382  1.00  0.00    -0.544 OA
ENDBRANCH   2   7
ENDBRANCH   1   2
BRANCH   1  10
ATOM     10  C   UNL     1     167.826 167.026 153.341  1.00  0.00     0.076 C 
BRANCH  10  11
ATOM     11  S   UNL     1     167.788 166.218 154.976  1.00  0.00    -0.165 SA
ATOM     12  C   UNL     1     168.994 164.928 154.533  1.00  0.00     0.085 C 
ENDBRANCH  10  11
ENDBRANCH   1  10
TORSDOF 5
ENDMDL
MODEL 9
REMARK VINA RESULT:    -3.764     12.444     13.279
REMARK INTER + INTRA:          -4.870
REMARK INTER:                  -4.772
REMARK INTRA:                  -0.098
REMARK UNBOUND:                -0.116
REMARK SMILES CSCC[C@H]([NH3+])C(=O)[O-]
REMARK SMILES IDX 4 1 5 2 6 3 7 7 8 8 9 9 3 10 2 11 1 12
REMARK H PARENT 6 4 6 5 6 6
REMARK Flexibility Score: inf
ROOT
ATOM      1  C   UNL     1     154.042 168.739 168.972  1.00  0.00     0.082 C 
ENDROOT
BRANCH   1   2
ATOM      2  C   UNL     1     155.173 169.709 168.563  1.00  0.00     0.228 C 
BRANCH   2   3
ATOM      3  N   UNL     1     155.315 169.746 167.103  1.00  0.00    -0.350 N 
ATOM      4  H   UNL     1     154.385 169.591 166.652  1.00  0.00     0.345 HD
ATOM      5  H   UNL     1     155.980 169.005 166.777  1.00  0.00     0.345 HD
ATOM      6  H   UNL     1     155.670 170.684 166.804  1.00  0.00     0.345 HD
ENDBRANCH   2   3
BRANCH   2   7
ATOM      7  C   UNL     1     156.481 169.320 169.203  1.00  0.00     0.099 C 
ATOM      8  O   UNL     1     157.573 169.726 168.724  1.00  0.00    -0.544 OA
ATOM      9  O   UNL     1     156.488 168.498 170.323  1.00  0.00    -0.544 OA
ENDBRANCH   2   7
ENDBRANCH   1   2
BRANCH   1  10
ATOM     10  C   UNL     1     153.952 167.526 168.042  1.00  0.00     0.076 C 
BRANCH  10  11
ATOM     11  S   UNL     1     152.209 167.205 167.612  1.00  0.00    -0.165 SA
ATOM     12  C   UNL     1     152.530 165.556 166.910  1.00  0.00     0.085 C 
ENDBRANCH  10  11
ENDBRANCH   1  10
TORSDOF 5
ENDMDL
