MODEL 1
REMARK VINA RESULT:    -3.070      0.000      0.000
REMARK INTER + INTRA:          -8.235
REMARK INTER:                  -5.762
REMARK INTRA:                  -2.472
REMARK UNBOUND:                -2.472
REMARK SMILES O=C([O-])CCCCCCCCCCCCCCC(=O)[O-]
REMARK SMILES IDX 10 1 9 2 8 3 7 4 6 5 5 6 4 7 2 8 1 9 3 10 11 11 12 12 13 13
REMARK SMILES IDX 14 14 15 15 16 16 17 17 18 18 19 19 20 20
REMARK H PARENT
REMARK Flexibility Score: inf
ROOT
ATOM      1  C   UNL     1    -103.614 -30.354 -13.874  1.00  0.00     0.000 C 
ENDROOT
BRANCH   1   2
ATOM      2  C   UNL     1    -103.282 -29.840 -12.464  1.00  0.00     0.000 C 
BRANCH   2   3
ATOM      3  C   UNL     1    -103.397 -28.309 -12.398  1.00  0.00     0.000 C 
BRANCH   3   4
ATOM      4  C   UNL     1    -102.061 -27.628 -12.065  1.00  0.00     0.000 C 
BRANCH   4   5
ATOM      5  C   UNL     1    -100.892 -28.622 -11.985  1.00  0.00     0.000 C 
BRANCH   5   6
ATOM      6  C   UNL     1     -99.942 -28.449 -13.179  1.00  0.00     0.006 C 
BRANCH   6   7
ATOM      7  C   UNL     1     -99.661 -29.778 -13.895  1.00  0.00     0.053 C 
BRANCH   7   8
ATOM      8  C   UNL     1     -98.229 -30.192 -13.754  1.00  0.00     0.041 C 
ATOM      9  O   UNL     1     -97.757 -31.101 -14.486  1.00  0.00    -0.550 OA
ATOM     10  O   UNL     1     -97.407 -29.553 -12.835  1.00  0.00    -0.550 OA
ENDBRANCH   7   8
ENDBRANCH   6   7
ENDBRANCH   5   6
ENDBRANCH   4   5
ENDBRANCH   3   4
ENDBRANCH   2   3
ENDBRANCH   1   2
BRANCH   1  11
ATOM     11  C   UNL     1    -103.690 -29.226 -14.915  1.00  0.00     0.000 C 
BRANCH  11  12
ATOM     12  C   UNL     1    -102.660 -29.394 -16.046  1.00  0.00     0.000 C 
BRANCH  12  13
ATOM     13  C   UNL     1    -101.908 -28.092 -16.358  1.00  0.00     0.000 C 
BRANCH  13  14
ATOM     14  C   UNL     1    -102.533 -26.866 -15.674  1.00  0.00     0.000 C 
BRANCH  14  15
ATOM     15  C   UNL     1    -103.420 -26.085 -16.651  1.00  0.00     0.000 C 
BRANCH  15  16
ATOM     16  C   UNL     1    -104.222 -24.998 -15.919  1.00  0.00     0.006 C 
BRANCH  16  17
ATOM     17  C   UNL     1    -104.298 -25.251 -14.408  1.00  0.00     0.053 C 
BRANCH  17  18
ATOM     18  C   UNL     1    -105.638 -25.776 -13.997  1.00  0.00     0.041 C 
ATOM     19  O   UNL     1    -105.928 -25.889 -12.777  1.00  0.00    -0.550 OA
ATOM     20  O   UNL     1    -106.582 -26.108 -14.961  1.00  0.00    -0.550 OA
ENDBRANCH  17  18
ENDBRANCH  16  17
ENDBRANCH  15  16
ENDBRANCH  14  15
ENDBRANCH  13  14
ENDBRANCH  12  13
ENDBRANCH  11  12
ENDBRANCH   1  11
TORSDOF 15
ENDMDL
MODEL 2
REMARK VINA RESULT:    -2.994      3.200      4.586
REMARK INTER + INTRA:          -8.091
REMARK INTER:                  -5.839
REMARK INTRA:                  -2.252
REMARK UNBOUND:                -2.472
REMARK SMILES O=C([O-])CCCCCCCCCCCCCCC(=O)[O-]
REMARK SMILES IDX 10 1 9 2 8 3 7 4 6 5 5 6 4 7 2 8 1 9 3 10 11 11 12 12 13 13
REMARK SMILES IDX 14 14 15 15 16 16 17 17 18 18 19 19 20 20
REMARK H PARENT
REMARK Flexibility Score: inf
ROOT
ATOM      1  C   UNL     1    -103.655 -28.810 -12.831  1.00  0.00     0.000 C 
ENDROOT
BRANCH   1   2
ATOM      2  C   UNL     1    -102.517 -28.715 -11.802  1.00  0.00     0.000 C 
BRANCH   2   3
ATOM      3  C   UNL     1    -101.527 -27.604 -12.182  1.00  0.00     0.000 C 
BRANCH   3   4
ATOM      4  C   UNL     1    -100.334 -28.127 -12.998  1.00  0.00     0.000 C 
BRANCH   4   5
ATOM      5  C   UNL     1     -99.798 -29.468 -12.472  1.00  0.00     0.000 C 
BRANCH   5   6
ATOM      6  C   UNL     1     -98.292 -29.601 -12.742  1.00  0.00     0.006 C 
BRANCH   6   7
ATOM      7  C   UNL     1     -97.494 -29.865 -11.458  1.00  0.00     0.053 C 
BRANCH   7   8
ATOM      8  C   UNL     1     -96.044 -30.110 -11.746  1.00  0.00     0.041 C 
ATOM      9  O   UNL     1     -95.702 -30.748 -12.776  1.00  0.00    -0.550 OA
ATOM     10  O   UNL     1     -95.071 -29.608 -10.893  1.00  0.00    -0.550 OA
ENDBRANCH   7   8
ENDBRANCH   6   7
ENDBRANCH   5   6
ENDBRANCH   4   5
ENDBRANCH   3   4
ENDBRANCH   2   3
ENDBRANCH   1   2
BRANCH   1  11
ATOM     11  C   UNL     1    -104.019 -27.448 -13.442  1.00  0.00     0.000 C 
BRANCH  11  12
ATOM     12  C   UNL     1    -104.027 -27.473 -14.981  1.00  0.00     0.000 C 
BRANCH  12  13
ATOM     13  C   UNL     1    -102.736 -26.900 -15.587  1.00  0.00     0.000 C 
BRANCH  13  14
ATOM     14  C   UNL     1    -101.910 -27.957 -16.335  1.00  0.00     0.000 C 
BRANCH  14  15
ATOM     15  C   UNL     1    -102.630 -29.311 -16.343  1.00  0.00     0.000 C 
BRANCH  15  16
ATOM     16  C   UNL     1    -101.784 -30.389 -15.648  1.00  0.00     0.006 C 
BRANCH  16  17
ATOM     17  C   UNL     1    -100.302 -30.306 -16.037  1.00  0.00     0.053 C 
BRANCH  17  18
ATOM     18  C   UNL     1     -99.549 -31.533 -15.627  1.00  0.00     0.041 C 
ATOM     19  O   UNL     1    -100.154 -32.501 -15.095  1.00  0.00    -0.550 OA
ATOM     20  O   UNL     1     -98.183 -31.624 -15.864  1.00  0.00    -0.550 OA
ENDBRANCH  17  18
ENDBRANCH  16  17
ENDBRANCH  15  16
ENDBRANCH  14  15
ENDBRANCH  13  14
ENDBRANCH  12  13
ENDBRANCH  11  12
ENDBRANCH   1  11
TORSDOF 15
ENDMDL
MODEL 3
REMARK VINA RESULT:    -2.903      1.856      6.313
REMARK INTER + INTRA:          -7.920
REMARK INTER:                  -5.746
REMARK INTRA:                  -2.175
REMARK UNBOUND:                -2.472
REMARK SMILES O=C([O-])CCCCCCCCCCCCCCC(=O)[O-]
REMARK SMILES IDX 10 1 9 2 8 3 7 4 6 5 5 6 4 7 2 8 1 9 3 10 11 11 12 12 13 13
REMARK SMILES IDX 14 14 15 15 16 16 17 17 18 18 19 19 20 20
REMARK H PARENT
REMARK Flexibility Score: inf
ROOT
ATOM      1  C   UNL     1    -102.076 -28.371 -16.361  1.00  0.00     0.000 C 
ENDROOT
BRANCH   1   2
ATOM      2  C   UNL     1    -102.412 -26.917 -15.995  1.00  0.00     0.000 C 
BRANCH   2   3
ATOM      3  C   UNL     1    -103.639 -26.424 -16.778  1.00  0.00     0.000 C 
BRANCH   3   4
ATOM      4  C   UNL     1    -104.324 -25.221 -16.111  1.00  0.00     0.000 C 
BRANCH   4   5
ATOM      5  C   UNL     1    -105.089 -25.606 -14.836  1.00  0.00     0.000 C 
BRANCH   5   6
ATOM      6  C   UNL     1    -104.380 -25.064 -13.585  1.00  0.00     0.006 C 
BRANCH   6   7
ATOM      7  C   UNL     1    -104.730 -25.868 -12.325  1.00  0.00     0.053 C 
BRANCH   7   8
ATOM      8  C   UNL     1    -104.135 -25.257 -11.094  1.00  0.00     0.041 C 
ATOM      9  O   UNL     1    -104.388 -24.061 -10.794  1.00  0.00    -0.550 OA
ATOM     10  O   UNL     1    -103.326 -26.019 -10.261  1.00  0.00    -0.550 OA
ENDBRANCH   7   8
ENDBRANCH   6   7
ENDBRANCH   5   6
ENDBRANCH   4   5
ENDBRANCH   3   4
ENDBRANCH   2   3
ENDBRANCH   1   2
BRANCH   1  11
ATOM     11  C   UNL     1    -102.816 -29.391 -15.481  1.00  0.00     0.000 C 
BRANCH  11  12
ATOM     12  C   UNL     1    -103.307 -28.783 -14.155  1.00  0.00     0.000 C 
BRANCH  12  13
ATOM     13  C   UNL     1    -102.359 -29.080 -12.983  1.00  0.00     0.000 C 
BRANCH  13  14
ATOM     14  C   UNL     1    -101.471 -27.880 -12.617  1.00  0.00     0.000 C 
BRANCH  14  15
ATOM     15  C   UNL     1    -100.084 -28.008 -13.258  1.00  0.00     0.000 C 
BRANCH  15  16
ATOM     16  C   UNL     1     -99.319 -29.209 -12.680  1.00  0.00     0.006 C 
BRANCH  16  17
ATOM     17  C   UNL     1     -98.547 -29.979 -13.759  1.00  0.00     0.053 C 
BRANCH  17  18
ATOM     18  C   UNL     1     -99.454 -30.828 -14.594  1.00  0.00     0.041 C 
ATOM     19  O   UNL     1     -99.428 -30.739 -15.850  1.00  0.00    -0.550 OA
ATOM     20  O   UNL     1    -100.304 -31.745 -13.988  1.00  0.00    -0.550 OA
ENDBRANCH  17  18
ENDBRANCH  16  17
ENDBRANCH  15  16
ENDBRANCH  14  15
ENDBRANCH  13  14
ENDBRANCH  12  13
ENDBRANCH  11  12
ENDBRANCH   1  11
TORSDOF 15
ENDMDL
MODEL 4
REMARK VINA RESULT:    -2.895      2.180      6.408
REMARK INTER + INTRA:          -7.907
REMARK INTER:                  -5.421
REMARK INTRA:                  -2.486
REMARK UNBOUND:                -2.472
REMARK SMILES O=C([O-])CCCCCCCCCCCCCCC(=O)[O-]
REMARK SMILES IDX 10 1 9 2 8 3 7 4 6 5 5 6 4 7 2 8 1 9 3 10 11 11 12 12 13 13
REMARK SMILES IDX 14 14 15 15 16 16 17 17 18 18 19 19 20 20
REMARK H PARENT
REMARK Flexibility Score: inf
ROOT
ATOM      1  C   UNL     1    -102.130 -30.699 -11.331  1.00  0.00     0.000 C 
ENDROOT
BRANCH   1   2
ATOM      2  C   UNL     1    -102.612 -29.388 -11.972  1.00  0.00     0.000 C 
BRANCH   2   3
ATOM      3  C   UNL     1    -101.613 -28.250 -11.711  1.00  0.00     0.000 C 
BRANCH   3   4
ATOM      4  C   UNL     1    -101.021 -27.673 -13.007  1.00  0.00     0.000 C 
BRANCH   4   5
ATOM      5  C   UNL     1    -102.053 -27.580 -14.141  1.00  0.00     0.000 C 
BRANCH   5   6
ATOM      6  C   UNL     1    -101.417 -27.932 -15.493  1.00  0.00     0.006 C 
BRANCH   6   7
ATOM      7  C   UNL     1    -102.469 -28.226 -16.572  1.00  0.00     0.053 C 
BRANCH   7   8
ATOM      8  C   UNL     1    -103.592 -27.235 -16.536  1.00  0.00     0.041 C 
ATOM      9  O   UNL     1    -104.741 -27.591 -16.164  1.00  0.00    -0.550 OA
ATOM     10  O   UNL     1    -103.361 -25.911 -16.885  1.00  0.00    -0.550 OA
ENDBRANCH   7   8
ENDBRANCH   6   7
ENDBRANCH   5   6
ENDBRANCH   4   5
ENDBRANCH   3   4
ENDBRANCH   2   3
ENDBRANCH   1   2
BRANCH   1  11
ATOM     11  C   UNL     1    -101.822 -31.790 -12.369  1.00  0.00     0.000 C 
BRANCH  11  12
ATOM     12  C   UNL     1    -102.013 -31.300 -13.816  1.00  0.00     0.000 C 
BRANCH  12  13
ATOM     13  C   UNL     1    -100.703 -31.306 -14.618  1.00  0.00     0.000 C 
BRANCH  13  14
ATOM     14  C   UNL     1     -99.463 -31.500 -13.731  1.00  0.00     0.000 C 
BRANCH  14  15
ATOM     15  C   UNL     1     -98.312 -30.598 -14.192  1.00  0.00     0.000 C 
BRANCH  15  16
ATOM     16  C   UNL     1     -97.923 -29.597 -13.093  1.00  0.00     0.006 C 
BRANCH  16  17
ATOM     17  C   UNL     1     -98.416 -30.034 -11.708  1.00  0.00     0.053 C 
BRANCH  17  18
ATOM     18  C   UNL     1     -97.315 -30.013 -10.693  1.00  0.00     0.041 C 
ATOM     19  O   UNL     1     -97.559 -30.288  -9.488  1.00  0.00    -0.550 OA
ATOM     20  O   UNL     1     -96.013 -29.724 -11.082  1.00  0.00    -0.550 OA
ENDBRANCH  17  18
ENDBRANCH  16  17
ENDBRANCH  15  16
ENDBRANCH  14  15
ENDBRANCH  13  14
ENDBRANCH  12  13
ENDBRANCH  11  12
ENDBRANCH   1  11
TORSDOF 15
ENDMDL
MODEL 5
REMARK VINA RESULT:    -2.885      2.795      4.827
REMARK INTER + INTRA:          -7.887
REMARK INTER:                  -6.231
REMARK INTRA:                  -1.656
REMARK UNBOUND:                -2.472
REMARK SMILES O=C([O-])CCCCCCCCCCCCCCC(=O)[O-]
REMARK SMILES IDX 10 1 9 2 8 3 7 4 6 5 5 6 4 7 2 8 1 9 3 10 11 11 12 12 13 13
REMARK SMILES IDX 14 14 15 15 16 16 17 17 18 18 19 19 20 20
REMARK H PARENT
REMARK Flexibility Score: inf
ROOT
ATOM      1  C   UNL     1    -103.252 -27.612 -16.707  1.00  0.00     0.000 C 
ENDROOT
BRANCH   1   2
ATOM      2  C   UNL     1    -101.942 -27.605 -15.902  1.00  0.00     0.000 C 
BRANCH   2   3
ATOM      3  C   UNL     1    -101.381 -29.027 -15.755  1.00  0.00     0.000 C 
BRANCH   3   4
ATOM      4  C   UNL     1    -100.695 -29.256 -14.399  1.00  0.00     0.000 C 
BRANCH   4   5
ATOM      5  C   UNL     1    -100.558 -27.965 -13.578  1.00  0.00     0.000 C 
BRANCH   5   6
ATOM      6  C   UNL     1    -101.318 -28.077 -12.248  1.00  0.00     0.006 C 
BRANCH   6   7
ATOM      7  C   UNL     1    -102.652 -27.318 -12.275  1.00  0.00     0.053 C 
BRANCH   7   8
ATOM      8  C   UNL     1    -103.821 -28.252 -12.347  1.00  0.00     0.041 C 
ATOM      9  O   UNL     1    -104.124 -28.965 -11.354  1.00  0.00    -0.550 OA
ATOM     10  O   UNL     1    -104.593 -28.312 -13.499  1.00  0.00    -0.550 OA
ENDBRANCH   7   8
ENDBRANCH   6   7
ENDBRANCH   5   6
ENDBRANCH   4   5
ENDBRANCH   3   4
ENDBRANCH   2   3
ENDBRANCH   1   2
BRANCH   1  11
ATOM     11  C   UNL     1    -103.893 -26.219 -16.809  1.00  0.00     0.000 C 
BRANCH  11  12
ATOM     12  C   UNL     1    -103.885 -25.464 -15.468  1.00  0.00     0.000 C 
BRANCH  12  13
ATOM     13  C   UNL     1    -104.595 -24.104 -15.552  1.00  0.00     0.000 C 
BRANCH  13  14
ATOM     14  C   UNL     1    -104.945 -23.529 -14.171  1.00  0.00     0.000 C 
BRANCH  14  15
ATOM     15  C   UNL     1    -104.951 -24.630 -13.104  1.00  0.00     0.000 C 
BRANCH  15  16
ATOM     16  C   UNL     1    -104.503 -24.080 -11.741  1.00  0.00     0.006 C 
BRANCH  16  17
ATOM     17  C   UNL     1    -104.775 -22.576 -11.604  1.00  0.00     0.053 C 
BRANCH  17  18
ATOM     18  C   UNL     1    -103.853 -21.931 -10.616  1.00  0.00     0.041 C 
ATOM     19  O   UNL     1    -103.787 -22.363  -9.434  1.00  0.00    -0.550 OA
ATOM     20  O   UNL     1    -103.039 -20.876 -11.008  1.00  0.00    -0.550 OA
ENDBRANCH  17  18
ENDBRANCH  16  17
ENDBRANCH  15  16
ENDBRANCH  14  15
ENDBRANCH  13  14
ENDBRANCH  12  13
ENDBRANCH  11  12
ENDBRANCH   1  11
TORSDOF 15
ENDMDL
MODEL 6
REMARK VINA RESULT:    -2.872      1.947      6.819
REMARK INTER + INTRA:          -7.862
REMARK INTER:                  -5.777
REMARK INTRA:                  -2.085
REMARK UNBOUND:                -2.472
REMARK SMILES O=C([O-])CCCCCCCCCCCCCCC(=O)[O-]
REMARK SMILES IDX 10 1 9 2 8 3 7 4 6 5 5 6 4 7 2 8 1 9 3 10 11 11 12 12 13 13
REMARK SMILES IDX 14 14 15 15 16 16 17 17 18 18 19 19 20 20
REMARK H PARENT
REMARK Flexibility Score: inf
ROOT
ATOM      1  C   UNL     1    -102.021 -29.433 -12.768  1.00  0.00     0.000 C 
ENDROOT
BRANCH   1   2
ATOM      2  C   UNL     1    -103.103 -28.886 -13.713  1.00  0.00     0.000 C 
BRANCH   2   3
ATOM      3  C   UNL     1    -103.037 -29.580 -15.082  1.00  0.00     0.000 C 
BRANCH   3   4
ATOM      4  C   UNL     1    -102.236 -28.775 -16.117  1.00  0.00     0.000 C 
BRANCH   4   5
ATOM      5  C   UNL     1    -102.272 -27.263 -15.849  1.00  0.00     0.000 C 
BRANCH   5   6
ATOM      6  C   UNL     1    -103.326 -26.574 -16.729  1.00  0.00     0.006 C 
BRANCH   6   7
ATOM      7  C   UNL     1    -103.931 -25.337 -16.051  1.00  0.00     0.053 C 
BRANCH   7   8
ATOM      8  C   UNL     1    -104.708 -25.702 -14.823  1.00  0.00     0.041 C 
ATOM      9  O   UNL     1    -105.706 -26.465 -14.907  1.00  0.00    -0.550 OA
ATOM     10  O   UNL     1    -104.311 -25.223 -13.581  1.00  0.00    -0.550 OA
ENDBRANCH   7   8
ENDBRANCH   6   7
ENDBRANCH   5   6
ENDBRANCH   4   5
ENDBRANCH   3   4
ENDBRANCH   2   3
ENDBRANCH   1   2
BRANCH   1  11
ATOM     11  C   UNL     1    -100.931 -28.396 -12.450  1.00  0.00     0.000 C 
BRANCH  11  12
ATOM     12  C   UNL     1     -99.676 -28.570 -13.323  1.00  0.00     0.000 C 
BRANCH  12  13
ATOM     13  C   UNL     1     -99.505 -30.010 -13.830  1.00  0.00     0.000 C 
BRANCH  13  14
ATOM     14  C   UNL     1     -98.050 -30.498 -13.756  1.00  0.00     0.000 C 
BRANCH  14  15
ATOM     15  C   UNL     1     -97.256 -29.699 -12.715  1.00  0.00     0.000 C 
BRANCH  15  16
ATOM     16  C   UNL     1     -96.906 -30.571 -11.500  1.00  0.00     0.006 C 
BRANCH  16  17
ATOM     17  C   UNL     1     -97.547 -30.050 -10.207  1.00  0.00     0.053 C 
BRANCH  17  18
ATOM     18  C   UNL     1     -98.952 -30.543 -10.045  1.00  0.00     0.041 C 
ATOM     19  O   UNL     1     -99.806 -29.838  -9.445  1.00  0.00    -0.550 OA
ATOM     20  O   UNL     1     -99.329 -31.766 -10.586  1.00  0.00    -0.550 OA
ENDBRANCH  17  18
ENDBRANCH  16  17
ENDBRANCH  15  16
ENDBRANCH  14  15
ENDBRANCH  13  14
ENDBRANCH  12  13
ENDBRANCH  11  12
ENDBRANCH   1  11
TORSDOF 15
ENDMDL
MODEL 7
REMARK VINA RESULT:    -2.866      3.321      5.650
REMARK INTER + INTRA:          -7.852
REMARK INTER:                  -5.711
REMARK INTRA:                  -2.141
REMARK UNBOUND:                -2.472
REMARK SMILES O=C([O-])CCCCCCCCCCCCCCC(=O)[O-]
REMARK SMILES IDX 10 1 9 2 8 3 7 4 6 5 5 6 4 7 2 8 1 9 3 10 11 11 12 12 13 13
REMARK SMILES IDX 14 14 15 15 16 16 17 17 18 18 19 19 20 20
REMARK H PARENT
REMARK Flexibility Score: inf
ROOT
ATOM      1  C   UNL     1    -104.163 -26.318 -15.137  1.00  0.00     0.000 C 
ENDROOT
BRANCH   1   2
ATOM      2  C   UNL     1    -102.896 -26.563 -15.973  1.00  0.00     0.000 C 
BRANCH   2   3
ATOM      3  C   UNL     1    -102.994 -27.889 -16.742  1.00  0.00     0.000 C 
BRANCH   3   4
ATOM      4  C   UNL     1    -101.881 -28.879 -16.361  1.00  0.00     0.000 C 
BRANCH   4   5
ATOM      5  C   UNL     1    -102.427 -30.253 -15.944  1.00  0.00     0.000 C 
BRANCH   5   6
ATOM      6  C   UNL     1    -101.328 -31.324 -16.012  1.00  0.00     0.006 C 
BRANCH   6   7
ATOM      7  C   UNL     1     -99.922 -30.710 -16.070  1.00  0.00     0.053 C 
BRANCH   7   8
ATOM      8  C   UNL     1     -98.855 -31.752 -15.922  1.00  0.00     0.041 C 
ATOM      9  O   UNL     1     -97.770 -31.471 -15.349  1.00  0.00    -0.550 OA
ATOM     10  O   UNL     1     -99.073 -33.041 -16.389  1.00  0.00    -0.550 OA
ENDBRANCH   7   8
ENDBRANCH   6   7
ENDBRANCH   5   6
ENDBRANCH   4   5
ENDBRANCH   3   4
ENDBRANCH   2   3
ENDBRANCH   1   2
BRANCH   1  11
ATOM     11  C   UNL     1    -103.899 -26.392 -13.624  1.00  0.00     0.000 C 
BRANCH  11  12
ATOM     12  C   UNL     1    -104.166 -27.792 -13.044  1.00  0.00     0.000 C 
BRANCH  12  13
ATOM     13  C   UNL     1    -102.870 -28.553 -12.722  1.00  0.00     0.000 C 
BRANCH  13  14
ATOM     14  C   UNL     1    -101.686 -27.618 -12.434  1.00  0.00     0.000 C 
BRANCH  14  15
ATOM     15  C   UNL     1    -100.494 -27.947 -13.340  1.00  0.00     0.000 C 
BRANCH  15  16
ATOM     16  C   UNL     1     -99.766 -29.210 -12.856  1.00  0.00     0.006 C 
BRANCH  16  17
ATOM     17  C   UNL     1     -98.245 -29.105 -13.026  1.00  0.00     0.053 C 
BRANCH  17  18
ATOM     18  C   UNL     1     -97.512 -29.867 -11.966  1.00  0.00     0.041 C 
ATOM     19  O   UNL     1     -98.150 -30.482 -11.071  1.00  0.00    -0.550 OA
ATOM     20  O   UNL     1     -96.124 -29.930 -11.986  1.00  0.00    -0.550 OA
ENDBRANCH  17  18
ENDBRANCH  16  17
ENDBRANCH  15  16
ENDBRANCH  14  15
ENDBRANCH  13  14
ENDBRANCH  12  13
ENDBRANCH  11  12
ENDBRANCH   1  11
TORSDOF 15
ENDMDL
MODEL 8
REMARK VINA RESULT:    -2.850      3.179      5.423
REMARK INTER + INTRA:          -7.822
REMARK INTER:                  -5.686
REMARK INTRA:                  -2.136
REMARK UNBOUND:                -2.472
REMARK SMILES O=C([O-])CCCCCCCCCCCCCCC(=O)[O-]
REMARK SMILES IDX 10 1 9 2 8 3 7 4 6 5 5 6 4 7 2 8 1 9 3 10 11 11 12 12 13 13
REMARK SMILES IDX 14 14 15 15 16 16 17 17 18 18 19 19 20 20
REMARK H PARENT
REMARK Flexibility Score: inf
ROOT
ATOM      1  C   UNL     1     -99.606 -30.867 -14.454  1.00  0.00     0.000 C 
ENDROOT
BRANCH   1   2
ATOM      2  C   UNL     1    -100.383 -30.228 -15.617  1.00  0.00     0.000 C 
BRANCH   2   3
ATOM      3  C   UNL     1    -101.889 -30.497 -15.483  1.00  0.00     0.000 C 
BRANCH   3   4
ATOM      4  C   UNL     1    -102.747 -29.330 -15.997  1.00  0.00     0.000 C 
BRANCH   4   5
ATOM      5  C   UNL     1    -101.962 -28.014 -16.093  1.00  0.00     0.000 C 
BRANCH   5   6
ATOM      6  C   UNL     1    -102.865 -26.869 -16.574  1.00  0.00     0.006 C 
BRANCH   6   7
ATOM      7  C   UNL     1    -103.411 -26.031 -15.410  1.00  0.00     0.053 C 
BRANCH   7   8
ATOM      8  C   UNL     1    -104.464 -25.067 -15.866  1.00  0.00     0.041 C 
ATOM      9  O   UNL     1    -104.439 -23.870 -15.476  1.00  0.00    -0.550 OA
ATOM     10  O   UNL     1    -105.453 -25.483 -16.746  1.00  0.00    -0.550 OA
ENDBRANCH   7   8
ENDBRANCH   6   7
ENDBRANCH   5   6
ENDBRANCH   4   5
ENDBRANCH   3   4
ENDBRANCH   2   3
ENDBRANCH   1   2
BRANCH   1  11
ATOM     11  C   UNL     1     -98.693 -29.865 -13.729  1.00  0.00     0.000 C 
BRANCH  11  12
ATOM     12  C   UNL     1     -99.416 -28.554 -13.376  1.00  0.00     0.000 C 
BRANCH  12  13
ATOM     13  C   UNL     1    -100.517 -28.752 -12.323  1.00  0.00     0.000 C 
BRANCH  13  14
ATOM     14  C   UNL     1    -101.606 -27.671 -12.391  1.00  0.00     0.000 C 
BRANCH  14  15
ATOM     15  C   UNL     1    -103.005 -28.299 -12.374  1.00  0.00     0.000 C 
BRANCH  15  16
ATOM     16  C   UNL     1    -104.073 -27.257 -12.005  1.00  0.00     0.006 C 
BRANCH  16  17
ATOM     17  C   UNL     1    -103.582 -26.278 -10.931  1.00  0.00     0.053 C 
BRANCH  17  18
ATOM     18  C   UNL     1    -104.239 -24.938 -11.057  1.00  0.00     0.041 C 
ATOM     19  O   UNL     1    -104.451 -24.440 -12.193  1.00  0.00    -0.550 OA
ATOM     20  O   UNL     1    -104.651 -24.255  -9.919  1.00  0.00    -0.550 OA
ENDBRANCH  17  18
ENDBRANCH  16  17
ENDBRANCH  15  16
ENDBRANCH  14  15
ENDBRANCH  13  14
ENDBRANCH  12  13
ENDBRANCH  11  12
ENDBRANCH   1  11
TORSDOF 15
ENDMDL
MODEL 9
REMARK VINA RESULT:    -2.842      2.460      5.846
REMARK INTER + INTRA:          -7.806
REMARK INTER:                  -5.253
REMARK INTRA:                  -2.554
REMARK UNBOUND:                -2.472
REMARK SMILES O=C([O-])CCCCCCCCCCCCCCC(=O)[O-]
REMARK SMILES IDX 10 1 9 2 8 3 7 4 6 5 5 6 4 7 2 8 1 9 3 10 11 11 12 12 13 13
REMARK SMILES IDX 14 14 15 15 16 16 17 17 18 18 19 19 20 20
REMARK H PARENT
REMARK Flexibility Score: inf
ROOT
ATOM      1  C   UNL     1    -104.501 -26.861 -13.963  1.00  0.00     0.000 C 
ENDROOT
BRANCH   1   2
ATOM      2  C   UNL     1    -103.520 -25.943 -14.710  1.00  0.00     0.000 C 
BRANCH   2   3
ATOM      3  C   UNL     1    -103.669 -26.104 -16.231  1.00  0.00     0.000 C 
BRANCH   3   4
ATOM      4  C   UNL     1    -103.351 -27.529 -16.710  1.00  0.00     0.000 C 
BRANCH   4   5
ATOM      5  C   UNL     1    -101.905 -27.948 -16.408  1.00  0.00     0.000 C 
BRANCH   5   6
ATOM      6  C   UNL     1    -101.788 -29.474 -16.290  1.00  0.00     0.006 C 
BRANCH   6   7
ATOM      7  C   UNL     1    -103.158 -30.166 -16.327  1.00  0.00     0.053 C 
BRANCH   7   8
ATOM      8  C   UNL     1    -103.188 -31.385 -15.456  1.00  0.00     0.041 C 
ATOM      9  O   UNL     1    -104.268 -32.005 -15.270  1.00  0.00    -0.550 OA
ATOM     10  O   UNL     1    -102.018 -31.852 -14.874  1.00  0.00    -0.550 OA
ENDBRANCH   7   8
ENDBRANCH   6   7
ENDBRANCH   5   6
ENDBRANCH   4   5
ENDBRANCH   3   4
ENDBRANCH   2   3
ENDBRANCH   1   2
BRANCH   1  11
ATOM     11  C   UNL     1    -103.896 -27.458 -12.682  1.00  0.00     0.000 C 
BRANCH  11  12
ATOM     12  C   UNL     1    -103.530 -28.944 -12.837  1.00  0.00     0.000 C 
BRANCH  12  13
ATOM     13  C   UNL     1    -102.058 -29.227 -12.496  1.00  0.00     0.000 C 
BRANCH  13  14
ATOM     14  C   UNL     1    -101.244 -27.945 -12.266  1.00  0.00     0.000 C 
BRANCH  14  15
ATOM     15  C   UNL     1    -100.092 -27.839 -13.273  1.00  0.00     0.000 C 
BRANCH  15  16
ATOM     16  C   UNL     1     -99.443 -29.211 -13.515  1.00  0.00     0.006 C 
BRANCH  16  17
ATOM     17  C   UNL     1     -98.155 -29.395 -12.703  1.00  0.00     0.053 C 
BRANCH  17  18
ATOM     18  C   UNL     1     -98.351 -30.332 -11.552  1.00  0.00     0.041 C 
ATOM     19  O   UNL     1     -98.060 -31.551 -11.670  1.00  0.00    -0.550 OA
ATOM     20  O   UNL     1     -98.821 -29.853 -10.336  1.00  0.00    -0.550 OA
ENDBRANCH  17  18
ENDBRANCH  16  17
ENDBRANCH  15  16
ENDBRANCH  14  15
ENDBRANCH  13  14
ENDBRANCH  12  13
ENDBRANCH  11  12
ENDBRANCH   1  11
TORSDOF 15
ENDMDL
