MODEL 1
REMARK VINA RESULT:    -2.323      0.000      0.000
REMARK INTER + INTRA:          -3.159
REMARK INTER:                  -2.867
REMARK INTRA:                  -0.293
REMARK UNBOUND:                -0.293
REMARK SMILES CCCCCC(C)=O
REMARK SMILES IDX 4 1 3 2 2 3 1 4 5 5 6 6 8 7 7 8
REMARK H PARENT
REMARK Flexibility Score: inf
ROOT
ATOM      1  C   UNL     1     124.202 121.273 117.969  1.00  0.00     0.008 C 
ENDROOT
BRANCH   1   2
ATOM      2  C   UNL     1     124.955 120.907 119.255  1.00  0.00     0.000 C 
BRANCH   2   3
ATOM      3  C   UNL     1     125.796 122.088 119.754  1.00  0.00    -0.003 C 
ATOM      4  C   UNL     1     127.124 122.173 119.007  1.00  0.00     0.004 C 
ENDBRANCH   2   3
ENDBRANCH   1   2
BRANCH   1   5
ATOM      5  C   UNL     1     124.408 120.229 116.862  1.00  0.00     0.075 C 
BRANCH   5   6
ATOM      6  C   UNL     1     124.874 120.860 115.575  1.00  0.00     0.129 C 
ATOM      7  O   UNL     1     124.674 120.286 114.515  1.00  0.00    -0.300 OA
ATOM      8  C   UNL     1     125.588 122.179 115.567  1.00  0.00     0.087 C 
ENDBRANCH   5   6
ENDBRANCH   1   5
TORSDOF 4
ENDMDL
MODEL 2
REMARK VINA RESULT:    -2.278     13.089     13.891
REMARK INTER + INTRA:          -3.104
REMARK INTER:                  -2.874
REMARK INTRA:                  -0.230
REMARK UNBOUND:                -0.293
REMARK SMILES CCCCCC(C)=O
REMARK SMILES IDX 4 1 3 2 2 3 1 4 5 5 6 6 8 7 7 8
REMARK H PARENT
REMARK Flexibility Score: inf
ROOT
ATOM      1  C   UNL     1     111.818 124.760 117.741  1.00  0.00     0.008 C 
ENDROOT
BRANCH   1   2
ATOM      2  C   UNL     1     112.446 124.950 119.129  1.00  0.00     0.000 C 
BRANCH   2   3
ATOM      3  C   UNL     1     111.767 126.095 119.888  1.00  0.00    -0.003 C 
ATOM      4  C   UNL     1     111.105 127.078 118.926  1.00  0.00     0.004 C 
ENDBRANCH   2   3
ENDBRANCH   1   2
BRANCH   1   5
ATOM      5  C   UNL     1     112.879 124.671 116.634  1.00  0.00     0.075 C 
BRANCH   5   6
ATOM      6  C   UNL     1     112.315 125.039 115.286  1.00  0.00     0.129 C 
ATOM      7  O   UNL     1     112.964 124.806 114.277  1.00  0.00    -0.300 OA
ATOM      8  C   UNL     1     110.973 125.696 115.155  1.00  0.00     0.087 C 
ENDBRANCH   5   6
ENDBRANCH   1   5
TORSDOF 4
ENDMDL
MODEL 3
REMARK VINA RESULT:    -2.276      1.813      3.063
REMARK INTER + INTRA:          -3.101
REMARK INTER:                  -2.771
REMARK INTRA:                  -0.330
REMARK UNBOUND:                -0.293
REMARK SMILES CCCCCC(C)=O
REMARK SMILES IDX 4 1 3 2 2 3 1 4 5 5 6 6 8 7 7 8
REMARK H PARENT
REMARK Flexibility Score: inf
ROOT
ATOM      1  C   UNL     1     124.191 120.474 117.785  1.00  0.00     0.008 C 
ENDROOT
BRANCH   1   2
ATOM      2  C   UNL     1     123.088 121.157 118.605  1.00  0.00     0.000 C 
BRANCH   2   3
ATOM      3  C   UNL     1     122.117 121.917 117.694  1.00  0.00    -0.003 C 
ATOM      4  C   UNL     1     121.480 120.985 116.668  1.00  0.00     0.004 C 
ENDBRANCH   2   3
ENDBRANCH   1   2
BRANCH   1   5
ATOM      5  C   UNL     1     125.229 121.479 117.264  1.00  0.00     0.075 C 
BRANCH   5   6
ATOM      6  C   UNL     1     125.247 121.535 115.757  1.00  0.00     0.129 C 
ATOM      7  O   UNL     1     125.687 122.527 115.197  1.00  0.00    -0.300 OA
ATOM      8  C   UNL     1     124.727 120.398 114.928  1.00  0.00     0.087 C 
ENDBRANCH   5   6
ENDBRANCH   1   5
TORSDOF 4
ENDMDL
MODEL 4
REMARK VINA RESULT:    -2.267     17.092     18.472
REMARK INTER + INTRA:          -3.089
REMARK INTER:                  -2.723
REMARK INTRA:                  -0.367
REMARK UNBOUND:                -0.293
REMARK SMILES CCCCCC(C)=O
REMARK SMILES IDX 4 1 3 2 2 3 1 4 5 5 6 6 8 7 7 8
REMARK H PARENT
REMARK Flexibility Score: inf
ROOT
ATOM      1  C   UNL     1     108.843 112.916 117.186  1.00  0.00     0.008 C 
ENDROOT
BRANCH   1   2
ATOM      2  C   UNL     1     107.923 111.727 116.874  1.00  0.00     0.000 C 
BRANCH   2   3
ATOM      3  C   UNL     1     107.738 111.557 115.362  1.00  0.00    -0.003 C 
ATOM      4  C   UNL     1     108.315 112.746 114.599  1.00  0.00     0.004 C 
ENDBRANCH   2   3
ENDBRANCH   1   2
BRANCH   1   5
ATOM      5  C   UNL     1     110.124 112.479 117.911  1.00  0.00     0.075 C 
BRANCH   5   6
ATOM      6  C   UNL     1     111.062 111.734 116.996  1.00  0.00     0.129 C 
ATOM      7  O   UNL     1     111.562 112.314 116.044  1.00  0.00    -0.300 OA
ATOM      8  C   UNL     1     111.389 110.288 117.224  1.00  0.00     0.087 C 
ENDBRANCH   5   6
ENDBRANCH   1   5
TORSDOF 4
ENDMDL
MODEL 5
REMARK VINA RESULT:    -2.257     12.854     13.816
REMARK INTER + INTRA:          -3.078
REMARK INTER:                  -2.711
REMARK INTRA:                  -0.366
REMARK UNBOUND:                -0.293
REMARK SMILES CCCCCC(C)=O
REMARK SMILES IDX 4 1 3 2 2 3 1 4 5 5 6 6 8 7 7 8
REMARK H PARENT
REMARK Flexibility Score: inf
ROOT
ATOM      1  C   UNL     1     112.927 124.517 117.215  1.00  0.00     0.008 C 
ENDROOT
BRANCH   1   2
ATOM      2  C   UNL     1     111.765 125.443 116.832  1.00  0.00     0.000 C 
BRANCH   2   3
ATOM      3  C   UNL     1     111.596 125.511 115.310  1.00  0.00    -0.003 C 
ATOM      4  C   UNL     1     112.798 124.902 114.594  1.00  0.00     0.004 C 
ENDBRANCH   2   3
ENDBRANCH   1   2
BRANCH   1   5
ATOM      5  C   UNL     1     112.450 123.286 117.999  1.00  0.00     0.075 C 
BRANCH   5   6
ATOM      6  C   UNL     1     111.752 122.289 117.108  1.00  0.00     0.129 C 
ATOM      7  O   UNL     1     112.383 121.721 116.230  1.00  0.00    -0.300 OA
ATOM      8  C   UNL     1     110.293 121.985 117.272  1.00  0.00     0.087 C 
ENDBRANCH   5   6
ENDBRANCH   1   5
TORSDOF 4
ENDMDL
MODEL 6
REMARK VINA RESULT:    -2.240     17.539     18.655
REMARK INTER + INTRA:          -3.057
REMARK INTER:                  -2.734
REMARK INTRA:                  -0.323
REMARK UNBOUND:                -0.293
REMARK SMILES CCCCCC(C)=O
REMARK SMILES IDX 4 1 3 2 2 3 1 4 5 5 6 6 8 7 7 8
REMARK H PARENT
REMARK Flexibility Score: inf
ROOT
ATOM      1  C   UNL     1     108.669 112.623 117.627  1.00  0.00     0.008 C 
ENDROOT
BRANCH   1   2
ATOM      2  C   UNL     1     109.969 112.007 118.162  1.00  0.00     0.000 C 
BRANCH   2   3
ATOM      3  C   UNL     1     111.193 112.772 117.645  1.00  0.00    -0.003 C 
ATOM      4  C   UNL     1     111.691 112.189 116.326  1.00  0.00     0.004 C 
ENDBRANCH   2   3
ENDBRANCH   1   2
BRANCH   1   5
ATOM      5  C   UNL     1     107.733 111.564 117.026  1.00  0.00     0.075 C 
BRANCH   5   6
ATOM      6  C   UNL     1     107.777 111.566 115.519  1.00  0.00     0.129 C 
ATOM      7  O   UNL     1     107.373 110.592 114.903  1.00  0.00    -0.300 OA
ATOM      8  C   UNL     1     108.317 112.740 114.756  1.00  0.00     0.087 C 
ENDBRANCH   5   6
ENDBRANCH   1   5
TORSDOF 4
ENDMDL
MODEL 7
REMARK VINA RESULT:    -2.185     10.338     12.066
REMARK INTER + INTRA:          -2.989
REMARK INTER:                  -2.809
REMARK INTRA:                  -0.179
REMARK UNBOUND:                -0.293
REMARK SMILES CCCCCC(C)=O
REMARK SMILES IDX 4 1 3 2 2 3 1 4 5 5 6 6 8 7 7 8
REMARK H PARENT
REMARK Flexibility Score: inf
ROOT
ATOM      1  C   UNL     1     116.368 114.696 113.223  1.00  0.00     0.008 C 
ENDROOT
BRANCH   1   2
ATOM      2  C   UNL     1     116.127 114.001 111.876  1.00  0.00     0.000 C 
BRANCH   2   3
ATOM      3  C   UNL     1     114.816 113.206 111.895  1.00  0.00    -0.003 C 
ATOM      4  C   UNL     1     113.984 113.545 113.128  1.00  0.00     0.004 C 
ENDBRANCH   2   3
ENDBRANCH   1   2
BRANCH   1   5
ATOM      5  C   UNL     1     117.685 114.249 113.875  1.00  0.00     0.075 C 
BRANCH   5   6
ATOM      6  C   UNL     1     118.853 115.078 113.407  1.00  0.00     0.129 C 
ATOM      7  O   UNL     1     118.942 116.245 113.755  1.00  0.00    -0.300 OA
ATOM      8  C   UNL     1     119.910 114.501 112.512  1.00  0.00     0.087 C 
ENDBRANCH   5   6
ENDBRANCH   1   5
TORSDOF 4
ENDMDL
MODEL 8
REMARK VINA RESULT:    -2.177      8.455      9.515
REMARK INTER + INTRA:          -2.979
REMARK INTER:                  -2.817
REMARK INTRA:                  -0.163
REMARK UNBOUND:                -0.293
REMARK SMILES CCCCCC(C)=O
REMARK SMILES IDX 4 1 3 2 2 3 1 4 5 5 6 6 8 7 7 8
REMARK H PARENT
REMARK Flexibility Score: inf
ROOT
ATOM      1  C   UNL     1     118.446 116.716 113.125  1.00  0.00     0.008 C 
ENDROOT
BRANCH   1   2
ATOM      2  C   UNL     1     119.302 116.284 111.927  1.00  0.00     0.000 C 
BRANCH   2   3
ATOM      3  C   UNL     1     119.454 114.760 111.880  1.00  0.00    -0.003 C 
ATOM      4  C   UNL     1     119.797 114.198 113.257  1.00  0.00     0.004 C 
ENDBRANCH   2   3
ENDBRANCH   1   2
BRANCH   1   5
ATOM      5  C   UNL     1     118.849 118.100 113.655  1.00  0.00     0.075 C 
BRANCH   5   6
ATOM      6  C   UNL     1     117.954 119.188 113.120  1.00  0.00     0.129 C 
ATOM      7  O   UNL     1     116.806 119.278 113.528  1.00  0.00    -0.300 OA
ATOM      8  C   UNL     1     118.441 120.162 112.088  1.00  0.00     0.087 C 
ENDBRANCH   5   6
ENDBRANCH   1   5
TORSDOF 4
ENDMDL
MODEL 9
REMARK VINA RESULT:    -2.167     13.179     13.690
REMARK INTER + INTRA:          -2.966
REMARK INTER:                  -2.619
REMARK INTRA:                  -0.347
REMARK UNBOUND:                -0.293
REMARK SMILES CCCCCC(C)=O
REMARK SMILES IDX 4 1 3 2 2 3 1 4 5 5 6 6 8 7 7 8
REMARK H PARENT
REMARK Flexibility Score: inf
ROOT
ATOM      1  C   UNL     1     111.543 124.026 117.841  1.00  0.00     0.008 C 
ENDROOT
BRANCH   1   2
ATOM      2  C   UNL     1     111.199 122.671 117.208  1.00  0.00     0.000 C 
BRANCH   2   3
ATOM      3  C   UNL     1     112.424 121.749 117.184  1.00  0.00    -0.003 C 
ATOM      4  C   UNL     1     112.466 120.922 115.903  1.00  0.00     0.004 C 
ENDBRANCH   2   3
ENDBRANCH   1   2
BRANCH   1   5
ATOM      5  C   UNL     1     112.657 124.755 117.076  1.00  0.00     0.075 C 
BRANCH   5   6
ATOM      6  C   UNL     1     112.189 125.236 115.726  1.00  0.00     0.129 C 
ATOM      7  O   UNL     1     111.252 126.016 115.656  1.00  0.00    -0.300 OA
ATOM      8  C   UNL     1     112.846 124.768 114.461  1.00  0.00     0.087 C 
ENDBRANCH   5   6
ENDBRANCH   1   5
TORSDOF 4
ENDMDL
