MODEL 1
REMARK VINA RESULT:    26.124      0.000      0.000
REMARK INTER + INTRA:          30.558
REMARK INTER:                  30.705
REMARK INTRA:                  -0.148
REMARK UNBOUND:                -0.148
REMARK SMILES O=c1c(O)c(-c2ccc(O)c(O)c2)oc2cc(O)ccc12
REMARK SMILES IDX 5 1 3 2 2 3 1 4 21 5 15 6 14 7 16 8 17 9 19 10 20 11 6 12
REMARK SMILES IDX 7 13 8 14 9 15 13 16 11 17 10 18 12 20 4 22 18 24
REMARK H PARENT 10 19 12 21 4 23 18 25
REMARK Flexibility Score: inf
ROOT
ATOM      1  C   UNL     1      20.305 -12.607 -16.465  1.00  0.00     0.180 A 
ATOM      2  C   UNL     1      20.267 -13.008 -17.817  1.00  0.00     0.208 A 
ATOM      3  C   UNL     1      21.319 -12.632 -18.665  1.00  0.00     0.235 A 
ATOM      4  O   UNL     1      21.302 -12.970 -19.881  1.00  0.00    -0.285 OA
ATOM      5  C   UNL     1      22.390 -11.887 -18.147  1.00  0.00     0.069 A 
ATOM      6  C   UNL     1      22.366 -11.544 -16.778  1.00  0.00     0.142 A 
ATOM      7  O   UNL     1      21.346 -11.912 -16.011  1.00  0.00    -0.452 OA
ATOM      8  C   UNL     1      23.420 -10.810 -16.222  1.00  0.00     0.094 A 
ATOM      9  C   UNL     1      24.500 -10.410 -17.020  1.00  0.00     0.119 A 
ATOM     10  C   UNL     1      24.525 -10.748 -18.377  1.00  0.00     0.047 A 
ATOM     11  C   UNL     1      23.478 -11.482 -18.942  1.00  0.00     0.020 A 
ENDROOT
BRANCH   1  12
ATOM     12  C   UNL     1      19.224 -12.948 -15.513  1.00  0.00     0.025 A 
ATOM     13  C   UNL     1      18.446 -11.950 -14.900  1.00  0.00     0.016 A 
ATOM     14  C   UNL     1      17.447 -12.296 -13.985  1.00  0.00     0.051 A 
ATOM     15  C   UNL     1      17.219 -13.639 -13.662  1.00  0.00     0.157 A 
ATOM     16  C   UNL     1      19.006 -14.292 -15.169  1.00  0.00     0.062 A 
ATOM     17  C   UNL     1      18.002 -14.640 -14.253  1.00  0.00     0.158 A 
BRANCH  15  18
ATOM     18  O   UNL     1      16.223 -13.988 -12.753  1.00  0.00    -0.504 OA
ATOM     19  H   UNL     1      15.300 -14.271 -13.062  1.00  0.00     0.293 HD
ENDBRANCH  15  18
BRANCH  17  20
ATOM     20  O   UNL     1      17.779 -15.975 -13.924  1.00  0.00    -0.504 OA
ATOM     21  H   UNL     1      18.386 -16.472 -13.282  1.00  0.00     0.293 HD
ENDBRANCH  17  20
ENDBRANCH   1  12
BRANCH   2  22
ATOM     22  O   UNL     1      19.212 -13.792 -18.292  1.00  0.00    -0.502 OA
ATOM     23  H   UNL     1      18.846 -13.695 -19.232  1.00  0.00     0.293 HD
ENDBRANCH   2  22
BRANCH   9  24
ATOM     24  O   UNL     1      25.552  -9.679 -16.475  1.00  0.00    -0.508 OA
ATOM     25  H   UNL     1      26.248  -9.233 -17.061  1.00  0.00     0.293 HD
ENDBRANCH   9  24
TORSDOF 5
ENDMDL
MODEL 2
REMARK VINA RESULT:    27.796      4.479      7.338
REMARK INTER + INTRA:          32.523
REMARK INTER:                  32.765
REMARK INTRA:                  -0.242
REMARK UNBOUND:                -0.148
REMARK SMILES O=c1c(O)c(-c2ccc(O)c(O)c2)oc2cc(O)ccc12
REMARK SMILES IDX 5 1 3 2 2 3 1 4 21 5 15 6 14 7 16 8 17 9 19 10 20 11 6 12
REMARK SMILES IDX 7 13 8 14 9 15 13 16 11 17 10 18 12 20 4 22 18 24
REMARK H PARENT 10 19 12 21 4 23 18 25
REMARK Flexibility Score: inf
ROOT
ATOM      1  C   UNL     1      22.457  -8.488 -18.307  1.00  0.00     0.180 A 
ATOM      2  C   UNL     1      23.466  -8.749 -17.356  1.00  0.00     0.208 A 
ATOM      3  C   UNL     1      23.859 -10.077 -17.134  1.00  0.00     0.235 A 
ATOM      4  O   UNL     1      24.752 -10.337 -16.282  1.00  0.00    -0.285 OA
ATOM      5  C   UNL     1      23.257 -11.108 -17.873  1.00  0.00     0.069 A 
ATOM      6  C   UNL     1      22.271 -10.762 -18.823  1.00  0.00     0.142 A 
ATOM      7  O   UNL     1      21.921  -9.493 -18.997  1.00  0.00    -0.452 OA
ATOM      8  C   UNL     1      21.655 -11.760 -19.586  1.00  0.00     0.094 A 
ATOM      9  C   UNL     1      22.011 -13.104 -19.411  1.00  0.00     0.119 A 
ATOM     10  C   UNL     1      22.986 -13.449 -18.470  1.00  0.00     0.047 A 
ATOM     11  C   UNL     1      23.608 -12.459 -17.703  1.00  0.00     0.020 A 
ENDROOT
BRANCH   1  12
ATOM     12  C   UNL     1      21.974  -7.116 -18.584  1.00  0.00     0.025 A 
ATOM     13  C   UNL     1      22.758  -6.193 -19.298  1.00  0.00     0.016 A 
ATOM     14  C   UNL     1      22.290  -4.895 -19.525  1.00  0.00     0.051 A 
ATOM     15  C   UNL     1      21.041  -4.498 -19.033  1.00  0.00     0.157 A 
ATOM     16  C   UNL     1      20.731  -6.706 -18.074  1.00  0.00     0.062 A 
ATOM     17  C   UNL     1      20.260  -5.404 -18.303  1.00  0.00     0.158 A 
BRANCH  15  18
ATOM     18  O   UNL     1      20.570  -3.207 -19.259  1.00  0.00    -0.504 OA
ATOM     19  H   UNL     1      19.766  -2.841 -18.762  1.00  0.00     0.293 HD
ENDBRANCH  15  18
BRANCH  17  20
ATOM     20  O   UNL     1      19.020  -5.005 -17.808  1.00  0.00    -0.504 OA
ATOM     21  H   UNL     1      18.522  -5.557 -17.119  1.00  0.00     0.293 HD
ENDBRANCH  17  20
ENDBRANCH   1  12
BRANCH   2  22
ATOM     22  O   UNL     1      24.081  -7.698 -16.671  1.00  0.00    -0.502 OA
ATOM     23  H   UNL     1      24.766  -7.855 -15.941  1.00  0.00     0.293 HD
ENDBRANCH   2  22
BRANCH   9  24
ATOM     24  O   UNL     1      21.402 -14.103 -20.166  1.00  0.00    -0.508 OA
ATOM     25  H   UNL     1      21.741 -15.058 -20.154  1.00  0.00     0.293 HD
ENDBRANCH   9  24
TORSDOF 5
ENDMDL
