MODEL 1
REMARK VINA RESULT:    -3.055      0.000      0.000
REMARK INTER + INTRA:          -8.045
REMARK INTER:                  -5.555
REMARK INTRA:                  -2.490
REMARK UNBOUND:                -2.490
REMARK SMILES CCCCCCCCCCCCCCCC(=O)[O-]
REMARK SMILES IDX 9 1 10 2 11 3 12 4 13 5 14 6 15 7 16 8 17 9 18 10 8 11 7 12
REMARK SMILES IDX 6 13 5 14 4 15 3 16 2 17 1 18
REMARK H PARENT
REMARK Flexibility Score: inf
ROOT
ATOM      1  C   UNL     1      -0.590   7.984  36.359  1.00  0.00     0.000 C 
ENDROOT
BRANCH   1   2
ATOM      2  C   UNL     1      -1.786   8.842  36.805  1.00  0.00     0.000 C 
BRANCH   2   3
ATOM      3  C   UNL     1      -1.873   8.990  38.334  1.00  0.00     0.000 C 
BRANCH   3   4
ATOM      4  C   UNL     1      -0.490   9.121  38.992  1.00  0.00     0.000 C 
BRANCH   4   5
ATOM      5  C   UNL     1      -0.474   8.600  40.440  1.00  0.00     0.000 C 
BRANCH   5   6
ATOM      6  C   UNL     1       0.585   7.508  40.662  1.00  0.00     0.006 C 
BRANCH   6   7
ATOM      7  C   UNL     1       1.366   7.170  39.385  1.00  0.00     0.053 C 
BRANCH   7   8
ATOM      8  C   UNL     1       2.173   5.926  39.581  1.00  0.00     0.041 C 
ATOM      9  O   UNL     1       1.603   4.839  39.863  1.00  0.00    -0.550 OA
ATOM     10  O   UNL     1       3.559   5.974  39.496  1.00  0.00    -0.550 OA
ENDBRANCH   7   8
ENDBRANCH   6   7
ENDBRANCH   5   6
ENDBRANCH   4   5
ENDBRANCH   3   4
ENDBRANCH   2   3
ENDBRANCH   1   2
BRANCH   1  11
ATOM     11  C   UNL     1      -1.015   6.615  35.802  1.00  0.00     0.000 C 
BRANCH  11  12
ATOM     12  C   UNL     1      -0.565   5.449  36.697  1.00  0.00    -0.000 C 
BRANCH  12  13
ATOM     13  C   UNL     1      -1.738   4.577  37.172  1.00  0.00    -0.000 C 
BRANCH  13  14
ATOM     14  C   UNL     1      -2.516   5.274  38.298  1.00  0.00    -0.000 C 
BRANCH  14  15
ATOM     15  C   UNL     1      -1.843   5.119  39.673  1.00  0.00    -0.000 C 
BRANCH  15  16
ATOM     16  C   UNL     1      -2.772   5.358  40.878  1.00  0.00    -0.000 C 
BRANCH  16  17
ATOM     17  C   UNL     1      -4.025   6.194  40.542  1.00  0.00    -0.003 C 
ATOM     18  C   UNL     1      -3.929   7.628  41.064  1.00  0.00     0.004 C 
ENDBRANCH  16  17
ENDBRANCH  15  16
ENDBRANCH  14  15
ENDBRANCH  13  14
ENDBRANCH  12  13
ENDBRANCH  11  12
ENDBRANCH   1  11
TORSDOF 14
ENDMDL
MODEL 2
REMARK VINA RESULT:    -3.023      2.689      5.400
REMARK INTER + INTRA:          -7.987
REMARK INTER:                  -5.751
REMARK INTRA:                  -2.236
REMARK UNBOUND:                -2.490
REMARK SMILES CCCCCCCCCCCCCCCC(=O)[O-]
REMARK SMILES IDX 9 1 10 2 11 3 12 4 13 5 14 6 15 7 16 8 17 9 18 10 8 11 7 12
REMARK SMILES IDX 6 13 5 14 4 15 3 16 2 17 1 18
REMARK H PARENT
REMARK Flexibility Score: inf
ROOT
ATOM      1  C   UNL     1      -4.242   7.042  40.807  1.00  0.00     0.000 C 
ENDROOT
BRANCH   1   2
ATOM      2  C   UNL     1      -3.877   5.584  40.483  1.00  0.00     0.000 C 
BRANCH   2   3
ATOM      3  C   UNL     1      -3.188   5.434  39.116  1.00  0.00     0.000 C 
BRANCH   3   4
ATOM      4  C   UNL     1      -1.725   4.978  39.242  1.00  0.00     0.000 C 
BRANCH   4   5
ATOM      5  C   UNL     1      -0.996   4.952  37.887  1.00  0.00     0.000 C 
BRANCH   5   6
ATOM      6  C   UNL     1      -1.952   4.706  36.708  1.00  0.00     0.006 C 
BRANCH   6   7
ATOM      7  C   UNL     1      -1.767   5.720  35.572  1.00  0.00     0.053 C 
BRANCH   7   8
ATOM      8  C   UNL     1      -1.155   5.061  34.377  1.00  0.00     0.041 C 
ATOM      9  O   UNL     1      -0.595   5.754  33.488  1.00  0.00    -0.550 OA
ATOM     10  O   UNL     1      -1.243   3.683  34.221  1.00  0.00    -0.550 OA
ENDBRANCH   7   8
ENDBRANCH   6   7
ENDBRANCH   5   6
ENDBRANCH   4   5
ENDBRANCH   3   4
ENDBRANCH   2   3
ENDBRANCH   1   2
BRANCH   1  11
ATOM     11  C   UNL     1      -3.448   7.603  41.999  1.00  0.00     0.000 C 
BRANCH  11  12
ATOM     12  C   UNL     1      -2.461   6.580  42.582  1.00  0.00    -0.000 C 
BRANCH  12  13
ATOM     13  C   UNL     1      -1.003   6.873  42.195  1.00  0.00    -0.000 C 
BRANCH  13  14
ATOM     14  C   UNL     1      -0.735   8.386  42.183  1.00  0.00    -0.000 C 
BRANCH  14  15
ATOM     15  C   UNL     1      -0.083   8.866  40.876  1.00  0.00    -0.000 C 
BRANCH  15  16
ATOM     16  C   UNL     1      -0.695   8.274  39.591  1.00  0.00    -0.000 C 
BRANCH  16  17
ATOM     17  C   UNL     1      -1.836   9.125  38.996  1.00  0.00    -0.003 C 
ATOM     18  C   UNL     1      -1.999   8.912  37.491  1.00  0.00     0.004 C 
ENDBRANCH  16  17
ENDBRANCH  15  16
ENDBRANCH  14  15
ENDBRANCH  13  14
ENDBRANCH  12  13
ENDBRANCH  11  12
ENDBRANCH   1  11
TORSDOF 14
ENDMDL
MODEL 3
REMARK VINA RESULT:    -3.008      9.806     12.574
REMARK INTER + INTRA:          -7.960
REMARK INTER:                  -5.650
REMARK INTRA:                  -2.309
REMARK UNBOUND:                -2.490
REMARK SMILES CCCCCCCCCCCCCCCC(=O)[O-]
REMARK SMILES IDX 9 1 10 2 11 3 12 4 13 5 14 6 15 7 16 8 17 9 18 10 8 11 7 12
REMARK SMILES IDX 6 13 5 14 4 15 3 16 2 17 1 18
REMARK H PARENT
REMARK Flexibility Score: inf
ROOT
ATOM      1  C   UNL     1       1.563   8.931  26.720  1.00  0.00     0.000 C 
ENDROOT
BRANCH   1   2
ATOM      2  C   UNL     1       1.518   8.993  25.184  1.00  0.00     0.000 C 
BRANCH   2   3
ATOM      3  C   UNL     1       0.414   8.105  24.585  1.00  0.00     0.000 C 
BRANCH   3   4
ATOM      4  C   UNL     1      -0.353   7.317  25.660  1.00  0.00     0.000 C 
BRANCH   4   5
ATOM      5  C   UNL     1      -1.189   6.169  25.065  1.00  0.00     0.000 C 
BRANCH   5   6
ATOM      6  C   UNL     1      -0.967   4.836  25.797  1.00  0.00     0.006 C 
BRANCH   6   7
ATOM      7  C   UNL     1      -2.225   4.339  26.521  1.00  0.00     0.053 C 
BRANCH   7   8
ATOM      8  C   UNL     1      -1.861   3.711  27.829  1.00  0.00     0.041 C 
ATOM      9  O   UNL     1      -2.413   4.097  28.892  1.00  0.00    -0.550 OA
ATOM     10  O   UNL     1      -0.878   2.730  27.881  1.00  0.00    -0.550 OA
ENDBRANCH   7   8
ENDBRANCH   6   7
ENDBRANCH   5   6
ENDBRANCH   4   5
ENDBRANCH   3   4
ENDBRANCH   2   3
ENDBRANCH   1   2
BRANCH   1  11
ATOM     11  C   UNL     1       2.951   8.547  27.259  1.00  0.00     0.000 C 
BRANCH  11  12
ATOM     12  C   UNL     1       3.715   7.615  26.306  1.00  0.00    -0.000 C 
BRANCH  12  13
ATOM     13  C   UNL     1       3.874   6.192  26.866  1.00  0.00    -0.000 C 
BRANCH  13  14
ATOM     14  C   UNL     1       2.562   5.404  26.734  1.00  0.00    -0.000 C 
BRANCH  14  15
ATOM     15  C   UNL     1       2.004   4.942  28.091  1.00  0.00    -0.000 C 
BRANCH  15  16
ATOM     16  C   UNL     1       0.993   5.907  28.738  1.00  0.00    -0.000 C 
BRANCH  16  17
ATOM     17  C   UNL     1       1.315   6.254  30.206  1.00  0.00    -0.003 C 
ATOM     18  C   UNL     1       0.986   7.707  30.549  1.00  0.00     0.004 C 
ENDBRANCH  16  17
ENDBRANCH  15  16
ENDBRANCH  14  15
ENDBRANCH  13  14
ENDBRANCH  12  13
ENDBRANCH  11  12
ENDBRANCH   1  11
TORSDOF 14
ENDMDL
MODEL 4
REMARK VINA RESULT:    -2.961      2.179      4.827
REMARK INTER + INTRA:          -7.874
REMARK INTER:                  -5.302
REMARK INTRA:                  -2.571
REMARK UNBOUND:                -2.490
REMARK SMILES CCCCCCCCCCCCCCCC(=O)[O-]
REMARK SMILES IDX 9 1 10 2 11 3 12 4 13 5 14 6 15 7 16 8 17 9 18 10 8 11 7 12
REMARK SMILES IDX 6 13 5 14 4 15 3 16 2 17 1 18
REMARK H PARENT
REMARK Flexibility Score: inf
ROOT
ATOM      1  C   UNL     1      -3.038   5.693  39.688  1.00  0.00     0.000 C 
ENDROOT
BRANCH   1   2
ATOM      2  C   UNL     1      -2.037   5.364  38.567  1.00  0.00     0.000 C 
BRANCH   2   3
ATOM      3  C   UNL     1      -2.721   4.804  37.307  1.00  0.00     0.000 C 
BRANCH   3   4
ATOM      4  C   UNL     1      -2.191   5.450  36.016  1.00  0.00     0.000 C 
BRANCH   4   5
ATOM      5  C   UNL     1      -1.574   6.838  36.261  1.00  0.00     0.000 C 
BRANCH   5   6
ATOM      6  C   UNL     1      -0.169   6.975  35.654  1.00  0.00     0.006 C 
BRANCH   6   7
ATOM      7  C   UNL     1       0.783   5.857  36.100  1.00  0.00     0.053 C 
BRANCH   7   8
ATOM      8  C   UNL     1       1.427   5.214  34.914  1.00  0.00     0.041 C 
ATOM      9  O   UNL     1       0.757   4.991  33.872  1.00  0.00    -0.550 OA
ATOM     10  O   UNL     1       2.758   4.817  34.973  1.00  0.00    -0.550 OA
ENDBRANCH   7   8
ENDBRANCH   6   7
ENDBRANCH   5   6
ENDBRANCH   4   5
ENDBRANCH   3   4
ENDBRANCH   2   3
ENDBRANCH   1   2
BRANCH   1  11
ATOM     11  C   UNL     1      -2.696   7.000  40.424  1.00  0.00     0.000 C 
BRANCH  11  12
ATOM     12  C   UNL     1      -3.212   8.244  39.683  1.00  0.00    -0.000 C 
BRANCH  12  13
ATOM     13  C   UNL     1      -2.076   9.125  39.139  1.00  0.00    -0.000 C 
BRANCH  13  14
ATOM     14  C   UNL     1      -0.746   8.792  39.833  1.00  0.00    -0.000 C 
BRANCH  14  15
ATOM     15  C   UNL     1       0.417   8.614  38.843  1.00  0.00    -0.000 C 
BRANCH  15  16
ATOM     16  C   UNL     1       1.489   7.599  39.280  1.00  0.00    -0.000 C 
BRANCH  16  17
ATOM     17  C   UNL     1       1.008   6.614  40.366  1.00  0.00    -0.003 C 
ATOM     18  C   UNL     1       1.335   5.160  40.023  1.00  0.00     0.004 C 
ENDBRANCH  16  17
ENDBRANCH  15  16
ENDBRANCH  14  15
ENDBRANCH  13  14
ENDBRANCH  12  13
ENDBRANCH  11  12
ENDBRANCH   1  11
TORSDOF 14
ENDMDL
MODEL 5
REMARK VINA RESULT:    -2.872      2.460      4.065
REMARK INTER + INTRA:          -7.713
REMARK INTER:                  -5.314
REMARK INTRA:                  -2.399
REMARK UNBOUND:                -2.490
REMARK SMILES CCCCCCCCCCCCCCCC(=O)[O-]
REMARK SMILES IDX 9 1 10 2 11 3 12 4 13 5 14 6 15 7 16 8 17 9 18 10 8 11 7 12
REMARK SMILES IDX 6 13 5 14 4 15 3 16 2 17 1 18
REMARK H PARENT
REMARK Flexibility Score: inf
ROOT
ATOM      1  C   UNL     1      -2.281   8.704  39.450  1.00  0.00     0.000 C 
ENDROOT
BRANCH   1   2
ATOM      2  C   UNL     1      -2.356   9.125  37.973  1.00  0.00     0.000 C 
BRANCH   2   3
ATOM      3  C   UNL     1      -1.002   9.006  37.251  1.00  0.00     0.000 C 
BRANCH   3   4
ATOM      4  C   UNL     1       0.106   8.462  38.168  1.00  0.00     0.000 C 
BRANCH   4   5
ATOM      5  C   UNL     1       0.658   7.108  37.687  1.00  0.00     0.000 C 
BRANCH   5   6
ATOM      6  C   UNL     1      -0.159   5.918  38.212  1.00  0.00     0.006 C 
BRANCH   6   7
ATOM      7  C   UNL     1      -0.619   4.974  37.092  1.00  0.00     0.053 C 
BRANCH   7   8
ATOM      8  C   UNL     1      -2.024   5.288  36.688  1.00  0.00     0.041 C 
ATOM      9  O   UNL     1      -2.991   4.723  37.264  1.00  0.00    -0.550 OA
ATOM     10  O   UNL     1      -2.267   6.170  35.642  1.00  0.00    -0.550 OA
ENDBRANCH   7   8
ENDBRANCH   6   7
ENDBRANCH   5   6
ENDBRANCH   4   5
ENDBRANCH   3   4
ENDBRANCH   2   3
ENDBRANCH   1   2
BRANCH   1  11
ATOM     11  C   UNL     1      -3.633   8.220  40.000  1.00  0.00     0.000 C 
BRANCH  11  12
ATOM     12  C   UNL     1      -3.475   7.175  41.115  1.00  0.00    -0.000 C 
BRANCH  12  13
ATOM     13  C   UNL     1      -3.102   5.784  40.577  1.00  0.00    -0.000 C 
BRANCH  13  14
ATOM     14  C   UNL     1      -2.314   4.987  41.628  1.00  0.00    -0.000 C 
BRANCH  14  15
ATOM     15  C   UNL     1      -1.572   5.888  42.630  1.00  0.00    -0.000 C 
BRANCH  15  16
ATOM     16  C   UNL     1      -0.068   6.067  42.348  1.00  0.00    -0.000 C 
BRANCH  16  17
ATOM     17  C   UNL     1       0.279   7.398  41.649  1.00  0.00    -0.003 C 
ATOM     18  C   UNL     1      -0.135   8.617  42.472  1.00  0.00     0.004 C 
ENDBRANCH  16  17
ENDBRANCH  15  16
ENDBRANCH  14  15
ENDBRANCH  13  14
ENDBRANCH  12  13
ENDBRANCH  11  12
ENDBRANCH   1  11
TORSDOF 14
ENDMDL
MODEL 6
REMARK VINA RESULT:    -2.861      1.765      4.641
REMARK INTER + INTRA:          -7.693
REMARK INTER:                  -5.594
REMARK INTRA:                  -2.099
REMARK UNBOUND:                -2.490
REMARK SMILES CCCCCCCCCCCCCCCC(=O)[O-]
REMARK SMILES IDX 9 1 10 2 11 3 12 4 13 5 14 6 15 7 16 8 17 9 18 10 8 11 7 12
REMARK SMILES IDX 6 13 5 14 4 15 3 16 2 17 1 18
REMARK H PARENT
REMARK Flexibility Score: inf
ROOT
ATOM      1  C   UNL     1      -3.102   6.351  40.059  1.00  0.00     0.000 C 
ENDROOT
BRANCH   1   2
ATOM      2  C   UNL     1      -2.230   6.702  38.842  1.00  0.00     0.000 C 
BRANCH   2   3
ATOM      3  C   UNL     1      -2.107   8.219  38.617  1.00  0.00     0.000 C 
BRANCH   3   4
ATOM      4  C   UNL     1      -1.774   8.572  37.157  1.00  0.00     0.000 C 
BRANCH   4   5
ATOM      5  C   UNL     1      -1.427   7.331  36.316  1.00  0.00     0.000 C 
BRANCH   5   6
ATOM      6  C   UNL     1       0.025   7.346  35.812  1.00  0.00     0.006 C 
BRANCH   6   7
ATOM      7  C   UNL     1       0.456   6.006  35.201  1.00  0.00     0.053 C 
BRANCH   7   8
ATOM      8  C   UNL     1       1.179   5.177  36.214  1.00  0.00     0.041 C 
ATOM      9  O   UNL     1       2.430   5.049  36.152  1.00  0.00    -0.550 OA
ATOM     10  O   UNL     1       0.467   4.508  37.202  1.00  0.00    -0.550 OA
ENDBRANCH   7   8
ENDBRANCH   6   7
ENDBRANCH   5   6
ENDBRANCH   4   5
ENDBRANCH   3   4
ENDBRANCH   2   3
ENDBRANCH   1   2
BRANCH   1  11
ATOM     11  C   UNL     1      -3.784   7.584  40.676  1.00  0.00     0.000 C 
BRANCH  11  12
ATOM     12  C   UNL     1      -3.904   7.488  42.205  1.00  0.00    -0.000 C 
BRANCH  12  13
ATOM     13  C   UNL     1      -2.619   6.968  42.870  1.00  0.00    -0.000 C 
BRANCH  13  14
ATOM     14  C   UNL     1      -1.604   8.106  43.059  1.00  0.00    -0.000 C 
BRANCH  14  15
ATOM     15  C   UNL     1      -0.163   7.682  42.729  1.00  0.00    -0.000 C 
BRANCH  15  16
ATOM     16  C   UNL     1       0.312   8.056  41.311  1.00  0.00    -0.000 C 
BRANCH  16  17
ATOM     17  C   UNL     1       0.891   6.868  40.515  1.00  0.00    -0.003 C 
ATOM     18  C   UNL     1       1.573   7.308  39.220  1.00  0.00     0.004 C 
ENDBRANCH  16  17
ENDBRANCH  15  16
ENDBRANCH  14  15
ENDBRANCH  13  14
ENDBRANCH  12  13
ENDBRANCH  11  12
ENDBRANCH   1  11
TORSDOF 14
ENDMDL
MODEL 7
REMARK VINA RESULT:    -2.774      2.396      3.801
REMARK INTER + INTRA:          -7.534
REMARK INTER:                  -5.197
REMARK INTRA:                  -2.337
REMARK UNBOUND:                -2.490
REMARK SMILES CCCCCCCCCCCCCCCC(=O)[O-]
REMARK SMILES IDX 9 1 10 2 11 3 12 4 13 5 14 6 15 7 16 8 17 9 18 10 8 11 7 12
REMARK SMILES IDX 6 13 5 14 4 15 3 16 2 17 1 18
REMARK H PARENT
REMARK Flexibility Score: inf
ROOT
ATOM      1  C   UNL     1      -0.681   8.174  40.589  1.00  0.00     0.000 C 
ENDROOT
BRANCH   1   2
ATOM      2  C   UNL     1      -0.648   9.125  39.381  1.00  0.00     0.000 C 
BRANCH   2   3
ATOM      3  C   UNL     1      -1.951   9.089  38.563  1.00  0.00     0.000 C 
BRANCH   3   4
ATOM      4  C   UNL     1      -1.908   8.044  37.435  1.00  0.00     0.000 C 
BRANCH   4   5
ATOM      5  C   UNL     1      -0.784   8.318  36.420  1.00  0.00     0.000 C 
BRANCH   5   6
ATOM      6  C   UNL     1       0.328   7.259  36.471  1.00  0.00     0.006 C 
BRANCH   6   7
ATOM      7  C   UNL     1      -0.161   5.863  36.064  1.00  0.00     0.053 C 
BRANCH   7   8
ATOM      8  C   UNL     1      -0.266   5.760  34.576  1.00  0.00     0.041 C 
ATOM      9  O   UNL     1      -1.153   5.037  34.051  1.00  0.00    -0.550 OA
ATOM     10  O   UNL     1       0.645   6.426  33.765  1.00  0.00    -0.550 OA
ENDBRANCH   7   8
ENDBRANCH   6   7
ENDBRANCH   5   6
ENDBRANCH   4   5
ENDBRANCH   3   4
ENDBRANCH   2   3
ENDBRANCH   1   2
BRANCH   1  11
ATOM     11  C   UNL     1       0.649   7.429  40.795  1.00  0.00     0.000 C 
BRANCH  11  12
ATOM     12  C   UNL     1       0.691   6.084  40.053  1.00  0.00    -0.000 C 
BRANCH  12  13
ATOM     13  C   UNL     1      -0.709   5.538  39.732  1.00  0.00    -0.000 C 
BRANCH  13  14
ATOM     14  C   UNL     1      -1.254   4.711  40.907  1.00  0.00    -0.000 C 
BRANCH  14  15
ATOM     15  C   UNL     1      -2.729   5.016  41.218  1.00  0.00    -0.000 C 
BRANCH  15  16
ATOM     16  C   UNL     1      -3.449   5.876  40.162  1.00  0.00    -0.000 C 
BRANCH  16  17
ATOM     17  C   UNL     1      -4.239   7.060  40.757  1.00  0.00    -0.003 C 
ATOM     18  C   UNL     1      -3.754   7.443  42.155  1.00  0.00     0.004 C 
ENDBRANCH  16  17
ENDBRANCH  15  16
ENDBRANCH  14  15
ENDBRANCH  13  14
ENDBRANCH  12  13
ENDBRANCH  11  12
ENDBRANCH   1  11
TORSDOF 14
ENDMDL
MODEL 8
REMARK VINA RESULT:    -2.764      2.005      3.548
REMARK INTER + INTRA:          -7.516
REMARK INTER:                  -4.948
REMARK INTRA:                  -2.568
REMARK UNBOUND:                -2.490
REMARK SMILES CCCCCCCCCCCCCCCC(=O)[O-]
REMARK SMILES IDX 9 1 10 2 11 3 12 4 13 5 14 6 15 7 16 8 17 9 18 10 8 11 7 12
REMARK SMILES IDX 6 13 5 14 4 15 3 16 2 17 1 18
REMARK H PARENT
REMARK Flexibility Score: inf
ROOT
ATOM      1  C   UNL     1       0.597   7.359  36.589  1.00  0.00     0.000 C 
ENDROOT
BRANCH   1   2
ATOM      2  C   UNL     1       1.159   6.053  37.174  1.00  0.00     0.000 C 
BRANCH   2   3
ATOM      3  C   UNL     1       0.327   4.820  36.781  1.00  0.00     0.000 C 
BRANCH   3   4
ATOM      4  C   UNL     1      -0.104   3.989  38.002  1.00  0.00     0.000 C 
BRANCH   4   5
ATOM      5  C   UNL     1      -0.962   4.797  38.992  1.00  0.00     0.000 C 
BRANCH   5   6
ATOM      6  C   UNL     1      -0.500   4.629  40.447  1.00  0.00     0.006 C 
BRANCH   6   7
ATOM      7  C   UNL     1       0.398   5.780  40.922  1.00  0.00     0.053 C 
BRANCH   7   8
ATOM      8  C   UNL     1      -0.124   6.357  42.199  1.00  0.00     0.041 C 
ATOM      9  O   UNL     1       0.046   7.578  42.459  1.00  0.00    -0.550 OA
ATOM     10  O   UNL     1      -0.760   5.539  43.125  1.00  0.00    -0.550 OA
ENDBRANCH   7   8
ENDBRANCH   6   7
ENDBRANCH   5   6
ENDBRANCH   4   5
ENDBRANCH   3   4
ENDBRANCH   2   3
ENDBRANCH   1   2
BRANCH   1  11
ATOM     11  C   UNL     1      -0.888   7.248  36.205  1.00  0.00     0.000 C 
BRANCH  11  12
ATOM     12  C   UNL     1      -1.819   7.849  37.270  1.00  0.00    -0.000 C 
BRANCH  12  13
ATOM     13  C   UNL     1      -1.097   8.834  38.202  1.00  0.00    -0.000 C 
BRANCH  13  14
ATOM     14  C   UNL     1      -1.644   8.732  39.634  1.00  0.00    -0.000 C 
BRANCH  14  15
ATOM     15  C   UNL     1      -2.935   7.902  39.722  1.00  0.00    -0.000 C 
BRANCH  15  16
ATOM     16  C   UNL     1      -3.440   7.640  41.154  1.00  0.00    -0.000 C 
BRANCH  16  17
ATOM     17  C   UNL     1      -3.870   6.180  41.406  1.00  0.00    -0.003 C 
ATOM     18  C   UNL     1      -4.305   5.469  40.124  1.00  0.00     0.004 C 
ENDBRANCH  16  17
ENDBRANCH  15  16
ENDBRANCH  14  15
ENDBRANCH  13  14
ENDBRANCH  12  13
ENDBRANCH  11  12
ENDBRANCH   1  11
TORSDOF 14
ENDMDL
MODEL 9
REMARK VINA RESULT:    -1.753      2.493      4.057
REMARK INTER + INTRA:          -5.678
REMARK INTER:                  -3.360
REMARK INTRA:                  -2.318
REMARK UNBOUND:                -2.490
REMARK SMILES CCCCCCCCCCCCCCCC(=O)[O-]
REMARK SMILES IDX 9 1 10 2 11 3 12 4 13 5 14 6 15 7 16 8 17 9 18 10 8 11 7 12
REMARK SMILES IDX 6 13 5 14 4 15 3 16 2 17 1 18
REMARK H PARENT
REMARK Flexibility Score: inf
ROOT
ATOM      1  C   UNL     1       0.935   7.858  37.693  1.00  0.00     0.000 C 
ENDROOT
BRANCH   1   2
ATOM      2  C   UNL     1       1.346   7.715  39.168  1.00  0.00     0.000 C 
BRANCH   2   3
ATOM      3  C   UNL     1       1.396   6.249  39.631  1.00  0.00     0.000 C 
BRANCH   3   4
ATOM      4  C   UNL     1       0.025   5.733  40.099  1.00  0.00     0.000 C 
BRANCH   4   5
ATOM      5  C   UNL     1      -0.386   4.427  39.395  1.00  0.00     0.000 C 
BRANCH   5   6
ATOM      6  C   UNL     1      -1.271   4.674  38.163  1.00  0.00     0.006 C 
BRANCH   6   7
ATOM      7  C   UNL     1      -0.514   4.493  36.841  1.00  0.00     0.053 C 
BRANCH   7   8
ATOM      8  C   UNL     1      -1.468   4.479  35.689  1.00  0.00     0.041 C 
ATOM      9  O   UNL     1      -1.971   5.554  35.271  1.00  0.00    -0.550 OA
ATOM     10  O   UNL     1      -1.838   3.273  35.106  1.00  0.00    -0.550 OA
ENDBRANCH   7   8
ENDBRANCH   6   7
ENDBRANCH   5   6
ENDBRANCH   4   5
ENDBRANCH   3   4
ENDBRANCH   2   3
ENDBRANCH   1   2
BRANCH   1  11
ATOM     11  C   UNL     1       0.105   9.125  37.427  1.00  0.00     0.000 C 
BRANCH  11  12
ATOM     12  C   UNL     1      -1.328   8.806  36.973  1.00  0.00    -0.000 C 
BRANCH  12  13
ATOM     13  C   UNL     1      -2.077   7.899  37.963  1.00  0.00    -0.000 C 
BRANCH  13  14
ATOM     14  C   UNL     1      -2.278   8.610  39.310  1.00  0.00    -0.000 C 
BRANCH  14  15
ATOM     15  C   UNL     1      -3.464   8.047  40.111  1.00  0.00    -0.000 C 
BRANCH  15  16
ATOM     16  C   UNL     1      -3.076   7.300  41.402  1.00  0.00    -0.000 C 
BRANCH  16  17
ATOM     17  C   UNL     1      -3.574   5.841  41.450  1.00  0.00    -0.003 C 
ATOM     18  C   UNL     1      -4.258   5.414  40.151  1.00  0.00     0.004 C 
ENDBRANCH  16  17
ENDBRANCH  15  16
ENDBRANCH  14  15
ENDBRANCH  13  14
ENDBRANCH  12  13
ENDBRANCH  11  12
ENDBRANCH   1  11
TORSDOF 14
ENDMDL
