MODEL 1
REMARK VINA RESULT:    -4.323      0.000      0.000
REMARK INTER + INTRA:          -5.510
REMARK INTER:                  -5.334
REMARK INTRA:                  -0.175
REMARK UNBOUND:                -0.175
REMARK SMILES COc1cc(C=O)ccc1OC(C)=O
REMARK SMILES IDX 10 1 3 2 4 3 5 4 8 5 9 6 11 7 12 8 13 9 14 10 2 11 1 12 6 13
REMARK SMILES IDX 7 14
REMARK H PARENT
REMARK Flexibility Score: inf
ROOT
ATOM      1  C   UNL     1      37.793   5.556  40.695  1.00  0.00     0.172 A 
ATOM      2  C   UNL     1      38.979   5.195  41.368  1.00  0.00     0.162 A 
ATOM      3  C   UNL     1      39.728   4.095  40.901  1.00  0.00     0.062 A 
ATOM      4  C   UNL     1      39.321   3.382  39.762  1.00  0.00     0.018 A 
ATOM      5  C   UNL     1      38.159   3.778  39.084  1.00  0.00     0.015 A 
ATOM      6  C   UNL     1      37.408   4.860  39.545  1.00  0.00     0.052 A 
ENDROOT
BRANCH   1   7
ATOM      7  O   UNL     1      36.995   6.627  41.118  1.00  0.00    -0.423 OA
BRANCH   7   8
ATOM      8  C   UNL     1      35.630   6.755  40.836  1.00  0.00     0.308 C 
ATOM      9  C   UNL     1      34.628   6.280  41.833  1.00  0.00     0.139 C 
ATOM     10  O   UNL     1      35.238   7.347  39.793  1.00  0.00    -0.252 OA
ENDBRANCH   7   8
ENDBRANCH   1   7
BRANCH   2  11
ATOM     11  O   UNL     1      39.398   5.959  42.469  1.00  0.00    -0.493 OA
ATOM     12  C   UNL     1      40.120   7.182  42.379  1.00  0.00     0.278 C 
ENDBRANCH   2  11
BRANCH   4  13
ATOM     13  C   UNL     1      40.125   2.239  39.293  1.00  0.00     0.260 C 
ATOM     14  O   UNL     1      40.101   1.134  39.900  1.00  0.00    -0.298 OA
ENDBRANCH   4  13
TORSDOF 4
ENDMDL
MODEL 2
REMARK VINA RESULT:    -4.205     16.507     18.738
REMARK INTER + INTRA:          -5.363
REMARK INTER:                  -5.069
REMARK INTRA:                  -0.294
REMARK UNBOUND:                -0.175
REMARK SMILES COc1cc(C=O)ccc1OC(C)=O
REMARK SMILES IDX 10 1 3 2 4 3 5 4 8 5 9 6 11 7 12 8 13 9 14 10 2 11 1 12 6 13
REMARK SMILES IDX 7 14
REMARK H PARENT
REMARK Flexibility Score: inf
ROOT
ATOM      1  C   UNL     1      32.096  -9.349  30.967  1.00  0.00     0.172 A 
ATOM      2  C   UNL     1      32.341 -10.685  30.588  1.00  0.00     0.162 A 
ATOM      3  C   UNL     1      33.459 -10.977  29.779  1.00  0.00     0.062 A 
ATOM      4  C   UNL     1      34.339  -9.960  29.378  1.00  0.00     0.018 A 
ATOM      5  C   UNL     1      34.100  -8.642  29.795  1.00  0.00     0.015 A 
ATOM      6  C   UNL     1      32.991  -8.344  30.587  1.00  0.00     0.052 A 
ENDROOT
BRANCH   1   7
ATOM      7  O   UNL     1      30.993  -8.991  31.754  1.00  0.00    -0.423 OA
BRANCH   7   8
ATOM      8  C   UNL     1      31.049  -8.096  32.829  1.00  0.00     0.308 C 
ATOM      9  C   UNL     1      30.326  -6.795  32.737  1.00  0.00     0.139 C 
ATOM     10  O   UNL     1      31.626  -8.412  33.906  1.00  0.00    -0.252 OA
ENDBRANCH   7   8
ENDBRANCH   1   7
BRANCH   2  11
ATOM     11  O   UNL     1      31.480 -11.694  31.050  1.00  0.00    -0.493 OA
ATOM     12  C   UNL     1      30.300 -12.123  30.378  1.00  0.00     0.278 C 
ENDBRANCH   2  11
BRANCH   4  13
ATOM     13  C   UNL     1      35.503 -10.294  28.536  1.00  0.00     0.260 C 
ATOM     14  O   UNL     1      36.183  -9.390  27.980  1.00  0.00    -0.298 OA
ENDBRANCH   4  13
TORSDOF 4
ENDMDL
MODEL 3
REMARK VINA RESULT:    -4.117     16.558     18.632
REMARK INTER + INTRA:          -5.255
REMARK INTER:                  -4.950
REMARK INTRA:                  -0.306
REMARK UNBOUND:                -0.175
REMARK SMILES COc1cc(C=O)ccc1OC(C)=O
REMARK SMILES IDX 10 1 3 2 4 3 5 4 8 5 9 6 11 7 12 8 13 9 14 10 2 11 1 12 6 13
REMARK SMILES IDX 7 14
REMARK H PARENT
REMARK Flexibility Score: inf
ROOT
ATOM      1  C   UNL     1      30.208  -9.128  31.359  1.00  0.00     0.172 A 
ATOM      2  C   UNL     1      31.446  -9.633  31.809  1.00  0.00     0.162 A 
ATOM      3  C   UNL     1      32.165  -8.918  32.789  1.00  0.00     0.062 A 
ATOM      4  C   UNL     1      31.648  -7.735  33.337  1.00  0.00     0.018 A 
ATOM      5  C   UNL     1      30.399  -7.266  32.904  1.00  0.00     0.015 A 
ATOM      6  C   UNL     1      29.685  -7.963  31.929  1.00  0.00     0.052 A 
ENDROOT
BRANCH   1   7
ATOM      7  O   UNL     1      29.453  -9.782  30.376  1.00  0.00    -0.423 OA
BRANCH   7   8
ATOM      8  C   UNL     1      28.106 -10.136  30.521  1.00  0.00     0.308 C 
ATOM      9  C   UNL     1      27.102  -9.609  29.553  1.00  0.00     0.139 C 
ATOM     10  O   UNL     1      27.747 -10.964  31.403  1.00  0.00    -0.252 OA
ENDBRANCH   7   8
ENDBRANCH   1   7
BRANCH   2  11
ATOM     11  O   UNL     1      31.915 -10.851  31.290  1.00  0.00    -0.493 OA
ATOM     12  C   UNL     1      33.033 -10.982  30.417  1.00  0.00     0.278 C 
ENDBRANCH   2  11
BRANCH   4  13
ATOM     13  C   UNL     1      32.420  -7.009  34.363  1.00  0.00     0.260 C 
ATOM     14  O   UNL     1      33.314  -7.589  35.036  1.00  0.00    -0.298 OA
ENDBRANCH   4  13
TORSDOF 4
ENDMDL
MODEL 4
REMARK VINA RESULT:    -4.106     16.492     17.799
REMARK INTER + INTRA:          -5.242
REMARK INTER:                  -4.983
REMARK INTRA:                  -0.258
REMARK UNBOUND:                -0.175
REMARK SMILES COc1cc(C=O)ccc1OC(C)=O
REMARK SMILES IDX 10 1 3 2 4 3 5 4 8 5 9 6 11 7 12 8 13 9 14 10 2 11 1 12 6 13
REMARK SMILES IDX 7 14
REMARK H PARENT
REMARK Flexibility Score: inf
ROOT
ATOM      1  C   UNL     1      21.134  -1.869  42.324  1.00  0.00     0.172 A 
ATOM      2  C   UNL     1      22.502  -2.138  42.536  1.00  0.00     0.162 A 
ATOM      3  C   UNL     1      23.339  -2.365  41.424  1.00  0.00     0.062 A 
ATOM      4  C   UNL     1      22.831  -2.295  40.118  1.00  0.00     0.018 A 
ATOM      5  C   UNL     1      21.475  -1.990  39.924  1.00  0.00     0.015 A 
ATOM      6  C   UNL     1      20.639  -1.773  41.019  1.00  0.00     0.052 A 
ENDROOT
BRANCH   1   7
ATOM      7  O   UNL     1      20.246  -1.650  43.387  1.00  0.00    -0.423 OA
BRANCH   7   8
ATOM      8  C   UNL     1      20.214  -0.485  44.162  1.00  0.00     0.308 C 
ATOM      9  C   UNL     1      20.034   0.835  43.492  1.00  0.00     0.139 C 
ATOM     10  O   UNL     1      20.246  -0.546  45.422  1.00  0.00    -0.252 OA
ENDBRANCH   7   8
ENDBRANCH   1   7
BRANCH   2  11
ATOM     11  O   UNL     1      23.001  -2.144  43.849  1.00  0.00    -0.493 OA
ATOM     12  C   UNL     1      22.959  -3.265  44.726  1.00  0.00     0.278 C 
ENDBRANCH   2  11
BRANCH   4  13
ATOM     13  C   UNL     1      23.729  -2.534  38.973  1.00  0.00     0.260 C 
ATOM     14  O   UNL     1      24.596  -3.447  39.005  1.00  0.00    -0.298 OA
ENDBRANCH   4  13
TORSDOF 4
ENDMDL
MODEL 5
REMARK VINA RESULT:    -4.012     17.560     19.868
REMARK INTER + INTRA:          -5.125
REMARK INTER:                  -4.788
REMARK INTRA:                  -0.337
REMARK UNBOUND:                -0.175
REMARK SMILES COc1cc(C=O)ccc1OC(C)=O
REMARK SMILES IDX 10 1 3 2 4 3 5 4 8 5 9 6 11 7 12 8 13 9 14 10 2 11 1 12 6 13
REMARK SMILES IDX 7 14
REMARK H PARENT
REMARK Flexibility Score: inf
ROOT
ATOM      1  C   UNL     1      31.426 -10.527  30.904  1.00  0.00     0.172 A 
ATOM      2  C   UNL     1      30.960  -9.361  31.545  1.00  0.00     0.162 A 
ATOM      3  C   UNL     1      29.581  -9.065  31.517  1.00  0.00     0.062 A 
ATOM      4  C   UNL     1      28.675  -9.931  30.887  1.00  0.00     0.018 A 
ATOM      5  C   UNL     1      29.151 -11.105  30.286  1.00  0.00     0.015 A 
ATOM      6  C   UNL     1      30.515 -11.401  30.302  1.00  0.00     0.052 A 
ENDROOT
BRANCH   1   7
ATOM      7  O   UNL     1      32.785 -10.870  30.882  1.00  0.00    -0.423 OA
BRANCH   7   8
ATOM      8  C   UNL     1      33.662 -10.553  29.837  1.00  0.00     0.308 C 
ATOM      9  C   UNL     1      33.994 -11.592  28.820  1.00  0.00     0.139 C 
ATOM     10  O   UNL     1      34.102  -9.379  29.695  1.00  0.00    -0.252 OA
ENDBRANCH   7   8
ENDBRANCH   1   7
BRANCH   2  11
ATOM     11  O   UNL     1      31.878  -8.540  32.220  1.00  0.00    -0.493 OA
ATOM     12  C   UNL     1      31.832  -8.247  33.612  1.00  0.00     0.278 C 
ENDBRANCH   2  11
BRANCH   4  13
ATOM     13  C   UNL     1      27.238  -9.598  30.876  1.00  0.00     0.260 C 
ATOM     14  O   UNL     1      26.663  -9.234  29.815  1.00  0.00    -0.298 OA
ENDBRANCH   4  13
TORSDOF 4
ENDMDL
MODEL 6
REMARK VINA RESULT:    -3.887     18.231     20.241
REMARK INTER + INTRA:          -4.972
REMARK INTER:                  -4.588
REMARK INTRA:                  -0.383
REMARK UNBOUND:                -0.175
REMARK SMILES COc1cc(C=O)ccc1OC(C)=O
REMARK SMILES IDX 10 1 3 2 4 3 5 4 8 5 9 6 11 7 12 8 13 9 14 10 2 11 1 12 6 13
REMARK SMILES IDX 7 14
REMARK H PARENT
REMARK Flexibility Score: inf
ROOT
ATOM      1  C   UNL     1      30.182  -9.928  31.256  1.00  0.00     0.172 A 
ATOM      2  C   UNL     1      30.633 -11.104  30.622  1.00  0.00     0.162 A 
ATOM      3  C   UNL     1      29.749 -11.820  29.789  1.00  0.00     0.062 A 
ATOM      4  C   UNL     1      28.443 -11.358  29.565  1.00  0.00     0.018 A 
ATOM      5  C   UNL     1      28.022 -10.167  30.174  1.00  0.00     0.015 A 
ATOM      6  C   UNL     1      28.888  -9.457  31.006  1.00  0.00     0.052 A 
ENDROOT
BRANCH   1   7
ATOM      7  O   UNL     1      31.005  -9.179  32.108  1.00  0.00    -0.423 OA
BRANCH   7   8
ATOM      8  C   UNL     1      31.479  -7.894  31.819  1.00  0.00     0.308 C 
ATOM      9  C   UNL     1      31.084  -6.754  32.697  1.00  0.00     0.139 C 
ATOM     10  O   UNL     1      32.304  -7.703  30.884  1.00  0.00    -0.252 OA
ENDBRANCH   7   8
ENDBRANCH   1   7
BRANCH   2  11
ATOM     11  O   UNL     1      31.962 -11.515  30.814  1.00  0.00    -0.493 OA
ATOM     12  C   UNL     1      33.066 -11.084  30.024  1.00  0.00     0.278 C 
ENDBRANCH   2  11
BRANCH   4  13
ATOM     13  C   UNL     1      27.540 -12.125  28.687  1.00  0.00     0.260 C 
ATOM     14  O   UNL     1      26.371 -11.719  28.442  1.00  0.00    -0.298 OA
ENDBRANCH   4  13
TORSDOF 4
ENDMDL
MODEL 7
REMARK VINA RESULT:    -3.578     16.088     17.964
REMARK INTER + INTRA:          -4.590
REMARK INTER:                  -4.334
REMARK INTRA:                  -0.256
REMARK UNBOUND:                -0.175
REMARK SMILES COc1cc(C=O)ccc1OC(C)=O
REMARK SMILES IDX 10 1 3 2 4 3 5 4 8 5 9 6 11 7 12 8 13 9 14 10 2 11 1 12 6 13
REMARK SMILES IDX 7 14
REMARK H PARENT
REMARK Flexibility Score: inf
ROOT
ATOM      1  C   UNL     1      22.769  -1.933  40.784  1.00  0.00     0.172 A 
ATOM      2  C   UNL     1      21.667  -1.124  41.134  1.00  0.00     0.162 A 
ATOM      3  C   UNL     1      21.173  -1.169  42.454  1.00  0.00     0.062 A 
ATOM      4  C   UNL     1      21.782  -1.982  43.421  1.00  0.00     0.018 A 
ATOM      5  C   UNL     1      22.899  -2.753  43.066  1.00  0.00     0.015 A 
ATOM      6  C   UNL     1      23.390  -2.720  41.760  1.00  0.00     0.052 A 
ENDROOT
BRANCH   1   7
ATOM      7  O   UNL     1      23.298  -1.947  39.487  1.00  0.00    -0.423 OA
BRANCH   7   8
ATOM      8  C   UNL     1      23.688  -3.106  38.806  1.00  0.00     0.308 C 
ATOM      9  C   UNL     1      25.134  -3.464  38.738  1.00  0.00     0.139 C 
ATOM     10  O   UNL     1      22.828  -3.897  38.329  1.00  0.00    -0.252 OA
ENDBRANCH   7   8
ENDBRANCH   1   7
BRANCH   2  11
ATOM     11  O   UNL     1      21.111  -0.274  40.165  1.00  0.00    -0.493 OA
ATOM     12  C   UNL     1      19.875  -0.506  39.497  1.00  0.00     0.278 C 
ENDBRANCH   2  11
BRANCH   4  13
ATOM     13  C   UNL     1      21.246  -2.008  44.795  1.00  0.00     0.260 C 
ATOM     14  O   UNL     1      21.954  -2.397  45.762  1.00  0.00    -0.298 OA
ENDBRANCH   4  13
TORSDOF 4
ENDMDL
