MODEL 1
REMARK VINA RESULT:    14.503      0.000      0.000
REMARK INTER + INTRA:          15.991
REMARK INTER:                  16.199
REMARK INTRA:                  -0.208
REMARK UNBOUND:                -0.208
REMARK SMILES CC(C)c1ccc(C(=O)[O-])cc1
REMARK SMILES IDX 7 1 6 2 11 3 5 4 12 5 4 6 8 7 9 8 10 9 2 10 1 11 3 12
REMARK H PARENT
REMARK Flexibility Score: inf
ROOT
ATOM      1  C   UNL     1       8.449  17.504  28.215  1.00  0.00    -0.003 A 
ATOM      2  C   UNL     1       9.607  17.872  28.920  1.00  0.00     0.010 A 
ATOM      3  C   UNL     1       7.301  17.139  28.937  1.00  0.00     0.010 A 
ATOM      4  C   UNL     1       9.617  17.873  30.318  1.00  0.00     0.004 A 
ATOM      5  C   UNL     1       7.310  17.140  30.334  1.00  0.00     0.004 A 
ATOM      6  C   UNL     1       8.470  17.508  31.041  1.00  0.00    -0.045 A 
ENDROOT
BRANCH   1   7
ATOM      7  C   UNL     1       8.434  17.502  26.736  1.00  0.00     0.071 C 
ATOM      8  O   UNL     1       9.512  17.493  26.084  1.00  0.00    -0.545 OA
ATOM      9  O   UNL     1       7.228  17.510  26.043  1.00  0.00    -0.545 OA
ENDBRANCH   1   7
BRANCH   6  10
ATOM     10  C   UNL     1       8.495  17.513  32.558  1.00  0.00     0.013 C 
ATOM     11  C   UNL     1       7.737  18.723  33.118  1.00  0.00     0.012 C 
ATOM     12  C   UNL     1       7.937  16.202  33.125  1.00  0.00     0.012 C 
ENDBRANCH   6  10
TORSDOF 2
ENDMDL
MODEL 2
REMARK VINA RESULT:    15.940      3.005      5.227
REMARK INTER + INTRA:          17.596
REMARK INTER:                  17.808
REMARK INTRA:                  -0.213
REMARK UNBOUND:                -0.208
REMARK SMILES CC(C)c1ccc(C(=O)[O-])cc1
REMARK SMILES IDX 7 1 6 2 11 3 5 4 12 5 4 6 8 7 9 8 10 9 2 10 1 11 3 12
REMARK H PARENT
REMARK Flexibility Score: inf
ROOT
ATOM      1  C   UNL     1       8.283  17.501  30.970  1.00  0.00    -0.003 A 
ATOM      2  C   UNL     1       7.196  17.133  30.158  1.00  0.00     0.010 A 
ATOM      3  C   UNL     1       9.492  17.873  30.361  1.00  0.00     0.010 A 
ATOM      4  C   UNL     1       7.318  17.135  28.766  1.00  0.00     0.004 A 
ATOM      5  C   UNL     1       9.614  17.876  28.968  1.00  0.00     0.004 A 
ATOM      6  C   UNL     1       8.527  17.506  28.155  1.00  0.00    -0.045 A 
ENDROOT
BRANCH   1   7
ATOM      7  C   UNL     1       8.158  17.500  32.444  1.00  0.00     0.071 C 
ATOM      8  O   UNL     1       8.418  16.462  33.109  1.00  0.00    -0.545 OA
ATOM      9  O   UNL     1       7.750  18.646  33.118  1.00  0.00    -0.545 OA
ENDBRANCH   1   7
BRANCH   6  10
ATOM     10  C   UNL     1       8.645  17.504  26.642  1.00  0.00     0.013 C 
ATOM     11  C   UNL     1       7.263  17.533  25.980  1.00  0.00     0.012 C 
ATOM     12  C   UNL     1       9.515  18.670  26.154  1.00  0.00     0.012 C 
ENDBRANCH   6  10
TORSDOF 2
ENDMDL
