MODEL 1
REMARK VINA RESULT:    -3.637      0.000      0.000
REMARK INTER + INTRA:          -4.373
REMARK INTER:                  -4.274
REMARK INTRA:                  -0.099
REMARK UNBOUND:                -0.099
REMARK SMILES CCCCC(=O)[O-]
REMARK SMILES IDX 4 1 5 2 6 3 7 4 3 5 2 6 1 7
REMARK H PARENT
REMARK Flexibility Score: inf
ROOT
ATOM      1  C   UNL     1      45.498  13.767  12.391  1.00  0.00     0.053 C 
ENDROOT
BRANCH   1   2
ATOM      2  C   UNL     1      46.416  14.677  11.634  1.00  0.00     0.041 C 
ATOM      3  O   UNL     1      46.942  14.293  10.556  1.00  0.00    -0.550 OA
ATOM      4  O   UNL     1      46.719  15.938  12.133  1.00  0.00    -0.550 OA
ENDBRANCH   1   2
BRANCH   1   5
ATOM      5  C   UNL     1      45.057  12.549  11.560  1.00  0.00     0.006 C 
BRANCH   5   6
ATOM      6  C   UNL     1      45.644  11.215  12.050  1.00  0.00    -0.003 C 
ATOM      7  C   UNL     1      46.632  10.592  11.066  1.00  0.00     0.004 C 
ENDBRANCH   5   6
ENDBRANCH   1   5
TORSDOF 3
ENDMDL
MODEL 2
REMARK VINA RESULT:    -3.458      2.558      3.766
REMARK INTER + INTRA:          -4.164
REMARK INTER:                  -4.085
REMARK INTRA:                  -0.079
REMARK UNBOUND:                -0.099
REMARK SMILES CCCCC(=O)[O-]
REMARK SMILES IDX 4 1 5 2 6 3 7 4 3 5 2 6 1 7
REMARK H PARENT
REMARK Flexibility Score: inf
ROOT
ATOM      1  C   UNL     1      45.513  12.504  10.922  1.00  0.00     0.053 C 
ENDROOT
BRANCH   1   2
ATOM      2  C   UNL     1      45.867  11.259  11.676  1.00  0.00     0.041 C 
ATOM      3  O   UNL     1      46.362  10.271  11.072  1.00  0.00    -0.550 OA
ATOM      4  O   UNL     1      45.619  11.173  13.041  1.00  0.00    -0.550 OA
ENDBRANCH   1   2
BRANCH   1   5
ATOM      5  C   UNL     1      46.646  13.544  10.936  1.00  0.00     0.006 C 
BRANCH   5   6
ATOM      6  C   UNL     1      46.199  14.946  11.386  1.00  0.00    -0.003 C 
ATOM      7  C   UNL     1      45.824  15.014  12.865  1.00  0.00     0.004 C 
ENDBRANCH   5   6
ENDBRANCH   1   5
TORSDOF 3
ENDMDL
MODEL 3
REMARK VINA RESULT:    -3.127     17.307     18.509
REMARK INTER + INTRA:          -3.775
REMARK INTER:                  -3.690
REMARK INTRA:                  -0.085
REMARK UNBOUND:                -0.099
REMARK SMILES CCCCC(=O)[O-]
REMARK SMILES IDX 4 1 5 2 6 3 7 4 3 5 2 6 1 7
REMARK H PARENT
REMARK Flexibility Score: inf
ROOT
ATOM      1  C   UNL     1      43.327  27.894  -0.796  1.00  0.00     0.053 C 
ENDROOT
BRANCH   1   2
ATOM      2  C   UNL     1      44.116  26.835  -1.503  1.00  0.00     0.041 C 
ATOM      3  O   UNL     1      43.694  25.650  -1.543  1.00  0.00    -0.550 OA
ATOM      4  O   UNL     1      45.337  27.148  -2.090  1.00  0.00    -0.550 OA
ENDBRANCH   1   2
BRANCH   1   5
ATOM      5  C   UNL     1      42.498  27.331   0.372  1.00  0.00     0.006 C 
BRANCH   5   6
ATOM      6  C   UNL     1      43.056  27.689   1.760  1.00  0.00    -0.003 C 
ATOM      7  C   UNL     1      44.131  26.719   2.247  1.00  0.00     0.004 C 
ENDBRANCH   5   6
ENDBRANCH   1   5
TORSDOF 3
ENDMDL
MODEL 4
REMARK VINA RESULT:    -3.086     17.278     18.492
REMARK INTER + INTRA:          -3.727
REMARK INTER:                  -3.649
REMARK INTRA:                  -0.078
REMARK UNBOUND:                -0.099
REMARK SMILES CCCCC(=O)[O-]
REMARK SMILES IDX 4 1 5 2 6 3 7 4 3 5 2 6 1 7
REMARK H PARENT
REMARK Flexibility Score: inf
ROOT
ATOM      1  C   UNL     1      43.421  27.931  -0.728  1.00  0.00     0.053 C 
ENDROOT
BRANCH   1   2
ATOM      2  C   UNL     1      44.170  26.861  -1.463  1.00  0.00     0.041 C 
ATOM      3  O   UNL     1      45.251  27.133  -2.050  1.00  0.00    -0.550 OA
ATOM      4  O   UNL     1      43.660  25.570  -1.529  1.00  0.00    -0.550 OA
ENDBRANCH   1   2
BRANCH   1   5
ATOM      5  C   UNL     1      42.528  27.365   0.390  1.00  0.00     0.006 C 
BRANCH   5   6
ATOM      6  C   UNL     1      43.046  27.658   1.808  1.00  0.00    -0.003 C 
ATOM      7  C   UNL     1      44.156  26.708   2.254  1.00  0.00     0.004 C 
ENDBRANCH   5   6
ENDBRANCH   1   5
TORSDOF 3
ENDMDL
MODEL 5
REMARK VINA RESULT:    -2.985     18.455     18.935
REMARK INTER + INTRA:          -3.608
REMARK INTER:                  -3.570
REMARK INTRA:                  -0.037
REMARK UNBOUND:                -0.099
REMARK SMILES CCCCC(=O)[O-]
REMARK SMILES IDX 4 1 5 2 6 3 7 4 3 5 2 6 1 7
REMARK H PARENT
REMARK Flexibility Score: inf
ROOT
ATOM      1  C   UNL     1      43.059  27.923  -0.671  1.00  0.00     0.053 C 
ENDROOT
BRANCH   1   2
ATOM      2  C   UNL     1      44.193  27.013  -1.034  1.00  0.00     0.041 C 
ATOM      3  O   UNL     1      43.975  25.960  -1.689  1.00  0.00    -0.550 OA
ATOM      4  O   UNL     1      45.486  27.309  -0.622  1.00  0.00    -0.550 OA
ENDBRANCH   1   2
BRANCH   1   5
ATOM      5  C   UNL     1      42.288  27.440   0.570  1.00  0.00     0.006 C 
BRANCH   5   6
ATOM      6  C   UNL     1      42.533  28.294   1.826  1.00  0.00    -0.003 C 
ATOM      7  C   UNL     1      41.754  29.607   1.824  1.00  0.00     0.004 C 
ENDBRANCH   5   6
ENDBRANCH   1   5
TORSDOF 3
ENDMDL
MODEL 6
REMARK VINA RESULT:    -2.907     16.411     17.639
REMARK INTER + INTRA:          -3.516
REMARK INTER:                  -3.501
REMARK INTRA:                  -0.015
REMARK UNBOUND:                -0.099
REMARK SMILES CCCCC(=O)[O-]
REMARK SMILES IDX 4 1 5 2 6 3 7 4 3 5 2 6 1 7
REMARK H PARENT
REMARK Flexibility Score: inf
ROOT
ATOM      1  C   UNL     1      44.554  27.473   0.535  1.00  0.00     0.053 C 
ENDROOT
BRANCH   1   2
ATOM      2  C   UNL     1      43.752  27.207  -0.701  1.00  0.00     0.041 C 
ATOM      3  O   UNL     1      42.864  28.022  -1.068  1.00  0.00    -0.550 OA
ATOM      4  O   UNL     1      43.958  26.044  -1.433  1.00  0.00    -0.550 OA
ENDBRANCH   1   2
BRANCH   1   5
ATOM      5  C   UNL     1      43.979  26.767   1.776  1.00  0.00     0.006 C 
BRANCH   5   6
ATOM      6  C   UNL     1      44.950  26.712   2.968  1.00  0.00    -0.003 C 
ATOM      7  C   UNL     1      45.265  25.289   3.424  1.00  0.00     0.004 C 
ENDBRANCH   5   6
ENDBRANCH   1   5
TORSDOF 3
ENDMDL
MODEL 7
REMARK VINA RESULT:    -2.853     14.784     16.226
REMARK INTER + INTRA:          -3.452
REMARK INTER:                  -3.408
REMARK INTRA:                  -0.044
REMARK UNBOUND:                -0.099
REMARK SMILES CCCCC(=O)[O-]
REMARK SMILES IDX 4 1 5 2 6 3 7 4 3 5 2 6 1 7
REMARK H PARENT
REMARK Flexibility Score: inf
ROOT
ATOM      1  C   UNL     1      44.911  25.798   3.212  1.00  0.00     0.053 C 
ENDROOT
BRANCH   1   2
ATOM      2  C   UNL     1      46.382  25.512   3.187  1.00  0.00     0.041 C 
ATOM      3  O   UNL     1      46.989  25.221   4.252  1.00  0.00    -0.550 OA
ATOM      4  O   UNL     1      47.091  25.598   1.995  1.00  0.00    -0.550 OA
ENDBRANCH   1   2
BRANCH   1   5
ATOM      5  C   UNL     1      44.556  27.124   2.519  1.00  0.00     0.006 C 
BRANCH   5   6
ATOM      6  C   UNL     1      43.610  26.965   1.316  1.00  0.00    -0.003 C 
ATOM      7  C   UNL     1      42.341  27.807   1.431  1.00  0.00     0.004 C 
ENDBRANCH   5   6
ENDBRANCH   1   5
TORSDOF 3
ENDMDL
MODEL 8
REMARK VINA RESULT:    -2.830     16.398     17.692
REMARK INTER + INTRA:          -3.425
REMARK INTER:                  -3.301
REMARK INTRA:                  -0.124
REMARK UNBOUND:                -0.099
REMARK SMILES CCCCC(=O)[O-]
REMARK SMILES IDX 4 1 5 2 6 3 7 4 3 5 2 6 1 7
REMARK H PARENT
REMARK Flexibility Score: inf
ROOT
ATOM      1  C   UNL     1      44.098  27.901   2.038  1.00  0.00     0.053 C 
ENDROOT
BRANCH   1   2
ATOM      2  C   UNL     1      44.985  26.703   1.898  1.00  0.00     0.041 C 
ATOM      3  O   UNL     1      45.896  26.686   1.028  1.00  0.00    -0.550 OA
ATOM      4  O   UNL     1      44.787  25.588   2.703  1.00  0.00    -0.550 OA
ENDBRANCH   1   2
BRANCH   1   5
ATOM      5  C   UNL     1      42.661  27.631   1.560  1.00  0.00     0.006 C 
BRANCH   5   6
ATOM      6  C   UNL     1      42.567  27.181   0.092  1.00  0.00    -0.003 C 
ATOM      7  C   UNL     1      42.984  28.266  -0.899  1.00  0.00     0.004 C 
ENDBRANCH   5   6
ENDBRANCH   1   5
TORSDOF 3
ENDMDL
MODEL 9
REMARK VINA RESULT:    -2.773     13.901     14.734
REMARK INTER + INTRA:          -3.359
REMARK INTER:                  -3.343
REMARK INTRA:                  -0.016
REMARK UNBOUND:                -0.099
REMARK SMILES CCCCC(=O)[O-]
REMARK SMILES IDX 4 1 5 2 6 3 7 4 3 5 2 6 1 7
REMARK H PARENT
REMARK Flexibility Score: inf
ROOT
ATOM      1  C   UNL     1      45.974  26.676   4.460  1.00  0.00     0.053 C 
ENDROOT
BRANCH   1   2
ATOM      2  C   UNL     1      45.971  25.686   3.336  1.00  0.00     0.041 C 
ATOM      3  O   UNL     1      44.915  25.470   2.684  1.00  0.00    -0.550 OA
ATOM      4  O   UNL     1      47.124  24.976   3.026  1.00  0.00    -0.550 OA
ENDBRANCH   1   2
BRANCH   1   5
ATOM      5  C   UNL     1      46.002  25.999   5.842  1.00  0.00     0.006 C 
BRANCH   5   6
ATOM      6  C   UNL     1      45.850  26.978   7.019  1.00  0.00    -0.003 C 
ATOM      7  C   UNL     1      45.444  26.296   8.323  1.00  0.00     0.004 C 
ENDBRANCH   5   6
ENDBRANCH   1   5
TORSDOF 3
ENDMDL
