MODEL 1
REMARK VINA RESULT:    -7.763      0.000      0.000
REMARK INTER + INTRA:          -9.696
REMARK INTER:                  -9.351
REMARK INTRA:                  -0.345
REMARK UNBOUND:                -0.345
REMARK SMILES Oc1cc(O)c2c(c1)O[C@@H](c1ccc(O)c(O)c1)[C@H](O)C2
REMARK SMILES IDX 21 1 19 2 10 3 9 4 7 5 8 6 2 7 3 8 4 9 6 10 20 11 11 13
REMARK SMILES IDX 18 14 12 15 16 16 13 17 14 18 17 19 15 21 5 23 1 25
REMARK H PARENT 20 12 17 20 15 22 5 24 1 26
REMARK Flexibility Score: inf
ROOT
ATOM      1  C   UNL     1      -0.154  44.869   1.089  1.00  0.00     0.079 C 
ATOM      2  C   UNL     1       1.317  44.811   1.532  1.00  0.00     0.164 C 
ATOM      3  C   UNL     1       1.610  45.952   2.526  1.00  0.00     0.232 C 
ATOM      4  O   UNL     1       0.715  45.869   3.635  1.00  0.00    -0.482 OA
ATOM      5  C   UNL     1      -0.627  45.504   3.487  1.00  0.00     0.131 A 
ATOM      6  C   UNL     1      -1.486  45.620   4.584  1.00  0.00     0.093 A 
ATOM      7  C   UNL     1      -2.837  45.277   4.462  1.00  0.00     0.122 A 
ATOM      8  C   UNL     1      -3.330  44.826   3.236  1.00  0.00     0.092 A 
ATOM      9  C   UNL     1      -2.485  44.705   2.127  1.00  0.00     0.126 A 
ATOM     10  C   UNL     1      -1.108  45.008   2.257  1.00  0.00     0.039 A 
ENDROOT
BRANCH   2  11
ATOM     11  O   UNL     1       2.139  44.926   0.398  1.00  0.00    -0.389 OA
ATOM     12  H   UNL     1       3.008  45.296   0.704  1.00  0.00     0.211 HD
ENDBRANCH   2  11
BRANCH   3  13
ATOM     13  C   UNL     1       3.034  45.897   3.025  1.00  0.00    -0.001 A 
ATOM     14  C   UNL     1       3.987  46.824   2.567  1.00  0.00     0.057 A 
ATOM     15  C   UNL     1       3.411  44.948   3.988  1.00  0.00     0.012 A 
ATOM     16  C   UNL     1       5.302  46.792   3.051  1.00  0.00     0.157 A 
ATOM     17  C   UNL     1       4.722  44.914   4.471  1.00  0.00     0.050 A 
ATOM     18  C   UNL     1       5.670  45.830   4.007  1.00  0.00     0.157 A 
BRANCH  16  19
ATOM     19  O   UNL     1       6.242  47.711   2.587  1.00  0.00    -0.504 OA
ATOM     20  H   UNL     1       5.977  48.653   2.322  1.00  0.00     0.293 HD
ENDBRANCH  16  19
BRANCH  18  21
ATOM     21  O   UNL     1       6.971  45.771   4.507  1.00  0.00    -0.504 OA
ATOM     22  H   UNL     1       7.222  45.174   5.286  1.00  0.00     0.293 HD
ENDBRANCH  18  21
ENDBRANCH   3  13
BRANCH   9  23
ATOM     23  O   UNL     1      -3.046  44.292   0.915  1.00  0.00    -0.507 OA
ATOM     24  H   UNL     1      -3.169  44.906   0.121  1.00  0.00     0.293 HD
ENDBRANCH   9  23
BRANCH   7  25
ATOM     25  O   UNL     1      -3.699  45.388   5.551  1.00  0.00    -0.508 OA
ATOM     26  H   UNL     1      -4.602  44.928   5.561  1.00  0.00     0.293 HD
ENDBRANCH   7  25
TORSDOF 6
ENDMDL
MODEL 2
REMARK VINA RESULT:    -7.743      1.673      3.430
REMARK INTER + INTRA:          -9.672
REMARK INTER:                  -9.329
REMARK INTRA:                  -0.342
REMARK UNBOUND:                -0.345
REMARK SMILES Oc1cc(O)c2c(c1)O[C@@H](c1ccc(O)c(O)c1)[C@H](O)C2
REMARK SMILES IDX 21 1 19 2 10 3 9 4 7 5 8 6 2 7 3 8 4 9 6 10 20 11 11 13
REMARK SMILES IDX 18 14 12 15 16 16 13 17 14 18 17 19 15 21 5 23 1 25
REMARK H PARENT 20 12 17 20 15 22 5 24 1 26
REMARK Flexibility Score: inf
ROOT
ATOM      1  C   UNL     1      -0.577  45.574   2.488  1.00  0.00     0.079 C 
ATOM      2  C   UNL     1       0.799  46.021   3.009  1.00  0.00     0.164 C 
ATOM      3  C   UNL     1       1.893  45.074   2.478  1.00  0.00     0.232 C 
ATOM      4  O   UNL     1       1.849  45.035   1.052  1.00  0.00    -0.482 OA
ATOM      5  C   UNL     1       0.645  45.054   0.340  1.00  0.00     0.131 A 
ATOM      6  C   UNL     1       0.670  44.829  -1.040  1.00  0.00     0.093 A 
ATOM      7  C   UNL     1      -0.519  44.826  -1.776  1.00  0.00     0.122 A 
ATOM      8  C   UNL     1      -1.737  45.038  -1.126  1.00  0.00     0.092 A 
ATOM      9  C   UNL     1      -1.781  45.263   0.255  1.00  0.00     0.126 A 
ATOM     10  C   UNL     1      -0.577  45.312   0.997  1.00  0.00     0.039 A 
ENDROOT
BRANCH   2  11
ATOM     11  O   UNL     1       0.780  46.010   4.414  1.00  0.00    -0.389 OA
ATOM     12  H   UNL     1       0.117  46.690   4.702  1.00  0.00     0.211 HD
ENDBRANCH   2  11
BRANCH   3  13
ATOM     13  C   UNL     1       3.267  45.512   2.927  1.00  0.00    -0.001 A 
ATOM     14  C   UNL     1       3.877  46.644   2.360  1.00  0.00     0.057 A 
ATOM     15  C   UNL     1       3.931  44.818   3.951  1.00  0.00     0.012 A 
ATOM     16  C   UNL     1       5.140  47.067   2.796  1.00  0.00     0.157 A 
ATOM     17  C   UNL     1       5.191  45.238   4.387  1.00  0.00     0.050 A 
ATOM     18  C   UNL     1       5.800  46.358   3.814  1.00  0.00     0.157 A 
BRANCH  16  19
ATOM     19  O   UNL     1       5.740  48.187   2.223  1.00  0.00    -0.504 OA
ATOM     20  H   UNL     1       5.214  48.836   1.650  1.00  0.00     0.293 HD
ENDBRANCH  16  19
BRANCH  18  21
ATOM     21  O   UNL     1       7.058  46.753   4.270  1.00  0.00    -0.504 OA
ATOM     22  H   UNL     1       7.241  47.694   4.597  1.00  0.00     0.293 HD
ENDBRANCH  18  21
ENDBRANCH   3  13
BRANCH   9  23
ATOM     23  O   UNL     1      -3.033  45.423   0.855  1.00  0.00    -0.507 OA
ATOM     24  H   UNL     1      -3.259  45.068   1.774  1.00  0.00     0.293 HD
ENDBRANCH   9  23
BRANCH   7  25
ATOM     25  O   UNL     1      -0.503  44.606  -3.151  1.00  0.00    -0.508 OA
ATOM     26  H   UNL     1      -1.306  44.818  -3.731  1.00  0.00     0.293 HD
ENDBRANCH   7  25
TORSDOF 6
ENDMDL
MODEL 3
REMARK VINA RESULT:    -7.503      6.521      8.336
REMARK INTER + INTRA:          -9.383
REMARK INTER:                  -9.011
REMARK INTRA:                  -0.372
REMARK UNBOUND:                -0.345
REMARK SMILES Oc1cc(O)c2c(c1)O[C@@H](c1ccc(O)c(O)c1)[C@H](O)C2
REMARK SMILES IDX 21 1 19 2 10 3 9 4 7 5 8 6 2 7 3 8 4 9 6 10 20 11 11 13
REMARK SMILES IDX 18 14 12 15 16 16 13 17 14 18 17 19 15 21 5 23 1 25
REMARK H PARENT 20 12 17 20 15 22 5 24 1 26
REMARK Flexibility Score: inf
ROOT
ATOM      1  C   UNL     1       3.614  45.821  11.814  1.00  0.00     0.079 C 
ATOM      2  C   UNL     1       4.286  44.971  10.722  1.00  0.00     0.164 C 
ATOM      3  C   UNL     1       3.490  43.669  10.510  1.00  0.00     0.232 C 
ATOM      4  O   UNL     1       2.134  43.978  10.187  1.00  0.00    -0.482 OA
ATOM      5  C   UNL     1       1.444  45.035  10.788  1.00  0.00     0.131 A 
ATOM      6  C   UNL     1       0.071  45.166  10.561  1.00  0.00     0.093 A 
ATOM      7  C   UNL     1      -0.648  46.204  11.162  1.00  0.00     0.122 A 
ATOM      8  C   UNL     1       0.008  47.108  12.000  1.00  0.00     0.092 A 
ATOM      9  C   UNL     1       1.382  46.992  12.240  1.00  0.00     0.126 A 
ATOM     10  C   UNL     1       2.123  45.969  11.599  1.00  0.00     0.039 A 
ENDROOT
BRANCH   2  11
ATOM     11  O   UNL     1       5.603  44.681  11.117  1.00  0.00    -0.389 OA
ATOM     12  H   UNL     1       6.035  45.544  11.346  1.00  0.00     0.211 HD
ENDBRANCH   2  11
BRANCH   3  13
ATOM     13  C   UNL     1       4.090  42.829   9.407  1.00  0.00    -0.001 A 
ATOM     14  C   UNL     1       4.248  43.355   8.113  1.00  0.00     0.057 A 
ATOM     15  C   UNL     1       4.541  41.526   9.675  1.00  0.00     0.012 A 
ATOM     16  C   UNL     1       4.831  42.586   7.097  1.00  0.00     0.157 A 
ATOM     17  C   UNL     1       5.122  40.758   8.663  1.00  0.00     0.050 A 
ATOM     18  C   UNL     1       5.268  41.279   7.375  1.00  0.00     0.157 A 
BRANCH  16  19
ATOM     19  O   UNL     1       4.977  43.114   5.815  1.00  0.00    -0.504 OA
ATOM     20  H   UNL     1       4.772  44.086   5.615  1.00  0.00     0.293 HD
ENDBRANCH  16  19
BRANCH  18  21
ATOM     21  O   UNL     1       5.852  40.488   6.385  1.00  0.00    -0.504 OA
ATOM     22  H   UNL     1       6.034  40.840   5.453  1.00  0.00     0.293 HD
ENDBRANCH  18  21
ENDBRANCH   3  13
BRANCH   9  23
ATOM     23  O   UNL     1       1.974  47.897  13.125  1.00  0.00    -0.507 OA
ATOM     24  H   UNL     1       2.620  47.624  13.853  1.00  0.00     0.293 HD
ENDBRANCH   9  23
BRANCH   7  25
ATOM     25  O   UNL     1      -2.016  46.343  10.938  1.00  0.00    -0.508 OA
ATOM     26  H   UNL     1      -2.387  46.511  10.010  1.00  0.00     0.293 HD
ENDBRANCH   7  25
TORSDOF 6
ENDMDL
MODEL 4
REMARK VINA RESULT:    -7.346      4.265      6.839
REMARK INTER + INTRA:          -9.193
REMARK INTER:                  -9.203
REMARK INTRA:                   0.010
REMARK UNBOUND:                -0.345
REMARK SMILES Oc1cc(O)c2c(c1)O[C@@H](c1ccc(O)c(O)c1)[C@H](O)C2
REMARK SMILES IDX 21 1 19 2 10 3 9 4 7 5 8 6 2 7 3 8 4 9 6 10 20 11 11 13
REMARK SMILES IDX 18 14 12 15 16 16 13 17 14 18 17 19 15 21 5 23 1 25
REMARK H PARENT 20 12 17 20 15 22 5 24 1 26
REMARK Flexibility Score: inf
ROOT
ATOM      1  C   UNL     1      -3.265  44.646  -1.210  1.00  0.00     0.079 C 
ATOM      2  C   UNL     1      -3.307  45.132   0.248  1.00  0.00     0.164 C 
ATOM      3  C   UNL     1      -2.225  44.409   1.072  1.00  0.00     0.232 C 
ATOM      4  O   UNL     1      -0.944  44.617   0.477  1.00  0.00    -0.482 OA
ATOM      5  C   UNL     1      -0.757  44.638  -0.909  1.00  0.00     0.131 A 
ATOM      6  C   UNL     1       0.544  44.663  -1.417  1.00  0.00     0.093 A 
ATOM      7  C   UNL     1       0.762  44.669  -2.799  1.00  0.00     0.122 A 
ATOM      8  C   UNL     1      -0.327  44.639  -3.673  1.00  0.00     0.092 A 
ATOM      9  C   UNL     1      -1.637  44.612  -3.181  1.00  0.00     0.126 A 
ATOM     10  C   UNL     1      -1.864  44.652  -1.784  1.00  0.00     0.039 A 
ENDROOT
BRANCH   2  11
ATOM     11  O   UNL     1      -4.583  44.872   0.778  1.00  0.00    -0.389 OA
ATOM     12  H   UNL     1      -5.134  45.682   0.619  1.00  0.00     0.211 HD
ENDBRANCH   2  11
BRANCH   3  13
ATOM     13  C   UNL     1      -2.201  44.898   2.501  1.00  0.00    -0.001 A 
ATOM     14  C   UNL     1      -3.239  44.565   3.387  1.00  0.00     0.057 A 
ATOM     15  C   UNL     1      -1.114  45.653   2.973  1.00  0.00     0.012 A 
ATOM     16  C   UNL     1      -3.204  44.995   4.721  1.00  0.00     0.157 A 
ATOM     17  C   UNL     1      -1.077  46.082   4.302  1.00  0.00     0.050 A 
ATOM     18  C   UNL     1      -2.116  45.759   5.179  1.00  0.00     0.157 A 
BRANCH  16  19
ATOM     19  O   UNL     1      -4.241  44.665   5.591  1.00  0.00    -0.504 OA
ATOM     20  H   UNL     1      -5.203  44.914   5.390  1.00  0.00     0.293 HD
ENDBRANCH  16  19
BRANCH  18  21
ATOM     21  O   UNL     1      -2.052  46.202   6.500  1.00  0.00    -0.504 OA
ATOM     22  H   UNL     1      -1.689  47.116   6.744  1.00  0.00     0.293 HD
ENDBRANCH  18  21
ENDBRANCH   3  13
BRANCH   9  23
ATOM     23  O   UNL     1      -2.684  44.536  -4.104  1.00  0.00    -0.507 OA
ATOM     24  H   UNL     1      -2.848  45.233  -4.818  1.00  0.00     0.293 HD
ENDBRANCH   9  23
BRANCH   7  25
ATOM     25  O   UNL     1       2.057  44.696  -3.314  1.00  0.00    -0.508 OA
ATOM     26  H   UNL     1       2.278  44.284  -4.212  1.00  0.00     0.293 HD
ENDBRANCH   7  25
TORSDOF 6
ENDMDL
MODEL 5
REMARK VINA RESULT:    -7.331      7.426      9.786
REMARK INTER + INTRA:          -9.175
REMARK INTER:                  -8.806
REMARK INTRA:                  -0.370
REMARK UNBOUND:                -0.345
REMARK SMILES Oc1cc(O)c2c(c1)O[C@@H](c1ccc(O)c(O)c1)[C@H](O)C2
REMARK SMILES IDX 21 1 19 2 10 3 9 4 7 5 8 6 2 7 3 8 4 9 6 10 20 11 11 13
REMARK SMILES IDX 18 14 12 15 16 16 13 17 14 18 17 19 15 21 5 23 1 25
REMARK H PARENT 20 12 17 20 15 22 5 24 1 26
REMARK Flexibility Score: inf
ROOT
ATOM      1  C   UNL     1       9.022  46.340  -3.446  1.00  0.00     0.079 C 
ATOM      2  C   UNL     1       8.615  47.245  -2.271  1.00  0.00     0.164 C 
ATOM      3  C   UNL     1       7.606  48.305  -2.753  1.00  0.00     0.232 C 
ATOM      4  O   UNL     1       6.479  47.666  -3.351  1.00  0.00    -0.482 OA
ATOM      5  C   UNL     1       6.603  46.522  -4.146  1.00  0.00     0.131 A 
ATOM      6  C   UNL     1       5.485  46.058  -4.845  1.00  0.00     0.093 A 
ATOM      7  C   UNL     1       5.582  44.925  -5.660  1.00  0.00     0.122 A 
ATOM      8  C   UNL     1       6.805  44.262  -5.782  1.00  0.00     0.092 A 
ATOM      9  C   UNL     1       7.935  44.713  -5.091  1.00  0.00     0.126 A 
ATOM     10  C   UNL     1       7.831  45.832  -4.230  1.00  0.00     0.039 A 
ENDROOT
BRANCH   2  11
ATOM     11  O   UNL     1       9.764  47.861  -1.750  1.00  0.00    -0.389 OA
ATOM     12  H   UNL     1      10.183  48.371  -2.492  1.00  0.00     0.211 HD
ENDBRANCH   2  11
BRANCH   3  13
ATOM     13  C   UNL     1       7.142  49.182  -1.615  1.00  0.00    -0.001 A 
ATOM     14  C   UNL     1       6.550  48.616  -0.473  1.00  0.00     0.057 A 
ATOM     15  C   UNL     1       7.339  50.572  -1.665  1.00  0.00     0.012 A 
ATOM     16  C   UNL     1       6.143  49.427   0.596  1.00  0.00     0.157 A 
ATOM     17  C   UNL     1       6.935  51.382  -0.601  1.00  0.00     0.050 A 
ATOM     18  C   UNL     1       6.336  50.818   0.529  1.00  0.00     0.157 A 
BRANCH  16  19
ATOM     19  O   UNL     1       5.552  48.857   1.722  1.00  0.00    -0.504 OA
ATOM     20  H   UNL     1       6.087  48.301   2.379  1.00  0.00     0.293 HD
ENDBRANCH  16  19
BRANCH  18  21
ATOM     21  O   UNL     1       5.943  51.652   1.576  1.00  0.00    -0.504 OA
ATOM     22  H   UNL     1       6.456  51.699   2.449  1.00  0.00     0.293 HD
ENDBRANCH  18  21
ENDBRANCH   3  13
BRANCH   9  23
ATOM     23  O   UNL     1       9.141  44.035  -5.289  1.00  0.00    -0.507 OA
ATOM     24  H   UNL     1      10.038  44.400  -4.999  1.00  0.00     0.293 HD
ENDBRANCH   9  23
BRANCH   7  25
ATOM     25  O   UNL     1       4.472  44.455  -6.358  1.00  0.00    -0.508 OA
ATOM     26  H   UNL     1       3.836  45.087  -6.830  1.00  0.00     0.293 HD
ENDBRANCH   7  25
TORSDOF 6
ENDMDL
MODEL 6
REMARK VINA RESULT:    -7.205      4.310      5.489
REMARK INTER + INTRA:          -9.024
REMARK INTER:                  -9.076
REMARK INTRA:                   0.052
REMARK UNBOUND:                -0.345
REMARK SMILES Oc1cc(O)c2c(c1)O[C@@H](c1ccc(O)c(O)c1)[C@H](O)C2
REMARK SMILES IDX 21 1 19 2 10 3 9 4 7 5 8 6 2 7 3 8 4 9 6 10 20 11 11 13
REMARK SMILES IDX 18 14 12 15 16 16 13 17 14 18 17 19 15 21 5 23 1 25
REMARK H PARENT 20 12 17 20 15 22 5 24 1 26
REMARK Flexibility Score: inf
ROOT
ATOM      1  C   UNL     1      -4.493  44.882   1.960  1.00  0.00     0.079 C 
ATOM      2  C   UNL     1      -3.479  44.515   0.864  1.00  0.00     0.164 C 
ATOM      3  C   UNL     1      -2.319  45.529   0.862  1.00  0.00     0.232 C 
ATOM      4  O   UNL     1      -1.715  45.575   2.154  1.00  0.00    -0.482 OA
ATOM      5  C   UNL     1      -2.462  45.490   3.333  1.00  0.00     0.131 A 
ATOM      6  C   UNL     1      -1.828  45.724   4.557  1.00  0.00     0.093 A 
ATOM      7  C   UNL     1      -2.553  45.662   5.751  1.00  0.00     0.122 A 
ATOM      8  C   UNL     1      -3.919  45.372   5.719  1.00  0.00     0.092 A 
ATOM      9  C   UNL     1      -4.571  45.136   4.503  1.00  0.00     0.126 A 
ATOM     10  C   UNL     1      -3.832  45.154   3.295  1.00  0.00     0.039 A 
ENDROOT
BRANCH   2  11
ATOM     11  O   UNL     1      -4.133  44.515  -0.380  1.00  0.00    -0.389 OA
ATOM     12  H   UNL     1      -3.434  44.408  -1.076  1.00  0.00     0.211 HD
ENDBRANCH   2  11
BRANCH   3  13
ATOM     13  C   UNL     1      -1.275  45.172  -0.169  1.00  0.00    -0.001 A 
ATOM     14  C   UNL     1      -1.566  45.262  -1.541  1.00  0.00     0.057 A 
ATOM     15  C   UNL     1       0.015  44.790   0.233  1.00  0.00     0.012 A 
ATOM     16  C   UNL     1      -0.589  44.958  -2.499  1.00  0.00     0.157 A 
ATOM     17  C   UNL     1       0.991  44.487  -0.720  1.00  0.00     0.050 A 
ATOM     18  C   UNL     1       0.696  44.566  -2.084  1.00  0.00     0.157 A 
BRANCH  16  19
ATOM     19  O   UNL     1      -0.888  45.044  -3.857  1.00  0.00    -0.504 OA
ATOM     20  H   UNL     1      -0.320  44.580  -4.557  1.00  0.00     0.293 HD
ENDBRANCH  16  19
BRANCH  18  21
ATOM     21  O   UNL     1       1.690  44.256  -3.012  1.00  0.00    -0.504 OA
ATOM     22  H   UNL     1       2.423  43.585  -2.813  1.00  0.00     0.293 HD
ENDBRANCH  18  21
ENDBRANCH   3  13
BRANCH   9  23
ATOM     23  O   UNL     1      -5.947  44.897   4.530  1.00  0.00    -0.507 OA
ATOM     24  H   UNL     1      -6.378  44.075   4.129  1.00  0.00     0.293 HD
ENDBRANCH   9  23
BRANCH   7  25
ATOM     25  O   UNL     1      -1.928  45.892   6.975  1.00  0.00    -0.508 OA
ATOM     26  H   UNL     1      -0.920  45.864   7.068  1.00  0.00     0.293 HD
ENDBRANCH   7  25
TORSDOF 6
ENDMDL
MODEL 7
REMARK VINA RESULT:    -7.046      1.873      7.025
REMARK INTER + INTRA:          -8.832
REMARK INTER:                  -8.480
REMARK INTRA:                  -0.352
REMARK UNBOUND:                -0.345
REMARK SMILES Oc1cc(O)c2c(c1)O[C@@H](c1ccc(O)c(O)c1)[C@H](O)C2
REMARK SMILES IDX 21 1 19 2 10 3 9 4 7 5 8 6 2 7 3 8 4 9 6 10 20 11 11 13
REMARK SMILES IDX 18 14 12 15 16 16 13 17 14 18 17 19 15 21 5 23 1 25
REMARK H PARENT 20 12 17 20 15 22 5 24 1 26
REMARK Flexibility Score: inf
ROOT
ATOM      1  C   UNL     1       5.482  46.583   3.020  1.00  0.00     0.079 C 
ATOM      2  C   UNL     1       4.001  46.683   2.618  1.00  0.00     0.164 C 
ATOM      3  C   UNL     1       3.321  45.310   2.783  1.00  0.00     0.232 C 
ATOM      4  O   UNL     1       3.479  44.849   4.125  1.00  0.00    -0.482 OA
ATOM      5  C   UNL     1       4.660  45.047   4.849  1.00  0.00     0.131 A 
ATOM      6  C   UNL     1       4.811  44.413   6.085  1.00  0.00     0.093 A 
ATOM      7  C   UNL     1       5.987  44.580   6.825  1.00  0.00     0.122 A 
ATOM      8  C   UNL     1       7.016  45.376   6.319  1.00  0.00     0.092 A 
ATOM      9  C   UNL     1       6.883  46.018   5.083  1.00  0.00     0.126 A 
ATOM     10  C   UNL     1       5.677  45.888   4.351  1.00  0.00     0.039 A 
ENDROOT
BRANCH   2  11
ATOM     11  O   UNL     1       3.919  47.113   1.283  1.00  0.00    -0.389 OA
ATOM     12  H   UNL     1       3.908  46.300   0.715  1.00  0.00     0.211 HD
ENDBRANCH   2  11
BRANCH   3  13
ATOM     13  C   UNL     1       1.850  45.379   2.447  1.00  0.00    -0.001 A 
ATOM     14  C   UNL     1       1.361  44.805   1.261  1.00  0.00     0.057 A 
ATOM     15  C   UNL     1       0.947  45.978   3.339  1.00  0.00     0.012 A 
ATOM     16  C   UNL     1      -0.008  44.844   0.961  1.00  0.00     0.157 A 
ATOM     17  C   UNL     1      -0.418  46.018   3.043  1.00  0.00     0.050 A 
ATOM     18  C   UNL     1      -0.901  45.456   1.857  1.00  0.00     0.157 A 
BRANCH  16  19
ATOM     19  O   UNL     1      -0.483  44.277  -0.220  1.00  0.00    -0.504 OA
ATOM     20  H   UNL     1      -0.562  43.273  -0.333  1.00  0.00     0.293 HD
ENDBRANCH  16  19
BRANCH  18  21
ATOM     21  O   UNL     1      -2.269  45.512   1.588  1.00  0.00    -0.504 OA
ATOM     22  H   UNL     1      -2.958  45.611   2.323  1.00  0.00     0.293 HD
ENDBRANCH  18  21
ENDBRANCH   3  13
BRANCH   9  23
ATOM     23  O   UNL     1       7.965  46.764   4.609  1.00  0.00    -0.507 OA
ATOM     24  H   UNL     1       8.702  47.116   5.204  1.00  0.00     0.293 HD
ENDBRANCH   9  23
BRANCH   7  25
ATOM     25  O   UNL     1       6.144  43.953   8.059  1.00  0.00    -0.508 OA
ATOM     26  H   UNL     1       6.404  44.474   8.888  1.00  0.00     0.293 HD
ENDBRANCH   7  25
TORSDOF 6
ENDMDL
MODEL 8
REMARK VINA RESULT:    -6.851      5.487      7.198
REMARK INTER + INTRA:          -8.598
REMARK INTER:                  -8.372
REMARK INTRA:                  -0.225
REMARK UNBOUND:                -0.345
REMARK SMILES Oc1cc(O)c2c(c1)O[C@@H](c1ccc(O)c(O)c1)[C@H](O)C2
REMARK SMILES IDX 21 1 19 2 10 3 9 4 7 5 8 6 2 7 3 8 4 9 6 10 20 11 11 13
REMARK SMILES IDX 18 14 12 15 16 16 13 17 14 18 17 19 15 21 5 23 1 25
REMARK H PARENT 20 12 17 20 15 22 5 24 1 26
REMARK Flexibility Score: inf
ROOT
ATOM      1  C   UNL     1       7.184  45.781   7.805  1.00  0.00     0.079 C 
ATOM      2  C   UNL     1       7.302  46.522   6.463  1.00  0.00     0.164 C 
ATOM      3  C   UNL     1       7.108  45.531   5.299  1.00  0.00     0.232 C 
ATOM      4  O   UNL     1       5.851  44.868   5.433  1.00  0.00    -0.482 OA
ATOM      5  C   UNL     1       5.342  44.474   6.675  1.00  0.00     0.131 A 
ATOM      6  C   UNL     1       4.199  43.670   6.715  1.00  0.00     0.093 A 
ATOM      7  C   UNL     1       3.676  43.247   7.942  1.00  0.00     0.122 A 
ATOM      8  C   UNL     1       4.307  43.622   9.130  1.00  0.00     0.092 A 
ATOM      9  C   UNL     1       5.453  44.425   9.109  1.00  0.00     0.126 A 
ATOM     10  C   UNL     1       5.960  44.893   7.872  1.00  0.00     0.039 A 
ENDROOT
BRANCH   2  11
ATOM     11  O   UNL     1       8.569  47.126   6.386  1.00  0.00    -0.389 OA
ATOM     12  H   UNL     1       9.020  46.969   7.255  1.00  0.00     0.211 HD
ENDBRANCH   2  11
BRANCH   3  13
ATOM     13  C   UNL     1       7.166  46.232   3.962  1.00  0.00    -0.001 A 
ATOM     14  C   UNL     1       6.007  46.795   3.400  1.00  0.00     0.057 A 
ATOM     15  C   UNL     1       8.390  46.369   3.288  1.00  0.00     0.012 A 
ATOM     16  C   UNL     1       6.066  47.470   2.173  1.00  0.00     0.157 A 
ATOM     17  C   UNL     1       8.450  47.042   2.064  1.00  0.00     0.050 A 
ATOM     18  C   UNL     1       7.295  47.592   1.502  1.00  0.00     0.157 A 
BRANCH  16  19
ATOM     19  O   UNL     1       4.911  48.020   1.620  1.00  0.00    -0.504 OA
ATOM     20  H   UNL     1       4.192  47.439   1.204  1.00  0.00     0.293 HD
ENDBRANCH  16  19
BRANCH  18  21
ATOM     21  O   UNL     1       7.386  48.257   0.279  1.00  0.00    -0.504 OA
ATOM     22  H   UNL     1       8.124  48.060  -0.387  1.00  0.00     0.293 HD
ENDBRANCH  18  21
ENDBRANCH   3  13
BRANCH   9  23
ATOM     23  O   UNL     1       6.065  44.729  10.328  1.00  0.00    -0.507 OA
ATOM     24  H   UNL     1       6.789  44.159  10.744  1.00  0.00     0.293 HD
ENDBRANCH   9  23
BRANCH   7  25
ATOM     25  O   UNL     1       2.536  42.449   7.991  1.00  0.00    -0.508 OA
ATOM     26  H   UNL     1       2.576  41.455   7.795  1.00  0.00     0.293 HD
ENDBRANCH   7  25
TORSDOF 6
ENDMDL
MODEL 9
REMARK VINA RESULT:    -6.739      8.456     10.333
REMARK INTER + INTRA:          -8.462
REMARK INTER:                  -8.199
REMARK INTRA:                  -0.264
REMARK UNBOUND:                -0.345
REMARK SMILES Oc1cc(O)c2c(c1)O[C@@H](c1ccc(O)c(O)c1)[C@H](O)C2
REMARK SMILES IDX 21 1 19 2 10 3 9 4 7 5 8 6 2 7 3 8 4 9 6 10 20 11 11 13
REMARK SMILES IDX 18 14 12 15 16 16 13 17 14 18 17 19 15 21 5 23 1 25
REMARK H PARENT 20 12 17 20 15 22 5 24 1 26
REMARK Flexibility Score: inf
ROOT
ATOM      1  C   UNL     1       6.477  47.453  -2.800  1.00  0.00     0.079 C 
ATOM      2  C   UNL     1       7.439  48.164  -1.834  1.00  0.00     0.164 C 
ATOM      3  C   UNL     1       8.599  47.219  -1.463  1.00  0.00     0.232 C 
ATOM      4  O   UNL     1       9.262  46.777  -2.647  1.00  0.00    -0.482 OA
ATOM      5  C   UNL     1       8.568  46.474  -3.823  1.00  0.00     0.131 A 
ATOM      6  C   UNL     1       9.257  45.875  -4.882  1.00  0.00     0.093 A 
ATOM      7  C   UNL     1       8.586  45.547  -6.065  1.00  0.00     0.122 A 
ATOM      8  C   UNL     1       7.220  45.811  -6.183  1.00  0.00     0.092 A 
ATOM      9  C   UNL     1       6.514  46.409  -5.133  1.00  0.00     0.126 A 
ATOM     10  C   UNL     1       7.197  46.784  -3.951  1.00  0.00     0.039 A 
ENDROOT
BRANCH   2  11
ATOM     11  O   UNL     1       6.730  48.546  -0.683  1.00  0.00    -0.389 OA
ATOM     12  H   UNL     1       7.388  48.937  -0.052  1.00  0.00     0.211 HD
ENDBRANCH   2  11
BRANCH   3  13
ATOM     13  C   UNL     1       9.595  47.899  -0.554  1.00  0.00    -0.001 A 
ATOM     14  C   UNL     1       9.506  47.753   0.841  1.00  0.00     0.057 A 
ATOM     15  C   UNL     1      10.651  48.649  -1.096  1.00  0.00     0.012 A 
ATOM     16  C   UNL     1      10.447  48.361   1.684  1.00  0.00     0.157 A 
ATOM     17  C   UNL     1      11.590  49.256  -0.258  1.00  0.00     0.050 A 
ATOM     18  C   UNL     1      11.493  49.118   1.129  1.00  0.00     0.157 A 
BRANCH  16  19
ATOM     19  O   UNL     1      10.347  48.214   3.066  1.00  0.00    -0.504 OA
ATOM     20  H   UNL     1      11.099  48.493   3.686  1.00  0.00     0.293 HD
ENDBRANCH  16  19
BRANCH  18  21
ATOM     21  O   UNL     1      12.445  49.736   1.941  1.00  0.00    -0.504 OA
ATOM     22  H   UNL     1      13.414  49.827   1.660  1.00  0.00     0.293 HD
ENDBRANCH  18  21
ENDBRANCH   3  13
BRANCH   9  23
ATOM     23  O   UNL     1       5.140  46.606  -5.294  1.00  0.00    -0.507 OA
ATOM     24  H   UNL     1       4.739  47.142  -6.051  1.00  0.00     0.293 HD
ENDBRANCH   9  23
BRANCH   7  25
ATOM     25  O   UNL     1       9.266  44.952  -7.125  1.00  0.00    -0.508 OA
ATOM     26  H   UNL     1       9.599  43.996  -7.071  1.00  0.00     0.293 HD
ENDBRANCH   7  25
TORSDOF 6
ENDMDL
