MODEL 1
REMARK VINA RESULT:    -3.991      0.000      0.000
REMARK INTER + INTRA:          -4.877
REMARK INTER:                  -4.574
REMARK INTRA:                  -0.303
REMARK UNBOUND:                -0.303
REMARK SMILES COc1ccc(C(C)=O)c(O)c1
REMARK SMILES IDX 6 1 10 2 12 3 3 4 4 5 5 6 7 7 8 8 9 9 11 10 2 12 1 13
REMARK H PARENT 11 11
REMARK Flexibility Score: inf
ROOT
ATOM      1  C   UNL     1     -32.832 -22.415 -36.785  1.00  0.00     0.059 A 
ATOM      2  C   UNL     1     -32.685 -23.537 -35.934  1.00  0.00     0.130 A 
ATOM      3  C   UNL     1     -32.228 -24.754 -36.457  1.00  0.00     0.093 A 
ATOM      4  C   UNL     1     -31.880 -24.867 -37.815  1.00  0.00     0.122 A 
ATOM      5  C   UNL     1     -31.999 -23.751 -38.644  1.00  0.00     0.047 A 
ATOM      6  C   UNL     1     -32.469 -22.537 -38.138  1.00  0.00     0.019 A 
ENDROOT
BRANCH   1   7
ATOM      7  C   UNL     1     -33.390 -21.130 -36.302  1.00  0.00     0.163 C 
ATOM      8  C   UNL     1     -34.125 -20.209 -37.227  1.00  0.00     0.093 C 
ATOM      9  O   UNL     1     -33.324 -20.835 -35.078  1.00  0.00    -0.294 OA
ENDBRANCH   1   7
BRANCH   2  10
ATOM     10  O   UNL     1     -32.950 -23.476 -34.564  1.00  0.00    -0.507 OA
ATOM     11  H   UNL     1     -33.665 -24.031 -34.111  1.00  0.00     0.293 HD
ENDBRANCH   2  10
BRANCH   4  12
ATOM     12  O   UNL     1     -31.413 -26.066 -38.374  1.00  0.00    -0.497 OA
ATOM     13  C   UNL     1     -32.224 -27.209 -38.621  1.00  0.00     0.278 C 
ENDBRANCH   4  12
TORSDOF 3
ENDMDL
MODEL 2
REMARK VINA RESULT:    -3.816      3.051      4.950
REMARK INTER + INTRA:          -4.676
REMARK INTER:                  -4.434
REMARK INTRA:                  -0.242
REMARK UNBOUND:                -0.303
REMARK SMILES COc1ccc(C(C)=O)c(O)c1
REMARK SMILES IDX 6 1 10 2 12 3 3 4 4 5 5 6 7 7 8 8 9 9 11 10 2 12 1 13
REMARK H PARENT 11 11
REMARK Flexibility Score: inf
ROOT
ATOM      1  C   UNL     1     -32.882 -21.323 -35.188  1.00  0.00     0.059 A 
ATOM      2  C   UNL     1     -32.259 -22.475 -34.649  1.00  0.00     0.130 A 
ATOM      3  C   UNL     1     -31.379 -22.351 -33.565  1.00  0.00     0.093 A 
ATOM      4  C   UNL     1     -31.132 -21.095 -32.981  1.00  0.00     0.122 A 
ATOM      5  C   UNL     1     -31.771 -19.967 -33.497  1.00  0.00     0.047 A 
ATOM      6  C   UNL     1     -32.636 -20.076 -34.587  1.00  0.00     0.019 A 
ENDROOT
BRANCH   1   7
ATOM      7  C   UNL     1     -33.752 -21.388 -36.384  1.00  0.00     0.163 C 
ATOM      8  C   UNL     1     -34.124 -20.149 -37.139  1.00  0.00     0.093 C 
ATOM      9  O   UNL     1     -34.125 -22.506 -36.832  1.00  0.00    -0.294 OA
ENDBRANCH   1   7
BRANCH   2  10
ATOM     10  O   UNL     1     -32.509 -23.759 -35.138  1.00  0.00    -0.507 OA
ATOM     11  H   UNL     1     -31.939 -24.207 -35.845  1.00  0.00     0.293 HD
ENDBRANCH   2  10
BRANCH   4  12
ATOM     12  O   UNL     1     -30.264 -20.930 -31.892  1.00  0.00    -0.497 OA
ATOM     13  C   UNL     1     -30.365 -21.648 -30.666  1.00  0.00     0.278 C 
ENDBRANCH   4  12
TORSDOF 3
ENDMDL
MODEL 3
REMARK VINA RESULT:    -3.652      3.068      5.543
REMARK INTER + INTRA:          -4.489
REMARK INTER:                  -4.182
REMARK INTRA:                  -0.307
REMARK UNBOUND:                -0.303
REMARK SMILES COc1ccc(C(C)=O)c(O)c1
REMARK SMILES IDX 6 1 10 2 12 3 3 4 4 5 5 6 7 7 8 8 9 9 11 10 2 12 1 13
REMARK H PARENT 11 11
REMARK Flexibility Score: inf
ROOT
ATOM      1  C   UNL     1     -32.483 -21.996 -35.168  1.00  0.00     0.059 A 
ATOM      2  C   UNL     1     -32.819 -20.633 -34.982  1.00  0.00     0.130 A 
ATOM      3  C   UNL     1     -32.297 -19.929 -33.889  1.00  0.00     0.093 A 
ATOM      4  C   UNL     1     -31.412 -20.551 -32.989  1.00  0.00     0.122 A 
ATOM      5  C   UNL     1     -31.060 -21.886 -33.194  1.00  0.00     0.047 A 
ATOM      6  C   UNL     1     -31.588 -22.603 -34.270  1.00  0.00     0.019 A 
ENDROOT
BRANCH   1   7
ATOM      7  C   UNL     1     -33.073 -22.809 -36.256  1.00  0.00     0.163 C 
ATOM      8  C   UNL     1     -32.499 -24.143 -36.626  1.00  0.00     0.093 C 
ATOM      9  O   UNL     1     -34.125 -22.421 -36.833  1.00  0.00    -0.294 OA
ENDBRANCH   1   7
BRANCH   2  10
ATOM     10  O   UNL     1     -33.640 -19.937 -35.872  1.00  0.00    -0.507 OA
ATOM     11  H   UNL     1     -33.289 -19.268 -36.545  1.00  0.00     0.293 HD
ENDBRANCH   2  10
BRANCH   4  12
ATOM     12  O   UNL     1     -30.863 -19.878 -31.888  1.00  0.00    -0.497 OA
ATOM     13  C   UNL     1     -30.570 -20.489 -30.635  1.00  0.00     0.278 C 
ENDBRANCH   4  12
TORSDOF 3
ENDMDL
MODEL 4
REMARK VINA RESULT:    -3.460      1.757      4.986
REMARK INTER + INTRA:          -4.268
REMARK INTER:                  -3.951
REMARK INTRA:                  -0.317
REMARK UNBOUND:                -0.303
REMARK SMILES COc1ccc(C(C)=O)c(O)c1
REMARK SMILES IDX 6 1 10 2 12 3 3 4 4 5 5 6 7 7 8 8 9 9 11 10 2 12 1 13
REMARK H PARENT 11 11
REMARK Flexibility Score: inf
ROOT
ATOM      1  C   UNL     1     -32.293 -23.676 -37.179  1.00  0.00     0.059 A 
ATOM      2  C   UNL     1     -33.023 -22.581 -37.702  1.00  0.00     0.130 A 
ATOM      3  C   UNL     1     -33.380 -21.516 -36.864  1.00  0.00     0.093 A 
ATOM      4  C   UNL     1     -32.991 -21.504 -35.512  1.00  0.00     0.122 A 
ATOM      5  C   UNL     1     -32.246 -22.571 -35.008  1.00  0.00     0.047 A 
ATOM      6  C   UNL     1     -31.899 -23.646 -35.829  1.00  0.00     0.019 A 
ENDROOT
BRANCH   1   7
ATOM      7  C   UNL     1     -31.964 -24.865 -37.999  1.00  0.00     0.163 C 
ATOM      8  C   UNL     1     -32.605 -26.192 -37.731  1.00  0.00     0.093 C 
ATOM      9  O   UNL     1     -31.196 -24.751 -38.993  1.00  0.00    -0.294 OA
ENDBRANCH   1   7
BRANCH   2  10
ATOM     10  O   UNL     1     -33.385 -22.498 -39.048  1.00  0.00    -0.507 OA
ATOM     11  H   UNL     1     -34.333 -22.328 -39.360  1.00  0.00     0.293 HD
ENDBRANCH   2  10
BRANCH   4  12
ATOM     12  O   UNL     1     -33.323 -20.454 -34.643  1.00  0.00    -0.497 OA
ATOM     13  C   UNL     1     -32.426 -19.875 -33.701  1.00  0.00     0.278 C 
ENDBRANCH   4  12
TORSDOF 3
ENDMDL
MODEL 5
REMARK VINA RESULT:    -3.275      1.373      2.291
REMARK INTER + INTRA:          -4.057
REMARK INTER:                  -3.717
REMARK INTRA:                  -0.339
REMARK UNBOUND:                -0.303
REMARK SMILES COc1ccc(C(C)=O)c(O)c1
REMARK SMILES IDX 6 1 10 2 12 3 3 4 4 5 5 6 7 7 8 8 9 9 11 10 2 12 1 13
REMARK H PARENT 11 11
REMARK Flexibility Score: inf
ROOT
ATOM      1  C   UNL     1     -32.774 -22.114 -35.967  1.00  0.00     0.059 A 
ATOM      2  C   UNL     1     -32.991 -21.974 -37.359  1.00  0.00     0.130 A 
ATOM      3  C   UNL     1     -32.616 -23.004 -38.231  1.00  0.00     0.093 A 
ATOM      4  C   UNL     1     -32.056 -24.196 -37.736  1.00  0.00     0.122 A 
ATOM      5  C   UNL     1     -31.872 -24.342 -36.361  1.00  0.00     0.047 A 
ATOM      6  C   UNL     1     -32.225 -23.315 -35.484  1.00  0.00     0.019 A 
ENDROOT
BRANCH   1   7
ATOM      7  C   UNL     1     -33.073 -21.022 -35.011  1.00  0.00     0.163 C 
ATOM      8  C   UNL     1     -32.100 -20.645 -33.937  1.00  0.00     0.093 C 
ATOM      9  O   UNL     1     -34.124 -20.338 -35.146  1.00  0.00    -0.294 OA
ENDBRANCH   1   7
BRANCH   2  10
ATOM     10  O   UNL     1     -33.601 -20.845 -37.911  1.00  0.00    -0.507 OA
ATOM     11  H   UNL     1     -33.339 -20.452 -38.806  1.00  0.00     0.293 HD
ENDBRANCH   2  10
BRANCH   4  12
ATOM     12  O   UNL     1     -31.675 -25.253 -38.575  1.00  0.00    -0.497 OA
ATOM     13  C   UNL     1     -32.072 -26.609 -38.395  1.00  0.00     0.278 C 
ENDBRANCH   4  12
TORSDOF 3
ENDMDL
MODEL 6
REMARK VINA RESULT:    -3.271      4.560      5.600
REMARK INTER + INTRA:          -4.052
REMARK INTER:                  -3.768
REMARK INTRA:                  -0.284
REMARK UNBOUND:                -0.303
REMARK SMILES COc1ccc(C(C)=O)c(O)c1
REMARK SMILES IDX 6 1 10 2 12 3 3 4 4 5 5 6 7 7 8 8 9 9 11 10 2 12 1 13
REMARK H PARENT 11 11
REMARK Flexibility Score: inf
ROOT
ATOM      1  C   UNL     1     -31.032 -20.695 -31.728  1.00  0.00     0.059 A 
ATOM      2  C   UNL     1     -30.722 -22.041 -32.045  1.00  0.00     0.130 A 
ATOM      3  C   UNL     1     -31.110 -22.572 -33.282  1.00  0.00     0.093 A 
ATOM      4  C   UNL     1     -31.775 -21.775 -34.231  1.00  0.00     0.122 A 
ATOM      5  C   UNL     1     -32.052 -20.441 -33.925  1.00  0.00     0.047 A 
ATOM      6  C   UNL     1     -31.686 -19.905 -32.689  1.00  0.00     0.019 A 
ENDROOT
BRANCH   1   7
ATOM      7  C   UNL     1     -30.721 -20.109 -30.404  1.00  0.00     0.163 C 
ATOM      8  C   UNL     1     -31.797 -19.875 -29.388  1.00  0.00     0.093 C 
ATOM      9  O   UNL     1     -29.524 -19.877 -30.083  1.00  0.00    -0.294 OA
ENDBRANCH   1   7
BRANCH   2  10
ATOM     10  O   UNL     1     -30.008 -22.869 -31.177  1.00  0.00    -0.507 OA
ATOM     11  H   UNL     1     -29.105 -23.266 -31.403  1.00  0.00     0.293 HD
ENDBRANCH   2  10
BRANCH   4  12
ATOM     12  O   UNL     1     -32.173 -22.268 -35.482  1.00  0.00    -0.497 OA
ATOM     13  C   UNL     1     -32.059 -23.629 -35.885  1.00  0.00     0.278 C 
ENDBRANCH   4  12
TORSDOF 3
ENDMDL
MODEL 7
REMARK VINA RESULT:    -3.138      2.731      4.331
REMARK INTER + INTRA:          -3.899
REMARK INTER:                  -3.736
REMARK INTRA:                  -0.163
REMARK UNBOUND:                -0.303
REMARK SMILES COc1ccc(C(C)=O)c(O)c1
REMARK SMILES IDX 6 1 10 2 12 3 3 4 4 5 5 6 7 7 8 8 9 9 11 10 2 12 1 13
REMARK H PARENT 11 11
REMARK Flexibility Score: inf
ROOT
ATOM      1  C   UNL     1     -31.485 -22.096 -33.910  1.00  0.00     0.059 A 
ATOM      2  C   UNL     1     -32.359 -21.031 -34.238  1.00  0.00     0.130 A 
ATOM      3  C   UNL     1     -33.188 -21.130 -35.363  1.00  0.00     0.093 A 
ATOM      4  C   UNL     1     -33.191 -22.293 -36.154  1.00  0.00     0.122 A 
ATOM      5  C   UNL     1     -32.350 -23.353 -35.809  1.00  0.00     0.047 A 
ATOM      6  C   UNL     1     -31.506 -23.258 -34.701  1.00  0.00     0.019 A 
ENDROOT
BRANCH   1   7
ATOM      7  C   UNL     1     -30.528 -22.008 -32.783  1.00  0.00     0.163 C 
ATOM      8  C   UNL     1     -29.249 -21.239 -32.912  1.00  0.00     0.093 C 
ATOM      9  O   UNL     1     -30.821 -22.515 -31.666  1.00  0.00    -0.294 OA
ENDBRANCH   1   7
BRANCH   2  10
ATOM     10  O   UNL     1     -32.455 -19.875 -33.460  1.00  0.00    -0.507 OA
ATOM     11  H   UNL     1     -32.513 -19.887 -32.450  1.00  0.00     0.293 HD
ENDBRANCH   2  10
BRANCH   4  12
ATOM     12  O   UNL     1     -34.011 -22.434 -37.283  1.00  0.00    -0.497 OA
ATOM     13  C   UNL     1     -34.123 -21.468 -38.322  1.00  0.00     0.278 C 
ENDBRANCH   4  12
TORSDOF 3
ENDMDL
MODEL 8
REMARK VINA RESULT:    -2.608      3.371      4.705
REMARK INTER + INTRA:          -3.291
REMARK INTER:                  -3.184
REMARK INTRA:                  -0.107
REMARK UNBOUND:                -0.303
REMARK SMILES COc1ccc(C(C)=O)c(O)c1
REMARK SMILES IDX 6 1 10 2 12 3 3 4 4 5 5 6 7 7 8 8 9 9 11 10 2 12 1 13
REMARK H PARENT 11 11
REMARK Flexibility Score: inf
ROOT
ATOM      1  C   UNL     1     -31.475 -20.794 -33.143  1.00  0.00     0.059 A 
ATOM      2  C   UNL     1     -31.497 -22.163 -33.504  1.00  0.00     0.130 A 
ATOM      3  C   UNL     1     -32.274 -22.585 -34.591  1.00  0.00     0.093 A 
ATOM      4  C   UNL     1     -33.007 -21.657 -35.354  1.00  0.00     0.122 A 
ATOM      5  C   UNL     1     -32.958 -20.305 -35.012  1.00  0.00     0.047 A 
ATOM      6  C   UNL     1     -32.202 -19.875 -33.920  1.00  0.00     0.019 A 
ENDROOT
BRANCH   1   7
ATOM      7  C   UNL     1     -30.740 -20.307 -31.952  1.00  0.00     0.163 C 
ATOM      8  C   UNL     1     -29.244 -20.226 -31.945  1.00  0.00     0.093 C 
ATOM      9  O   UNL     1     -31.375 -19.875 -30.953  1.00  0.00    -0.294 OA
ENDBRANCH   1   7
BRANCH   2  10
ATOM     10  O   UNL     1     -30.743 -23.126 -32.831  1.00  0.00    -0.507 OA
ATOM     11  H   UNL     1     -30.454 -23.033 -31.866  1.00  0.00     0.293 HD
ENDBRANCH   2  10
BRANCH   4  12
ATOM     12  O   UNL     1     -33.790 -22.039 -36.453  1.00  0.00    -0.497 OA
ATOM     13  C   UNL     1     -33.328 -22.065 -37.800  1.00  0.00     0.278 C 
ENDBRANCH   4  12
TORSDOF 3
ENDMDL
