MODEL 1
REMARK VINA RESULT:    -4.286      0.000      0.000
REMARK INTER + INTRA:         -10.045
REMARK INTER:                  -7.793
REMARK INTRA:                  -2.252
REMARK UNBOUND:                -2.252
REMARK SMILES CCCCCCCCCCCCCC[C@H](C)C(=O)[O-]
REMARK SMILES IDX 9 1 10 2 11 3 12 4 13 5 14 6 15 7 16 8 17 9 18 10 19 11 8 12
REMARK SMILES IDX 7 13 6 14 5 15 4 16 3 17 2 18 1 19
REMARK H PARENT
REMARK Flexibility Score: inf
ROOT
ATOM      1  C   UNL     1      10.147   2.338  -0.467  1.00  0.00     0.000 C 
ENDROOT
BRANCH   1   2
ATOM      2  C   UNL     1      10.017   3.128   0.840  1.00  0.00     0.000 C 
BRANCH   2   3
ATOM      3  C   UNL     1       8.564   3.555   1.084  1.00  0.00     0.000 C 
BRANCH   3   4
ATOM      4  C   UNL     1       8.064   4.472  -0.042  1.00  0.00     0.000 C 
BRANCH   4   5
ATOM      5  C   UNL     1       8.274   5.962   0.272  1.00  0.00     0.001 C 
BRANCH   5   6
ATOM      6  C   UNL     1       8.417   6.235   1.781  1.00  0.00     0.009 C 
BRANCH   6   7
ATOM      7  C   UNL     1       9.733   6.962   2.131  1.00  0.00     0.032 C 
ATOM      8  C   UNL     1      10.662   6.097   2.992  1.00  0.00     0.014 C 
BRANCH   7   9
ATOM      9  C   UNL     1       9.427   8.246   2.853  1.00  0.00     0.044 C 
ATOM     10  O   UNL     1      10.361   9.009   3.212  1.00  0.00    -0.550 OA
ATOM     11  O   UNL     1       8.111   8.599   3.129  1.00  0.00    -0.550 OA
ENDBRANCH   7   9
ENDBRANCH   6   7
ENDBRANCH   5   6
ENDBRANCH   4   5
ENDBRANCH   3   4
ENDBRANCH   2   3
ENDBRANCH   1   2
BRANCH   1  12
ATOM     12  C   UNL     1      11.503   1.630  -0.550  1.00  0.00     0.000 C 
BRANCH  12  13
ATOM     13  C   UNL     1      12.105   1.755  -1.958  1.00  0.00    -0.000 C 
BRANCH  13  14
ATOM     14  C   UNL     1      11.034   1.811  -3.063  1.00  0.00    -0.000 C 
BRANCH  14  15
ATOM     15  C   UNL     1      11.455   2.555  -4.346  1.00  0.00    -0.000 C 
BRANCH  15  16
ATOM     16  C   UNL     1      10.698   3.867  -4.618  1.00  0.00    -0.000 C 
BRANCH  16  17
ATOM     17  C   UNL     1       9.759   4.264  -3.468  1.00  0.00    -0.000 C 
BRANCH  17  18
ATOM     18  C   UNL     1      10.098   5.664  -2.942  1.00  0.00    -0.003 C 
ATOM     19  C   UNL     1      11.211   5.605  -1.900  1.00  0.00     0.004 C 
ENDBRANCH  17  18
ENDBRANCH  16  17
ENDBRANCH  15  16
ENDBRANCH  14  15
ENDBRANCH  13  14
ENDBRANCH  12  13
ENDBRANCH   1  12
TORSDOF 14
ENDMDL
MODEL 2
REMARK VINA RESULT:    -4.192      2.361      5.325
REMARK INTER + INTRA:          -9.874
REMARK INTER:                  -7.384
REMARK INTRA:                  -2.490
REMARK UNBOUND:                -2.252
REMARK SMILES CCCCCCCCCCCCCC[C@H](C)C(=O)[O-]
REMARK SMILES IDX 9 1 10 2 11 3 12 4 13 5 14 6 15 7 16 8 17 9 18 10 19 11 8 12
REMARK SMILES IDX 7 13 6 14 5 15 4 16 3 17 2 18 1 19
REMARK H PARENT
REMARK Flexibility Score: inf
ROOT
ATOM      1  C   UNL     1      10.335   1.944  -0.552  1.00  0.00     0.000 C 
ENDROOT
BRANCH   1   2
ATOM      2  C   UNL     1      11.791   1.591  -0.875  1.00  0.00     0.000 C 
BRANCH   2   3
ATOM      3  C   UNL     1      12.300   2.395  -2.078  1.00  0.00     0.000 C 
BRANCH   3   4
ATOM      4  C   UNL     1      11.560   1.991  -3.362  1.00  0.00     0.000 C 
BRANCH   4   5
ATOM      5  C   UNL     1      11.068   3.204  -4.167  1.00  0.00     0.001 C 
BRANCH   5   6
ATOM      6  C   UNL     1       9.986   4.009  -3.423  1.00  0.00     0.009 C 
BRANCH   6   7
ATOM      7  C   UNL     1      10.367   5.494  -3.245  1.00  0.00     0.032 C 
ATOM      8  C   UNL     1      10.990   5.773  -1.870  1.00  0.00     0.014 C 
BRANCH   7   9
ATOM      9  C   UNL     1       9.149   6.357  -3.431  1.00  0.00     0.044 C 
ATOM     10  O   UNL     1       9.224   7.603  -3.266  1.00  0.00    -0.550 OA
ATOM     11  O   UNL     1       7.932   5.786  -3.785  1.00  0.00    -0.550 OA
ENDBRANCH   7   9
ENDBRANCH   6   7
ENDBRANCH   5   6
ENDBRANCH   4   5
ENDBRANCH   3   4
ENDBRANCH   2   3
ENDBRANCH   1   2
BRANCH   1  12
ATOM     12  C   UNL     1      10.255   2.946   0.605  1.00  0.00     0.000 C 
BRANCH  12  13
ATOM     13  C   UNL     1       8.802   3.373   0.863  1.00  0.00    -0.000 C 
BRANCH  13  14
ATOM     14  C   UNL     1       8.132   3.994  -0.377  1.00  0.00    -0.000 C 
BRANCH  14  15
ATOM     15  C   UNL     1       7.239   5.218  -0.094  1.00  0.00    -0.000 C 
BRANCH  15  16
ATOM     16  C   UNL     1       7.990   6.553   0.059  1.00  0.00    -0.000 C 
BRANCH  16  17
ATOM     17  C   UNL     1       8.346   6.874   1.519  1.00  0.00    -0.000 C 
BRANCH  17  18
ATOM     18  C   UNL     1       9.861   7.030   1.691  1.00  0.00    -0.003 C 
ATOM     19  C   UNL     1      10.378   6.162   2.836  1.00  0.00     0.004 C 
ENDBRANCH  17  18
ENDBRANCH  16  17
ENDBRANCH  15  16
ENDBRANCH  14  15
ENDBRANCH  13  14
ENDBRANCH  12  13
ENDBRANCH   1  12
TORSDOF 14
ENDMDL
MODEL 3
REMARK VINA RESULT:    -4.131      3.218      6.549
REMARK INTER + INTRA:          -9.763
REMARK INTER:                  -7.865
REMARK INTRA:                  -1.898
REMARK UNBOUND:                -2.252
REMARK SMILES CCCCCCCCCCCCCC[C@H](C)C(=O)[O-]
REMARK SMILES IDX 9 1 10 2 11 3 12 4 13 5 14 6 15 7 16 8 17 9 18 10 19 11 8 12
REMARK SMILES IDX 7 13 6 14 5 15 4 16 3 17 2 18 1 19
REMARK H PARENT
REMARK Flexibility Score: inf
ROOT
ATOM      1  C   UNL     1       8.402   3.850  -0.682  1.00  0.00     0.000 C 
ENDROOT
BRANCH   1   2
ATOM      2  C   UNL     1       8.809   3.334   0.702  1.00  0.00     0.000 C 
BRANCH   2   3
ATOM      3  C   UNL     1      10.218   2.729   0.673  1.00  0.00     0.000 C 
BRANCH   3   4
ATOM      4  C   UNL     1      10.424   1.877  -0.589  1.00  0.00     0.000 C 
BRANCH   4   5
ATOM      5  C   UNL     1      11.908   1.703  -0.949  1.00  0.00     0.001 C 
BRANCH   5   6
ATOM      6  C   UNL     1      12.258   2.300  -2.325  1.00  0.00     0.009 C 
BRANCH   6   7
ATOM      7  C   UNL     1      11.143   2.082  -3.369  1.00  0.00     0.032 C 
ATOM      8  C   UNL     1      11.484   0.958  -4.357  1.00  0.00     0.014 C 
BRANCH   7   9
ATOM      9  C   UNL     1      10.899   3.359  -4.125  1.00  0.00     0.044 C 
ATOM     10  O   UNL     1      11.032   3.390  -5.377  1.00  0.00    -0.550 OA
ATOM     11  O   UNL     1      10.526   4.516  -3.449  1.00  0.00    -0.550 OA
ENDBRANCH   7   9
ENDBRANCH   6   7
ENDBRANCH   5   6
ENDBRANCH   4   5
ENDBRANCH   3   4
ENDBRANCH   2   3
ENDBRANCH   1   2
BRANCH   1  12
ATOM     12  C   UNL     1       7.521   5.099  -0.568  1.00  0.00     0.000 C 
BRANCH  12  13
ATOM     13  C   UNL     1       8.063   6.238  -1.444  1.00  0.00    -0.000 C 
BRANCH  13  14
ATOM     14  C   UNL     1       9.407   6.794  -0.938  1.00  0.00    -0.000 C 
BRANCH  14  15
ATOM     15  C   UNL     1       9.393   7.320   0.511  1.00  0.00    -0.000 C 
BRANCH  15  16
ATOM     16  C   UNL     1      10.164   6.456   1.526  1.00  0.00    -0.000 C 
BRANCH  16  17
ATOM     17  C   UNL     1       9.475   6.390   2.898  1.00  0.00    -0.000 C 
BRANCH  17  18
ATOM     18  C   UNL     1       8.019   6.859   2.803  1.00  0.00    -0.003 C 
ATOM     19  C   UNL     1       7.277   6.622   4.115  1.00  0.00     0.004 C 
ENDBRANCH  17  18
ENDBRANCH  16  17
ENDBRANCH  15  16
ENDBRANCH  14  15
ENDBRANCH  13  14
ENDBRANCH  12  13
ENDBRANCH   1  12
TORSDOF 14
ENDMDL
MODEL 4
REMARK VINA RESULT:    -4.129      1.350      2.357
REMARK INTER + INTRA:          -9.761
REMARK INTER:                  -7.364
REMARK INTRA:                  -2.397
REMARK UNBOUND:                -2.252
REMARK SMILES CCCCCCCCCCCCCC[C@H](C)C(=O)[O-]
REMARK SMILES IDX 9 1 10 2 11 3 12 4 13 5 14 6 15 7 16 8 17 9 18 10 19 11 8 12
REMARK SMILES IDX 7 13 6 14 5 15 4 16 3 17 2 18 1 19
REMARK H PARENT
REMARK Flexibility Score: inf
ROOT
ATOM      1  C   UNL     1      11.921   1.556  -1.149  1.00  0.00     0.000 C 
ENDROOT
BRANCH   1   2
ATOM      2  C   UNL     1      10.442   1.835  -0.855  1.00  0.00     0.000 C 
BRANCH   2   3
ATOM      3  C   UNL     1      10.289   2.826   0.306  1.00  0.00     0.000 C 
BRANCH   3   4
ATOM      4  C   UNL     1       8.808   3.056   0.641  1.00  0.00     0.000 C 
BRANCH   4   5
ATOM      5  C   UNL     1       8.544   4.454   1.221  1.00  0.00     0.001 C 
BRANCH   5   6
ATOM      6  C   UNL     1       9.738   5.409   1.036  1.00  0.00     0.009 C 
BRANCH   6   7
ATOM      7  C   UNL     1       9.380   6.876   1.355  1.00  0.00     0.032 C 
ATOM      8  C   UNL     1       9.824   7.836   0.243  1.00  0.00     0.014 C 
BRANCH   7   9
ATOM      9  C   UNL     1      10.017   7.283   2.655  1.00  0.00     0.044 C 
ATOM     10  O   UNL     1      10.343   6.409   3.501  1.00  0.00    -0.550 OA
ATOM     11  O   UNL     1      10.252   8.625   2.934  1.00  0.00    -0.550 OA
ENDBRANCH   7   9
ENDBRANCH   6   7
ENDBRANCH   5   6
ENDBRANCH   4   5
ENDBRANCH   3   4
ENDBRANCH   2   3
ENDBRANCH   1   2
BRANCH   1  12
ATOM     12  C   UNL     1      12.275   1.930  -2.593  1.00  0.00     0.000 C 
BRANCH  12  13
ATOM     13  C   UNL     1      11.009   2.076  -3.450  1.00  0.00    -0.000 C 
BRANCH  13  14
ATOM     14  C   UNL     1      11.119   3.203  -4.493  1.00  0.00    -0.000 C 
BRANCH  14  15
ATOM     15  C   UNL     1      10.173   4.399  -4.267  1.00  0.00    -0.000 C 
BRANCH  15  16
ATOM     16  C   UNL     1      10.075   4.887  -2.810  1.00  0.00    -0.000 C 
BRANCH  16  17
ATOM     17  C   UNL     1       8.661   5.354  -2.431  1.00  0.00    -0.000 C 
BRANCH  17  18
ATOM     18  C   UNL     1       7.632   4.246  -2.683  1.00  0.00    -0.003 C 
ATOM     19  C   UNL     1       6.376   4.460  -1.843  1.00  0.00     0.004 C 
ENDBRANCH  17  18
ENDBRANCH  16  17
ENDBRANCH  15  16
ENDBRANCH  14  15
ENDBRANCH  13  14
ENDBRANCH  12  13
ENDBRANCH   1  12
TORSDOF 14
ENDMDL
MODEL 5
REMARK VINA RESULT:    -4.126      3.216      5.561
REMARK INTER + INTRA:          -9.756
REMARK INTER:                  -7.113
REMARK INTRA:                  -2.643
REMARK UNBOUND:                -2.252
REMARK SMILES CCCCCCCCCCCCCC[C@H](C)C(=O)[O-]
REMARK SMILES IDX 9 1 10 2 11 3 12 4 13 5 14 6 15 7 16 8 17 9 18 10 19 11 8 12
REMARK SMILES IDX 7 13 6 14 5 15 4 16 3 17 2 18 1 19
REMARK H PARENT
REMARK Flexibility Score: inf
ROOT
ATOM      1  C   UNL     1       9.874   6.644   2.033  1.00  0.00     0.000 C 
ENDROOT
BRANCH   1   2
ATOM      2  C   UNL     1       9.000   7.355   0.994  1.00  0.00     0.000 C 
BRANCH   2   3
ATOM      3  C   UNL     1       9.859   8.145  -0.001  1.00  0.00     0.000 C 
BRANCH   3   4
ATOM      4  C   UNL     1       9.852   7.477  -1.384  1.00  0.00     0.000 C 
BRANCH   4   5
ATOM      5  C   UNL     1      11.064   6.557  -1.602  1.00  0.00     0.001 C 
BRANCH   5   6
ATOM      6  C   UNL     1      10.672   5.191  -2.196  1.00  0.00     0.009 C 
BRANCH   6   7
ATOM      7  C   UNL     1       9.409   5.267  -3.080  1.00  0.00     0.032 C 
ATOM      8  C   UNL     1       8.430   4.120  -2.794  1.00  0.00     0.014 C 
BRANCH   7   9
ATOM      9  C   UNL     1       9.803   5.243  -4.531  1.00  0.00     0.044 C 
ATOM     10  O   UNL     1      10.530   4.316  -4.975  1.00  0.00    -0.550 OA
ATOM     11  O   UNL     1       9.368   6.244  -5.394  1.00  0.00    -0.550 OA
ENDBRANCH   7   9
ENDBRANCH   6   7
ENDBRANCH   5   6
ENDBRANCH   4   5
ENDBRANCH   3   4
ENDBRANCH   2   3
ENDBRANCH   1   2
BRANCH   1  12
ATOM     12  C   UNL     1      10.055   5.163   1.679  1.00  0.00     0.000 C 
BRANCH  12  13
ATOM     13  C   UNL     1       8.749   4.562   1.140  1.00  0.00    -0.000 C 
BRANCH  13  14
ATOM     14  C   UNL     1       8.919   3.118   0.633  1.00  0.00    -0.000 C 
BRANCH  14  15
ATOM     15  C   UNL     1      10.379   2.654   0.458  1.00  0.00    -0.000 C 
BRANCH  15  16
ATOM     16  C   UNL     1      10.652   1.822  -0.808  1.00  0.00    -0.000 C 
BRANCH  16  17
ATOM     17  C   UNL     1      12.126   1.857  -1.240  1.00  0.00    -0.000 C 
BRANCH  17  18
ATOM     18  C   UNL     1      12.248   1.997  -2.762  1.00  0.00    -0.003 C 
ATOM     19  C   UNL     1      11.134   1.237  -3.475  1.00  0.00     0.004 C 
ENDBRANCH  17  18
ENDBRANCH  16  17
ENDBRANCH  15  16
ENDBRANCH  14  15
ENDBRANCH  13  14
ENDBRANCH  12  13
ENDBRANCH   1  12
TORSDOF 14
ENDMDL
MODEL 6
REMARK VINA RESULT:    -4.115      1.351      3.627
REMARK INTER + INTRA:          -9.735
REMARK INTER:                  -7.462
REMARK INTRA:                  -2.273
REMARK UNBOUND:                -2.252
REMARK SMILES CCCCCCCCCCCCCC[C@H](C)C(=O)[O-]
REMARK SMILES IDX 9 1 10 2 11 3 12 4 13 5 14 6 15 7 16 8 17 9 18 10 19 11 8 12
REMARK SMILES IDX 7 13 6 14 5 15 4 16 3 17 2 18 1 19
REMARK H PARENT
REMARK Flexibility Score: inf
ROOT
ATOM      1  C   UNL     1       9.086   5.167  -2.922  1.00  0.00     0.000 C 
ENDROOT
BRANCH   1   2
ATOM      2  C   UNL     1      10.616   5.180  -2.827  1.00  0.00     0.000 C 
BRANCH   2   3
ATOM      3  C   UNL     1      11.085   5.963  -1.594  1.00  0.00     0.000 C 
BRANCH   3   4
ATOM      4  C   UNL     1      10.404   7.338  -1.524  1.00  0.00     0.000 C 
BRANCH   4   5
ATOM      5  C   UNL     1       9.756   7.607  -0.157  1.00  0.00     0.001 C 
BRANCH   5   6
ATOM      6  C   UNL     1      10.014   6.475   0.855  1.00  0.00     0.009 C 
BRANCH   6   7
ATOM      7  C   UNL     1       9.776   6.917   2.315  1.00  0.00     0.032 C 
ATOM      8  C   UNL     1      10.751   6.245   3.291  1.00  0.00     0.014 C 
BRANCH   7   9
ATOM      9  C   UNL     1       8.362   6.599   2.717  1.00  0.00     0.044 C 
ATOM     10  O   UNL     1       7.693   5.755   2.066  1.00  0.00    -0.550 OA
ATOM     11  O   UNL     1       7.783   7.234   3.810  1.00  0.00    -0.550 OA
ENDBRANCH   7   9
ENDBRANCH   6   7
ENDBRANCH   5   6
ENDBRANCH   4   5
ENDBRANCH   3   4
ENDBRANCH   2   3
ENDBRANCH   1   2
BRANCH   1  12
ATOM     12  C   UNL     1       8.514   3.841  -2.409  1.00  0.00     0.000 C 
BRANCH  12  13
ATOM     13  C   UNL     1       8.187   3.926  -0.910  1.00  0.00    -0.000 C 
BRANCH  13  14
ATOM     14  C   UNL     1       9.149   3.096  -0.040  1.00  0.00    -0.000 C 
BRANCH  14  15
ATOM     15  C   UNL     1       9.899   1.972  -0.783  1.00  0.00    -0.000 C 
BRANCH  15  16
ATOM     16  C   UNL     1      11.431   2.122  -0.819  1.00  0.00    -0.000 C 
BRANCH  16  17
ATOM     17  C   UNL     1      12.058   1.541  -2.095  1.00  0.00    -0.000 C 
BRANCH  17  18
ATOM     18  C   UNL     1      11.049   1.539  -3.250  1.00  0.00    -0.003 C 
ATOM     19  C   UNL     1      11.667   0.962  -4.520  1.00  0.00     0.004 C 
ENDBRANCH  17  18
ENDBRANCH  16  17
ENDBRANCH  15  16
ENDBRANCH  14  15
ENDBRANCH  13  14
ENDBRANCH  12  13
ENDBRANCH   1  12
TORSDOF 14
ENDMDL
MODEL 7
REMARK VINA RESULT:    -4.098      2.776      5.115
REMARK INTER + INTRA:          -9.704
REMARK INTER:                  -8.270
REMARK INTRA:                  -1.435
REMARK UNBOUND:                -2.252
REMARK SMILES CCCCCCCCCCCCCC[C@H](C)C(=O)[O-]
REMARK SMILES IDX 9 1 10 2 11 3 12 4 13 5 14 6 15 7 16 8 17 9 18 10 19 11 8 12
REMARK SMILES IDX 7 13 6 14 5 15 4 16 3 17 2 18 1 19
REMARK H PARENT
REMARK Flexibility Score: inf
ROOT
ATOM      1  C   UNL     1      10.731   3.930  -4.155  1.00  0.00     0.000 C 
ENDROOT
BRANCH   1   2
ATOM      2  C   UNL     1       9.980   4.988  -4.971  1.00  0.00     0.000 C 
BRANCH   2   3
ATOM      3  C   UNL     1       8.943   5.717  -4.107  1.00  0.00     0.000 C 
BRANCH   3   4
ATOM      4  C   UNL     1       7.572   5.030  -4.196  1.00  0.00     0.000 C 
BRANCH   4   5
ATOM      5  C   UNL     1       7.029   4.612  -2.821  1.00  0.00     0.001 C 
BRANCH   5   6
ATOM      6  C   UNL     1       8.007   3.709  -2.047  1.00  0.00     0.009 C 
BRANCH   6   7
ATOM      7  C   UNL     1       8.053   4.036  -0.539  1.00  0.00     0.032 C 
ATOM      8  C   UNL     1       7.279   5.318  -0.200  1.00  0.00     0.014 C 
BRANCH   7   9
ATOM      9  C   UNL     1       9.482   4.178  -0.094  1.00  0.00     0.044 C 
ATOM     10  O   UNL     1      10.310   4.802  -0.809  1.00  0.00    -0.550 OA
ATOM     11  O   UNL     1       9.901   3.623   1.110  1.00  0.00    -0.550 OA
ENDBRANCH   7   9
ENDBRANCH   6   7
ENDBRANCH   5   6
ENDBRANCH   4   5
ENDBRANCH   3   4
ENDBRANCH   2   3
ENDBRANCH   1   2
BRANCH   1  12
ATOM     12  C   UNL     1      11.138   2.743  -5.035  1.00  0.00     0.000 C 
BRANCH  12  13
ATOM     13  C   UNL     1      11.680   1.586  -4.182  1.00  0.00    -0.000 C 
BRANCH  13  14
ATOM     14  C   UNL     1      11.166   1.621  -2.731  1.00  0.00    -0.000 C 
BRANCH  14  15
ATOM     15  C   UNL     1      12.252   1.825  -1.656  1.00  0.00    -0.000 C 
BRANCH  15  16
ATOM     16  C   UNL     1      11.962   1.157  -0.300  1.00  0.00    -0.000 C 
BRANCH  16  17
ATOM     17  C   UNL     1      13.032   0.130   0.101  1.00  0.00    -0.000 C 
BRANCH  17  18
ATOM     18  C   UNL     1      12.648  -0.581   1.404  1.00  0.00    -0.003 C 
ATOM     19  C   UNL     1      13.647  -0.271   2.515  1.00  0.00     0.004 C 
ENDBRANCH  17  18
ENDBRANCH  16  17
ENDBRANCH  15  16
ENDBRANCH  14  15
ENDBRANCH  13  14
ENDBRANCH  12  13
ENDBRANCH   1  12
TORSDOF 14
ENDMDL
MODEL 8
REMARK VINA RESULT:    -4.053      2.380      4.214
REMARK INTER + INTRA:          -9.622
REMARK INTER:                  -7.634
REMARK INTRA:                  -1.988
REMARK UNBOUND:                -2.252
REMARK SMILES CCCCCCCCCCCCCC[C@H](C)C(=O)[O-]
REMARK SMILES IDX 9 1 10 2 11 3 12 4 13 5 14 6 15 7 16 8 17 9 18 10 19 11 8 12
REMARK SMILES IDX 7 13 6 14 5 15 4 16 3 17 2 18 1 19
REMARK H PARENT
REMARK Flexibility Score: inf
ROOT
ATOM      1  C   UNL     1       8.531   3.560   0.854  1.00  0.00     0.000 C 
ENDROOT
BRANCH   1   2
ATOM      2  C   UNL     1       8.269   4.783  -0.032  1.00  0.00     0.000 C 
BRANCH   2   3
ATOM      3  C   UNL     1       6.985   4.604  -0.853  1.00  0.00     0.000 C 
BRANCH   3   4
ATOM      4  C   UNL     1       7.304   4.106  -2.270  1.00  0.00     0.000 C 
BRANCH   4   5
ATOM      5  C   UNL     1       8.813   4.074  -2.561  1.00  0.00     0.001 C 
BRANCH   5   6
ATOM      6  C   UNL     1       9.222   5.048  -3.682  1.00  0.00     0.009 C 
BRANCH   6   7
ATOM      7  C   UNL     1      10.061   6.234  -3.162  1.00  0.00     0.032 C 
ATOM      8  C   UNL     1      11.023   5.817  -2.041  1.00  0.00     0.014 C 
BRANCH   7   9
ATOM      9  C   UNL     1       9.149   7.322  -2.665  1.00  0.00     0.044 C 
ATOM     10  O   UNL     1       8.202   7.733  -3.386  1.00  0.00    -0.550 OA
ATOM     11  O   UNL     1       9.344   7.881  -1.407  1.00  0.00    -0.550 OA
ENDBRANCH   7   9
ENDBRANCH   6   7
ENDBRANCH   5   6
ENDBRANCH   4   5
ENDBRANCH   3   4
ENDBRANCH   2   3
ENDBRANCH   1   2
BRANCH   1  12
ATOM     12  C   UNL     1      10.013   3.169   0.830  1.00  0.00     0.000 C 
BRANCH  12  13
ATOM     13  C   UNL     1      10.290   2.131  -0.268  1.00  0.00    -0.000 C 
BRANCH  13  14
ATOM     14  C   UNL     1      11.643   1.419  -0.091  1.00  0.00    -0.000 C 
BRANCH  14  15
ATOM     15  C   UNL     1      12.564   1.446  -1.328  1.00  0.00    -0.000 C 
BRANCH  15  16
ATOM     16  C   UNL     1      12.043   2.281  -2.511  1.00  0.00    -0.000 C 
BRANCH  16  17
ATOM     17  C   UNL     1      11.306   1.436  -3.561  1.00  0.00    -0.000 C 
BRANCH  17  18
ATOM     18  C   UNL     1      11.429   2.063  -4.954  1.00  0.00    -0.003 C 
ATOM     19  C   UNL     1      11.558   0.990  -6.032  1.00  0.00     0.004 C 
ENDBRANCH  17  18
ENDBRANCH  16  17
ENDBRANCH  15  16
ENDBRANCH  14  15
ENDBRANCH  13  14
ENDBRANCH  12  13
ENDBRANCH   1  12
TORSDOF 14
ENDMDL
MODEL 9
REMARK VINA RESULT:    -4.040      2.131      4.292
REMARK INTER + INTRA:          -9.598
REMARK INTER:                  -7.492
REMARK INTRA:                  -2.106
REMARK UNBOUND:                -2.252
REMARK SMILES CCCCCCCCCCCCCC[C@H](C)C(=O)[O-]
REMARK SMILES IDX 9 1 10 2 11 3 12 4 13 5 14 6 15 7 16 8 17 9 18 10 19 11 8 12
REMARK SMILES IDX 7 13 6 14 5 15 4 16 3 17 2 18 1 19
REMARK H PARENT
REMARK Flexibility Score: inf
ROOT
ATOM      1  C   UNL     1      11.465   2.171  -4.747  1.00  0.00     0.000 C 
ENDROOT
BRANCH   1   2
ATOM      2  C   UNL     1      11.735   1.398  -3.451  1.00  0.00     0.000 C 
BRANCH   2   3
ATOM      3  C   UNL     1      12.213   2.339  -2.338  1.00  0.00     0.000 C 
BRANCH   3   4
ATOM      4  C   UNL     1      12.121   1.657  -0.964  1.00  0.00     0.000 C 
BRANCH   4   5
ATOM      5  C   UNL     1      10.680   1.578  -0.439  1.00  0.00     0.001 C 
BRANCH   5   6
ATOM      6  C   UNL     1      10.327   2.745   0.502  1.00  0.00     0.009 C 
BRANCH   6   7
ATOM      7  C   UNL     1       8.906   3.298   0.257  1.00  0.00     0.032 C 
ATOM      8  C   UNL     1       8.610   3.494  -1.236  1.00  0.00     0.014 C 
BRANCH   7   9
ATOM      9  C   UNL     1       8.739   4.606   0.980  1.00  0.00     0.044 C 
ATOM     10  O   UNL     1       9.748   5.228   1.405  1.00  0.00    -0.550 OA
ATOM     11  O   UNL     1       7.471   5.139   1.184  1.00  0.00    -0.550 OA
ENDBRANCH   7   9
ENDBRANCH   6   7
ENDBRANCH   5   6
ENDBRANCH   4   5
ENDBRANCH   3   4
ENDBRANCH   2   3
ENDBRANCH   1   2
BRANCH   1  12
ATOM     12  C   UNL     1      10.747   3.494  -4.460  1.00  0.00     0.000 C 
BRANCH  12  13
ATOM     13  C   UNL     1      10.653   4.355  -5.728  1.00  0.00    -0.000 C 
BRANCH  13  14
ATOM     14  C   UNL     1       9.967   5.711  -5.481  1.00  0.00    -0.000 C 
BRANCH  14  15
ATOM     15  C   UNL     1      10.920   6.918  -5.376  1.00  0.00    -0.000 C 
BRANCH  15  16
ATOM     16  C   UNL     1      10.883   7.666  -4.031  1.00  0.00    -0.000 C 
BRANCH  16  17
ATOM     17  C   UNL     1       9.563   7.462  -3.271  1.00  0.00    -0.000 C 
BRANCH  17  18
ATOM     18  C   UNL     1       9.816   6.861  -1.884  1.00  0.00    -0.003 C 
ATOM     19  C   UNL     1      11.131   6.087  -1.851  1.00  0.00     0.004 C 
ENDBRANCH  17  18
ENDBRANCH  16  17
ENDBRANCH  15  16
ENDBRANCH  14  15
ENDBRANCH  13  14
ENDBRANCH  12  13
ENDBRANCH   1  12
TORSDOF 14
ENDMDL
