MODEL 1
REMARK VINA RESULT:    -5.167      0.000      0.000
REMARK INTER + INTRA:          -6.411
REMARK INTER:                  -5.923
REMARK INTRA:                  -0.489
REMARK UNBOUND:                -0.489
REMARK SMILES C=C(C)[C@@H]1CC[C@]2(C(=O)[O-])CC[C@]3(C)[C@H](CC[C@H]4[C@]5(C)CC[C@H](O)C(C)(C)[C@@H]5CC[C@]43C)[C@@H]12
REMARK SMILES IDX 7 1 6 2 33 3 11 4 5 5 15 6 4 7 12 8 16 9 13 10 17 11 31 12
REMARK SMILES IDX 14 13 18 14 30 15 32 16 19 17 29 18 21 19 20 20 28 21 22 22
REMARK SMILES IDX 25 23 23 24 26 25 27 26 8 27 9 28 10 29 2 30 3 31 1 32 24 33
REMARK H PARENT 24 34
REMARK Flexibility Score: inf
ROOT
ATOM      1  C   UNL     1     -57.914  21.458  -8.676  1.00  0.00     0.014 C 
ATOM      2  C   UNL     1     -58.136  20.611  -7.417  1.00  0.00     0.014 C 
ATOM      3  C   UNL     1     -59.064  22.472  -8.517  1.00  0.00     0.012 C 
ATOM      4  C   UNL     1     -56.542  22.213  -8.774  1.00  0.00     0.014 C 
ATOM      5  C   UNL     1     -59.672  20.469  -7.309  1.00  0.00     0.009 C 
ATOM      6  C   UNL     1     -59.048  23.441  -9.714  1.00  0.00     0.000 C 
ATOM      7  C   UNL     1     -60.288  21.630  -8.134  1.00  0.00     0.018 C 
ATOM      8  C   UNL     1     -56.632  23.767  -8.796  1.00  0.00     0.008 C 
ATOM      9  C   UNL     1     -60.348  24.174 -10.028  1.00  0.00     0.005 C 
ATOM     10  C   UNL     1     -57.850  24.444  -9.584  1.00  0.00    -0.024 C 
ATOM     11  C   UNL     1     -60.150  25.217 -11.163  1.00  0.00     0.005 C 
ATOM     12  C   UNL     1     -57.505  24.940 -11.091  1.00  0.00    -0.024 C 
ATOM     13  C   UNL     1     -58.259  25.643  -8.643  1.00  0.00     0.012 C 
ATOM     14  C   UNL     1     -58.825  25.082 -12.018  1.00  0.00     0.002 C 
ATOM     15  C   UNL     1     -56.755  26.292 -11.035  1.00  0.00     0.008 C 
ATOM     16  C   UNL     1     -56.549  23.880 -11.735  1.00  0.00     0.012 C 
ATOM     17  C   UNL     1     -58.751  26.079 -13.314  1.00  0.00    -0.026 C 
ATOM     18  C   UNL     1     -56.467  26.886 -12.399  1.00  0.00     0.005 C 
ATOM     19  C   UNL     1     -58.317  25.256 -14.572  1.00  0.00     0.010 C 
ATOM     20  C   UNL     1     -60.189  26.610 -13.626  1.00  0.00     0.012 C 
ATOM     21  C   UNL     1     -57.764  27.317 -13.128  1.00  0.00     0.003 C 
ATOM     22  C   UNL     1     -58.121  26.082 -15.850  1.00  0.00     0.033 C 
ATOM     23  C   UNL     1     -57.437  28.151 -14.465  1.00  0.00    -0.006 C 
ATOM     24  C   UNL     1     -57.092  27.201 -15.661  1.00  0.00     0.120 C 
ATOM     25  C   UNL     1     -58.628  29.088 -14.860  1.00  0.00     0.014 C 
ATOM     26  C   UNL     1     -56.233  29.123 -14.259  1.00  0.00     0.014 C 
ENDROOT
BRANCH   1  27
ATOM     27  C   UNL     1     -58.027  20.501  -9.876  1.00  0.00     0.048 C 
ATOM     28  O   UNL     1     -57.577  19.328  -9.776  1.00  0.00    -0.550 OA
ATOM     29  O   UNL     1     -58.671  20.859 -11.055  1.00  0.00    -0.550 OA
ENDBRANCH   1  27
BRANCH   7  30
ATOM     30  C   UNL     1     -61.353  22.410  -7.364  1.00  0.00    -0.077 C 
ATOM     31  C   UNL     1     -62.813  22.169  -7.648  1.00  0.00     0.039 C 
ATOM     32  C   UNL     1     -61.025  23.307  -6.418  1.00  0.00     0.008 C 
ENDBRANCH   7  30
BRANCH  24  33
ATOM     33  O   UNL     1     -55.825  26.609 -15.492  1.00  0.00    -0.393 OA
ATOM     34  H   UNL     1     -55.400  26.545 -16.388  1.00  0.00     0.210 HD
ENDBRANCH  24  33
TORSDOF 3
ENDMDL
MODEL 2
REMARK VINA RESULT:    -4.904      4.777      6.652
REMARK INTER + INTRA:          -6.109
REMARK INTER:                  -5.604
REMARK INTRA:                  -0.505
REMARK UNBOUND:                -0.489
REMARK SMILES C=C(C)[C@@H]1CC[C@]2(C(=O)[O-])CC[C@]3(C)[C@H](CC[C@H]4[C@]5(C)CC[C@H](O)C(C)(C)[C@@H]5CC[C@]43C)[C@@H]12
REMARK SMILES IDX 7 1 6 2 33 3 11 4 5 5 15 6 4 7 12 8 16 9 13 10 17 11 31 12
REMARK SMILES IDX 14 13 18 14 30 15 32 16 19 17 29 18 21 19 20 20 28 21 22 22
REMARK SMILES IDX 25 23 23 24 26 25 27 26 8 27 9 28 10 29 2 30 3 31 1 32 24 33
REMARK H PARENT 24 34
REMARK Flexibility Score: inf
ROOT
ATOM      1  C   UNL     1     -53.345  15.968 -11.283  1.00  0.00     0.014 C 
ATOM      2  C   UNL     1     -53.155  14.596 -10.624  1.00  0.00     0.014 C 
ATOM      3  C   UNL     1     -54.375  16.583 -10.317  1.00  0.00     0.012 C 
ATOM      4  C   UNL     1     -52.073  16.883 -11.366  1.00  0.00     0.014 C 
ATOM      5  C   UNL     1     -54.575  14.178 -10.178  1.00  0.00     0.009 C 
ATOM      6  C   UNL     1     -54.740  17.997 -10.805  1.00  0.00     0.000 C 
ATOM      7  C   UNL     1     -55.416  15.479 -10.088  1.00  0.00     0.018 C 
ATOM      8  C   UNL     1     -52.154  18.218 -10.570  1.00  0.00     0.008 C 
ATOM      9  C   UNL     1     -56.067  18.575 -10.323  1.00  0.00     0.005 C 
ATOM     10  C   UNL     1     -53.557  18.989 -10.527  1.00  0.00    -0.024 C 
ATOM     11  C   UNL     1     -56.239  20.052 -10.775  1.00  0.00     0.005 C 
ATOM     12  C   UNL     1     -53.714  20.197 -11.600  1.00  0.00    -0.024 C 
ATOM     13  C   UNL     1     -53.633  19.503  -9.037  1.00  0.00     0.012 C 
ATOM     14  C   UNL     1     -55.261  20.557 -11.912  1.00  0.00     0.002 C 
ATOM     15  C   UNL     1     -52.977  21.454 -11.079  1.00  0.00     0.008 C 
ATOM     16  C   UNL     1     -53.022  19.745 -12.931  1.00  0.00     0.012 C 
ATOM     17  C   UNL     1     -55.602  22.053 -12.483  1.00  0.00    -0.026 C 
ATOM     18  C   UNL     1     -53.139  22.669 -11.970  1.00  0.00     0.005 C 
ATOM     19  C   UNL     1     -55.602  22.019 -14.047  1.00  0.00     0.010 C 
ATOM     20  C   UNL     1     -57.060  22.433 -12.064  1.00  0.00     0.012 C 
ATOM     21  C   UNL     1     -54.600  23.186 -11.981  1.00  0.00     0.003 C 
ATOM     22  C   UNL     1     -55.823  23.377 -14.724  1.00  0.00     0.033 C 
ATOM     23  C   UNL     1     -54.716  24.601 -12.739  1.00  0.00    -0.006 C 
ATOM     24  C   UNL     1     -54.781  24.414 -14.292  1.00  0.00     0.120 C 
ATOM     25  C   UNL     1     -55.964  25.411 -12.251  1.00  0.00     0.014 C 
ATOM     26  C   UNL     1     -53.503  25.530 -12.416  1.00  0.00     0.014 C 
ENDROOT
BRANCH   1  27
ATOM     27  C   UNL     1     -53.845  15.703 -12.715  1.00  0.00     0.048 C 
ATOM     28  O   UNL     1     -53.341  14.760 -13.382  1.00  0.00    -0.550 OA
ATOM     29  O   UNL     1     -54.886  16.427 -13.285  1.00  0.00    -0.550 OA
ENDBRANCH   1  27
BRANCH   7  30
ATOM     30  C   UNL     1     -56.171  15.611  -8.766  1.00  0.00    -0.077 C 
ATOM     31  C   UNL     1     -55.440  16.055  -7.524  1.00  0.00     0.039 C 
ATOM     32  C   UNL     1     -57.487  15.354  -8.675  1.00  0.00     0.008 C 
ENDBRANCH   7  30
BRANCH  24  33
ATOM     33  O   UNL     1     -53.531  24.022 -14.811  1.00  0.00    -0.393 OA
ATOM     34  H   UNL     1     -53.668  23.754 -15.757  1.00  0.00     0.210 HD
ENDBRANCH  24  33
TORSDOF 3
ENDMDL
MODEL 3
REMARK VINA RESULT:    -4.887      7.614     11.186
REMARK INTER + INTRA:          -6.090
REMARK INTER:                  -5.571
REMARK INTRA:                  -0.518
REMARK UNBOUND:                -0.489
REMARK SMILES C=C(C)[C@@H]1CC[C@]2(C(=O)[O-])CC[C@]3(C)[C@H](CC[C@H]4[C@]5(C)CC[C@H](O)C(C)(C)[C@@H]5CC[C@]43C)[C@@H]12
REMARK SMILES IDX 7 1 6 2 33 3 11 4 5 5 15 6 4 7 12 8 16 9 13 10 17 11 31 12
REMARK SMILES IDX 14 13 18 14 30 15 32 16 19 17 29 18 21 19 20 20 28 21 22 22
REMARK SMILES IDX 25 23 23 24 26 25 27 26 8 27 9 28 10 29 2 30 3 31 1 32 24 33
REMARK H PARENT 24 34
REMARK Flexibility Score: inf
ROOT
ATOM      1  C   UNL     1     -55.317  15.792 -11.141  1.00  0.00     0.014 C 
ATOM      2  C   UNL     1     -55.592  15.613 -12.640  1.00  0.00     0.014 C 
ATOM      3  C   UNL     1     -54.262  16.913 -11.200  1.00  0.00     0.012 C 
ATOM      4  C   UNL     1     -56.535  16.245 -10.261  1.00  0.00     0.014 C 
ATOM      5  C   UNL     1     -54.201  15.732 -13.307  1.00  0.00     0.009 C 
ATOM      6  C   UNL     1     -53.813  17.255  -9.767  1.00  0.00     0.000 C 
ATOM      7  C   UNL     1     -53.288  16.488 -12.307  1.00  0.00     0.018 C 
ATOM      8  C   UNL     1     -56.384  17.631  -9.571  1.00  0.00     0.008 C 
ATOM      9  C   UNL     1     -52.460  17.941  -9.611  1.00  0.00     0.005 C 
ATOM     10  C   UNL     1     -54.939  18.051  -9.021  1.00  0.00    -0.024 C 
ATOM     11  C   UNL     1     -52.199  18.351  -8.135  1.00  0.00     0.005 C 
ATOM     12  C   UNL     1     -54.704  17.794  -7.434  1.00  0.00    -0.024 C 
ATOM     13  C   UNL     1     -54.848  19.581  -9.394  1.00  0.00     0.012 C 
ATOM     14  C   UNL     1     -53.136  17.688  -7.046  1.00  0.00     0.002 C 
ATOM     15  C   UNL     1     -55.373  18.926  -6.619  1.00  0.00     0.008 C 
ATOM     16  C   UNL     1     -55.409  16.445  -7.061  1.00  0.00     0.012 C 
ATOM     17  C   UNL     1     -52.705  18.004  -5.499  1.00  0.00    -0.026 C 
ATOM     18  C   UNL     1     -55.133  18.826  -5.126  1.00  0.00     0.005 C 
ATOM     19  C   UNL     1     -52.693  16.668  -4.685  1.00  0.00     0.010 C 
ATOM     20  C   UNL     1     -51.231  18.528  -5.482  1.00  0.00     0.012 C 
ATOM     21  C   UNL     1     -53.646  19.061  -4.763  1.00  0.00     0.003 C 
ATOM     22  C   UNL     1     -52.389  16.824  -3.189  1.00  0.00     0.033 C 
ATOM     23  C   UNL     1     -53.442  19.181  -3.172  1.00  0.00    -0.006 C 
ATOM     24  C   UNL     1     -53.374  17.770  -2.496  1.00  0.00     0.120 C 
ATOM     25  C   UNL     1     -52.154  19.999  -2.819  1.00  0.00     0.014 C 
ATOM     26  C   UNL     1     -54.603  19.981  -2.500  1.00  0.00     0.014 C 
ENDROOT
BRANCH   1  27
ATOM     27  C   UNL     1     -54.820  14.432 -10.619  1.00  0.00     0.048 C 
ATOM     28  O   UNL     1     -55.215  13.373 -11.178  1.00  0.00    -0.550 OA
ATOM     29  O   UNL     1     -53.893  14.324  -9.589  1.00  0.00    -0.550 OA
ENDBRANCH   1  27
BRANCH   7  30
ATOM     30  C   UNL     1     -52.539  17.655 -12.947  1.00  0.00    -0.077 C 
ATOM     31  C   UNL     1     -53.235  18.977 -13.145  1.00  0.00     0.039 C 
ATOM     32  C   UNL     1     -51.257  17.544 -13.334  1.00  0.00     0.008 C 
ENDBRANCH   7  30
BRANCH  24  33
ATOM     33  O   UNL     1     -54.640  17.151  -2.478  1.00  0.00    -0.393 OA
ATOM     34  H   UNL     1     -54.710  16.585  -3.291  1.00  0.00     0.210 HD
ENDBRANCH  24  33
TORSDOF 3
ENDMDL
MODEL 4
REMARK VINA RESULT:    -4.852      3.466      7.141
REMARK INTER + INTRA:          -6.050
REMARK INTER:                  -5.562
REMARK INTRA:                  -0.488
REMARK UNBOUND:                -0.489
REMARK SMILES C=C(C)[C@@H]1CC[C@]2(C(=O)[O-])CC[C@]3(C)[C@H](CC[C@H]4[C@]5(C)CC[C@H](O)C(C)(C)[C@@H]5CC[C@]43C)[C@@H]12
REMARK SMILES IDX 7 1 6 2 33 3 11 4 5 5 15 6 4 7 12 8 16 9 13 10 17 11 31 12
REMARK SMILES IDX 14 13 18 14 30 15 32 16 19 17 29 18 21 19 20 20 28 21 22 22
REMARK SMILES IDX 25 23 23 24 26 25 27 26 8 27 9 28 10 29 2 30 3 31 1 32 24 33
REMARK H PARENT 24 34
REMARK Flexibility Score: inf
ROOT
ATOM      1  C   UNL     1     -54.436  25.077 -14.663  1.00  0.00     0.014 C 
ATOM      2  C   UNL     1     -53.039  25.006 -15.293  1.00  0.00     0.014 C 
ATOM      3  C   UNL     1     -54.252  26.306 -13.753  1.00  0.00     0.012 C 
ATOM      4  C   UNL     1     -55.633  25.313 -15.650  1.00  0.00     0.014 C 
ATOM      5  C   UNL     1     -52.072  25.334 -14.132  1.00  0.00     0.009 C 
ATOM      6  C   UNL     1     -55.562  26.563 -12.985  1.00  0.00     0.000 C 
ATOM      7  C   UNL     1     -52.900  26.091 -13.060  1.00  0.00     0.018 C 
ATOM      8  C   UNL     1     -56.420  26.640 -15.444  1.00  0.00     0.008 C 
ATOM      9  C   UNL     1     -55.462  27.374 -11.697  1.00  0.00     0.005 C 
ATOM     10  C   UNL     1     -56.646  27.161 -13.947  1.00  0.00    -0.024 C 
ATOM     11  C   UNL     1     -56.867  27.675 -11.106  1.00  0.00     0.005 C 
ATOM     12  C   UNL     1     -58.087  26.788 -13.297  1.00  0.00    -0.024 C 
ATOM     13  C   UNL     1     -56.440  28.719 -14.079  1.00  0.00     0.012 C 
ATOM     14  C   UNL     1     -58.067  26.818 -11.679  1.00  0.00     0.002 C 
ATOM     15  C   UNL     1     -59.165  27.762 -13.828  1.00  0.00     0.008 C 
ATOM     16  C   UNL     1     -58.463  25.342 -13.770  1.00  0.00     0.012 C 
ATOM     17  C   UNL     1     -59.489  27.037 -10.896  1.00  0.00    -0.026 C 
ATOM     18  C   UNL     1     -60.533  27.553 -13.210  1.00  0.00     0.005 C 
ATOM     19  C   UNL     1     -60.116  25.641 -10.569  1.00  0.00     0.010 C 
ATOM     20  C   UNL     1     -59.207  27.713  -9.515  1.00  0.00     0.012 C 
ATOM     21  C   UNL     1     -60.548  27.914 -11.703  1.00  0.00     0.003 C 
ATOM     22  C   UNL     1     -61.500  25.693  -9.909  1.00  0.00     0.033 C 
ATOM     23  C   UNL     1     -62.045  27.910 -11.114  1.00  0.00    -0.006 C 
ATOM     24  C   UNL     1     -62.517  26.460 -10.761  1.00  0.00     0.120 C 
ATOM     25  C   UNL     1     -62.164  28.828  -9.850  1.00  0.00     0.014 C 
ATOM     26  C   UNL     1     -63.066  28.516 -12.128  1.00  0.00     0.014 C 
ENDROOT
BRANCH   1  27
ATOM     27  C   UNL     1     -54.662  23.737 -13.940  1.00  0.00     0.048 C 
ATOM     28  O   UNL     1     -54.157  22.684 -14.416  1.00  0.00    -0.550 OA
ATOM     29  O   UNL     1     -55.350  23.648 -12.736  1.00  0.00    -0.550 OA
ENDBRANCH   1  27
BRANCH   7  30
ATOM     30  C   UNL     1     -52.235  27.386 -12.596  1.00  0.00    -0.077 C 
ATOM     31  C   UNL     1     -51.545  27.439 -11.258  1.00  0.00     0.039 C 
ATOM     32  C   UNL     1     -52.233  28.492 -13.360  1.00  0.00     0.008 C 
ENDBRANCH   7  30
BRANCH  24  33
ATOM     33  O   UNL     1     -62.770  25.709 -11.925  1.00  0.00    -0.393 OA
ATOM     34  H   UNL     1     -63.577  26.090 -12.361  1.00  0.00     0.210 HD
ENDBRANCH  24  33
TORSDOF 3
ENDMDL
MODEL 5
REMARK VINA RESULT:    -4.832      8.254     12.042
REMARK INTER + INTRA:          -6.027
REMARK INTER:                  -5.569
REMARK INTRA:                  -0.459
REMARK UNBOUND:                -0.489
REMARK SMILES C=C(C)[C@@H]1CC[C@]2(C(=O)[O-])CC[C@]3(C)[C@H](CC[C@H]4[C@]5(C)CC[C@H](O)C(C)(C)[C@@H]5CC[C@]43C)[C@@H]12
REMARK SMILES IDX 7 1 6 2 33 3 11 4 5 5 15 6 4 7 12 8 16 9 13 10 17 11 31 12
REMARK SMILES IDX 14 13 18 14 30 15 32 16 19 17 29 18 21 19 20 20 28 21 22 22
REMARK SMILES IDX 25 23 23 24 26 25 27 26 8 27 9 28 10 29 2 30 3 31 1 32 24 33
REMARK H PARENT 24 34
REMARK Flexibility Score: inf
ROOT
ATOM      1  C   UNL     1     -55.290  18.042 -10.201  1.00  0.00     0.014 C 
ATOM      2  C   UNL     1     -55.836  18.972  -9.111  1.00  0.00     0.014 C 
ATOM      3  C   UNL     1     -54.138  17.375  -9.425  1.00  0.00     0.012 C 
ATOM      4  C   UNL     1     -56.277  16.949 -10.742  1.00  0.00     0.014 C 
ATOM      5  C   UNL     1     -54.576  19.519  -8.399  1.00  0.00     0.009 C 
ATOM      6  C   UNL     1     -53.413  16.385 -10.355  1.00  0.00     0.000 C 
ATOM      7  C   UNL     1     -53.424  18.526  -8.703  1.00  0.00     0.018 C 
ATOM      8  C   UNL     1     -55.851  15.474 -10.484  1.00  0.00     0.008 C 
ATOM      9  C   UNL     1     -51.983  16.006  -9.983  1.00  0.00     0.005 C 
ATOM     10  C   UNL     1     -54.295  15.108 -10.580  1.00  0.00    -0.024 C 
ATOM     11  C   UNL     1     -51.427  14.900 -10.922  1.00  0.00     0.005 C 
ATOM     12  C   UNL     1     -53.822  14.472 -11.998  1.00  0.00    -0.024 C 
ATOM     13  C   UNL     1     -54.092  14.102  -9.382  1.00  0.00     0.012 C 
ATOM     14  C   UNL     1     -52.234  14.643 -12.259  1.00  0.00     0.002 C 
ATOM     15  C   UNL     1     -54.205  12.974 -12.050  1.00  0.00     0.008 C 
ATOM     16  C   UNL     1     -54.603  15.214 -13.136  1.00  0.00     0.012 C 
ATOM     17  C   UNL     1     -51.509  13.605 -13.298  1.00  0.00    -0.026 C 
ATOM     18  C   UNL     1     -53.726  12.265 -13.301  1.00  0.00     0.005 C 
ATOM     19  C   UNL     1     -51.513  14.229 -14.733  1.00  0.00     0.010 C 
ATOM     20  C   UNL     1     -50.004  13.459 -12.899  1.00  0.00     0.012 C 
ATOM     21  C   UNL     1     -52.181  12.160 -13.350  1.00  0.00     0.003 C 
ATOM     22  C   UNL     1     -50.940  13.325 -15.832  1.00  0.00     0.033 C 
ATOM     23  C   UNL     1     -51.695  11.212 -14.555  1.00  0.00    -0.006 C 
ATOM     24  C   UNL     1     -51.676  11.983 -15.917  1.00  0.00     0.120 C 
ATOM     25  C   UNL     1     -50.280  10.605 -14.270  1.00  0.00     0.014 C 
ATOM     26  C   UNL     1     -52.623   9.967 -14.720  1.00  0.00     0.014 C 
ENDROOT
BRANCH   1  27
ATOM     27  C   UNL     1     -54.871  18.941 -11.378  1.00  0.00     0.048 C 
ATOM     28  O   UNL     1     -55.376  20.091 -11.488  1.00  0.00    -0.550 OA
ATOM     29  O   UNL     1     -53.900  18.560 -12.298  1.00  0.00    -0.550 OA
ENDBRANCH   1  27
BRANCH   7  30
ATOM     30  C   UNL     1     -52.666  18.089  -7.451  1.00  0.00    -0.077 C 
ATOM     31  C   UNL     1     -53.346  17.218  -6.426  1.00  0.00     0.039 C 
ATOM     32  C   UNL     1     -51.390  18.451  -7.235  1.00  0.00     0.008 C 
ENDBRANCH   7  30
BRANCH  24  33
ATOM     33  O   UNL     1     -52.982  12.227 -16.384  1.00  0.00    -0.393 OA
ATOM     34  H   UNL     1     -52.971  13.090 -16.875  1.00  0.00     0.210 HD
ENDBRANCH  24  33
TORSDOF 3
ENDMDL
MODEL 6
REMARK VINA RESULT:    -4.827      3.071      7.539
REMARK INTER + INTRA:          -6.021
REMARK INTER:                  -5.715
REMARK INTRA:                  -0.306
REMARK UNBOUND:                -0.489
REMARK SMILES C=C(C)[C@@H]1CC[C@]2(C(=O)[O-])CC[C@]3(C)[C@H](CC[C@H]4[C@]5(C)CC[C@H](O)C(C)(C)[C@@H]5CC[C@]43C)[C@@H]12
REMARK SMILES IDX 7 1 6 2 33 3 11 4 5 5 15 6 4 7 12 8 16 9 13 10 17 11 31 12
REMARK SMILES IDX 14 13 18 14 30 15 32 16 19 17 29 18 21 19 20 20 28 21 22 22
REMARK SMILES IDX 25 23 23 24 26 25 27 26 8 27 9 28 10 29 2 30 3 31 1 32 24 33
REMARK H PARENT 24 34
REMARK Flexibility Score: inf
ROOT
ATOM      1  C   UNL     1     -57.420  27.232 -15.110  1.00  0.00     0.014 C 
ATOM      2  C   UNL     1     -56.408  27.266 -16.263  1.00  0.00     0.014 C 
ATOM      3  C   UNL     1     -56.888  26.014 -14.330  1.00  0.00     0.012 C 
ATOM      4  C   UNL     1     -57.455  28.494 -14.178  1.00  0.00     0.014 C 
ATOM      5  C   UNL     1     -56.188  25.780 -16.631  1.00  0.00     0.009 C 
ATOM      6  C   UNL     1     -57.788  25.773 -13.103  1.00  0.00     0.000 C 
ATOM      7  C   UNL     1     -56.617  24.945 -15.396  1.00  0.00     0.018 C 
ATOM      8  C   UNL     1     -57.063  28.242 -12.693  1.00  0.00     0.008 C 
ATOM      9  C   UNL     1     -57.768  24.374 -12.495  1.00  0.00     0.005 C 
ATOM     10  C   UNL     1     -57.522  26.867 -12.012  1.00  0.00    -0.024 C 
ATOM     11  C   UNL     1     -58.607  24.312 -11.189  1.00  0.00     0.005 C 
ATOM     12  C   UNL     1     -58.875  26.958 -11.118  1.00  0.00    -0.024 C 
ATOM     13  C   UNL     1     -56.265  26.463 -11.147  1.00  0.00     0.012 C 
ATOM     14  C   UNL     1     -59.595  25.521 -10.931  1.00  0.00     0.002 C 
ATOM     15  C   UNL     1     -58.545  27.565  -9.734  1.00  0.00     0.008 C 
ATOM     16  C   UNL     1     -59.865  27.927 -11.850  1.00  0.00     0.012 C 
ATOM     17  C   UNL     1     -60.588  25.320  -9.645  1.00  0.00    -0.026 C 
ATOM     18  C   UNL     1     -59.729  27.609  -8.790  1.00  0.00     0.005 C 
ATOM     19  C   UNL     1     -62.054  25.669 -10.068  1.00  0.00     0.010 C 
ATOM     20  C   UNL     1     -60.606  23.807  -9.251  1.00  0.00     0.012 C 
ATOM     21  C   UNL     1     -60.187  26.190  -8.370  1.00  0.00     0.003 C 
ATOM     22  C   UNL     1     -63.086  25.609  -8.934  1.00  0.00     0.033 C 
ATOM     23  C   UNL     1     -61.286  26.251  -7.197  1.00  0.00    -0.006 C 
ATOM     24  C   UNL     1     -62.717  26.533  -7.769  1.00  0.00     0.120 C 
ATOM     25  C   UNL     1     -61.303  24.928  -6.359  1.00  0.00     0.014 C 
ATOM     26  C   UNL     1     -60.957  27.364  -6.154  1.00  0.00     0.014 C 
ENDROOT
BRANCH   1  27
ATOM     27  C   UNL     1     -58.810  27.063 -15.749  1.00  0.00     0.048 C 
ATOM     28  O   UNL     1     -59.822  26.949 -15.007  1.00  0.00    -0.550 OA
ATOM     29  O   UNL     1     -59.005  27.095 -17.125  1.00  0.00    -0.550 OA
ENDBRANCH   1  27
BRANCH   7  30
ATOM     30  C   UNL     1     -55.568  23.915 -14.979  1.00  0.00    -0.077 C 
ATOM     31  C   UNL     1     -55.938  22.457 -14.893  1.00  0.00     0.039 C 
ATOM     32  C   UNL     1     -54.303  24.271 -14.695  1.00  0.00     0.008 C 
ENDBRANCH   7  30
BRANCH  24  33
ATOM     33  O   UNL     1     -62.836  27.866  -8.209  1.00  0.00    -0.393 OA
ATOM     34  H   UNL     1     -62.091  28.043  -8.841  1.00  0.00     0.210 HD
ENDBRANCH  24  33
TORSDOF 3
ENDMDL
MODEL 7
REMARK VINA RESULT:    -4.817      2.501      8.005
REMARK INTER + INTRA:          -6.010
REMARK INTER:                  -5.541
REMARK INTRA:                  -0.469
REMARK UNBOUND:                -0.489
REMARK SMILES C=C(C)[C@@H]1CC[C@]2(C(=O)[O-])CC[C@]3(C)[C@H](CC[C@H]4[C@]5(C)CC[C@H](O)C(C)(C)[C@@H]5CC[C@]43C)[C@@H]12
REMARK SMILES IDX 7 1 6 2 33 3 11 4 5 5 15 6 4 7 12 8 16 9 13 10 17 11 31 12
REMARK SMILES IDX 14 13 18 14 30 15 32 16 19 17 29 18 21 19 20 20 28 21 22 22
REMARK SMILES IDX 25 23 23 24 26 25 27 26 8 27 9 28 10 29 2 30 3 31 1 32 24 33
REMARK H PARENT 24 34
REMARK Flexibility Score: inf
ROOT
ATOM      1  C   UNL     1     -59.336  28.195 -13.140  1.00  0.00     0.014 C 
ATOM      2  C   UNL     1     -58.742  29.125 -14.206  1.00  0.00     0.014 C 
ATOM      3  C   UNL     1     -58.305  27.051 -13.186  1.00  0.00     0.012 C 
ATOM      4  C   UNL     1     -59.431  28.775 -11.685  1.00  0.00     0.014 C 
ATOM      5  C   UNL     1     -58.257  28.174 -15.325  1.00  0.00     0.009 C 
ATOM      6  C   UNL     1     -58.720  25.961 -12.180  1.00  0.00     0.000 C 
ATOM      7  C   UNL     1     -58.080  26.775 -14.678  1.00  0.00     0.018 C 
ATOM      8  C   UNL     1     -58.579  28.037 -10.612  1.00  0.00     0.008 C 
ATOM      9  C   UNL     1     -58.162  24.560 -12.409  1.00  0.00     0.005 C 
ATOM     10  C   UNL     1     -58.448  26.444 -10.713  1.00  0.00    -0.024 C 
ATOM     11  C   UNL     1     -58.545  23.600 -11.249  1.00  0.00     0.005 C 
ATOM     12  C   UNL     1     -59.464  25.607  -9.762  1.00  0.00    -0.024 C 
ATOM     13  C   UNL     1     -56.937  26.188 -10.339  1.00  0.00     0.012 C 
ATOM     14  C   UNL     1     -59.699  24.092 -10.283  1.00  0.00     0.002 C 
ATOM     15  C   UNL     1     -58.922  25.586  -8.314  1.00  0.00     0.008 C 
ATOM     16  C   UNL     1     -60.839  26.358  -9.756  1.00  0.00     0.012 C 
ATOM     17  C   UNL     1     -60.194  22.974  -9.195  1.00  0.00    -0.026 C 
ATOM     18  C   UNL     1     -59.755  24.751  -7.363  1.00  0.00     0.005 C 
ATOM     19  C   UNL     1     -61.757  22.905  -9.203  1.00  0.00     0.010 C 
ATOM     20  C   UNL     1     -59.702  21.564  -9.660  1.00  0.00     0.012 C 
ATOM     21  C   UNL     1     -59.686  23.242  -7.708  1.00  0.00     0.003 C 
ATOM     22  C   UNL     1     -62.369  21.955  -8.166  1.00  0.00     0.033 C 
ATOM     23  C   UNL     1     -60.380  22.346  -6.566  1.00  0.00    -0.006 C 
ATOM     24  C   UNL     1     -61.936  22.305  -6.738  1.00  0.00     0.120 C 
ATOM     25  C   UNL     1     -59.810  20.888  -6.557  1.00  0.00     0.014 C 
ATOM     26  C   UNL     1     -60.068  22.891  -5.136  1.00  0.00     0.014 C 
ENDROOT
BRANCH   1  27
ATOM     27  C   UNL     1     -60.756  27.835 -13.612  1.00  0.00     0.048 C 
ATOM     28  O   UNL     1     -61.483  28.729 -14.123  1.00  0.00    -0.550 OA
ATOM     29  O   UNL     1     -61.251  26.537 -13.559  1.00  0.00    -0.550 OA
ENDBRANCH   1  27
BRANCH   7  30
ATOM     30  C   UNL     1     -56.724  26.142 -14.988  1.00  0.00    -0.077 C 
ATOM     31  C   UNL     1     -55.546  26.408 -14.087  1.00  0.00     0.039 C 
ATOM     32  C   UNL     1     -56.549  25.332 -16.047  1.00  0.00     0.008 C 
ENDBRANCH   7  30
BRANCH  24  33
ATOM     33  O   UNL     1     -62.520  23.539  -6.392  1.00  0.00    -0.393 OA
ATOM     34  H   UNL     1     -61.879  24.257  -6.638  1.00  0.00     0.210 HD
ENDBRANCH  24  33
TORSDOF 3
ENDMDL
MODEL 8
REMARK VINA RESULT:    -4.772      9.654     12.839
REMARK INTER + INTRA:          -5.958
REMARK INTER:                  -5.526
REMARK INTRA:                  -0.432
REMARK UNBOUND:                -0.489
REMARK SMILES C=C(C)[C@@H]1CC[C@]2(C(=O)[O-])CC[C@]3(C)[C@H](CC[C@H]4[C@]5(C)CC[C@H](O)C(C)(C)[C@@H]5CC[C@]43C)[C@@H]12
REMARK SMILES IDX 7 1 6 2 33 3 11 4 5 5 15 6 4 7 12 8 16 9 13 10 17 11 31 12
REMARK SMILES IDX 14 13 18 14 30 15 32 16 19 17 29 18 21 19 20 20 28 21 22 22
REMARK SMILES IDX 25 23 23 24 26 25 27 26 8 27 9 28 10 29 2 30 3 31 1 32 24 33
REMARK H PARENT 24 34
REMARK Flexibility Score: inf
ROOT
ATOM      1  C   UNL     1     -51.926  17.199 -10.419  1.00  0.00     0.014 C 
ATOM      2  C   UNL     1     -52.383  18.273  -9.423  1.00  0.00     0.014 C 
ATOM      3  C   UNL     1     -53.259  16.457 -10.634  1.00  0.00     0.012 C 
ATOM      4  C   UNL     1     -51.370  17.715 -11.792  1.00  0.00     0.014 C 
ATOM      5  C   UNL     1     -53.355  17.534  -8.473  1.00  0.00     0.009 C 
ATOM      6  C   UNL     1     -53.031  15.291 -11.614  1.00  0.00     0.000 C 
ATOM      7  C   UNL     1     -53.844  16.271  -9.228  1.00  0.00     0.018 C 
ATOM      8  C   UNL     1     -52.191  17.298 -13.047  1.00  0.00     0.008 C 
ATOM      9  C   UNL     1     -54.043  14.150 -11.579  1.00  0.00     0.005 C 
ATOM     10  C   UNL     1     -52.845  15.836 -13.072  1.00  0.00    -0.024 C 
ATOM     11  C   UNL     1     -53.773  13.118 -12.709  1.00  0.00     0.005 C 
ATOM     12  C   UNL     1     -51.989  14.711 -13.873  1.00  0.00    -0.024 C 
ATOM     13  C   UNL     1     -54.255  16.090 -13.731  1.00  0.00     0.012 C 
ATOM     14  C   UNL     1     -52.359  13.204 -13.415  1.00  0.00     0.002 C 
ATOM     15  C   UNL     1     -52.219  14.869 -15.395  1.00  0.00     0.008 C 
ATOM     16  C   UNL     1     -50.472  14.970 -13.581  1.00  0.00     0.012 C 
ATOM     17  C   UNL     1     -52.051  11.984 -14.462  1.00  0.00    -0.026 C 
ATOM     18  C   UNL     1     -51.532  13.807 -16.229  1.00  0.00     0.005 C 
ATOM     19  C   UNL     1     -50.625  11.407 -14.174  1.00  0.00     0.010 C 
ATOM     20  C   UNL     1     -53.050  10.814 -14.185  1.00  0.00     0.012 C 
ATOM     21  C   UNL     1     -52.148  12.404 -15.998  1.00  0.00     0.003 C 
ATOM     22  C   UNL     1     -50.164  10.308 -15.141  1.00  0.00     0.033 C 
ATOM     23  C   UNL     1     -51.573  11.330 -17.048  1.00  0.00    -0.006 C 
ATOM     24  C   UNL     1     -50.177  10.781 -16.598  1.00  0.00     0.120 C 
ATOM     25  C   UNL     1     -52.569  10.139 -17.253  1.00  0.00     0.014 C 
ATOM     26  C   UNL     1     -51.411  11.946 -18.474  1.00  0.00     0.014 C 
ENDROOT
BRANCH   1  27
ATOM     27  C   UNL     1     -50.817  16.393  -9.719  1.00  0.00     0.048 C 
ATOM     28  O   UNL     1     -50.547  15.231 -10.125  1.00  0.00    -0.550 OA
ATOM     29  O   UNL     1     -50.048  16.923  -8.689  1.00  0.00    -0.550 OA
ENDBRANCH   1  27
BRANCH   7  30
ATOM     30  C   UNL     1     -55.364  16.117  -9.211  1.00  0.00    -0.077 C 
ATOM     31  C   UNL     1     -56.193  16.713 -10.320  1.00  0.00     0.039 C 
ATOM     32  C   UNL     1     -55.995  15.446  -8.232  1.00  0.00     0.008 C 
ENDBRANCH   7  30
BRANCH  24  33
ATOM     33  O   UNL     1     -49.172  11.755 -16.754  1.00  0.00    -0.393 OA
ATOM     34  H   UNL     1     -49.468  12.574 -16.277  1.00  0.00     0.210 HD
ENDBRANCH  24  33
TORSDOF 3
ENDMDL
MODEL 9
REMARK VINA RESULT:    -4.707      7.756      9.343
REMARK INTER + INTRA:          -5.884
REMARK INTER:                  -5.363
REMARK INTRA:                  -0.521
REMARK UNBOUND:                -0.489
REMARK SMILES C=C(C)[C@@H]1CC[C@]2(C(=O)[O-])CC[C@]3(C)[C@H](CC[C@H]4[C@]5(C)CC[C@H](O)C(C)(C)[C@@H]5CC[C@]43C)[C@@H]12
REMARK SMILES IDX 7 1 6 2 33 3 11 4 5 5 15 6 4 7 12 8 16 9 13 10 17 11 31 12
REMARK SMILES IDX 14 13 18 14 30 15 32 16 19 17 29 18 21 19 20 20 28 21 22 22
REMARK SMILES IDX 25 23 23 24 26 25 27 26 8 27 9 28 10 29 2 30 3 31 1 32 24 33
REMARK H PARENT 24 34
REMARK Flexibility Score: inf
ROOT
ATOM      1  C   UNL     1     -54.928  15.639  -8.873  1.00  0.00     0.014 C 
ATOM      2  C   UNL     1     -54.942  15.338  -7.369  1.00  0.00     0.014 C 
ATOM      3  C   UNL     1     -53.875  16.763  -8.906  1.00  0.00     0.012 C 
ATOM      4  C   UNL     1     -54.489  14.462  -9.814  1.00  0.00     0.014 C 
ATOM      5  C   UNL     1     -54.846  16.726  -6.694  1.00  0.00     0.009 C 
ATOM      6  C   UNL     1     -53.704  17.247 -10.359  1.00  0.00     0.000 C 
ATOM      7  C   UNL     1     -54.250  17.696  -7.748  1.00  0.00     0.018 C 
ATOM      8  C   UNL     1     -53.188  14.708 -10.632  1.00  0.00     0.008 C 
ATOM      9  C   UNL     1     -53.122  18.643 -10.558  1.00  0.00     0.005 C 
ATOM     10  C   UNL     1     -52.916  16.182 -11.197  1.00  0.00    -0.024 C 
ATOM     11  C   UNL     1     -52.875  18.944 -12.062  1.00  0.00     0.005 C 
ATOM     12  C   UNL     1     -53.341  16.416 -12.746  1.00  0.00    -0.024 C 
ATOM     13  C   UNL     1     -51.365  16.367 -10.972  1.00  0.00     0.012 C 
ATOM     14  C   UNL     1     -53.582  17.978 -13.097  1.00  0.00     0.002 C 
ATOM     15  C   UNL     1     -52.255  15.830 -13.678  1.00  0.00     0.008 C 
ATOM     16  C   UNL     1     -54.673  15.631 -12.999  1.00  0.00     0.012 C 
ATOM     17  C   UNL     1     -53.447  18.445 -14.660  1.00  0.00    -0.026 C 
ATOM     18  C   UNL     1     -52.515  16.078 -15.151  1.00  0.00     0.005 C 
ATOM     19  C   UNL     1     -54.854  18.380 -15.341  1.00  0.00     0.010 C 
ATOM     20  C   UNL     1     -53.020  19.949 -14.704  1.00  0.00     0.012 C 
ATOM     21  C   UNL     1     -52.411  17.581 -15.510  1.00  0.00     0.003 C 
ATOM     22  C   UNL     1     -54.865  18.709 -16.839  1.00  0.00     0.033 C 
ATOM     23  C   UNL     1     -52.460  17.808 -17.102  1.00  0.00    -0.006 C 
ATOM     24  C   UNL     1     -53.931  17.793 -17.637  1.00  0.00     0.120 C 
ATOM     25  C   UNL     1     -51.762  19.149 -17.511  1.00  0.00     0.014 C 
ATOM     26  C   UNL     1     -51.658  16.708 -17.868  1.00  0.00     0.014 C 
ENDROOT
BRANCH   1  27
ATOM     27  C   UNL     1     -56.361  16.053  -9.252  1.00  0.00     0.048 C 
ATOM     28  O   UNL     1     -57.336  15.530  -8.649  1.00  0.00    -0.550 OA
ATOM     29  O   UNL     1     -56.625  17.038 -10.197  1.00  0.00    -0.550 OA
ENDBRANCH   1  27
BRANCH   7  30
ATOM     30  C   UNL     1     -53.074  18.511  -7.211  1.00  0.00    -0.077 C 
ATOM     31  C   UNL     1     -51.698  17.899  -7.154  1.00  0.00     0.039 C 
ATOM     32  C   UNL     1     -53.227  19.780  -6.795  1.00  0.00     0.008 C 
ENDBRANCH   7  30
BRANCH  24  33
ATOM     33  O   UNL     1     -54.468  16.491 -17.615  1.00  0.00    -0.393 OA
ATOM     34  H   UNL     1     -53.797  15.880 -18.018  1.00  0.00     0.210 HD
ENDBRANCH  24  33
TORSDOF 3
ENDMDL
