MODEL 1
REMARK VINA RESULT:    -6.061      0.000      0.000
REMARK INTER + INTRA:         -12.432
REMARK INTER:                  -9.959
REMARK INTRA:                  -2.473
REMARK UNBOUND:                -2.473
REMARK SMILES C[C@@H]1O[C@@H](OC[C@@H]2O[C@@H](Oc3c(-c4ccc(O)c(O)c4)oc4cc(O)cc(O)c4c3=O)[C@H](O)[C@@H](O)[C@H]2O)[C@@H](O)[C@H](O)[C@@H]1O
REMARK SMILES IDX 7 1 36 2 34 3 32 4 9 5 8 6 6 7 5 8 4 9 1 10 2 11 42 12 3 13
REMARK SMILES IDX 40 14 38 15 43 16 41 18 39 20 37 22 35 24 10 26 11 27 12 28
REMARK SMILES IDX 30 29 21 30 29 31 31 32 22 33 27 34 23 35 26 36 24 37 13 38
REMARK SMILES IDX 20 39 14 40 18 41 15 42 16 43 19 44 17 46 28 48 25 50 33 52
REMARK H PARENT 43 17 41 19 39 21 37 23 35 25 19 45 17 47 28 49 25 51 33 53
REMARK Flexibility Score: inf
ROOT
ATOM      1  C   UNL     1      18.116  31.083  35.887  1.00  0.00     0.180 C 
ATOM      2  C   UNL     1      16.805  31.669  36.468  1.00  0.00     0.177 C 
ATOM      3  C   UNL     1      16.617  31.205  37.927  1.00  0.00     0.180 C 
ATOM      4  C   UNL     1      16.775  29.680  38.025  1.00  0.00     0.214 C 
ATOM      5  C   UNL     1      18.069  29.221  37.319  1.00  0.00     0.339 C 
ATOM      6  O   UNL     1      18.108  29.666  35.974  1.00  0.00    -0.332 OA
ENDROOT
BRANCH   1   7
ATOM      7  C   UNL     1      18.284  31.457  34.409  1.00  0.00     0.198 C 
BRANCH   7   8
ATOM      8  O   UNL     1      17.870  30.384  33.590  1.00  0.00    -0.347 OA
BRANCH   8   9
ATOM      9  C   UNL     1      16.839  30.783  32.694  1.00  0.00     0.281 C 
ATOM     10  C   UNL     1      13.964  29.500  34.612  1.00  0.00     0.041 C 
ATOM     11  C   UNL     1      15.254  29.436  33.791  1.00  0.00     0.150 C 
ATOM     12  C   UNL     1      15.102  28.473  32.595  1.00  0.00     0.174 C 
ATOM     13  O   UNL     1      15.579  30.746  33.349  1.00  0.00    -0.344 OA
ATOM     14  C   UNL     1      16.422  28.450  31.802  1.00  0.00     0.179 C 
ATOM     15  C   UNL     1      16.839  29.882  31.437  1.00  0.00     0.202 C 
BRANCH  12  16
ATOM     16  O   UNL     1      14.044  28.899  31.770  1.00  0.00    -0.388 OA
ATOM     17  H   UNL     1      14.137  29.881  31.664  1.00  0.00     0.211 HD
ENDBRANCH  12  16
BRANCH  14  18
ATOM     18  O   UNL     1      16.279  27.690  30.628  1.00  0.00    -0.387 OA
ATOM     19  H   UNL     1      16.224  28.337  29.876  1.00  0.00     0.211 HD
ENDBRANCH  14  18
BRANCH  15  20
ATOM     20  O   UNL     1      18.116  29.860  30.851  1.00  0.00    -0.385 OA
ATOM     21  H   UNL     1      18.034  29.342  30.008  1.00  0.00     0.211 HD
ENDBRANCH  15  20
ENDBRANCH   8   9
ENDBRANCH   7   8
ENDBRANCH   1   7
BRANCH   2  22
ATOM     22  O   UNL     1      16.834  33.073  36.410  1.00  0.00    -0.387 OA
ATOM     23  H   UNL     1      17.491  33.374  37.089  1.00  0.00     0.211 HD
ENDBRANCH   2  22
BRANCH   3  24
ATOM     24  O   UNL     1      17.557  31.827  38.768  1.00  0.00    -0.387 OA
ATOM     25  H   UNL     1      18.424  31.829  38.284  1.00  0.00     0.211 HD
ENDBRANCH   3  24
BRANCH   5  26
ATOM     26  O   UNL     1      19.222  29.667  38.042  1.00  0.00    -0.454 OA
BRANCH  26  27
ATOM     27  C   UNL     1      19.933  28.832  38.910  1.00  0.00     0.214 A 
ATOM     28  C   UNL     1      20.929  27.957  38.436  1.00  0.00     0.180 A 
ATOM     29  C   UNL     1      19.633  28.844  40.277  1.00  0.00     0.239 A 
ATOM     30  O   UNL     1      21.505  27.102  39.273  1.00  0.00    -0.452 OA
ATOM     31  C   UNL     1      20.315  27.970  41.157  1.00  0.00     0.111 A 
ATOM     32  O   UNL     1      18.719  29.611  40.680  1.00  0.00    -0.285 OA
ATOM     33  C   UNL     1      21.238  27.061  40.573  1.00  0.00     0.146 A 
ATOM     34  C   UNL     1      20.106  27.914  42.567  1.00  0.00     0.134 A 
ATOM     35  C   UNL     1      21.884  26.104  41.358  1.00  0.00     0.094 A 
ATOM     36  C   UNL     1      20.744  26.921  43.321  1.00  0.00     0.093 A 
ATOM     37  C   UNL     1      21.631  26.023  42.724  1.00  0.00     0.123 A 
BRANCH  28  38
ATOM     38  C   UNL     1      21.363  27.960  37.024  1.00  0.00     0.025 A 
ATOM     39  C   UNL     1      20.834  27.039  36.104  1.00  0.00     0.062 A 
ATOM     40  C   UNL     1      22.276  28.927  36.579  1.00  0.00     0.016 A 
ATOM     41  C   UNL     1      21.229  27.065  34.762  1.00  0.00     0.158 A 
ATOM     42  C   UNL     1      22.682  28.950  35.242  1.00  0.00     0.051 A 
ATOM     43  C   UNL     1      22.165  28.020  34.329  1.00  0.00     0.157 A 
BRANCH  41  44
ATOM     44  O   UNL     1      20.679  26.142  33.875  1.00  0.00    -0.504 OA
ATOM     45  H   UNL     1      21.032  26.023  32.933  1.00  0.00     0.293 HD
ENDBRANCH  41  44
BRANCH  43  46
ATOM     46  O   UNL     1      22.572  28.045  32.996  1.00  0.00    -0.504 OA
ATOM     47  H   UNL     1      21.947  27.777  32.245  1.00  0.00     0.293 HD
ENDBRANCH  43  46
ENDBRANCH  28  38
BRANCH  34  48
ATOM     48  O   UNL     1      19.308  28.819  43.275  1.00  0.00    -0.507 OA
ATOM     49  H   UNL     1      19.230  28.852  44.281  1.00  0.00     0.293 HD
ENDBRANCH  34  48
BRANCH  37  50
ATOM     50  O   UNL     1      22.275  25.048  43.485  1.00  0.00    -0.508 OA
ATOM     51  H   UNL     1      22.125  24.970  44.484  1.00  0.00     0.293 HD
ENDBRANCH  37  50
ENDBRANCH  26  27
ENDBRANCH   5  26
BRANCH   4  52
ATOM     52  O   UNL     1      15.662  29.060  37.431  1.00  0.00    -0.384 OA
ATOM     53  H   UNL     1      14.872  29.300  37.981  1.00  0.00     0.211 HD
ENDBRANCH   4  52
TORSDOF 16
ENDMDL
MODEL 2
REMARK VINA RESULT:    -5.958      2.417      8.609
REMARK INTER + INTRA:         -12.262
REMARK INTER:                  -9.313
REMARK INTRA:                  -2.949
REMARK UNBOUND:                -2.473
REMARK SMILES C[C@@H]1O[C@@H](OC[C@@H]2O[C@@H](Oc3c(-c4ccc(O)c(O)c4)oc4cc(O)cc(O)c4c3=O)[C@H](O)[C@@H](O)[C@H]2O)[C@@H](O)[C@H](O)[C@@H]1O
REMARK SMILES IDX 7 1 36 2 34 3 32 4 9 5 8 6 6 7 5 8 4 9 1 10 2 11 42 12 3 13
REMARK SMILES IDX 40 14 38 15 43 16 41 18 39 20 37 22 35 24 10 26 11 27 12 28
REMARK SMILES IDX 30 29 21 30 29 31 31 32 22 33 27 34 23 35 26 36 24 37 13 38
REMARK SMILES IDX 20 39 14 40 18 41 15 42 16 43 19 44 17 46 28 48 25 50 33 52
REMARK H PARENT 43 17 41 19 39 21 37 23 35 25 19 45 17 47 28 49 25 51 33 53
REMARK Flexibility Score: inf
ROOT
ATOM      1  C   UNL     1      16.271  26.093  39.354  1.00  0.00     0.180 C 
ATOM      2  C   UNL     1      14.736  26.004  39.538  1.00  0.00     0.177 C 
ATOM      3  C   UNL     1      14.019  26.637  38.328  1.00  0.00     0.180 C 
ATOM      4  C   UNL     1      14.584  28.038  38.048  1.00  0.00     0.214 C 
ATOM      5  C   UNL     1      16.126  28.001  37.991  1.00  0.00     0.339 C 
ATOM      6  O   UNL     1      16.673  27.442  39.173  1.00  0.00    -0.332 OA
ENDROOT
BRANCH   1   7
ATOM      7  C   UNL     1      17.010  25.548  40.583  1.00  0.00     0.198 C 
BRANCH   7   8
ATOM      8  O   UNL     1      18.082  26.405  40.919  1.00  0.00    -0.347 OA
BRANCH   8   9
ATOM      9  C   UNL     1      18.435  26.278  42.291  1.00  0.00     0.281 C 
ATOM     10  C   UNL     1      16.264  28.940  43.630  1.00  0.00     0.041 C 
ATOM     11  C   UNL     1      17.413  28.327  42.826  1.00  0.00     0.150 C 
ATOM     12  C   UNL     1      18.752  29.019  43.159  1.00  0.00     0.174 C 
ATOM     13  O   UNL     1      17.477  26.937  43.107  1.00  0.00    -0.344 OA
ATOM     14  C   UNL     1      19.872  28.363  42.330  1.00  0.00     0.179 C 
ATOM     15  C   UNL     1      19.855  26.842  42.536  1.00  0.00     0.202 C 
BRANCH  12  16
ATOM     16  O   UNL     1      19.025  28.893  44.534  1.00  0.00    -0.388 OA
ATOM     17  H   UNL     1      19.757  28.229  44.624  1.00  0.00     0.211 HD
ENDBRANCH  12  16
BRANCH  14  18
ATOM     18  O   UNL     1      21.126  28.873  42.706  1.00  0.00    -0.387 OA
ATOM     19  H   UNL     1      21.349  29.589  42.054  1.00  0.00     0.211 HD
ENDBRANCH  14  18
BRANCH  15  20
ATOM     20  O   UNL     1      20.776  26.244  41.661  1.00  0.00    -0.385 OA
ATOM     21  H   UNL     1      20.303  25.490  41.220  1.00  0.00     0.211 HD
ENDBRANCH  15  20
ENDBRANCH   8   9
ENDBRANCH   7   8
ENDBRANCH   1   7
BRANCH   2  22
ATOM     22  O   UNL     1      14.342  24.662  39.683  1.00  0.00    -0.387 OA
ATOM     23  H   UNL     1      14.338  24.266  38.773  1.00  0.00     0.211 HD
ENDBRANCH   2  22
BRANCH   3  24
ATOM     24  O   UNL     1      14.175  25.833  37.185  1.00  0.00    -0.387 OA
ATOM     25  H   UNL     1      14.180  24.889  37.491  1.00  0.00     0.211 HD
ENDBRANCH   3  24
BRANCH   5  26
ATOM     26  O   UNL     1      16.569  27.285  36.832  1.00  0.00    -0.454 OA
BRANCH  26  27
ATOM     27  C   UNL     1      16.988  27.933  35.664  1.00  0.00     0.214 A 
ATOM     28  C   UNL     1      18.254  28.539  35.576  1.00  0.00     0.180 A 
ATOM     29  C   UNL     1      16.121  28.003  34.568  1.00  0.00     0.239 A 
ATOM     30  O   UNL     1      18.574  29.238  34.493  1.00  0.00    -0.452 OA
ATOM     31  C   UNL     1      16.518  28.696  33.399  1.00  0.00     0.111 A 
ATOM     32  O   UNL     1      14.981  27.481  34.674  1.00  0.00    -0.285 OA
ATOM     33  C   UNL     1      17.778  29.352  33.436  1.00  0.00     0.146 A 
ATOM     34  C   UNL     1      15.727  28.811  32.217  1.00  0.00     0.134 A 
ATOM     35  C   UNL     1      18.204  30.133  32.360  1.00  0.00     0.094 A 
ATOM     36  C   UNL     1      16.167  29.629  31.168  1.00  0.00     0.093 A 
ATOM     37  C   UNL     1      17.399  30.284  31.234  1.00  0.00     0.123 A 
BRANCH  28  38
ATOM     38  C   UNL     1      19.255  28.421  36.657  1.00  0.00     0.025 A 
ATOM     39  C   UNL     1      19.456  29.468  37.572  1.00  0.00     0.062 A 
ATOM     40  C   UNL     1      19.978  27.229  36.809  1.00  0.00     0.016 A 
ATOM     41  C   UNL     1      20.385  29.339  38.609  1.00  0.00     0.158 A 
ATOM     42  C   UNL     1      20.915  27.100  37.837  1.00  0.00     0.051 A 
ATOM     43  C   UNL     1      21.125  28.152  38.740  1.00  0.00     0.157 A 
BRANCH  41  44
ATOM     44  O   UNL     1      20.554  30.395  39.503  1.00  0.00    -0.504 OA
ATOM     45  H   UNL     1      21.332  30.433  40.152  1.00  0.00     0.293 HD
ENDBRANCH  41  44
BRANCH  43  46
ATOM     46  O   UNL     1      22.060  28.020  39.764  1.00  0.00    -0.504 OA
ATOM     47  H   UNL     1      21.993  27.279  40.453  1.00  0.00     0.293 HD
ENDBRANCH  43  46
ENDBRANCH  28  38
BRANCH  34  48
ATOM     48  O   UNL     1      14.523  28.130  32.013  1.00  0.00    -0.507 OA
ATOM     49  H   UNL     1      14.046  27.583  32.714  1.00  0.00     0.293 HD
ENDBRANCH  34  48
BRANCH  37  50
ATOM     50  O   UNL     1      17.838  31.081  30.179  1.00  0.00    -0.508 OA
ATOM     51  H   UNL     1      18.602  30.794  29.579  1.00  0.00     0.293 HD
ENDBRANCH  37  50
ENDBRANCH  26  27
ENDBRANCH   5  26
BRANCH   4  52
ATOM     52  O   UNL     1      14.166  28.918  39.062  1.00  0.00    -0.384 OA
ATOM     53  H   UNL     1      13.176  28.862  39.101  1.00  0.00     0.211 HD
ENDBRANCH   4  52
TORSDOF 16
ENDMDL
MODEL 3
REMARK VINA RESULT:    -5.951      3.923      8.063
REMARK INTER + INTRA:         -12.252
REMARK INTER:                  -9.819
REMARK INTRA:                  -2.432
REMARK UNBOUND:                -2.473
REMARK SMILES C[C@@H]1O[C@@H](OC[C@@H]2O[C@@H](Oc3c(-c4ccc(O)c(O)c4)oc4cc(O)cc(O)c4c3=O)[C@H](O)[C@@H](O)[C@H]2O)[C@@H](O)[C@H](O)[C@@H]1O
REMARK SMILES IDX 7 1 36 2 34 3 32 4 9 5 8 6 6 7 5 8 4 9 1 10 2 11 42 12 3 13
REMARK SMILES IDX 40 14 38 15 43 16 41 18 39 20 37 22 35 24 10 26 11 27 12 28
REMARK SMILES IDX 30 29 21 30 29 31 31 32 22 33 27 34 23 35 26 36 24 37 13 38
REMARK SMILES IDX 20 39 14 40 18 41 15 42 16 43 19 44 17 46 28 48 25 50 33 52
REMARK H PARENT 43 17 41 19 39 21 37 23 35 25 19 45 17 47 28 49 25 51 33 53
REMARK Flexibility Score: inf
ROOT
ATOM      1  C   UNL     1      18.955  27.446  42.435  1.00  0.00     0.180 C 
ATOM      2  C   UNL     1      19.835  27.406  43.709  1.00  0.00     0.177 C 
ATOM      3  C   UNL     1      21.326  27.508  43.328  1.00  0.00     0.180 C 
ATOM      4  C   UNL     1      21.669  26.480  42.240  1.00  0.00     0.214 C 
ATOM      5  C   UNL     1      20.656  26.559  41.078  1.00  0.00     0.339 C 
ATOM      6  O   UNL     1      19.325  26.406  41.543  1.00  0.00    -0.332 OA
ENDROOT
BRANCH   1   7
ATOM      7  C   UNL     1      17.472  27.258  42.779  1.00  0.00     0.198 C 
BRANCH   7   8
ATOM      8  O   UNL     1      17.044  25.973  42.380  1.00  0.00    -0.347 OA
BRANCH   8   9
ATOM      9  C   UNL     1      15.808  26.033  41.679  1.00  0.00     0.281 C 
ATOM     10  C   UNL     1      13.911  23.667  43.775  1.00  0.00     0.041 C 
ATOM     11  C   UNL     1      14.990  24.131  42.795  1.00  0.00     0.150 C 
ATOM     12  C   UNL     1      14.990  23.264  41.518  1.00  0.00     0.174 C 
ATOM     13  O   UNL     1      14.763  25.497  42.479  1.00  0.00    -0.344 OA
ATOM     14  C   UNL     1      16.087  23.775  40.567  1.00  0.00     0.179 C 
ATOM     15  C   UNL     1      15.916  25.282  40.331  1.00  0.00     0.202 C 
BRANCH  12  16
ATOM     16  O   UNL     1      13.730  23.333  40.894  1.00  0.00    -0.388 OA
ATOM     17  H   UNL     1      13.309  22.440  40.992  1.00  0.00     0.211 HD
ENDBRANCH  12  16
BRANCH  14  18
ATOM     18  O   UNL     1      16.028  23.098  39.337  1.00  0.00    -0.387 OA
ATOM     19  H   UNL     1      16.614  23.597  38.710  1.00  0.00     0.211 HD
ENDBRANCH  14  18
BRANCH  15  20
ATOM     20  O   UNL     1      17.007  25.764  39.589  1.00  0.00    -0.385 OA
ATOM     21  H   UNL     1      17.789  25.770  40.201  1.00  0.00     0.211 HD
ENDBRANCH  15  20
ENDBRANCH   8   9
ENDBRANCH   7   8
ENDBRANCH   1   7
BRANCH   2  22
ATOM     22  O   UNL     1      19.486  28.458  44.573  1.00  0.00    -0.387 OA
ATOM     23  H   UNL     1      18.825  29.018  44.089  1.00  0.00     0.211 HD
ENDBRANCH   2  22
BRANCH   3  24
ATOM     24  O   UNL     1      21.629  28.800  42.862  1.00  0.00    -0.387 OA
ATOM     25  H   UNL     1      20.793  29.177  42.483  1.00  0.00     0.211 HD
ENDBRANCH   3  24
BRANCH   5  26
ATOM     26  O   UNL     1      20.811  27.787  40.358  1.00  0.00    -0.454 OA
BRANCH  26  27
ATOM     27  C   UNL     1      21.342  27.837  39.065  1.00  0.00     0.214 A 
ATOM     28  C   UNL     1      22.636  28.332  38.822  1.00  0.00     0.180 A 
ATOM     29  C   UNL     1      20.561  27.412  37.984  1.00  0.00     0.239 A 
ATOM     30  O   UNL     1      23.064  28.468  37.572  1.00  0.00    -0.452 OA
ATOM     31  C   UNL     1      21.072  27.503  36.667  1.00  0.00     0.111 A 
ATOM     32  O   UNL     1      19.395  27.000  38.215  1.00  0.00    -0.285 OA
ATOM     33  C   UNL     1      22.353  28.099  36.513  1.00  0.00     0.146 A 
ATOM     34  C   UNL     1      20.375  27.079  35.496  1.00  0.00     0.134 A 
ATOM     35  C   UNL     1      22.890  28.310  35.241  1.00  0.00     0.094 A 
ATOM     36  C   UNL     1      20.926  27.335  34.233  1.00  0.00     0.093 A 
ATOM     37  C   UNL     1      22.177  27.943  34.104  1.00  0.00     0.123 A 
BRANCH  28  38
ATOM     38  C   UNL     1      23.549  28.707  39.922  1.00  0.00     0.025 A 
ATOM     39  C   UNL     1      23.551  30.011  40.445  1.00  0.00     0.062 A 
ATOM     40  C   UNL     1      24.388  27.738  40.491  1.00  0.00     0.016 A 
ATOM     41  C   UNL     1      24.398  30.352  41.504  1.00  0.00     0.158 A 
ATOM     42  C   UNL     1      25.243  28.077  41.542  1.00  0.00     0.051 A 
ATOM     43  C   UNL     1      25.256  29.383  42.053  1.00  0.00     0.157 A 
BRANCH  41  44
ATOM     44  O   UNL     1      24.370  31.654  42.003  1.00  0.00    -0.504 OA
ATOM     45  H   UNL     1      24.253  31.850  42.991  1.00  0.00     0.293 HD
ENDBRANCH  41  44
BRANCH  43  46
ATOM     46  O   UNL     1      26.110  29.718  43.101  1.00  0.00    -0.504 OA
ATOM     47  H   UNL     1      25.784  30.240  43.906  1.00  0.00     0.293 HD
ENDBRANCH  43  46
ENDBRANCH  28  38
BRANCH  34  48
ATOM     48  O   UNL     1      19.161  26.386  35.518  1.00  0.00    -0.507 OA
ATOM     49  H   UNL     1      18.888  25.725  36.230  1.00  0.00     0.293 HD
ENDBRANCH  34  48
BRANCH  37  50
ATOM     50  O   UNL     1      22.725  28.178  32.844  1.00  0.00    -0.508 OA
ATOM     51  H   UNL     1      22.779  29.112  32.455  1.00  0.00     0.293 HD
ENDBRANCH  37  50
ENDBRANCH  26  27
ENDBRANCH   5  26
BRANCH   4  52
ATOM     52  O   UNL     1      21.653  25.190  42.799  1.00  0.00    -0.384 OA
ATOM     53  H   UNL     1      22.327  24.654  42.307  1.00  0.00     0.211 HD
ENDBRANCH   4  52
TORSDOF 16
ENDMDL
MODEL 4
REMARK VINA RESULT:    -5.942      3.823      8.118
REMARK INTER + INTRA:         -12.236
REMARK INTER:                 -10.141
REMARK INTRA:                  -2.095
REMARK UNBOUND:                -2.473
REMARK SMILES C[C@@H]1O[C@@H](OC[C@@H]2O[C@@H](Oc3c(-c4ccc(O)c(O)c4)oc4cc(O)cc(O)c4c3=O)[C@H](O)[C@@H](O)[C@H]2O)[C@@H](O)[C@H](O)[C@@H]1O
REMARK SMILES IDX 7 1 36 2 34 3 32 4 9 5 8 6 6 7 5 8 4 9 1 10 2 11 42 12 3 13
REMARK SMILES IDX 40 14 38 15 43 16 41 18 39 20 37 22 35 24 10 26 11 27 12 28
REMARK SMILES IDX 30 29 21 30 29 31 31 32 22 33 27 34 23 35 26 36 24 37 13 38
REMARK SMILES IDX 20 39 14 40 18 41 15 42 16 43 19 44 17 46 28 48 25 50 33 52
REMARK H PARENT 43 17 41 19 39 21 37 23 35 25 19 45 17 47 28 49 25 51 33 53
REMARK Flexibility Score: inf
ROOT
ATOM      1  C   UNL     1      22.757  27.857  41.969  1.00  0.00     0.180 C 
ATOM      2  C   UNL     1      23.765  28.992  42.275  1.00  0.00     0.177 C 
ATOM      3  C   UNL     1      24.329  29.571  40.961  1.00  0.00     0.180 C 
ATOM      4  C   UNL     1      24.842  28.439  40.058  1.00  0.00     0.214 C 
ATOM      5  C   UNL     1      23.779  27.329  39.921  1.00  0.00     0.339 C 
ATOM      6  O   UNL     1      23.373  26.843  41.189  1.00  0.00    -0.332 OA
ENDROOT
BRANCH   1   7
ATOM      7  C   UNL     1      22.247  27.204  43.260  1.00  0.00     0.198 C 
BRANCH   7   8
ATOM      8  O   UNL     1      20.835  27.174  43.259  1.00  0.00    -0.347 OA
BRANCH   8   9
ATOM      9  C   UNL     1      20.305  27.796  42.094  1.00  0.00     0.281 C 
ATOM     10  C   UNL     1      17.523  29.608  43.696  1.00  0.00     0.041 C 
ATOM     11  C   UNL     1      18.328  28.399  43.216  1.00  0.00     0.150 C 
ATOM     12  C   UNL     1      17.449  27.443  42.382  1.00  0.00     0.174 C 
ATOM     13  O   UNL     1      19.437  28.860  42.457  1.00  0.00    -0.344 OA
ATOM     14  C   UNL     1      18.307  26.250  41.922  1.00  0.00     0.179 C 
ATOM     15  C   UNL     1      19.572  26.756  41.214  1.00  0.00     0.202 C 
BRANCH  12  16
ATOM     16  O   UNL     1      16.924  28.126  41.269  1.00  0.00    -0.388 OA
ATOM     17  H   UNL     1      17.536  28.884  41.081  1.00  0.00     0.211 HD
ENDBRANCH  12  16
BRANCH  14  18
ATOM     18  O   UNL     1      17.578  25.427  41.046  1.00  0.00    -0.387 OA
ATOM     19  H   UNL     1      18.207  25.144  40.332  1.00  0.00     0.211 HD
ENDBRANCH  14  18
BRANCH  15  20
ATOM     20  O   UNL     1      20.417  25.668  40.937  1.00  0.00    -0.385 OA
ATOM     21  H   UNL     1      19.960  25.120  40.246  1.00  0.00     0.211 HD
ENDBRANCH  15  20
ENDBRANCH   8   9
ENDBRANCH   7   8
ENDBRANCH   1   7
BRANCH   2  22
ATOM     22  O   UNL     1      23.140  30.007  43.020  1.00  0.00    -0.387 OA
ATOM     23  H   UNL     1      23.525  29.970  43.933  1.00  0.00     0.211 HD
ENDBRANCH   2  22
BRANCH   3  24
ATOM     24  O   UNL     1      23.339  30.300  40.279  1.00  0.00    -0.387 OA
ATOM     25  H   UNL     1      23.792  30.791  39.545  1.00  0.00     0.211 HD
ENDBRANCH   3  24
BRANCH   5  26
ATOM     26  O   UNL     1      22.656  27.798  39.166  1.00  0.00    -0.454 OA
BRANCH  26  27
ATOM     27  C   UNL     1      22.215  27.161  38.001  1.00  0.00     0.214 A 
ATOM     28  C   UNL     1      21.153  27.680  37.238  1.00  0.00     0.180 A 
ATOM     29  C   UNL     1      22.823  25.966  37.598  1.00  0.00     0.239 A 
ATOM     30  O   UNL     1      20.690  26.991  36.201  1.00  0.00    -0.452 OA
ATOM     31  C   UNL     1      22.353  25.290  36.447  1.00  0.00     0.111 A 
ATOM     32  O   UNL     1      23.752  25.500  38.308  1.00  0.00    -0.285 OA
ATOM     33  C   UNL     1      21.219  25.843  35.793  1.00  0.00     0.146 A 
ATOM     34  C   UNL     1      22.911  24.081  35.933  1.00  0.00     0.134 A 
ATOM     35  C   UNL     1      20.636  25.189  34.705  1.00  0.00     0.094 A 
ATOM     36  C   UNL     1      22.283  23.432  34.861  1.00  0.00     0.093 A 
ATOM     37  C   UNL     1      21.156  23.982  34.247  1.00  0.00     0.123 A 
BRANCH  28  38
ATOM     38  C   UNL     1      20.531  28.983  37.550  1.00  0.00     0.025 A 
ATOM     39  C   UNL     1      19.685  29.131  38.663  1.00  0.00     0.062 A 
ATOM     40  C   UNL     1      20.827  30.103  36.760  1.00  0.00     0.016 A 
ATOM     41  C   UNL     1      19.121  30.374  38.968  1.00  0.00     0.158 A 
ATOM     42  C   UNL     1      20.257  31.344  37.055  1.00  0.00     0.051 A 
ATOM     43  C   UNL     1      19.401  31.487  38.156  1.00  0.00     0.157 A 
BRANCH  41  44
ATOM     44  O   UNL     1      18.292  30.486  40.083  1.00  0.00    -0.504 OA
ATOM     45  H   UNL     1      17.313  30.223  40.056  1.00  0.00     0.293 HD
ENDBRANCH  41  44
BRANCH  43  46
ATOM     46  O   UNL     1      18.834  32.726  38.448  1.00  0.00    -0.504 OA
ATOM     47  H   UNL     1      18.999  33.190  39.334  1.00  0.00     0.293 HD
ENDBRANCH  43  46
ENDBRANCH  28  38
BRANCH  34  48
ATOM     48  O   UNL     1      24.084  23.494  36.417  1.00  0.00    -0.507 OA
ATOM     49  H   UNL     1      25.011  23.695  36.075  1.00  0.00     0.293 HD
ENDBRANCH  34  48
BRANCH  37  50
ATOM     50  O   UNL     1      20.548  23.338  33.170  1.00  0.00    -0.508 OA
ATOM     51  H   UNL     1      20.138  23.859  32.404  1.00  0.00     0.293 HD
ENDBRANCH  37  50
ENDBRANCH  26  27
ENDBRANCH   5  26
BRANCH   4  52
ATOM     52  O   UNL     1      26.020  27.905  40.610  1.00  0.00    -0.384 OA
ATOM     53  H   UNL     1      26.411  28.609  41.190  1.00  0.00     0.211 HD
ENDBRANCH   4  52
TORSDOF 16
ENDMDL
MODEL 5
REMARK VINA RESULT:    -5.867      4.772      6.868
REMARK INTER + INTRA:         -12.113
REMARK INTER:                  -9.490
REMARK INTRA:                  -2.622
REMARK UNBOUND:                -2.473
REMARK SMILES C[C@@H]1O[C@@H](OC[C@@H]2O[C@@H](Oc3c(-c4ccc(O)c(O)c4)oc4cc(O)cc(O)c4c3=O)[C@H](O)[C@@H](O)[C@H]2O)[C@@H](O)[C@H](O)[C@@H]1O
REMARK SMILES IDX 7 1 36 2 34 3 32 4 9 5 8 6 6 7 5 8 4 9 1 10 2 11 42 12 3 13
REMARK SMILES IDX 40 14 38 15 43 16 41 18 39 20 37 22 35 24 10 26 11 27 12 28
REMARK SMILES IDX 30 29 21 30 29 31 31 32 22 33 27 34 23 35 26 36 24 37 13 38
REMARK SMILES IDX 20 39 14 40 18 41 15 42 16 43 19 44 17 46 28 48 25 50 33 52
REMARK H PARENT 43 17 41 19 39 21 37 23 35 25 19 45 17 47 28 49 25 51 33 53
REMARK Flexibility Score: inf
ROOT
ATOM      1  C   UNL     1      24.800  28.027  39.060  1.00  0.00     0.180 C 
ATOM      2  C   UNL     1      25.849  28.963  39.709  1.00  0.00     0.177 C 
ATOM      3  C   UNL     1      25.330  29.482  41.066  1.00  0.00     0.180 C 
ATOM      4  C   UNL     1      23.915  30.060  40.909  1.00  0.00     0.214 C 
ATOM      5  C   UNL     1      23.003  29.068  40.157  1.00  0.00     0.339 C 
ATOM      6  O   UNL     1      23.560  28.700  38.907  1.00  0.00    -0.332 OA
ENDROOT
BRANCH   1   7
ATOM      7  C   UNL     1      25.254  27.566  37.669  1.00  0.00     0.198 C 
BRANCH   7   8
ATOM      8  O   UNL     1      24.726  28.426  36.681  1.00  0.00    -0.347 OA
BRANCH   8   9
ATOM      9  C   UNL     1      24.019  27.698  35.684  1.00  0.00     0.281 C 
ATOM     10  C   UNL     1      26.388  28.194  32.904  1.00  0.00     0.041 C 
ATOM     11  C   UNL     1      25.361  28.584  33.969  1.00  0.00     0.150 C 
ATOM     12  C   UNL     1      24.203  29.396  33.351  1.00  0.00     0.174 C 
ATOM     13  O   UNL     1      24.876  27.403  34.590  1.00  0.00    -0.344 OA
ATOM     14  C   UNL     1      23.199  29.758  34.461  1.00  0.00     0.179 C 
ATOM     15  C   UNL     1      22.776  28.491  35.218  1.00  0.00     0.202 C 
BRANCH  12  16
ATOM     16  O   UNL     1      23.570  28.639  32.348  1.00  0.00    -0.388 OA
ATOM     17  H   UNL     1      23.242  27.807  32.778  1.00  0.00     0.211 HD
ENDBRANCH  12  16
BRANCH  14  18
ATOM     18  O   UNL     1      22.063  30.379  33.916  1.00  0.00    -0.387 OA
ATOM     19  H   UNL     1      22.003  31.278  34.333  1.00  0.00     0.211 HD
ENDBRANCH  14  18
BRANCH  15  20
ATOM     20  O   UNL     1      21.983  28.850  36.321  1.00  0.00    -0.385 OA
ATOM     21  H   UNL     1      21.377  29.573  36.013  1.00  0.00     0.211 HD
ENDBRANCH  15  20
ENDBRANCH   8   9
ENDBRANCH   7   8
ENDBRANCH   1   7
BRANCH   2  22
ATOM     22  O   UNL     1      27.064  28.281  39.889  1.00  0.00    -0.387 OA
ATOM     23  H   UNL     1      27.225  27.760  39.060  1.00  0.00     0.211 HD
ENDBRANCH   2  22
BRANCH   3  24
ATOM     24  O   UNL     1      25.307  28.445  42.015  1.00  0.00    -0.387 OA
ATOM     25  H   UNL     1      24.354  28.235  42.196  1.00  0.00     0.211 HD
ENDBRANCH   3  24
BRANCH   5  26
ATOM     26  O   UNL     1      22.743  27.914  40.964  1.00  0.00    -0.454 OA
BRANCH  26  27
ATOM     27  C   UNL     1      21.450  27.423  41.178  1.00  0.00     0.214 A 
ATOM     28  C   UNL     1      20.932  26.362  40.413  1.00  0.00     0.180 A 
ATOM     29  C   UNL     1      20.643  28.015  42.156  1.00  0.00     0.239 A 
ATOM     30  O   UNL     1      19.665  25.997  40.569  1.00  0.00    -0.452 OA
ATOM     31  C   UNL     1      19.318  27.556  42.349  1.00  0.00     0.111 A 
ATOM     32  O   UNL     1      21.111  28.982  42.812  1.00  0.00    -0.285 OA
ATOM     33  C   UNL     1      18.853  26.542  41.468  1.00  0.00     0.146 A 
ATOM     34  C   UNL     1      18.416  28.069  43.329  1.00  0.00     0.134 A 
ATOM     35  C   UNL     1      17.531  26.098  41.530  1.00  0.00     0.094 A 
ATOM     36  C   UNL     1      17.087  27.627  43.344  1.00  0.00     0.093 A 
ATOM     37  C   UNL     1      16.645  26.645  42.454  1.00  0.00     0.123 A 
BRANCH  28  38
ATOM     38  C   UNL     1      21.759  25.630  39.432  1.00  0.00     0.025 A 
ATOM     39  C   UNL     1      22.653  24.628  39.846  1.00  0.00     0.062 A 
ATOM     40  C   UNL     1      21.614  25.897  38.062  1.00  0.00     0.016 A 
ATOM     41  C   UNL     1      23.413  23.920  38.909  1.00  0.00     0.158 A 
ATOM     42  C   UNL     1      22.379  25.199  37.124  1.00  0.00     0.051 A 
ATOM     43  C   UNL     1      23.282  24.211  37.540  1.00  0.00     0.157 A 
BRANCH  41  44
ATOM     44  O   UNL     1      24.285  22.928  39.355  1.00  0.00    -0.504 OA
ATOM     45  H   UNL     1      24.930  23.082  40.121  1.00  0.00     0.293 HD
ENDBRANCH  41  44
BRANCH  43  46
ATOM     46  O   UNL     1      24.044  23.517  36.602  1.00  0.00    -0.504 OA
ATOM     47  H   UNL     1      24.554  23.999  35.871  1.00  0.00     0.293 HD
ENDBRANCH  43  46
ENDBRANCH  28  38
BRANCH  34  48
ATOM     48  O   UNL     1      18.779  28.987  44.319  1.00  0.00    -0.507 OA
ATOM     49  H   UNL     1      19.665  28.993  44.801  1.00  0.00     0.293 HD
ENDBRANCH  34  48
BRANCH  37  50
ATOM     50  O   UNL     1      15.325  26.198  42.487  1.00  0.00    -0.508 OA
ATOM     51  H   UNL     1      14.987  25.597  43.230  1.00  0.00     0.293 HD
ENDBRANCH  37  50
ENDBRANCH  26  27
ENDBRANCH   5  26
BRANCH   4  52
ATOM     52  O   UNL     1      23.987  31.273  40.200  1.00  0.00    -0.384 OA
ATOM     53  H   UNL     1      23.972  32.001  40.874  1.00  0.00     0.211 HD
ENDBRANCH   4  52
TORSDOF 16
ENDMDL
MODEL 6
REMARK VINA RESULT:    -5.838      3.151      4.458
REMARK INTER + INTRA:         -12.066
REMARK INTER:                  -9.565
REMARK INTRA:                  -2.501
REMARK UNBOUND:                -2.473
REMARK SMILES C[C@@H]1O[C@@H](OC[C@@H]2O[C@@H](Oc3c(-c4ccc(O)c(O)c4)oc4cc(O)cc(O)c4c3=O)[C@H](O)[C@@H](O)[C@H]2O)[C@@H](O)[C@H](O)[C@@H]1O
REMARK SMILES IDX 7 1 36 2 34 3 32 4 9 5 8 6 6 7 5 8 4 9 1 10 2 11 42 12 3 13
REMARK SMILES IDX 40 14 38 15 43 16 41 18 39 20 37 22 35 24 10 26 11 27 12 28
REMARK SMILES IDX 30 29 21 30 29 31 31 32 22 33 27 34 23 35 26 36 24 37 13 38
REMARK SMILES IDX 20 39 14 40 18 41 15 42 16 43 19 44 17 46 28 48 25 50 33 52
REMARK H PARENT 43 17 41 19 39 21 37 23 35 25 19 45 17 47 28 49 25 51 33 53
REMARK Flexibility Score: inf
ROOT
ATOM      1  C   UNL     1      14.741  25.461  35.774  1.00  0.00     0.180 C 
ATOM      2  C   UNL     1      13.691  24.580  36.495  1.00  0.00     0.177 C 
ATOM      3  C   UNL     1      13.957  24.573  38.014  1.00  0.00     0.180 C 
ATOM      4  C   UNL     1      15.428  24.233  38.296  1.00  0.00     0.214 C 
ATOM      5  C   UNL     1      16.362  25.113  37.438  1.00  0.00     0.339 C 
ATOM      6  O   UNL     1      16.054  25.003  36.059  1.00  0.00    -0.332 OA
ENDROOT
BRANCH   1   7
ATOM      7  C   UNL     1      14.553  25.416  34.252  1.00  0.00     0.198 C 
BRANCH   7   8
ATOM      8  O   UNL     1      13.557  26.339  33.863  1.00  0.00    -0.347 OA
BRANCH   8   9
ATOM      9  C   UNL     1      13.882  27.659  34.281  1.00  0.00     0.281 C 
ATOM     10  C   UNL     1      10.662  28.508  35.861  1.00  0.00     0.041 C 
ATOM     11  C   UNL     1      11.629  28.160  34.728  1.00  0.00     0.150 C 
ATOM     12  C   UNL     1      11.529  29.187  33.579  1.00  0.00     0.174 C 
ATOM     13  O   UNL     1      12.948  28.111  35.251  1.00  0.00    -0.344 OA
ATOM     14  C   UNL     1      12.523  28.793  32.471  1.00  0.00     0.179 C 
ATOM     15  C   UNL     1      13.927  28.614  33.065  1.00  0.00     0.202 C 
BRANCH  12  16
ATOM     16  O   UNL     1      11.823  30.475  34.064  1.00  0.00    -0.388 OA
ATOM     17  H   UNL     1      11.819  31.086  33.282  1.00  0.00     0.211 HD
ENDBRANCH  12  16
BRANCH  14  18
ATOM     18  O   UNL     1      12.560  29.779  31.470  1.00  0.00    -0.387 OA
ATOM     19  H   UNL     1      11.650  29.816  31.074  1.00  0.00     0.211 HD
ENDBRANCH  14  18
BRANCH  15  20
ATOM     20  O   UNL     1      14.789  28.108  32.078  1.00  0.00    -0.385 OA
ATOM     21  H   UNL     1      14.729  27.118  32.126  1.00  0.00     0.211 HD
ENDBRANCH  15  20
ENDBRANCH   8   9
ENDBRANCH   7   8
ENDBRANCH   1   7
BRANCH   2  22
ATOM     22  O   UNL     1      12.395  25.060  36.235  1.00  0.00    -0.387 OA
ATOM     23  H   UNL     1      12.472  25.697  35.479  1.00  0.00     0.211 HD
ENDBRANCH   2  22
BRANCH   3  24
ATOM     24  O   UNL     1      13.651  25.826  38.575  1.00  0.00    -0.387 OA
ATOM     25  H   UNL     1      14.512  26.247  38.835  1.00  0.00     0.211 HD
ENDBRANCH   3  24
BRANCH   5  26
ATOM     26  O   UNL     1      16.305  26.477  37.870  1.00  0.00    -0.454 OA
BRANCH  26  27
ATOM     27  C   UNL     1      17.266  27.038  38.719  1.00  0.00     0.214 A 
ATOM     28  C   UNL     1      18.402  27.693  38.209  1.00  0.00     0.180 A 
ATOM     29  C   UNL     1      17.110  26.924  40.105  1.00  0.00     0.239 A 
ATOM     30  O   UNL     1      19.346  28.115  39.042  1.00  0.00    -0.452 OA
ATOM     31  C   UNL     1      18.100  27.447  40.971  1.00  0.00     0.111 A 
ATOM     32  O   UNL     1      16.103  26.309  40.544  1.00  0.00    -0.285 OA
ATOM     33  C   UNL     1      19.255  28.010  40.363  1.00  0.00     0.146 A 
ATOM     34  C   UNL     1      18.034  27.406  42.396  1.00  0.00     0.134 A 
ATOM     35  C   UNL     1      20.318  28.465  41.145  1.00  0.00     0.094 A 
ATOM     36  C   UNL     1      19.131  27.840  43.151  1.00  0.00     0.093 A 
ATOM     37  C   UNL     1      20.266  28.370  42.532  1.00  0.00     0.123 A 
BRANCH  28  38
ATOM     38  C   UNL     1      18.582  27.934  36.763  1.00  0.00     0.025 A 
ATOM     39  C   UNL     1      19.470  27.152  36.005  1.00  0.00     0.062 A 
ATOM     40  C   UNL     1      17.819  28.921  36.121  1.00  0.00     0.016 A 
ATOM     41  C   UNL     1      19.615  27.368  34.631  1.00  0.00     0.158 A 
ATOM     42  C   UNL     1      17.969  29.147  34.751  1.00  0.00     0.051 A 
ATOM     43  C   UNL     1      18.867  28.376  34.000  1.00  0.00     0.157 A 
BRANCH  41  44
ATOM     44  O   UNL     1      20.500  26.568  33.909  1.00  0.00    -0.504 OA
ATOM     45  H   UNL     1      21.379  26.248  34.299  1.00  0.00     0.293 HD
ENDBRANCH  41  44
BRANCH  43  46
ATOM     46  O   UNL     1      19.014  28.604  32.633  1.00  0.00    -0.504 OA
ATOM     47  H   UNL     1      19.816  28.256  32.120  1.00  0.00     0.293 HD
ENDBRANCH  43  46
ENDBRANCH  28  38
BRANCH  34  48
ATOM     48  O   UNL     1      16.913  26.977  43.114  1.00  0.00    -0.507 OA
ATOM     49  H   UNL     1      16.856  26.110  43.626  1.00  0.00     0.293 HD
ENDBRANCH  34  48
BRANCH  37  50
ATOM     50  O   UNL     1      21.347  28.815  43.292  1.00  0.00    -0.508 OA
ATOM     51  H   UNL     1      22.033  29.458  42.913  1.00  0.00     0.293 HD
ENDBRANCH  37  50
ENDBRANCH  26  27
ENDBRANCH   5  26
BRANCH   4  52
ATOM     52  O   UNL     1      15.654  22.876  38.006  1.00  0.00    -0.384 OA
ATOM     53  H   UNL     1      16.330  22.552  38.656  1.00  0.00     0.211 HD
ENDBRANCH   4  52
TORSDOF 16
ENDMDL
MODEL 7
REMARK VINA RESULT:    -5.832      2.673      9.002
REMARK INTER + INTRA:         -12.056
REMARK INTER:                  -9.437
REMARK INTRA:                  -2.619
REMARK UNBOUND:                -2.473
REMARK SMILES C[C@@H]1O[C@@H](OC[C@@H]2O[C@@H](Oc3c(-c4ccc(O)c(O)c4)oc4cc(O)cc(O)c4c3=O)[C@H](O)[C@@H](O)[C@H]2O)[C@@H](O)[C@H](O)[C@@H]1O
REMARK SMILES IDX 7 1 36 2 34 3 32 4 9 5 8 6 6 7 5 8 4 9 1 10 2 11 42 12 3 13
REMARK SMILES IDX 40 14 38 15 43 16 41 18 39 20 37 22 35 24 10 26 11 27 12 28
REMARK SMILES IDX 30 29 21 30 29 31 31 32 22 33 27 34 23 35 26 36 24 37 13 38
REMARK SMILES IDX 20 39 14 40 18 41 15 42 16 43 19 44 17 46 28 48 25 50 33 52
REMARK H PARENT 43 17 41 19 39 21 37 23 35 25 19 45 17 47 28 49 25 51 33 53
REMARK Flexibility Score: inf
ROOT
ATOM      1  C   UNL     1      21.051  26.805  37.322  1.00  0.00     0.180 C 
ATOM      2  C   UNL     1      22.166  27.252  36.345  1.00  0.00     0.177 C 
ATOM      3  C   UNL     1      21.544  27.853  35.068  1.00  0.00     0.180 C 
ATOM      4  C   UNL     1      20.486  26.900  34.492  1.00  0.00     0.214 C 
ATOM      5  C   UNL     1      19.501  26.453  35.592  1.00  0.00     0.339 C 
ATOM      6  O   UNL     1      20.183  25.876  36.692  1.00  0.00    -0.332 OA
ENDROOT
BRANCH   1   7
ATOM      7  C   UNL     1      21.641  26.124  38.563  1.00  0.00     0.198 C 
BRANCH   7   8
ATOM      8  O   UNL     1      21.224  26.804  39.729  1.00  0.00    -0.347 OA
BRANCH   8   9
ATOM      9  C   UNL     1      20.096  26.171  40.322  1.00  0.00     0.281 C 
ATOM     10  C   UNL     1      18.227  29.211  41.248  1.00  0.00     0.041 C 
ATOM     11  C   UNL     1      19.366  28.190  41.281  1.00  0.00     0.150 C 
ATOM     12  C   UNL     1      19.643  27.716  42.724  1.00  0.00     0.174 C 
ATOM     13  O   UNL     1      19.023  27.094  40.445  1.00  0.00    -0.344 OA
ATOM     14  C   UNL     1      20.791  26.690  42.701  1.00  0.00     0.179 C 
ATOM     15  C   UNL     1      20.475  25.573  41.697  1.00  0.00     0.202 C 
BRANCH  12  16
ATOM     16  O   UNL     1      18.481  27.137  43.267  1.00  0.00    -0.388 OA
ATOM     17  H   UNL     1      17.721  27.427  42.699  1.00  0.00     0.211 HD
ENDBRANCH  12  16
BRANCH  14  18
ATOM     18  O   UNL     1      20.981  26.134  43.977  1.00  0.00    -0.387 OA
ATOM     19  H   UNL     1      20.831  26.866  44.631  1.00  0.00     0.211 HD
ENDBRANCH  14  18
BRANCH  15  20
ATOM     20  O   UNL     1      21.592  24.729  41.572  1.00  0.00    -0.385 OA
ATOM     21  H   UNL     1      21.759  24.342  42.471  1.00  0.00     0.211 HD
ENDBRANCH  15  20
ENDBRANCH   8   9
ENDBRANCH   7   8
ENDBRANCH   1   7
BRANCH   2  22
ATOM     22  O   UNL     1      23.003  28.198  36.963  1.00  0.00    -0.387 OA
ATOM     23  H   UNL     1      22.412  28.906  37.329  1.00  0.00     0.211 HD
ENDBRANCH   2  22
BRANCH   3  24
ATOM     24  O   UNL     1      20.950  29.097  35.346  1.00  0.00    -0.387 OA
ATOM     25  H   UNL     1      20.246  28.938  36.028  1.00  0.00     0.211 HD
ENDBRANCH   3  24
BRANCH   5  26
ATOM     26  O   UNL     1      18.684  27.552  36.013  1.00  0.00    -0.454 OA
BRANCH  26  27
ATOM     27  C   UNL     1      17.481  27.881  35.378  1.00  0.00     0.214 A 
ATOM     28  C   UNL     1      16.291  27.185  35.657  1.00  0.00     0.180 A 
ATOM     29  C   UNL     1      17.464  28.906  34.425  1.00  0.00     0.239 A 
ATOM     30  O   UNL     1      15.195  27.451  34.956  1.00  0.00    -0.452 OA
ATOM     31  C   UNL     1      16.262  29.215  33.744  1.00  0.00     0.111 A 
ATOM     32  O   UNL     1      18.544  29.498  34.166  1.00  0.00    -0.285 OA
ATOM     33  C   UNL     1      15.134  28.398  34.027  1.00  0.00     0.146 A 
ATOM     34  C   UNL     1      16.125  30.251  32.773  1.00  0.00     0.134 A 
ATOM     35  C   UNL     1      13.936  28.577  33.333  1.00  0.00     0.094 A 
ATOM     36  C   UNL     1      14.920  30.383  32.070  1.00  0.00     0.093 A 
ATOM     37  C   UNL     1      13.830  29.555  32.348  1.00  0.00     0.123 A 
BRANCH  28  38
ATOM     38  C   UNL     1      16.215  26.160  36.718  1.00  0.00     0.025 A 
ATOM     39  C   UNL     1      16.374  26.506  38.070  1.00  0.00     0.062 A 
ATOM     40  C   UNL     1      15.928  24.829  36.379  1.00  0.00     0.016 A 
ATOM     41  C   UNL     1      16.274  25.534  39.071  1.00  0.00     0.158 A 
ATOM     42  C   UNL     1      15.838  23.853  37.375  1.00  0.00     0.051 A 
ATOM     43  C   UNL     1      16.012  24.198  38.723  1.00  0.00     0.157 A 
BRANCH  41  44
ATOM     44  O   UNL     1      16.431  25.914  40.403  1.00  0.00    -0.504 OA
ATOM     45  H   UNL     1      17.113  25.476  41.012  1.00  0.00     0.293 HD
ENDBRANCH  41  44
BRANCH  43  46
ATOM     46  O   UNL     1      15.922  23.222  39.714  1.00  0.00    -0.504 OA
ATOM     47  H   UNL     1      16.442  23.295  40.580  1.00  0.00     0.293 HD
ENDBRANCH  43  46
ENDBRANCH  28  38
BRANCH  34  48
ATOM     48  O   UNL     1      17.122  31.186  32.482  1.00  0.00    -0.507 OA
ATOM     49  H   UNL     1      18.085  31.110  32.773  1.00  0.00     0.293 HD
ENDBRANCH  34  48
BRANCH  37  50
ATOM     50  O   UNL     1      12.629  29.705  31.655  1.00  0.00    -0.508 OA
ATOM     51  H   UNL     1      12.197  28.927  31.170  1.00  0.00     0.293 HD
ENDBRANCH  37  50
ENDBRANCH  26  27
ENDBRANCH   5  26
BRANCH   4  52
ATOM     52  O   UNL     1      21.126  25.776  33.940  1.00  0.00    -0.384 OA
ATOM     53  H   UNL     1      20.533  24.998  34.105  1.00  0.00     0.211 HD
ENDBRANCH   4  52
TORSDOF 16
ENDMDL
MODEL 8
REMARK VINA RESULT:    -5.806      2.739      8.808
REMARK INTER + INTRA:         -12.013
REMARK INTER:                  -9.042
REMARK INTRA:                  -2.971
REMARK UNBOUND:                -2.473
REMARK SMILES C[C@@H]1O[C@@H](OC[C@@H]2O[C@@H](Oc3c(-c4ccc(O)c(O)c4)oc4cc(O)cc(O)c4c3=O)[C@H](O)[C@@H](O)[C@H]2O)[C@@H](O)[C@H](O)[C@@H]1O
REMARK SMILES IDX 7 1 36 2 34 3 32 4 9 5 8 6 6 7 5 8 4 9 1 10 2 11 42 12 3 13
REMARK SMILES IDX 40 14 38 15 43 16 41 18 39 20 37 22 35 24 10 26 11 27 12 28
REMARK SMILES IDX 30 29 21 30 29 31 31 32 22 33 27 34 23 35 26 36 24 37 13 38
REMARK SMILES IDX 20 39 14 40 18 41 15 42 16 43 19 44 17 46 28 48 25 50 33 52
REMARK H PARENT 43 17 41 19 39 21 37 23 35 25 19 45 17 47 28 49 25 51 33 53
REMARK Flexibility Score: inf
ROOT
ATOM      1  C   UNL     1      21.029  27.007  39.323  1.00  0.00     0.180 C 
ATOM      2  C   UNL     1      20.304  27.040  40.690  1.00  0.00     0.177 C 
ATOM      3  C   UNL     1      18.818  27.406  40.495  1.00  0.00     0.180 C 
ATOM      4  C   UNL     1      18.690  28.671  39.633  1.00  0.00     0.214 C 
ATOM      5  C   UNL     1      19.542  28.545  38.352  1.00  0.00     0.339 C 
ATOM      6  O   UNL     1      20.895  28.253  38.659  1.00  0.00    -0.332 OA
ENDROOT
BRANCH   1   7
ATOM      7  C   UNL     1      22.528  26.731  39.496  1.00  0.00     0.198 C 
BRANCH   7   8
ATOM      8  O   UNL     1      22.998  27.348  40.676  1.00  0.00    -0.347 OA
BRANCH   8   9
ATOM      9  C   UNL     1      23.858  28.443  40.380  1.00  0.00     0.281 C 
ATOM     10  C   UNL     1      26.869  27.218  42.118  1.00  0.00     0.041 C 
ATOM     11  C   UNL     1      25.437  27.737  41.973  1.00  0.00     0.150 C 
ATOM     12  C   UNL     1      25.191  28.950  42.895  1.00  0.00     0.174 C 
ATOM     13  O   UNL     1      25.211  28.081  40.613  1.00  0.00    -0.344 OA
ATOM     14  C   UNL     1      23.742  29.435  42.707  1.00  0.00     0.179 C 
ATOM     15  C   UNL     1      23.461  29.681  41.218  1.00  0.00     0.202 C 
BRANCH  12  16
ATOM     16  O   UNL     1      26.096  29.981  42.580  1.00  0.00    -0.388 OA
ATOM     17  H   UNL     1      25.903  30.260  41.647  1.00  0.00     0.211 HD
ENDBRANCH  12  16
BRANCH  14  18
ATOM     18  O   UNL     1      23.521  30.621  43.428  1.00  0.00    -0.387 OA
ATOM     19  H   UNL     1      24.386  30.860  43.852  1.00  0.00     0.211 HD
ENDBRANCH  14  18
BRANCH  15  20
ATOM     20  O   UNL     1      22.098  29.973  41.043  1.00  0.00    -0.385 OA
ATOM     21  H   UNL     1      21.789  30.405  41.882  1.00  0.00     0.211 HD
ENDBRANCH  15  20
ENDBRANCH   8   9
ENDBRANCH   7   8
ENDBRANCH   1   7
BRANCH   2  22
ATOM     22  O   UNL     1      20.412  25.792  41.328  1.00  0.00    -0.387 OA
ATOM     23  H   UNL     1      20.749  25.967  42.244  1.00  0.00     0.211 HD
ENDBRANCH   2  22
BRANCH   3  24
ATOM     24  O   UNL     1      18.126  26.348  39.878  1.00  0.00    -0.387 OA
ATOM     25  H   UNL     1      18.807  25.689  39.580  1.00  0.00     0.211 HD
ENDBRANCH   3  24
BRANCH   5  26
ATOM     26  O   UNL     1      18.989  27.555  37.477  1.00  0.00    -0.454 OA
BRANCH  26  27
ATOM     27  C   UNL     1      18.663  27.830  36.144  1.00  0.00     0.214 A 
ATOM     28  C   UNL     1      19.617  27.716  35.116  1.00  0.00     0.180 A 
ATOM     29  C   UNL     1      17.367  28.253  35.825  1.00  0.00     0.239 A 
ATOM     30  O   UNL     1      19.302  28.090  33.882  1.00  0.00    -0.452 OA
ATOM     31  C   UNL     1      17.041  28.577  34.487  1.00  0.00     0.111 A 
ATOM     32  O   UNL     1      16.534  28.378  36.760  1.00  0.00    -0.285 OA
ATOM     33  C   UNL     1      18.094  28.518  33.535  1.00  0.00     0.146 A 
ATOM     34  C   UNL     1      15.749  28.996  34.047  1.00  0.00     0.134 A 
ATOM     35  C   UNL     1      17.879  28.910  32.212  1.00  0.00     0.094 A 
ATOM     36  C   UNL     1      15.574  29.415  32.721  1.00  0.00     0.093 A 
ATOM     37  C   UNL     1      16.629  29.369  31.807  1.00  0.00     0.123 A 
BRANCH  28  38
ATOM     38  C   UNL     1      20.973  27.184  35.365  1.00  0.00     0.025 A 
ATOM     39  C   UNL     1      21.194  25.803  35.496  1.00  0.00     0.062 A 
ATOM     40  C   UNL     1      22.066  28.062  35.419  1.00  0.00     0.016 A 
ATOM     41  C   UNL     1      22.485  25.305  35.705  1.00  0.00     0.158 A 
ATOM     42  C   UNL     1      23.355  27.570  35.638  1.00  0.00     0.051 A 
ATOM     43  C   UNL     1      23.572  26.192  35.784  1.00  0.00     0.157 A 
BRANCH  41  44
ATOM     44  O   UNL     1      22.669  23.928  35.823  1.00  0.00    -0.504 OA
ATOM     45  H   UNL     1      22.958  23.496  36.694  1.00  0.00     0.293 HD
ENDBRANCH  41  44
BRANCH  43  46
ATOM     46  O   UNL     1      24.859  25.704  36.002  1.00  0.00    -0.504 OA
ATOM     47  H   UNL     1      25.512  26.183  36.611  1.00  0.00     0.293 HD
ENDBRANCH  43  46
ENDBRANCH  28  38
BRANCH  34  48
ATOM     48  O   UNL     1      14.610  28.996  34.856  1.00  0.00    -0.507 OA
ATOM     49  H   UNL     1      14.427  28.331  35.593  1.00  0.00     0.293 HD
ENDBRANCH  34  48
BRANCH  37  50
ATOM     50  O   UNL     1      16.441  29.772  30.485  1.00  0.00    -0.508 OA
ATOM     51  H   UNL     1      15.672  29.419  29.928  1.00  0.00     0.293 HD
ENDBRANCH  37  50
ENDBRANCH  26  27
ENDBRANCH   5  26
BRANCH   4  52
ATOM     52  O   UNL     1      19.115  29.785  40.380  1.00  0.00    -0.384 OA
ATOM     53  H   UNL     1      18.717  29.693  41.284  1.00  0.00     0.211 HD
ENDBRANCH   4  52
TORSDOF 16
ENDMDL
MODEL 9
REMARK VINA RESULT:    -5.735      2.227      3.729
REMARK INTER + INTRA:         -11.897
REMARK INTER:                  -9.061
REMARK INTRA:                  -2.836
REMARK UNBOUND:                -2.473
REMARK SMILES C[C@@H]1O[C@@H](OC[C@@H]2O[C@@H](Oc3c(-c4ccc(O)c(O)c4)oc4cc(O)cc(O)c4c3=O)[C@H](O)[C@@H](O)[C@H]2O)[C@@H](O)[C@H](O)[C@@H]1O
REMARK SMILES IDX 7 1 36 2 34 3 32 4 9 5 8 6 6 7 5 8 4 9 1 10 2 11 42 12 3 13
REMARK SMILES IDX 40 14 38 15 43 16 41 18 39 20 37 22 35 24 10 26 11 27 12 28
REMARK SMILES IDX 30 29 21 30 29 31 31 32 22 33 27 34 23 35 26 36 24 37 13 38
REMARK SMILES IDX 20 39 14 40 18 41 15 42 16 43 19 44 17 46 28 48 25 50 33 52
REMARK H PARENT 43 17 41 19 39 21 37 23 35 25 19 45 17 47 28 49 25 51 33 53
REMARK Flexibility Score: inf
ROOT
ATOM      1  C   UNL     1      14.779  27.630  34.914  1.00  0.00     0.180 C 
ATOM      2  C   UNL     1      13.394  27.108  35.370  1.00  0.00     0.177 C 
ATOM      3  C   UNL     1      13.368  26.940  36.903  1.00  0.00     0.180 C 
ATOM      4  C   UNL     1      14.582  26.123  37.370  1.00  0.00     0.214 C 
ATOM      5  C   UNL     1      15.883  26.689  36.762  1.00  0.00     0.339 C 
ATOM      6  O   UNL     1      15.807  26.753  35.348  1.00  0.00    -0.332 OA
ENDROOT
BRANCH   1   7
ATOM      7  C   UNL     1      14.862  27.724  33.385  1.00  0.00     0.198 C 
BRANCH   7   8
ATOM      8  O   UNL     1      15.414  28.968  33.009  1.00  0.00    -0.347 OA
BRANCH   8   9
ATOM      9  C   UNL     1      16.836  28.936  33.046  1.00  0.00     0.281 C 
ATOM     10  C   UNL     1      17.395  32.352  34.314  1.00  0.00     0.041 C 
ATOM     11  C   UNL     1      16.961  31.268  33.326  1.00  0.00     0.150 C 
ATOM     12  C   UNL     1      17.595  31.497  31.937  1.00  0.00     0.174 C 
ATOM     13  O   UNL     1      17.330  29.999  33.848  1.00  0.00    -0.344 OA
ATOM     14  C   UNL     1      17.131  30.379  30.986  1.00  0.00     0.179 C 
ATOM     15  C   UNL     1      17.414  29.006  31.613  1.00  0.00     0.202 C 
BRANCH  12  16
ATOM     16  O   UNL     1      18.998  31.494  32.047  1.00  0.00    -0.388 OA
ATOM     17  H   UNL     1      19.304  30.576  31.826  1.00  0.00     0.211 HD
ENDBRANCH  12  16
BRANCH  14  18
ATOM     18  O   UNL     1      17.795  30.476  29.751  1.00  0.00    -0.387 OA
ATOM     19  H   UNL     1      18.076  31.423  29.653  1.00  0.00     0.211 HD
ENDBRANCH  14  18
BRANCH  15  20
ATOM     20  O   UNL     1      16.849  28.002  30.808  1.00  0.00    -0.385 OA
ATOM     21  H   UNL     1      16.078  28.413  30.338  1.00  0.00     0.211 HD
ENDBRANCH  15  20
ENDBRANCH   8   9
ENDBRANCH   7   8
ENDBRANCH   1   7
BRANCH   2  22
ATOM     22  O   UNL     1      12.384  27.998  34.966  1.00  0.00    -0.387 OA
ATOM     23  H   UNL     1      12.782  28.907  34.977  1.00  0.00     0.211 HD
ENDBRANCH   2  22
BRANCH   3  24
ATOM     24  O   UNL     1      13.377  28.195  37.537  1.00  0.00    -0.387 OA
ATOM     25  H   UNL     1      14.235  28.635  37.301  1.00  0.00     0.211 HD
ENDBRANCH   3  24
BRANCH   5  26
ATOM     26  O   UNL     1      16.182  27.974  37.320  1.00  0.00    -0.454 OA
BRANCH  26  27
ATOM     27  C   UNL     1      16.977  28.132  38.460  1.00  0.00     0.214 A 
ATOM     28  C   UNL     1      18.378  28.020  38.399  1.00  0.00     0.180 A 
ATOM     29  C   UNL     1      16.367  28.380  39.695  1.00  0.00     0.239 A 
ATOM     30  O   UNL     1      19.091  28.066  39.518  1.00  0.00    -0.452 OA
ATOM     31  C   UNL     1      17.160  28.495  40.862  1.00  0.00     0.111 A 
ATOM     32  O   UNL     1      15.111  28.447  39.738  1.00  0.00    -0.285 OA
ATOM     33  C   UNL     1      18.556  28.277  40.716  1.00  0.00     0.146 A 
ATOM     34  C   UNL     1      16.648  28.768  42.166  1.00  0.00     0.134 A 
ATOM     35  C   UNL     1      19.397  28.282  41.831  1.00  0.00     0.094 A 
ATOM     36  C   UNL     1      17.511  28.733  43.269  1.00  0.00     0.093 A 
ATOM     37  C   UNL     1      18.878  28.495  43.105  1.00  0.00     0.123 A 
BRANCH  28  38
ATOM     38  C   UNL     1      19.094  27.855  37.117  1.00  0.00     0.025 A 
ATOM     39  C   UNL     1      19.346  28.958  36.284  1.00  0.00     0.062 A 
ATOM     40  C   UNL     1      19.576  26.591  36.747  1.00  0.00     0.016 A 
ATOM     41  C   UNL     1      20.048  28.798  35.084  1.00  0.00     0.158 A 
ATOM     42  C   UNL     1      20.268  26.425  35.545  1.00  0.00     0.051 A 
ATOM     43  C   UNL     1      20.506  27.524  34.707  1.00  0.00     0.157 A 
BRANCH  41  44
ATOM     44  O   UNL     1      20.287  29.915  34.285  1.00  0.00    -0.504 OA
ATOM     45  H   UNL     1      20.383  29.847  33.278  1.00  0.00     0.293 HD
ENDBRANCH  41  44
BRANCH  43  46
ATOM     46  O   UNL     1      21.196  27.356  33.508  1.00  0.00    -0.504 OA
ATOM     47  H   UNL     1      22.175  27.096  33.491  1.00  0.00     0.293 HD
ENDBRANCH  43  46
ENDBRANCH  28  38
BRANCH  34  48
ATOM     48  O   UNL     1      15.316  29.103  42.428  1.00  0.00    -0.507 OA
ATOM     49  H   UNL     1      15.007  29.673  43.200  1.00  0.00     0.293 HD
ENDBRANCH  34  48
BRANCH  37  50
ATOM     50  O   UNL     1      19.733  28.479  44.206  1.00  0.00    -0.508 OA
ATOM     51  H   UNL     1      20.268  27.653  44.449  1.00  0.00     0.293 HD
ENDBRANCH  37  50
ENDBRANCH  26  27
ENDBRANCH   5  26
BRANCH   4  52
ATOM     52  O   UNL     1      14.417  24.783  36.978  1.00  0.00    -0.384 OA
ATOM     53  H   UNL     1      14.483  24.762  35.989  1.00  0.00     0.211 HD
ENDBRANCH   4  52
TORSDOF 16
ENDMDL
