MODEL 1
REMARK VINA RESULT:     4.090      0.000      0.000
REMARK INTER + INTRA:           7.228
REMARK INTER:                   7.676
REMARK INTRA:                  -0.448
REMARK UNBOUND:                -0.448
REMARK SMILES O=C([O-])CCCCCCCCCCCCCCC(=O)[O-]
REMARK SMILES IDX 10 1 9 2 8 3 7 4 6 5 5 6 4 7 2 8 1 9 3 10 11 11 12 12 13 13
REMARK SMILES IDX 14 14 15 15 16 16 17 17 18 18 19 19 20 20
REMARK H PARENT
REMARK Flexibility Score: inf
ROOT
ATOM      1  C   UNL     1       2.712   5.993  -1.215  1.00  0.00     0.000 C 
ENDROOT
BRANCH   1   2
ATOM      2  C   UNL     1       2.921   4.702  -0.414  1.00  0.00     0.000 C 
BRANCH   2   3
ATOM      3  C   UNL     1       3.609   3.629  -1.272  1.00  0.00     0.000 C 
BRANCH   3   4
ATOM      4  C   UNL     1       3.335   2.202  -0.767  1.00  0.00     0.000 C 
BRANCH   4   5
ATOM      5  C   UNL     1       4.587   1.308  -0.821  1.00  0.00     0.000 C 
BRANCH   5   6
ATOM      6  C   UNL     1       4.670   0.336   0.368  1.00  0.00     0.006 C 
BRANCH   6   7
ATOM      7  C   UNL     1       6.034   0.374   1.069  1.00  0.00     0.053 C 
BRANCH   7   8
ATOM      8  C   UNL     1       6.397  -0.983   1.583  1.00  0.00     0.041 C 
ATOM      9  O   UNL     1       5.603  -1.951   1.432  1.00  0.00    -0.550 OA
ATOM     10  O   UNL     1       7.594  -1.174   2.262  1.00  0.00    -0.550 OA
ENDBRANCH   7   8
ENDBRANCH   6   7
ENDBRANCH   5   6
ENDBRANCH   4   5
ENDBRANCH   3   4
ENDBRANCH   2   3
ENDBRANCH   1   2
BRANCH   1  11
ATOM     11  C   UNL     1       1.251   6.461  -1.132  1.00  0.00     0.000 C 
BRANCH  11  12
ATOM     12  C   UNL     1       1.089   7.956  -1.450  1.00  0.00     0.000 C 
BRANCH  12  13
ATOM     13  C   UNL     1      -0.213   8.265  -2.203  1.00  0.00     0.000 C 
BRANCH  13  14
ATOM     14  C   UNL     1      -1.423   7.661  -1.479  1.00  0.00     0.000 C 
BRANCH  14  15
ATOM     15  C   UNL     1      -1.898   8.575  -0.343  1.00  0.00     0.000 C 
BRANCH  15  16
ATOM     16  C   UNL     1      -3.361   8.291   0.018  1.00  0.00     0.006 C 
BRANCH  16  17
ATOM     17  C   UNL     1      -4.251   9.491  -0.318  1.00  0.00     0.053 C 
BRANCH  17  18
ATOM     18  C   UNL     1      -4.927   9.291  -1.638  1.00  0.00     0.041 C 
ATOM     19  O   UNL     1      -6.181   9.340  -1.722  1.00  0.00    -0.550 OA
ATOM     20  O   UNL     1      -4.171   9.007  -2.770  1.00  0.00    -0.550 OA
ENDBRANCH  17  18
ENDBRANCH  16  17
ENDBRANCH  15  16
ENDBRANCH  14  15
ENDBRANCH  13  14
ENDBRANCH  12  13
ENDBRANCH  11  12
ENDBRANCH   1  11
TORSDOF 15
ENDMDL
MODEL 2
REMARK VINA RESULT:     4.291      0.623     11.459
REMARK INTER + INTRA:           7.606
REMARK INTER:                   8.055
REMARK INTRA:                  -0.449
REMARK UNBOUND:                -0.448
REMARK SMILES O=C([O-])CCCCCCCCCCCCCCC(=O)[O-]
REMARK SMILES IDX 10 1 9 2 8 3 7 4 6 5 5 6 4 7 2 8 1 9 3 10 11 11 12 12 13 13
REMARK SMILES IDX 14 14 15 15 16 16 17 17 18 18 19 19 20 20
REMARK H PARENT
REMARK Flexibility Score: inf
ROOT
ATOM      1  C   UNL     1       2.251   6.999  -1.500  1.00  0.00     0.000 C 
ENDROOT
BRANCH   1   2
ATOM      2  C   UNL     1       1.071   7.925  -1.177  1.00  0.00     0.000 C 
BRANCH   2   3
ATOM      3  C   UNL     1      -0.210   7.445  -1.876  1.00  0.00     0.000 C 
BRANCH   3   4
ATOM      4  C   UNL     1      -1.379   8.430  -1.709  1.00  0.00     0.000 C 
BRANCH   4   5
ATOM      5  C   UNL     1      -1.855   8.537  -0.249  1.00  0.00     0.000 C 
BRANCH   5   6
ATOM      6  C   UNL     1      -3.359   8.257  -0.096  1.00  0.00     0.006 C 
BRANCH   6   7
ATOM      7  C   UNL     1      -4.223   9.495  -0.370  1.00  0.00     0.053 C 
BRANCH   7   8
ATOM      8  C   UNL     1      -4.993   9.326  -1.641  1.00  0.00     0.041 C 
ATOM      9  O   UNL     1      -6.253   9.356  -1.628  1.00  0.00    -0.550 OA
ATOM     10  O   UNL     1      -4.323   9.096  -2.837  1.00  0.00    -0.550 OA
ENDBRANCH   7   8
ENDBRANCH   6   7
ENDBRANCH   5   6
ENDBRANCH   4   5
ENDBRANCH   3   4
ENDBRANCH   2   3
ENDBRANCH   1   2
BRANCH   1  11
ATOM     11  C   UNL     1       2.066   5.622  -0.845  1.00  0.00     0.000 C 
BRANCH  11  12
ATOM     12  C   UNL     1       3.276   4.698  -1.053  1.00  0.00     0.000 C 
BRANCH  12  13
ATOM     13  C   UNL     1       3.149   3.372  -0.291  1.00  0.00     0.000 C 
BRANCH  13  14
ATOM     14  C   UNL     1       3.720   2.209  -1.111  1.00  0.00     0.000 C 
BRANCH  14  15
ATOM     15  C   UNL     1       3.979   0.984  -0.225  1.00  0.00     0.000 C 
BRANCH  15  16
ATOM     16  C   UNL     1       5.464   0.605  -0.229  1.00  0.00     0.006 C 
BRANCH  16  17
ATOM     17  C   UNL     1       6.016   0.537   1.199  1.00  0.00     0.053 C 
BRANCH  17  18
ATOM     18  C   UNL     1       6.394  -0.868   1.549  1.00  0.00     0.041 C 
ATOM     19  O   UNL     1       5.647  -1.826   1.220  1.00  0.00    -0.550 OA
ATOM     20  O   UNL     1       7.552  -1.115   2.276  1.00  0.00    -0.550 OA
ENDBRANCH  17  18
ENDBRANCH  16  17
ENDBRANCH  15  16
ENDBRANCH  14  15
ENDBRANCH  13  14
ENDBRANCH  12  13
ENDBRANCH  11  12
ENDBRANCH   1  11
TORSDOF 15
ENDMDL
MODEL 3
REMARK VINA RESULT:     4.418     10.883     13.939
REMARK INTER + INTRA:           7.844
REMARK INTER:                   8.936
REMARK INTRA:                  -1.091
REMARK UNBOUND:                -0.448
REMARK SMILES O=C([O-])CCCCCCCCCCCCCCC(=O)[O-]
REMARK SMILES IDX 10 1 9 2 8 3 7 4 6 5 5 6 4 7 2 8 1 9 3 10 11 11 12 12 13 13
REMARK SMILES IDX 14 14 15 15 16 16 17 17 18 18 19 19 20 20
REMARK H PARENT
REMARK Flexibility Score: inf
ROOT
ATOM      1  C   UNL     1      -6.396   3.509   8.871  1.00  0.00     0.000 C 
ENDROOT
BRANCH   1   2
ATOM      2  C   UNL     1      -6.159   4.621   9.901  1.00  0.00     0.000 C 
BRANCH   2   3
ATOM      3  C   UNL     1      -4.657   4.889  10.083  1.00  0.00     0.000 C 
BRANCH   3   4
ATOM      4  C   UNL     1      -4.173   6.110   9.283  1.00  0.00     0.000 C 
BRANCH   4   5
ATOM      5  C   UNL     1      -2.647   6.114   9.080  1.00  0.00     0.000 C 
BRANCH   5   6
ATOM      6  C   UNL     1      -1.926   7.077  10.038  1.00  0.00     0.006 C 
BRANCH   6   7
ATOM      7  C   UNL     1      -1.393   8.328   9.327  1.00  0.00     0.053 C 
BRANCH   7   8
ATOM      8  C   UNL     1       0.082   8.462   9.540  1.00  0.00     0.041 C 
ATOM      9  O   UNL     1       0.613   9.603   9.601  1.00  0.00    -0.550 OA
ATOM     10  O   UNL     1       0.878   7.327   9.633  1.00  0.00    -0.550 OA
ENDBRANCH   7   8
ENDBRANCH   6   7
ENDBRANCH   5   6
ENDBRANCH   4   5
ENDBRANCH   3   4
ENDBRANCH   2   3
ENDBRANCH   1   2
BRANCH   1  11
ATOM     11  C   UNL     1      -5.244   2.493   8.883  1.00  0.00     0.000 C 
BRANCH  11  12
ATOM     12  C   UNL     1      -4.742   2.148   7.472  1.00  0.00     0.000 C 
BRANCH  12  13
ATOM     13  C   UNL     1      -3.215   2.244   7.345  1.00  0.00     0.000 C 
BRANCH  13  14
ATOM     14  C   UNL     1      -2.521   1.558   8.528  1.00  0.00     0.000 C 
BRANCH  14  15
ATOM     15  C   UNL     1      -1.677   0.367   8.056  1.00  0.00     0.000 C 
BRANCH  15  16
ATOM     16  C   UNL     1      -1.409  -0.610   9.207  1.00  0.00     0.006 C 
BRANCH  16  17
ATOM     17  C   UNL     1      -2.385  -1.789   9.163  1.00  0.00     0.053 C 
BRANCH  17  18
ATOM     18  C   UNL     1      -1.641  -3.084   9.078  1.00  0.00     0.041 C 
ATOM     19  O   UNL     1      -0.676  -3.313   9.853  1.00  0.00    -0.550 OA
ATOM     20  O   UNL     1      -1.987  -4.023   8.113  1.00  0.00    -0.550 OA
ENDBRANCH  17  18
ENDBRANCH  16  17
ENDBRANCH  15  16
ENDBRANCH  14  15
ENDBRANCH  13  14
ENDBRANCH  12  13
ENDBRANCH  11  12
ENDBRANCH   1  11
TORSDOF 15
ENDMDL
MODEL 4
REMARK VINA RESULT:     5.059     10.105     13.856
REMARK INTER + INTRA:           9.047
REMARK INTER:                   9.522
REMARK INTRA:                  -0.475
REMARK UNBOUND:                -0.448
REMARK SMILES O=C([O-])CCCCCCCCCCCCCCC(=O)[O-]
REMARK SMILES IDX 10 1 9 2 8 3 7 4 6 5 5 6 4 7 2 8 1 9 3 10 11 11 12 12 13 13
REMARK SMILES IDX 14 14 15 15 16 16 17 17 18 18 19 19 20 20
REMARK H PARENT
REMARK Flexibility Score: inf
ROOT
ATOM      1  C   UNL     1      -5.273   2.863   8.732  1.00  0.00     0.000 C 
ENDROOT
BRANCH   1   2
ATOM      2  C   UNL     1      -6.446   3.782   9.092  1.00  0.00     0.000 C 
BRANCH   2   3
ATOM      3  C   UNL     1      -6.000   4.888  10.061  1.00  0.00     0.000 C 
BRANCH   3   4
ATOM      4  C   UNL     1      -4.470   5.037  10.124  1.00  0.00     0.000 C 
BRANCH   4   5
ATOM      5  C   UNL     1      -4.017   6.505  10.032  1.00  0.00     0.000 C 
BRANCH   5   6
ATOM      6  C   UNL     1      -2.702   6.669   9.252  1.00  0.00     0.006 C 
BRANCH   6   7
ATOM      7  C   UNL     1      -2.484   5.555   8.220  1.00  0.00     0.053 C 
BRANCH   7   8
ATOM      8  C   UNL     1      -3.287   5.820   6.985  1.00  0.00     0.041 C 
ATOM      9  O   UNL     1      -2.920   6.708   6.170  1.00  0.00    -0.550 OA
ATOM     10  O   UNL     1      -4.459   5.113   6.752  1.00  0.00    -0.550 OA
ENDBRANCH   7   8
ENDBRANCH   6   7
ENDBRANCH   5   6
ENDBRANCH   4   5
ENDBRANCH   3   4
ENDBRANCH   2   3
ENDBRANCH   1   2
BRANCH   1  11
ATOM     11  C   UNL     1      -5.558   2.088   7.436  1.00  0.00     0.000 C 
BRANCH  11  12
ATOM     12  C   UNL     1      -4.277   1.602   6.741  1.00  0.00     0.000 C 
BRANCH  12  13
ATOM     13  C   UNL     1      -3.001   2.056   7.463  1.00  0.00     0.000 C 
BRANCH  13  14
ATOM     14  C   UNL     1      -2.815   1.294   8.781  1.00  0.00     0.000 C 
BRANCH  14  15
ATOM     15  C   UNL     1      -1.571   0.398   8.729  1.00  0.00     0.000 C 
BRANCH  15  16
ATOM     16  C   UNL     1      -1.900  -1.030   9.179  1.00  0.00     0.006 C 
BRANCH  16  17
ATOM     17  C   UNL     1      -1.631  -2.035   8.056  1.00  0.00     0.053 C 
BRANCH  17  18
ATOM     18  C   UNL     1      -1.712  -3.436   8.574  1.00  0.00     0.041 C 
ATOM     19  O   UNL     1      -1.685  -3.657   9.813  1.00  0.00    -0.550 OA
ATOM     20  O   UNL     1      -1.776  -4.504   7.686  1.00  0.00    -0.550 OA
ENDBRANCH  17  18
ENDBRANCH  16  17
ENDBRANCH  15  16
ENDBRANCH  14  15
ENDBRANCH  13  14
ENDBRANCH  12  13
ENDBRANCH  11  12
ENDBRANCH   1  11
TORSDOF 15
ENDMDL
MODEL 5
REMARK VINA RESULT:     5.301     10.463     11.705
REMARK INTER + INTRA:           9.501
REMARK INTER:                  10.261
REMARK INTRA:                  -0.761
REMARK UNBOUND:                -0.448
REMARK SMILES O=C([O-])CCCCCCCCCCCCCCC(=O)[O-]
REMARK SMILES IDX 10 1 9 2 8 3 7 4 6 5 5 6 4 7 2 8 1 9 3 10 11 11 12 12 13 13
REMARK SMILES IDX 14 14 15 15 16 16 17 17 18 18 19 19 20 20
REMARK H PARENT
REMARK Flexibility Score: inf
ROOT
ATOM      1  C   UNL     1      -3.323   4.962   7.114  1.00  0.00     0.000 C 
ENDROOT
BRANCH   1   2
ATOM      2  C   UNL     1      -4.133   3.661   7.059  1.00  0.00     0.000 C 
BRANCH   2   3
ATOM      3  C   UNL     1      -4.517   3.193   8.471  1.00  0.00     0.000 C 
BRANCH   3   4
ATOM      4  C   UNL     1      -3.582   2.095   9.005  1.00  0.00     0.000 C 
BRANCH   4   5
ATOM      5  C   UNL     1      -3.043   1.185   7.888  1.00  0.00     0.000 C 
BRANCH   5   6
ATOM      6  C   UNL     1      -2.038   0.144   8.407  1.00  0.00     0.006 C 
BRANCH   6   7
ATOM      7  C   UNL     1      -1.997  -1.122   7.541  1.00  0.00     0.053 C 
BRANCH   7   8
ATOM      8  C   UNL     1      -1.517  -2.290   8.344  1.00  0.00     0.041 C 
ATOM      9  O   UNL     1      -1.479  -2.222   9.601  1.00  0.00    -0.550 OA
ATOM     10  O   UNL     1      -1.076  -3.442   7.703  1.00  0.00    -0.550 OA
ENDBRANCH   7   8
ENDBRANCH   6   7
ENDBRANCH   5   6
ENDBRANCH   4   5
ENDBRANCH   3   4
ENDBRANCH   2   3
ENDBRANCH   1   2
BRANCH   1  11
ATOM     11  C   UNL     1      -3.533   5.685   8.454  1.00  0.00     0.000 C 
BRANCH  11  12
ATOM     12  C   UNL     1      -2.255   5.737   9.306  1.00  0.00     0.000 C 
BRANCH  12  13
ATOM     13  C   UNL     1      -2.037   7.107   9.965  1.00  0.00     0.000 C 
BRANCH  13  14
ATOM     14  C   UNL     1      -1.491   8.122   8.953  1.00  0.00     0.000 C 
BRANCH  14  15
ATOM     15  C   UNL     1      -0.267   8.856   9.515  1.00  0.00     0.000 C 
BRANCH  15  16
ATOM     16  C   UNL     1       0.874   7.876   9.813  1.00  0.00     0.006 C 
BRANCH  16  17
ATOM     17  C   UNL     1       2.184   8.625  10.075  1.00  0.00     0.053 C 
BRANCH  17  18
ATOM     18  C   UNL     1       3.359   7.748   9.774  1.00  0.00     0.041 C 
ATOM     19  O   UNL     1       3.202   6.509   9.619  1.00  0.00    -0.550 OA
ATOM     20  O   UNL     1       4.635   8.295   9.707  1.00  0.00    -0.550 OA
ENDBRANCH  17  18
ENDBRANCH  16  17
ENDBRANCH  15  16
ENDBRANCH  14  15
ENDBRANCH  13  14
ENDBRANCH  12  13
ENDBRANCH  11  12
ENDBRANCH   1  11
TORSDOF 15
ENDMDL
MODEL 6
REMARK VINA RESULT:     5.835     10.122     13.389
REMARK INTER + INTRA:          10.504
REMARK INTER:                   8.989
REMARK INTRA:                   1.515
REMARK UNBOUND:                -0.448
REMARK SMILES O=C([O-])CCCCCCCCCCCCCCC(=O)[O-]
REMARK SMILES IDX 10 1 9 2 8 3 7 4 6 5 5 6 4 7 2 8 1 9 3 10 11 11 12 12 13 13
REMARK SMILES IDX 14 14 15 15 16 16 17 17 18 18 19 19 20 20
REMARK H PARENT
REMARK Flexibility Score: inf
ROOT
ATOM      1  C   UNL     1      -3.030   4.711   5.490  1.00  0.00     0.000 C 
ENDROOT
BRANCH   1   2
ATOM      2  C   UNL     1      -3.715   5.815   6.303  1.00  0.00     0.000 C 
BRANCH   2   3
ATOM      3  C   UNL     1      -3.287   5.757   7.778  1.00  0.00     0.000 C 
BRANCH   3   4
ATOM      4  C   UNL     1      -4.471   5.924   8.745  1.00  0.00     0.000 C 
BRANCH   4   5
ATOM      5  C   UNL     1      -4.036   6.451  10.124  1.00  0.00     0.000 C 
BRANCH   5   6
ATOM      6  C   UNL     1      -2.976   7.561  10.024  1.00  0.00     0.006 C 
BRANCH   6   7
ATOM      7  C   UNL     1      -1.543   7.021  10.124  1.00  0.00     0.053 C 
BRANCH   7   8
ATOM      8  C   UNL     1      -0.553   8.131   9.968  1.00  0.00     0.041 C 
ATOM      9  O   UNL     1      -0.950   9.317   9.811  1.00  0.00    -0.550 OA
ATOM     10  O   UNL     1       0.808   7.854   9.958  1.00  0.00    -0.550 OA
ENDBRANCH   7   8
ENDBRANCH   6   7
ENDBRANCH   5   6
ENDBRANCH   4   5
ENDBRANCH   3   4
ENDBRANCH   2   3
ENDBRANCH   1   2
BRANCH   1  11
ATOM     11  C   UNL     1      -3.164   3.349   6.188  1.00  0.00     0.000 C 
BRANCH  11  12
ATOM     12  C   UNL     1      -3.955   3.432   7.503  1.00  0.00     0.000 C 
BRANCH  12  13
ATOM     13  C   UNL     1      -3.803   2.172   8.368  1.00  0.00     0.000 C 
BRANCH  13  14
ATOM     14  C   UNL     1      -2.844   1.169   7.714  1.00  0.00     0.000 C 
BRANCH  14  15
ATOM     15  C   UNL     1      -1.663   0.853   8.639  1.00  0.00     0.000 C 
BRANCH  15  16
ATOM     16  C   UNL     1      -1.786  -0.558   9.227  1.00  0.00     0.006 C 
BRANCH  16  17
ATOM     17  C   UNL     1      -1.628  -1.622   8.136  1.00  0.00     0.053 C 
BRANCH  17  18
ATOM     18  C   UNL     1      -1.717  -2.994   8.725  1.00  0.00     0.041 C 
ATOM     19  O   UNL     1      -1.914  -3.144   9.959  1.00  0.00    -0.550 OA
ATOM     20  O   UNL     1      -1.542  -4.111   7.915  1.00  0.00    -0.550 OA
ENDBRANCH  17  18
ENDBRANCH  16  17
ENDBRANCH  15  16
ENDBRANCH  14  15
ENDBRANCH  13  14
ENDBRANCH  12  13
ENDBRANCH  11  12
ENDBRANCH   1  11
TORSDOF 15
ENDMDL
MODEL 7
REMARK VINA RESULT:     5.862     10.464     14.247
REMARK INTER + INTRA:          10.554
REMARK INTER:                  10.073
REMARK INTRA:                   0.481
REMARK UNBOUND:                -0.448
REMARK SMILES O=C([O-])CCCCCCCCCCCCCCC(=O)[O-]
REMARK SMILES IDX 10 1 9 2 8 3 7 4 6 5 5 6 4 7 2 8 1 9 3 10 11 11 12 12 13 13
REMARK SMILES IDX 14 14 15 15 16 16 17 17 18 18 19 19 20 20
REMARK H PARENT
REMARK Flexibility Score: inf
ROOT
ATOM      1  C   UNL     1      -3.707   4.169   6.188  1.00  0.00     0.000 C 
ENDROOT
BRANCH   1   2
ATOM      2  C   UNL     1      -3.871   5.255   7.258  1.00  0.00     0.000 C 
BRANCH   2   3
ATOM      3  C   UNL     1      -2.541   5.522   7.979  1.00  0.00     0.000 C 
BRANCH   3   4
ATOM      4  C   UNL     1      -2.735   6.175   9.357  1.00  0.00     0.000 C 
BRANCH   4   5
ATOM      5  C   UNL     1      -4.218   6.406   9.696  1.00  0.00     0.000 C 
BRANCH   5   6
ATOM      6  C   UNL     1      -4.954   5.102  10.046  1.00  0.00     0.006 C 
BRANCH   6   7
ATOM      7  C   UNL     1      -6.478   5.276  10.087  1.00  0.00     0.053 C 
BRANCH   7   8
ATOM      8  C   UNL     1      -7.161   3.964   9.862  1.00  0.00     0.041 C 
ATOM      9  O   UNL     1      -8.386   3.834  10.125  1.00  0.00    -0.550 OA
ATOM     10  O   UNL     1      -6.437   2.873   9.397  1.00  0.00    -0.550 OA
ENDBRANCH   7   8
ENDBRANCH   6   7
ENDBRANCH   5   6
ENDBRANCH   4   5
ENDBRANCH   3   4
ENDBRANCH   2   3
ENDBRANCH   1   2
BRANCH   1  11
ATOM     11  C   UNL     1      -3.559   2.781   6.830  1.00  0.00     0.000 C 
BRANCH  11  12
ATOM     12  C   UNL     1      -3.898   2.782   8.329  1.00  0.00     0.000 C 
BRANCH  12  13
ATOM     13  C   UNL     1      -3.289   1.587   9.075  1.00  0.00     0.000 C 
BRANCH  13  14
ATOM     14  C   UNL     1      -2.409   0.746   8.142  1.00  0.00     0.000 C 
BRANCH  14  15
ATOM     15  C   UNL     1      -1.165   0.230   8.875  1.00  0.00     0.000 C 
BRANCH  15  16
ATOM     16  C   UNL     1      -1.403  -1.174   9.443  1.00  0.00     0.006 C 
BRANCH  16  17
ATOM     17  C   UNL     1      -1.911  -2.127   8.357  1.00  0.00     0.053 C 
BRANCH  17  18
ATOM     18  C   UNL     1      -1.693  -3.550   8.762  1.00  0.00     0.041 C 
ATOM     19  O   UNL     1      -1.206  -3.821   9.891  1.00  0.00    -0.550 OA
ATOM     20  O   UNL     1      -1.991  -4.579   7.876  1.00  0.00    -0.550 OA
ENDBRANCH  17  18
ENDBRANCH  16  17
ENDBRANCH  15  16
ENDBRANCH  14  15
ENDBRANCH  13  14
ENDBRANCH  12  13
ENDBRANCH  11  12
ENDBRANCH   1  11
TORSDOF 15
ENDMDL
MODEL 8
REMARK VINA RESULT:     6.189      9.961     11.015
REMARK INTER + INTRA:          11.167
REMARK INTER:                  11.688
REMARK INTRA:                  -0.521
REMARK UNBOUND:                -0.448
REMARK SMILES O=C([O-])CCCCCCCCCCCCCCC(=O)[O-]
REMARK SMILES IDX 10 1 9 2 8 3 7 4 6 5 5 6 4 7 2 8 1 9 3 10 11 11 12 12 13 13
REMARK SMILES IDX 14 14 15 15 16 16 17 17 18 18 19 19 20 20
REMARK H PARENT
REMARK Flexibility Score: inf
ROOT
ATOM      1  C   UNL     1      -4.315   3.072   8.054  1.00  0.00     0.000 C 
ENDROOT
BRANCH   1   2
ATOM      2  C   UNL     1      -4.394   1.849   7.132  1.00  0.00     0.000 C 
BRANCH   2   3
ATOM      3  C   UNL     1      -3.048   1.111   7.082  1.00  0.00     0.000 C 
BRANCH   3   4
ATOM      4  C   UNL     1      -2.313   1.128   8.433  1.00  0.00     0.000 C 
BRANCH   4   5
ATOM      5  C   UNL     1      -1.512  -0.161   8.685  1.00  0.00     0.000 C 
BRANCH   5   6
ATOM      6  C   UNL     1      -2.401  -1.330   9.139  1.00  0.00     0.006 C 
BRANCH   6   7
ATOM      7  C   UNL     1      -1.599  -2.606   9.430  1.00  0.00     0.053 C 
BRANCH   7   8
ATOM      8  C   UNL     1      -1.638  -3.528   8.252  1.00  0.00     0.041 C 
ATOM      9  O   UNL     1      -1.186  -3.152   7.137  1.00  0.00    -0.550 OA
ATOM     10  O   UNL     1      -2.206  -4.790   8.375  1.00  0.00    -0.550 OA
ENDBRANCH   7   8
ENDBRANCH   6   7
ENDBRANCH   5   6
ENDBRANCH   4   5
ENDBRANCH   3   4
ENDBRANCH   2   3
ENDBRANCH   1   2
BRANCH   1  11
ATOM     11  C   UNL     1      -4.914   2.761   9.434  1.00  0.00     0.000 C 
BRANCH  11  12
ATOM     12  C   UNL     1      -5.535   3.997  10.105  1.00  0.00     0.000 C 
BRANCH  12  13
ATOM     13  C   UNL     1      -5.321   5.282   9.292  1.00  0.00     0.000 C 
BRANCH  13  14
ATOM     14  C   UNL     1      -4.591   6.344  10.125  1.00  0.00     0.000 C 
BRANCH  14  15
ATOM     15  C   UNL     1      -3.077   6.099  10.125  1.00  0.00     0.000 C 
BRANCH  15  16
ATOM     16  C   UNL     1      -2.594   5.634   8.746  1.00  0.00     0.006 C 
BRANCH  16  17
ATOM     17  C   UNL     1      -2.764   6.743   7.703  1.00  0.00     0.053 C 
BRANCH  17  18
ATOM     18  C   UNL     1      -3.292   6.182   6.421  1.00  0.00     0.041 C 
ATOM     19  O   UNL     1      -2.761   5.163   5.909  1.00  0.00    -0.550 OA
ATOM     20  O   UNL     1      -4.345   6.812   5.768  1.00  0.00    -0.550 OA
ENDBRANCH  17  18
ENDBRANCH  16  17
ENDBRANCH  15  16
ENDBRANCH  14  15
ENDBRANCH  13  14
ENDBRANCH  12  13
ENDBRANCH  11  12
ENDBRANCH   1  11
TORSDOF 15
ENDMDL
MODEL 9
REMARK VINA RESULT:     6.469      9.841     13.354
REMARK INTER + INTRA:          11.693
REMARK INTER:                  12.251
REMARK INTRA:                  -0.558
REMARK UNBOUND:                -0.448
REMARK SMILES O=C([O-])CCCCCCCCCCCCCCC(=O)[O-]
REMARK SMILES IDX 10 1 9 2 8 3 7 4 6 5 5 6 4 7 2 8 1 9 3 10 11 11 12 12 13 13
REMARK SMILES IDX 14 14 15 15 16 16 17 17 18 18 19 19 20 20
REMARK H PARENT
REMARK Flexibility Score: inf
ROOT
ATOM      1  C   UNL     1      -6.060   4.681   9.886  1.00  0.00     0.000 C 
ENDROOT
BRANCH   1   2
ATOM      2  C   UNL     1      -5.189   5.939   9.992  1.00  0.00     0.000 C 
BRANCH   2   3
ATOM      3  C   UNL     1      -3.699   5.571  10.058  1.00  0.00     0.000 C 
BRANCH   3   4
ATOM      4  C   UNL     1      -3.039   5.528   8.670  1.00  0.00     0.000 C 
BRANCH   4   5
ATOM      5  C   UNL     1      -3.860   6.274   7.603  1.00  0.00     0.000 C 
BRANCH   5   6
ATOM      6  C   UNL     1      -3.486   5.856   6.171  1.00  0.00     0.006 C 
BRANCH   6   7
ATOM      7  C   UNL     1      -3.331   4.337   6.020  1.00  0.00     0.053 C 
BRANCH   7   8
ATOM      8  C   UNL     1      -2.625   4.007   4.743  1.00  0.00     0.041 C 
ATOM      9  O   UNL     1      -1.463   4.448   4.529  1.00  0.00    -0.550 OA
ATOM     10  O   UNL     1      -3.261   3.244   3.772  1.00  0.00    -0.550 OA
ENDBRANCH   7   8
ENDBRANCH   6   7
ENDBRANCH   5   6
ENDBRANCH   4   5
ENDBRANCH   3   4
ENDBRANCH   2   3
ENDBRANCH   1   2
BRANCH   1  11
ATOM     11  C   UNL     1      -5.194   3.413   9.854  1.00  0.00     0.000 C 
BRANCH  11  12
ATOM     12  C   UNL     1      -5.363   2.612   8.553  1.00  0.00     0.000 C 
BRANCH  12  13
ATOM     13  C   UNL     1      -4.024   2.312   7.863  1.00  0.00     0.000 C 
BRANCH  13  14
ATOM     14  C   UNL     1      -3.065   1.589   8.816  1.00  0.00     0.000 C 
BRANCH  14  15
ATOM     15  C   UNL     1      -2.261   0.512   8.076  1.00  0.00     0.000 C 
BRANCH  15  16
ATOM     16  C   UNL     1      -1.660  -0.500   9.059  1.00  0.00     0.006 C 
BRANCH  16  17
ATOM     17  C   UNL     1      -1.490  -1.871   8.397  1.00  0.00     0.053 C 
BRANCH  17  18
ATOM     18  C   UNL     1      -1.508  -2.956   9.427  1.00  0.00     0.041 C 
ATOM     19  O   UNL     1      -0.446  -3.294  10.010  1.00  0.00    -0.550 OA
ATOM     20  O   UNL     1      -2.694  -3.625   9.711  1.00  0.00    -0.550 OA
ENDBRANCH  17  18
ENDBRANCH  16  17
ENDBRANCH  15  16
ENDBRANCH  14  15
ENDBRANCH  13  14
ENDBRANCH  12  13
ENDBRANCH  11  12
ENDBRANCH   1  11
TORSDOF 15
ENDMDL
