MODEL 1
REMARK VINA RESULT:    -3.910      0.000      0.000
REMARK INTER + INTRA:          -5.899
REMARK INTER:                  -5.281
REMARK INTRA:                  -0.618
REMARK UNBOUND:                -0.618
REMARK SMILES CCCCCCCC(=O)[O-]
REMARK SMILES IDX 5 1 6 2 7 3 8 4 9 5 10 6 4 7 3 8 2 9 1 10
REMARK H PARENT
REMARK Flexibility Score: inf
ROOT
ATOM      1  C   UNL     1      48.825  11.255  -4.599  1.00  0.00     0.000 C 
ENDROOT
BRANCH   1   2
ATOM      2  C   UNL     1      47.760  12.312  -4.911  1.00  0.00     0.006 C 
BRANCH   2   3
ATOM      3  C   UNL     1      46.739  11.783  -5.922  1.00  0.00     0.053 C 
BRANCH   3   4
ATOM      4  C   UNL     1      46.858  12.516  -7.220  1.00  0.00     0.041 C 
ATOM      5  O   UNL     1      47.741  12.188  -8.056  1.00  0.00    -0.550 OA
ATOM      6  O   UNL     1      45.962  13.531  -7.529  1.00  0.00    -0.550 OA
ENDBRANCH   3   4
ENDBRANCH   2   3
ENDBRANCH   1   2
BRANCH   1   7
ATOM      7  C   UNL     1      50.132  11.552  -5.345  1.00  0.00     0.000 C 
BRANCH   7   8
ATOM      8  C   UNL     1      50.490  10.408  -6.305  1.00  0.00    -0.000 C 
BRANCH   8   9
ATOM      9  C   UNL     1      49.495   9.240  -6.226  1.00  0.00    -0.003 C 
ATOM     10  C   UNL     1      49.026   8.767  -7.601  1.00  0.00     0.004 C 
ENDBRANCH   8   9
ENDBRANCH   7   8
ENDBRANCH   1   7
TORSDOF 6
ENDMDL
MODEL 2
REMARK VINA RESULT:    -3.908     20.349     21.356
REMARK INTER + INTRA:          -5.897
REMARK INTER:                  -5.524
REMARK INTRA:                  -0.374
REMARK UNBOUND:                -0.618
REMARK SMILES CCCCCCCC(=O)[O-]
REMARK SMILES IDX 5 1 6 2 7 3 8 4 9 5 10 6 4 7 3 8 2 9 1 10
REMARK H PARENT
REMARK Flexibility Score: inf
ROOT
ATOM      1  C   UNL     1      33.426   3.762   5.365  1.00  0.00     0.000 C 
ENDROOT
BRANCH   1   2
ATOM      2  C   UNL     1      33.894   2.343   5.022  1.00  0.00     0.006 C 
BRANCH   2   3
ATOM      3  C   UNL     1      34.284   1.572   6.286  1.00  0.00     0.053 C 
BRANCH   3   4
ATOM      4  C   UNL     1      33.902   0.131   6.161  1.00  0.00     0.041 C 
ATOM      5  O   UNL     1      32.992  -0.349   6.887  1.00  0.00    -0.550 OA
ATOM      6  O   UNL     1      34.516  -0.670   5.207  1.00  0.00    -0.550 OA
ENDBRANCH   3   4
ENDBRANCH   2   3
ENDBRANCH   1   2
BRANCH   1   7
ATOM      7  C   UNL     1      33.578   4.046   6.864  1.00  0.00     0.000 C 
BRANCH   7   8
ATOM      8  C   UNL     1      34.561   5.201   7.108  1.00  0.00    -0.000 C 
BRANCH   8   9
ATOM      9  C   UNL     1      35.463   4.960   8.328  1.00  0.00    -0.003 C 
ATOM     10  C   UNL     1      36.840   4.419   7.949  1.00  0.00     0.004 C 
ENDBRANCH   8   9
ENDBRANCH   7   8
ENDBRANCH   1   7
TORSDOF 6
ENDMDL
MODEL 3
REMARK VINA RESULT:    -3.907      2.211      4.104
REMARK INTER + INTRA:          -5.895
REMARK INTER:                  -5.478
REMARK INTRA:                  -0.417
REMARK UNBOUND:                -0.618
REMARK SMILES CCCCCCCC(=O)[O-]
REMARK SMILES IDX 5 1 6 2 7 3 8 4 9 5 10 6 4 7 3 8 2 9 1 10
REMARK H PARENT
REMARK Flexibility Score: inf
ROOT
ATOM      1  C   UNL     1      49.466  11.781  -5.967  1.00  0.00     0.000 C 
ENDROOT
BRANCH   1   2
ATOM      2  C   UNL     1      50.158  10.413  -5.953  1.00  0.00     0.006 C 
BRANCH   2   3
ATOM      3  C   UNL     1      50.109   9.758  -7.337  1.00  0.00     0.053 C 
BRANCH   3   4
ATOM      4  C   UNL     1      49.116   8.640  -7.353  1.00  0.00     0.041 C 
ATOM      5  O   UNL     1      49.287   7.651  -8.114  1.00  0.00    -0.550 OA
ATOM      6  O   UNL     1      48.027   8.665  -6.491  1.00  0.00    -0.550 OA
ENDBRANCH   3   4
ENDBRANCH   2   3
ENDBRANCH   1   2
BRANCH   1   7
ATOM      7  C   UNL     1      48.443  11.894  -4.830  1.00  0.00     0.000 C 
BRANCH   7   8
ATOM      8  C   UNL     1      47.043  12.205  -5.379  1.00  0.00    -0.000 C 
BRANCH   8   9
ATOM      9  C   UNL     1      47.036  12.394  -6.904  1.00  0.00    -0.003 C 
ATOM     10  C   UNL     1      45.868  13.253  -7.388  1.00  0.00     0.004 C 
ENDBRANCH   8   9
ENDBRANCH   7   8
ENDBRANCH   1   7
TORSDOF 6
ENDMDL
MODEL 4
REMARK VINA RESULT:    -3.896     19.774     20.619
REMARK INTER + INTRA:          -5.881
REMARK INTER:                  -5.304
REMARK INTRA:                  -0.577
REMARK UNBOUND:                -0.618
REMARK SMILES CCCCCCCC(=O)[O-]
REMARK SMILES IDX 5 1 6 2 7 3 8 4 9 5 10 6 4 7 3 8 2 9 1 10
REMARK H PARENT
REMARK Flexibility Score: inf
ROOT
ATOM      1  C   UNL     1      37.083   2.959   6.496  1.00  0.00     0.000 C 
ENDROOT
BRANCH   1   2
ATOM      2  C   UNL     1      38.278   2.010   6.638  1.00  0.00     0.006 C 
BRANCH   2   3
ATOM      3  C   UNL     1      37.830   0.631   7.130  1.00  0.00     0.053 C 
BRANCH   3   4
ATOM      4  C   UNL     1      36.923  -0.013   6.131  1.00  0.00     0.041 C 
ATOM      5  O   UNL     1      35.764  -0.375   6.467  1.00  0.00    -0.550 OA
ATOM      6  O   UNL     1      37.338  -0.169   4.815  1.00  0.00    -0.550 OA
ENDBRANCH   3   4
ENDBRANCH   2   3
ENDBRANCH   1   2
BRANCH   1   7
ATOM      7  C   UNL     1      37.039   3.968   7.651  1.00  0.00     0.000 C 
BRANCH   7   8
ATOM      8  C   UNL     1      35.638   4.025   8.278  1.00  0.00    -0.000 C 
BRANCH   8   9
ATOM      9  C   UNL     1      34.693   2.958   7.706  1.00  0.00    -0.003 C 
ATOM     10  C   UNL     1      34.232   1.950   8.758  1.00  0.00     0.004 C 
ENDBRANCH   8   9
ENDBRANCH   7   8
ENDBRANCH   1   7
TORSDOF 6
ENDMDL
MODEL 5
REMARK VINA RESULT:    -3.895      2.133      3.828
REMARK INTER + INTRA:          -5.879
REMARK INTER:                  -5.451
REMARK INTRA:                  -0.429
REMARK UNBOUND:                -0.618
REMARK SMILES CCCCCCCC(=O)[O-]
REMARK SMILES IDX 5 1 6 2 7 3 8 4 9 5 10 6 4 7 3 8 2 9 1 10
REMARK H PARENT
REMARK Flexibility Score: inf
ROOT
ATOM      1  C   UNL     1      48.111  12.340  -4.750  1.00  0.00     0.000 C 
ENDROOT
BRANCH   1   2
ATOM      2  C   UNL     1      49.198  11.259  -4.790  1.00  0.00     0.006 C 
BRANCH   2   3
ATOM      3  C   UNL     1      50.391  11.711  -5.637  1.00  0.00     0.053 C 
BRANCH   3   4
ATOM      4  C   UNL     1      50.163  11.389  -7.080  1.00  0.00     0.041 C 
ATOM      5  O   UNL     1      49.748  10.248  -7.416  1.00  0.00    -0.550 OA
ATOM      6  O   UNL     1      50.360  12.363  -8.050  1.00  0.00    -0.550 OA
ENDBRANCH   3   4
ENDBRANCH   2   3
ENDBRANCH   1   2
BRANCH   1   7
ATOM      7  C   UNL     1      46.849  11.880  -5.492  1.00  0.00     0.000 C 
BRANCH   7   8
ATOM      8  C   UNL     1      45.992  13.083  -5.914  1.00  0.00    -0.000 C 
BRANCH   8   9
ATOM      9  C   UNL     1      45.787  13.156  -7.435  1.00  0.00    -0.003 C 
ATOM     10  C   UNL     1      46.779  12.288  -8.208  1.00  0.00     0.004 C 
ENDBRANCH   8   9
ENDBRANCH   7   8
ENDBRANCH   1   7
TORSDOF 6
ENDMDL
MODEL 6
REMARK VINA RESULT:    -3.884      2.834      4.584
REMARK INTER + INTRA:          -5.865
REMARK INTER:                  -5.470
REMARK INTRA:                  -0.394
REMARK UNBOUND:                -0.618
REMARK SMILES CCCCCCCC(=O)[O-]
REMARK SMILES IDX 5 1 6 2 7 3 8 4 9 5 10 6 4 7 3 8 2 9 1 10
REMARK H PARENT
REMARK Flexibility Score: inf
ROOT
ATOM      1  C   UNL     1      45.853  12.769  -7.937  1.00  0.00     0.000 C 
ENDROOT
BRANCH   1   2
ATOM      2  C   UNL     1      47.174  12.395  -7.256  1.00  0.00     0.006 C 
BRANCH   2   3
ATOM      3  C   UNL     1      48.143  11.751  -8.252  1.00  0.00     0.053 C 
BRANCH   3   4
ATOM      4  C   UNL     1      49.560  11.994  -7.838  1.00  0.00     0.041 C 
ATOM      5  O   UNL     1      50.063  11.340  -6.886  1.00  0.00    -0.550 OA
ATOM      6  O   UNL     1      50.341  12.908  -8.534  1.00  0.00    -0.550 OA
ENDBRANCH   3   4
ENDBRANCH   2   3
ENDBRANCH   1   2
BRANCH   1   7
ATOM      7  C   UNL     1      45.821  12.276  -9.389  1.00  0.00     0.000 C 
BRANCH   7   8
ATOM      8  C   UNL     1      44.594  11.387  -9.641  1.00  0.00    -0.000 C 
BRANCH   8   9
ATOM      9  C   UNL     1      44.926  10.149 -10.487  1.00  0.00    -0.003 C 
ATOM     10  C   UNL     1      45.542   9.018  -9.665  1.00  0.00     0.004 C 
ENDBRANCH   8   9
ENDBRANCH   7   8
ENDBRANCH   1   7
TORSDOF 6
ENDMDL
MODEL 7
REMARK VINA RESULT:    -3.875     19.733     20.618
REMARK INTER + INTRA:          -5.853
REMARK INTER:                  -5.289
REMARK INTRA:                  -0.564
REMARK UNBOUND:                -0.618
REMARK SMILES CCCCCCCC(=O)[O-]
REMARK SMILES IDX 5 1 6 2 7 3 8 4 9 5 10 6 4 7 3 8 2 9 1 10
REMARK H PARENT
REMARK Flexibility Score: inf
ROOT
ATOM      1  C   UNL     1      34.973   1.928   3.853  1.00  0.00     0.000 C 
ENDROOT
BRANCH   1   2
ATOM      2  C   UNL     1      34.014   3.049   3.436  1.00  0.00     0.006 C 
BRANCH   2   3
ATOM      3  C   UNL     1      33.025   3.373   4.560  1.00  0.00     0.053 C 
BRANCH   3   4
ATOM      4  C   UNL     1      33.743   3.940   5.743  1.00  0.00     0.041 C 
ATOM      5  O   UNL     1      34.295   5.069   5.669  1.00  0.00    -0.550 OA
ATOM      6  O   UNL     1      33.759   3.243   6.945  1.00  0.00    -0.550 OA
ENDBRANCH   3   4
ENDBRANCH   2   3
ENDBRANCH   1   2
BRANCH   1   7
ATOM      7  C   UNL     1      34.563   0.590   3.227  1.00  0.00     0.000 C 
BRANCH   7   8
ATOM      8  C   UNL     1      34.587  -0.537   4.271  1.00  0.00    -0.000 C 
BRANCH   8   9
ATOM      9  C   UNL     1      34.739  -0.007   5.705  1.00  0.00    -0.003 C 
ATOM     10  C   UNL     1      33.518  -0.301   6.577  1.00  0.00     0.004 C 
ENDBRANCH   8   9
ENDBRANCH   7   8
ENDBRANCH   1   7
TORSDOF 6
ENDMDL
MODEL 8
REMARK VINA RESULT:    -3.849      1.458      1.843
REMARK INTER + INTRA:          -5.817
REMARK INTER:                  -5.218
REMARK INTRA:                  -0.599
REMARK UNBOUND:                -0.618
REMARK SMILES CCCCCCCC(=O)[O-]
REMARK SMILES IDX 5 1 6 2 7 3 8 4 9 5 10 6 4 7 3 8 2 9 1 10
REMARK H PARENT
REMARK Flexibility Score: inf
ROOT
ATOM      1  C   UNL     1      48.137  12.347  -4.867  1.00  0.00     0.000 C 
ENDROOT
BRANCH   1   2
ATOM      2  C   UNL     1      46.806  11.855  -5.447  1.00  0.00     0.006 C 
BRANCH   2   3
ATOM      3  C   UNL     1      46.332  12.765  -6.584  1.00  0.00     0.053 C 
BRANCH   3   4
ATOM      4  C   UNL     1      46.294  12.012  -7.876  1.00  0.00     0.041 C 
ATOM      5  O   UNL     1      46.597  10.790  -7.907  1.00  0.00    -0.550 OA
ATOM      6  O   UNL     1      45.875  12.647  -9.038  1.00  0.00    -0.550 OA
ENDBRANCH   3   4
ENDBRANCH   2   3
ENDBRANCH   1   2
BRANCH   1   7
ATOM      7  C   UNL     1      49.178  11.221  -4.844  1.00  0.00     0.000 C 
BRANCH   7   8
ATOM      8  C   UNL     1      50.350  11.537  -5.785  1.00  0.00    -0.000 C 
BRANCH   8   9
ATOM      9  C   UNL     1      50.061  11.141  -7.241  1.00  0.00    -0.003 C 
ATOM     10  C   UNL     1      50.023  12.343  -8.184  1.00  0.00     0.004 C 
ENDBRANCH   8   9
ENDBRANCH   7   8
ENDBRANCH   1   7
TORSDOF 6
ENDMDL
MODEL 9
REMARK VINA RESULT:    -3.847      1.972      3.349
REMARK INTER + INTRA:          -5.814
REMARK INTER:                  -5.395
REMARK INTRA:                  -0.419
REMARK UNBOUND:                -0.618
REMARK SMILES CCCCCCCC(=O)[O-]
REMARK SMILES IDX 5 1 6 2 7 3 8 4 9 5 10 6 4 7 3 8 2 9 1 10
REMARK H PARENT
REMARK Flexibility Score: inf
ROOT
ATOM      1  C   UNL     1      49.185   8.669  -7.664  1.00  0.00     0.000 C 
ENDROOT
BRANCH   1   2
ATOM      2  C   UNL     1      47.897   9.074  -8.391  1.00  0.00     0.006 C 
BRANCH   2   3
ATOM      3  C   UNL     1      47.797  10.596  -8.526  1.00  0.00     0.053 C 
BRANCH   3   4
ATOM      4  C   UNL     1      47.468  10.976  -9.935  1.00  0.00     0.041 C 
ATOM      5  O   UNL     1      48.383  11.314 -10.731  1.00  0.00    -0.550 OA
ATOM      6  O   UNL     1      46.155  10.910 -10.384  1.00  0.00    -0.550 OA
ENDBRANCH   3   4
ENDBRANCH   2   3
ENDBRANCH   1   2
BRANCH   1   7
ATOM      7  C   UNL     1      50.056   9.895  -7.361  1.00  0.00     0.000 C 
BRANCH   7   8
ATOM      8  C   UNL     1      50.304  10.034  -5.852  1.00  0.00    -0.000 C 
BRANCH   8   9
ATOM      9  C   UNL     1      50.266  11.495  -5.380  1.00  0.00    -0.003 C 
ATOM     10  C   UNL     1      48.857  11.964  -5.019  1.00  0.00     0.004 C 
ENDBRANCH   8   9
ENDBRANCH   7   8
ENDBRANCH   1   7
TORSDOF 6
ENDMDL
