MODEL 1
REMARK VINA RESULT:    -5.153      0.000      0.000
REMARK INTER + INTRA:          -6.709
REMARK INTER:                  -6.207
REMARK INTRA:                  -0.501
REMARK UNBOUND:                -0.501
REMARK SMILES O=c1ccn([C@@H]2O[C@H](CO)[C@H](O)[C@@H]2O)c(=O)[nH]1
REMARK SMILES IDX 6 1 13 2 11 3 8 4 7 5 5 6 3 7 4 8 2 9 17 10 1 11 15 12 16 14
REMARK SMILES IDX 14 15 12 17 9 19 10 20
REMARK H PARENT 17 13 14 16 12 18 10 21
REMARK Flexibility Score: inf
ROOT
ATOM      1  C   UNL     1      29.055   4.955 -13.689  1.00  0.00     0.255 C 
ATOM      2  C   UNL     1      29.371   3.467 -13.584  1.00  0.00     0.196 C 
ATOM      3  C   UNL     1      29.913   3.179 -14.964  1.00  0.00     0.179 C 
ATOM      4  C   UNL     1      29.224   4.235 -15.846  1.00  0.00     0.178 C 
ATOM      5  O   UNL     1      28.674   5.242 -15.019  1.00  0.00    -0.347 OA
ENDROOT
BRANCH   1   6
ATOM      6  N   UNL     1      28.006   5.363 -12.727  1.00  0.00    -0.271 N 
ATOM      7  C   UNL     1      25.690   5.647 -12.168  1.00  0.00     0.090 A 
ATOM      8  C   UNL     1      26.684   5.293 -13.075  1.00  0.00     0.099 A 
ATOM      9  C   UNL     1      26.066   6.062 -10.895  1.00  0.00     0.253 A 
ATOM     10  N   UNL     1      27.382   6.107 -10.561  1.00  0.00    -0.274 N 
ATOM     11  O   UNL     1      25.188   6.390 -10.053  1.00  0.00    -0.269 OA
ATOM     12  C   UNL     1      28.348   5.756 -11.456  1.00  0.00     0.330 A 
ATOM     13  H   UNL     1      27.657   6.411  -9.599  1.00  0.00     0.175 HD
ATOM     14  O   UNL     1      29.557   5.794 -11.099  1.00  0.00    -0.248 OA
ENDBRANCH   1   6
BRANCH   2  15
ATOM     15  O   UNL     1      28.200   2.728 -13.336  1.00  0.00    -0.386 OA
ATOM     16  H   UNL     1      28.393   1.790 -13.599  1.00  0.00     0.211 HD
ENDBRANCH   2  15
BRANCH   3  17
ATOM     17  O   UNL     1      29.659   1.860 -15.378  1.00  0.00    -0.387 OA
ATOM     18  H   UNL     1      30.247   1.275 -14.832  1.00  0.00     0.211 HD
ENDBRANCH   3  17
BRANCH   4  19
ATOM     19  C   UNL     1      28.124   3.685 -16.771  1.00  0.00     0.191 C 
BRANCH  19  20
ATOM     20  O   UNL     1      27.130   3.022 -16.034  1.00  0.00    -0.394 OA
ATOM     21  H   UNL     1      26.317   2.988 -16.602  1.00  0.00     0.210 HD
ENDBRANCH  19  20
ENDBRANCH   4  19
TORSDOF 5
ENDMDL
MODEL 2
REMARK VINA RESULT:    -4.968      1.323      1.840
REMARK INTER + INTRA:          -6.486
REMARK INTER:                  -6.340
REMARK INTRA:                  -0.146
REMARK UNBOUND:                -0.501
REMARK SMILES O=c1ccn([C@@H]2O[C@H](CO)[C@H](O)[C@@H]2O)c(=O)[nH]1
REMARK SMILES IDX 6 1 13 2 11 3 8 4 7 5 5 6 3 7 4 8 2 9 17 10 1 11 15 12 16 14
REMARK SMILES IDX 14 15 12 17 9 19 10 20
REMARK H PARENT 17 13 14 16 12 18 10 21
REMARK Flexibility Score: inf
ROOT
ATOM      1  C   UNL     1      28.613   5.249 -12.764  1.00  0.00     0.255 C 
ATOM      2  C   UNL     1      28.884   3.750 -12.699  1.00  0.00     0.196 C 
ATOM      3  C   UNL     1      29.528   3.504 -14.042  1.00  0.00     0.179 C 
ATOM      4  C   UNL     1      28.939   4.615 -14.930  1.00  0.00     0.178 C 
ATOM      5  O   UNL     1      28.349   5.601 -14.106  1.00  0.00    -0.347 OA
ENDROOT
BRANCH   1   6
ATOM      6  N   UNL     1      27.500   5.646 -11.872  1.00  0.00    -0.271 N 
ATOM      7  C   UNL     1      26.716   6.439  -9.747  1.00  0.00     0.090 A 
ATOM      8  C   UNL     1      27.752   6.038 -10.584  1.00  0.00     0.099 A 
ATOM      9  C   UNL     1      25.419   6.447 -10.248  1.00  0.00     0.253 A 
ATOM     10  N   UNL     1      25.190   6.073 -11.534  1.00  0.00    -0.274 N 
ATOM     11  O   UNL     1      24.461   6.804  -9.513  1.00  0.00    -0.269 OA
ATOM     12  C   UNL     1      26.212   5.683 -12.346  1.00  0.00     0.330 A 
ATOM     13  H   UNL     1      24.213   6.090 -11.907  1.00  0.00     0.175 HD
ATOM     14  O   UNL     1      25.958   5.361 -13.540  1.00  0.00    -0.248 OA
ENDBRANCH   1   6
BRANCH   2  15
ATOM     15  O   UNL     1      27.679   3.034 -12.577  1.00  0.00    -0.386 OA
ATOM     16  H   UNL     1      27.486   2.962 -11.606  1.00  0.00     0.211 HD
ENDBRANCH   2  15
BRANCH   3  17
ATOM     17  O   UNL     1      29.277   2.211 -14.532  1.00  0.00    -0.387 OA
ATOM     18  H   UNL     1      28.724   2.321 -15.349  1.00  0.00     0.211 HD
ENDBRANCH   3  17
BRANCH   4  19
ATOM     19  C   UNL     1      27.904   4.134 -15.962  1.00  0.00     0.191 C 
BRANCH  19  20
ATOM     20  O   UNL     1      26.947   3.299 -15.366  1.00  0.00    -0.394 OA
ATOM     21  H   UNL     1      26.083   3.467 -15.826  1.00  0.00     0.210 HD
ENDBRANCH  19  20
ENDBRANCH   4  19
TORSDOF 5
ENDMDL
MODEL 3
REMARK VINA RESULT:    -4.633      2.009      5.218
REMARK INTER + INTRA:          -6.082
REMARK INTER:                  -5.915
REMARK INTRA:                  -0.167
REMARK UNBOUND:                -0.501
REMARK SMILES O=c1ccn([C@@H]2O[C@H](CO)[C@H](O)[C@@H]2O)c(=O)[nH]1
REMARK SMILES IDX 6 1 13 2 11 3 8 4 7 5 5 6 3 7 4 8 2 9 17 10 1 11 15 12 16 14
REMARK SMILES IDX 14 15 12 17 9 19 10 20
REMARK H PARENT 17 13 14 16 12 18 10 21
REMARK Flexibility Score: inf
ROOT
ATOM      1  C   UNL     1      27.656   5.343 -14.458  1.00  0.00     0.255 C 
ATOM      2  C   UNL     1      26.325   5.008 -13.794  1.00  0.00     0.196 C 
ATOM      3  C   UNL     1      26.257   6.058 -12.711  1.00  0.00     0.179 C 
ATOM      4  C   UNL     1      27.737   6.370 -12.423  1.00  0.00     0.178 C 
ATOM      5  O   UNL     1      28.530   5.860 -13.476  1.00  0.00    -0.347 OA
ENDROOT
BRANCH   1   6
ATOM      6  N   UNL     1      28.242   4.167 -15.140  1.00  0.00    -0.271 N 
ATOM      7  C   UNL     1      28.529   2.833 -17.114  1.00  0.00     0.090 A 
ATOM      8  C   UNL     1      27.960   3.920 -16.456  1.00  0.00     0.099 A 
ATOM      9  C   UNL     1      29.399   2.010 -16.409  1.00  0.00     0.253 A 
ATOM     10  N   UNL     1      29.682   2.281 -15.108  1.00  0.00    -0.274 N 
ATOM     11  O   UNL     1      29.928   1.017 -16.978  1.00  0.00    -0.269 OA
ATOM     12  C   UNL     1      29.122   3.348 -14.474  1.00  0.00     0.330 A 
ATOM     13  H   UNL     1      30.345   1.662 -14.588  1.00  0.00     0.175 HD
ATOM     14  O   UNL     1      29.426   3.576 -13.271  1.00  0.00    -0.248 OA
ENDBRANCH   1   6
BRANCH   2  15
ATOM     15  O   UNL     1      26.359   3.714 -13.242  1.00  0.00    -0.386 OA
ATOM     16  H   UNL     1      27.261   3.346 -13.432  1.00  0.00     0.211 HD
ENDBRANCH   2  15
BRANCH   3  17
ATOM     17  O   UNL     1      25.552   5.619 -11.578  1.00  0.00    -0.387 OA
ATOM     18  H   UNL     1      24.762   6.215 -11.489  1.00  0.00     0.211 HD
ENDBRANCH   3  17
BRANCH   4  19
ATOM     19  C   UNL     1      28.262   5.821 -11.085  1.00  0.00     0.191 C 
BRANCH  19  20
ATOM     20  O   UNL     1      28.157   4.422 -11.036  1.00  0.00    -0.394 OA
ATOM     21  H   UNL     1      28.945   4.086 -10.535  1.00  0.00     0.210 HD
ENDBRANCH  19  20
ENDBRANCH   4  19
TORSDOF 5
ENDMDL
MODEL 4
REMARK VINA RESULT:    -4.366      2.267      2.546
REMARK INTER + INTRA:          -5.761
REMARK INTER:                  -5.404
REMARK INTRA:                  -0.357
REMARK UNBOUND:                -0.501
REMARK SMILES O=c1ccn([C@@H]2O[C@H](CO)[C@H](O)[C@@H]2O)c(=O)[nH]1
REMARK SMILES IDX 6 1 13 2 11 3 8 4 7 5 5 6 3 7 4 8 2 9 17 10 1 11 15 12 16 14
REMARK SMILES IDX 14 15 12 17 9 19 10 20
REMARK H PARENT 17 13 14 16 12 18 10 21
REMARK Flexibility Score: inf
ROOT
ATOM      1  C   UNL     1      27.440   4.754 -14.160  1.00  0.00     0.255 C 
ATOM      2  C   UNL     1      28.675   3.966 -13.738  1.00  0.00     0.196 C 
ATOM      3  C   UNL     1      29.621   4.260 -14.876  1.00  0.00     0.179 C 
ATOM      4  C   UNL     1      28.680   4.538 -16.062  1.00  0.00     0.178 C 
ATOM      5  O   UNL     1      27.373   4.763 -15.571  1.00  0.00    -0.347 OA
ENDROOT
BRANCH   1   6
ATOM      6  N   UNL     1      26.203   4.200 -13.564  1.00  0.00    -0.271 N 
ATOM      7  C   UNL     1      24.490   2.521 -13.508  1.00  0.00     0.090 A 
ATOM      8  C   UNL     1      25.636   3.065 -14.079  1.00  0.00     0.099 A 
ATOM      9  C   UNL     1      23.939   3.145 -12.394  1.00  0.00     0.253 A 
ATOM     10  N   UNL     1      24.526   4.259 -11.884  1.00  0.00    -0.274 N 
ATOM     11  O   UNL     1      22.901   2.675 -11.856  1.00  0.00    -0.269 OA
ATOM     12  C   UNL     1      25.650   4.783 -12.450  1.00  0.00     0.330 A 
ATOM     13  H   UNL     1      24.112   4.717 -11.041  1.00  0.00     0.175 HD
ATOM     14  O   UNL     1      26.175   5.808 -11.934  1.00  0.00    -0.248 OA
ENDBRANCH   1   6
BRANCH   2  15
ATOM     15  O   UNL     1      28.384   2.592 -13.664  1.00  0.00    -0.386 OA
ATOM     16  H   UNL     1      27.765   2.390 -14.414  1.00  0.00     0.211 HD
ENDBRANCH   2  15
BRANCH   3  17
ATOM     17  O   UNL     1      30.520   3.207 -15.116  1.00  0.00    -0.387 OA
ATOM     18  H   UNL     1      30.070   2.376 -14.811  1.00  0.00     0.211 HD
ENDBRANCH   3  17
BRANCH   4  19
ATOM     19  C   UNL     1      28.634   3.424 -17.123  1.00  0.00     0.191 C 
BRANCH  19  20
ATOM     20  O   UNL     1      28.081   2.247 -16.596  1.00  0.00    -0.394 OA
ATOM     21  H   UNL     1      27.140   2.449 -16.350  1.00  0.00     0.210 HD
ENDBRANCH  19  20
ENDBRANCH   4  19
TORSDOF 5
ENDMDL
MODEL 5
REMARK VINA RESULT:    -4.286      2.542      3.151
REMARK INTER + INTRA:          -5.665
REMARK INTER:                  -5.471
REMARK INTRA:                  -0.194
REMARK UNBOUND:                -0.501
REMARK SMILES O=c1ccn([C@@H]2O[C@H](CO)[C@H](O)[C@@H]2O)c(=O)[nH]1
REMARK SMILES IDX 6 1 13 2 11 3 8 4 7 5 5 6 3 7 4 8 2 9 17 10 1 11 15 12 16 14
REMARK SMILES IDX 14 15 12 17 9 19 10 20
REMARK H PARENT 17 13 14 16 12 18 10 21
REMARK Flexibility Score: inf
ROOT
ATOM      1  C   UNL     1      28.673   5.039 -14.055  1.00  0.00     0.255 C 
ATOM      2  C   UNL     1      29.610   4.353 -15.044  1.00  0.00     0.196 C 
ATOM      3  C   UNL     1      30.326   5.537 -15.648  1.00  0.00     0.179 C 
ATOM      4  C   UNL     1      29.309   6.683 -15.502  1.00  0.00     0.178 C 
ATOM      5  O   UNL     1      28.308   6.298 -14.581  1.00  0.00    -0.347 OA
ENDROOT
BRANCH   1   6
ATOM      6  N   UNL     1      27.483   4.210 -13.760  1.00  0.00    -0.271 N 
ATOM      7  C   UNL     1      25.163   3.702 -14.100  1.00  0.00     0.090 A 
ATOM      8  C   UNL     1      26.280   4.492 -14.350  1.00  0.00     0.099 A 
ATOM      9  C   UNL     1      25.295   2.610 -13.250  1.00  0.00     0.253 A 
ATOM     10  N   UNL     1      26.501   2.334 -12.688  1.00  0.00    -0.274 N 
ATOM     11  O   UNL     1      24.300   1.877 -13.004  1.00  0.00    -0.269 OA
ATOM     12  C   UNL     1      27.590   3.113 -12.940  1.00  0.00     0.330 A 
ATOM     13  H   UNL     1      26.595   1.506 -12.057  1.00  0.00     0.175 HD
ATOM     14  O   UNL     1      28.696   2.810 -12.413  1.00  0.00    -0.248 OA
ENDBRANCH   1   6
BRANCH   2  15
ATOM     15  O   UNL     1      28.875   3.656 -16.020  1.00  0.00    -0.386 OA
ATOM     16  H   UNL     1      28.040   4.171 -16.172  1.00  0.00     0.211 HD
ENDBRANCH   2  15
BRANCH   3  17
ATOM     17  O   UNL     1      30.718   5.309 -16.978  1.00  0.00    -0.387 OA
ATOM     18  H   UNL     1      31.067   6.173 -17.322  1.00  0.00     0.211 HD
ENDBRANCH   3  17
BRANCH   4  19
ATOM     19  C   UNL     1      28.642   7.124 -16.817  1.00  0.00     0.191 C 
BRANCH  19  20
ATOM     20  O   UNL     1      27.314   6.674 -16.885  1.00  0.00    -0.394 OA
ATOM     21  H   UNL     1      27.243   5.879 -16.294  1.00  0.00     0.210 HD
ENDBRANCH  19  20
ENDBRANCH   4  19
TORSDOF 5
ENDMDL
MODEL 6
REMARK VINA RESULT:    -4.213      1.648      2.563
REMARK INTER + INTRA:          -5.577
REMARK INTER:                  -5.219
REMARK INTRA:                  -0.358
REMARK UNBOUND:                -0.501
REMARK SMILES O=c1ccn([C@@H]2O[C@H](CO)[C@H](O)[C@@H]2O)c(=O)[nH]1
REMARK SMILES IDX 6 1 13 2 11 3 8 4 7 5 5 6 3 7 4 8 2 9 17 10 1 11 15 12 16 14
REMARK SMILES IDX 14 15 12 17 9 19 10 20
REMARK H PARENT 17 13 14 16 12 18 10 21
REMARK Flexibility Score: inf
ROOT
ATOM      1  C   UNL     1      27.503   5.026 -14.933  1.00  0.00     0.255 C 
ATOM      2  C   UNL     1      28.714   5.715 -15.551  1.00  0.00     0.196 C 
ATOM      3  C   UNL     1      29.023   4.797 -16.709  1.00  0.00     0.179 C 
ATOM      4  C   UNL     1      28.486   3.434 -16.237  1.00  0.00     0.178 C 
ATOM      5  O   UNL     1      27.630   3.633 -15.129  1.00  0.00    -0.347 OA
ENDROOT
BRANCH   1   6
ATOM      6  N   UNL     1      27.355   5.359 -13.498  1.00  0.00    -0.271 N 
ATOM      7  C   UNL     1      27.923   4.967 -11.200  1.00  0.00     0.090 A 
ATOM      8  C   UNL     1      28.034   4.644 -12.549  1.00  0.00     0.099 A 
ATOM      9  C   UNL     1      27.118   6.040 -10.836  1.00  0.00     0.253 A 
ATOM     10  N   UNL     1      26.466   6.751 -11.793  1.00  0.00    -0.274 N 
ATOM     11  O   UNL     1      26.997   6.355  -9.622  1.00  0.00    -0.269 OA
ATOM     12  C   UNL     1      26.583   6.427 -13.111  1.00  0.00     0.330 A 
ATOM     13  H   UNL     1      25.870   7.562 -11.513  1.00  0.00     0.175 HD
ATOM     14  O   UNL     1      25.976   7.125 -13.970  1.00  0.00    -0.248 OA
ENDBRANCH   1   6
BRANCH   2  15
ATOM     15  O   UNL     1      29.783   5.753 -14.638  1.00  0.00    -0.386 OA
ATOM     16  H   UNL     1      29.413   6.087 -13.779  1.00  0.00     0.211 HD
ENDBRANCH   2  15
BRANCH   3  17
ATOM     17  O   UNL     1      30.391   4.773 -17.030  1.00  0.00    -0.387 OA
ATOM     18  H   UNL     1      30.830   4.198 -16.350  1.00  0.00     0.211 HD
ENDBRANCH   3  17
BRANCH   4  19
ATOM     19  C   UNL     1      29.570   2.410 -15.859  1.00  0.00     0.191 C 
BRANCH  19  20
ATOM     20  O   UNL     1      30.034   2.624 -14.552  1.00  0.00    -0.394 OA
ATOM     21  H   UNL     1      31.025   2.669 -14.595  1.00  0.00     0.210 HD
ENDBRANCH  19  20
ENDBRANCH   4  19
TORSDOF 5
ENDMDL
MODEL 7
REMARK VINA RESULT:    -4.103      2.779      3.610
REMARK INTER + INTRA:          -5.444
REMARK INTER:                  -5.697
REMARK INTRA:                   0.253
REMARK UNBOUND:                -0.501
REMARK SMILES O=c1ccn([C@@H]2O[C@H](CO)[C@H](O)[C@@H]2O)c(=O)[nH]1
REMARK SMILES IDX 6 1 13 2 11 3 8 4 7 5 5 6 3 7 4 8 2 9 17 10 1 11 15 12 16 14
REMARK SMILES IDX 14 15 12 17 9 19 10 20
REMARK H PARENT 17 13 14 16 12 18 10 21
REMARK Flexibility Score: inf
ROOT
ATOM      1  C   UNL     1      28.280   5.415 -15.897  1.00  0.00     0.255 C 
ATOM      2  C   UNL     1      29.134   6.349 -15.049  1.00  0.00     0.196 C 
ATOM      3  C   UNL     1      30.305   6.602 -15.968  1.00  0.00     0.179 C 
ATOM      4  C   UNL     1      30.355   5.335 -16.840  1.00  0.00     0.178 C 
ATOM      5  O   UNL     1      29.135   4.633 -16.705  1.00  0.00    -0.347 OA
ENDROOT
BRANCH   1   6
ATOM      6  N   UNL     1      27.399   4.566 -15.064  1.00  0.00    -0.271 N 
ATOM      7  C   UNL     1      25.245   4.108 -14.108  1.00  0.00     0.090 A 
ATOM      8  C   UNL     1      26.089   4.913 -14.867  1.00  0.00     0.099 A 
ATOM      9  C   UNL     1      25.756   2.936 -13.563  1.00  0.00     0.253 A 
ATOM     10  N   UNL     1      27.054   2.597 -13.784  1.00  0.00    -0.274 N 
ATOM     11  O   UNL     1      25.017   2.187 -12.871  1.00  0.00    -0.269 OA
ATOM     12  C   UNL     1      27.871   3.392 -14.530  1.00  0.00     0.330 A 
ATOM     13  H   UNL     1      27.428   1.709 -13.379  1.00  0.00     0.175 HD
ATOM     14  O   UNL     1      29.064   3.031 -14.727  1.00  0.00    -0.248 OA
ENDBRANCH   1   6
BRANCH   2  15
ATOM     15  O   UNL     1      29.549   5.706 -13.868  1.00  0.00    -0.386 OA
ATOM     16  H   UNL     1      30.522   5.534 -13.963  1.00  0.00     0.211 HD
ENDBRANCH   2  15
BRANCH   3  17
ATOM     17  O   UNL     1      31.500   6.840 -15.268  1.00  0.00    -0.387 OA
ATOM     18  H   UNL     1      31.622   7.826 -15.245  1.00  0.00     0.211 HD
ENDBRANCH   3  17
BRANCH   4  19
ATOM     19  C   UNL     1      31.522   4.382 -16.527  1.00  0.00     0.191 C 
BRANCH  19  20
ATOM     20  O   UNL     1      31.105   3.043 -16.564  1.00  0.00    -0.394 OA
ATOM     21  H   UNL     1      31.920   2.484 -16.660  1.00  0.00     0.210 HD
ENDBRANCH  19  20
ENDBRANCH   4  19
TORSDOF 5
ENDMDL
MODEL 8
REMARK VINA RESULT:    -4.082      2.466      5.258
REMARK INTER + INTRA:          -5.419
REMARK INTER:                  -5.191
REMARK INTRA:                  -0.228
REMARK UNBOUND:                -0.501
REMARK SMILES O=c1ccn([C@@H]2O[C@H](CO)[C@H](O)[C@@H]2O)c(=O)[nH]1
REMARK SMILES IDX 6 1 13 2 11 3 8 4 7 5 5 6 3 7 4 8 2 9 17 10 1 11 15 12 16 14
REMARK SMILES IDX 14 15 12 17 9 19 10 20
REMARK H PARENT 17 13 14 16 12 18 10 21
REMARK Flexibility Score: inf
ROOT
ATOM      1  C   UNL     1      28.392   4.299 -14.464  1.00  0.00     0.255 C 
ATOM      2  C   UNL     1      28.778   3.012 -13.744  1.00  0.00     0.196 C 
ATOM      3  C   UNL     1      27.732   2.950 -12.657  1.00  0.00     0.179 C 
ATOM      4  C   UNL     1      27.363   4.428 -12.432  1.00  0.00     0.178 C 
ATOM      5  O   UNL     1      27.842   5.194 -13.519  1.00  0.00    -0.347 OA
ENDROOT
BRANCH   1   6
ATOM      6  N   UNL     1      29.544   4.900 -15.172  1.00  0.00    -0.271 N 
ATOM      7  C   UNL     1      31.036   6.745 -15.532  1.00  0.00     0.090 A 
ATOM      8  C   UNL     1      29.937   6.181 -14.891  1.00  0.00     0.099 A 
ATOM      9  C   UNL     1      31.736   5.976 -16.454  1.00  0.00     0.253 A 
ATOM     10  N   UNL     1      31.344   4.700 -16.706  1.00  0.00    -0.274 N 
ATOM     11  O   UNL     1      32.735   6.460 -17.050  1.00  0.00    -0.269 OA
ATOM     12  C   UNL     1      30.268   4.156 -16.073  1.00  0.00     0.330 A 
ATOM     13  H   UNL     1      31.882   4.124 -17.394  1.00  0.00     0.175 HD
ATOM     14  O   UNL     1      29.948   2.961 -16.322  1.00  0.00    -0.248 OA
ENDBRANCH   1   6
BRANCH   2  15
ATOM     15  O   UNL     1      30.069   3.119 -13.197  1.00  0.00    -0.386 OA
ATOM     16  H   UNL     1      30.230   4.084 -13.028  1.00  0.00     0.211 HD
ENDBRANCH   2  15
BRANCH   3  17
ATOM     17  O   UNL     1      28.197   2.312 -11.495  1.00  0.00    -0.387 OA
ATOM     18  H   UNL     1      29.025   1.827 -11.752  1.00  0.00     0.211 HD
ENDBRANCH   3  17
BRANCH   4  19
ATOM     19  C   UNL     1      27.892   5.031 -11.118  1.00  0.00     0.191 C 
BRANCH  19  20
ATOM     20  O   UNL     1      29.274   5.266 -11.190  1.00  0.00    -0.394 OA
ATOM     21  H   UNL     1      29.403   6.100 -11.712  1.00  0.00     0.210 HD
ENDBRANCH  19  20
ENDBRANCH   4  19
TORSDOF 5
ENDMDL
MODEL 9
REMARK VINA RESULT:    -4.038      2.424      3.187
REMARK INTER + INTRA:          -5.366
REMARK INTER:                  -4.840
REMARK INTRA:                  -0.526
REMARK UNBOUND:                -0.501
REMARK SMILES O=c1ccn([C@@H]2O[C@H](CO)[C@H](O)[C@@H]2O)c(=O)[nH]1
REMARK SMILES IDX 6 1 13 2 11 3 8 4 7 5 5 6 3 7 4 8 2 9 17 10 1 11 15 12 16 14
REMARK SMILES IDX 14 15 12 17 9 19 10 20
REMARK H PARENT 17 13 14 16 12 18 10 21
REMARK Flexibility Score: inf
ROOT
ATOM      1  C   UNL     1      27.497   6.540 -14.265  1.00  0.00     0.255 C 
ATOM      2  C   UNL     1      28.910   6.341 -13.728  1.00  0.00     0.196 C 
ATOM      3  C   UNL     1      29.724   7.124 -14.729  1.00  0.00     0.179 C 
ATOM      4  C   UNL     1      28.870   7.065 -16.008  1.00  0.00     0.178 C 
ATOM      5  O   UNL     1      27.561   6.647 -15.672  1.00  0.00    -0.347 OA
ENDROOT
BRANCH   1   6
ATOM      6  N   UNL     1      26.591   5.447 -13.846  1.00  0.00    -0.271 N 
ATOM      7  C   UNL     1      25.635   3.277 -14.218  1.00  0.00     0.090 A 
ATOM      8  C   UNL     1      26.463   4.322 -14.617  1.00  0.00     0.099 A 
ATOM      9  C   UNL     1      24.951   3.391 -13.014  1.00  0.00     0.253 A 
ATOM     10  N   UNL     1      25.104   4.506 -12.253  1.00  0.00    -0.274 N 
ATOM     11  O   UNL     1      24.193   2.462 -12.627  1.00  0.00    -0.269 OA
ATOM     12  C   UNL     1      25.918   5.523 -12.651  1.00  0.00     0.330 A 
ATOM     13  H   UNL     1      24.593   4.581 -11.343  1.00  0.00     0.175 HD
ATOM     14  O   UNL     1      26.048   6.533 -11.905  1.00  0.00    -0.248 OA
ENDBRANCH   1   6
BRANCH   2  15
ATOM     15  O   UNL     1      29.260   4.979 -13.746  1.00  0.00    -0.386 OA
ATOM     16  H   UNL     1      30.061   4.898 -14.326  1.00  0.00     0.211 HD
ENDBRANCH   2  15
BRANCH   3  17
ATOM     17  O   UNL     1      31.017   6.601 -14.901  1.00  0.00    -0.387 OA
ATOM     18  H   UNL     1      30.910   5.733 -15.372  1.00  0.00     0.211 HD
ENDBRANCH   3  17
BRANCH   4  19
ATOM     19  C   UNL     1      29.424   6.146 -17.112  1.00  0.00     0.191 C 
BRANCH  19  20
ATOM     20  O   UNL     1      29.404   4.802 -16.707  1.00  0.00    -0.394 OA
ATOM     21  H   UNL     1      30.246   4.633 -16.211  1.00  0.00     0.210 HD
ENDBRANCH  19  20
ENDBRANCH   4  19
TORSDOF 5
ENDMDL
