MODEL 1
REMARK VINA RESULT:    -2.254      0.000      0.000
REMARK INTER + INTRA:          -3.671
REMARK INTER:                  -3.440
REMARK INTRA:                  -0.231
REMARK UNBOUND:                -0.231
REMARK SMILES CCCCCCCCCCC(=O)[O-]
REMARK SMILES IDX 7 1 8 2 9 3 10 4 11 5 12 6 13 7 6 8 5 9 4 10 3 11 2 12 1 13
REMARK H PARENT
REMARK Flexibility Score: inf
ROOT
ATOM      1  C   UNL     1      -5.340  34.890  23.413  1.00  0.00     0.000 C 
ENDROOT
BRANCH   1   2
ATOM      2  C   UNL     1      -5.918  35.292  22.042  1.00  0.00     0.000 C 
BRANCH   2   3
ATOM      3  C   UNL     1      -4.870  35.505  20.934  1.00  0.00     0.006 C 
BRANCH   3   4
ATOM      4  C   UNL     1      -5.498  35.826  19.572  1.00  0.00     0.053 C 
BRANCH   4   5
ATOM      5  C   UNL     1      -5.229  34.720  18.601  1.00  0.00     0.041 C 
ATOM      6  O   UNL     1      -6.123  33.872  18.340  1.00  0.00    -0.550 OA
ATOM      7  O   UNL     1      -4.005  34.652  17.946  1.00  0.00    -0.550 OA
ENDBRANCH   4   5
ENDBRANCH   3   4
ENDBRANCH   2   3
ENDBRANCH   1   2
BRANCH   1   8
ATOM      8  C   UNL     1      -6.124  35.416  24.629  1.00  0.00     0.000 C 
BRANCH   8   9
ATOM      9  C   UNL     1      -5.892  36.915  24.917  1.00  0.00    -0.000 C 
BRANCH   9  10
ATOM     10  C   UNL     1      -6.046  37.783  23.657  1.00  0.00    -0.000 C 
BRANCH  10  11
ATOM     11  C   UNL     1      -5.341  39.143  23.785  1.00  0.00    -0.000 C 
BRANCH  11  12
ATOM     12  C   UNL     1      -5.432  39.982  22.502  1.00  0.00    -0.003 C 
ATOM     13  C   UNL     1      -5.823  39.117  21.308  1.00  0.00     0.004 C 
ENDBRANCH  11  12
ENDBRANCH  10  11
ENDBRANCH   9  10
ENDBRANCH   8   9
ENDBRANCH   1   8
TORSDOF 9
ENDMDL
MODEL 2
REMARK VINA RESULT:    -2.065      3.386      4.950
REMARK INTER + INTRA:          -3.382
REMARK INTER:                  -2.931
REMARK INTRA:                  -0.450
REMARK UNBOUND:                -0.231
REMARK SMILES CCCCCCCCCCC(=O)[O-]
REMARK SMILES IDX 7 1 8 2 9 3 10 4 11 5 12 6 13 7 6 8 5 9 4 10 3 11 2 12 1 13
REMARK H PARENT
REMARK Flexibility Score: inf
ROOT
ATOM      1  C   UNL     1      -5.952  35.338  22.026  1.00  0.00     0.000 C 
ENDROOT
BRANCH   1   2
ATOM      2  C   UNL     1      -6.124  34.440  23.266  1.00  0.00     0.000 C 
BRANCH   2   3
ATOM      3  C   UNL     1      -6.108  35.186  24.613  1.00  0.00     0.006 C 
BRANCH   3   4
ATOM      4  C   UNL     1      -6.125  36.712  24.450  1.00  0.00     0.053 C 
BRANCH   4   5
ATOM      5  C   UNL     1      -5.052  37.336  25.286  1.00  0.00     0.041 C 
ATOM      6  O   UNL     1      -4.799  38.564  25.178  1.00  0.00    -0.550 OA
ATOM      7  O   UNL     1      -4.364  36.570  26.219  1.00  0.00    -0.550 OA
ENDBRANCH   4   5
ENDBRANCH   3   4
ENDBRANCH   2   3
ENDBRANCH   1   2
BRANCH   1   8
ATOM      8  C   UNL     1      -4.624  35.153  21.268  1.00  0.00     0.000 C 
BRANCH   8   9
ATOM      9  C   UNL     1      -4.709  35.514  19.769  1.00  0.00    -0.000 C 
BRANCH   9  10
ATOM     10  C   UNL     1      -5.388  36.873  19.532  1.00  0.00    -0.000 C 
BRANCH  10  11
ATOM     11  C   UNL     1      -4.913  37.952  20.518  1.00  0.00    -0.000 C 
BRANCH  11  12
ATOM     12  C   UNL     1      -5.966  39.044  20.755  1.00  0.00    -0.003 C 
ATOM     13  C   UNL     1      -5.796  39.682  22.131  1.00  0.00     0.004 C 
ENDBRANCH  11  12
ENDBRANCH  10  11
ENDBRANCH   9  10
ENDBRANCH   8   9
ENDBRANCH   1   8
TORSDOF 9
ENDMDL
MODEL 3
REMARK VINA RESULT:    -2.064      1.259      3.456
REMARK INTER + INTRA:          -3.380
REMARK INTER:                  -2.828
REMARK INTRA:                  -0.553
REMARK UNBOUND:                -0.231
REMARK SMILES CCCCCCCCCCC(=O)[O-]
REMARK SMILES IDX 7 1 8 2 9 3 10 4 11 5 12 6 13 7 6 8 5 9 4 10 3 11 2 12 1 13
REMARK H PARENT
REMARK Flexibility Score: inf
ROOT
ATOM      1  C   UNL     1      -4.842  39.391  21.848  1.00  0.00     0.000 C 
ENDROOT
BRANCH   1   2
ATOM      2  C   UNL     1      -5.875  38.933  20.801  1.00  0.00     0.000 C 
BRANCH   2   3
ATOM      3  C   UNL     1      -5.423  37.753  19.919  1.00  0.00     0.006 C 
BRANCH   3   4
ATOM      4  C   UNL     1      -5.547  36.398  20.628  1.00  0.00     0.053 C 
BRANCH   4   5
ATOM      5  C   UNL     1      -4.605  35.406  20.022  1.00  0.00     0.041 C 
ATOM      6  O   UNL     1      -3.964  34.609  20.757  1.00  0.00    -0.550 OA
ATOM      7  O   UNL     1      -4.470  35.328  18.641  1.00  0.00    -0.550 OA
ENDBRANCH   4   5
ENDBRANCH   3   4
ENDBRANCH   2   3
ENDBRANCH   1   2
BRANCH   1   8
ATOM      8  C   UNL     1      -5.350  39.400  23.302  1.00  0.00     0.000 C 
BRANCH   8   9
ATOM      9  C   UNL     1      -6.115  38.120  23.701  1.00  0.00    -0.000 C 
BRANCH   9  10
ATOM     10  C   UNL     1      -5.454  37.388  24.882  1.00  0.00    -0.000 C 
BRANCH  10  11
ATOM     11  C   UNL     1      -5.893  35.919  24.987  1.00  0.00    -0.000 C 
BRANCH  11  12
ATOM     12  C   UNL     1      -6.042  35.244  23.616  1.00  0.00    -0.003 C 
ATOM     13  C   UNL     1      -6.125  33.727  23.758  1.00  0.00     0.004 C 
ENDBRANCH  11  12
ENDBRANCH  10  11
ENDBRANCH   9  10
ENDBRANCH   8   9
ENDBRANCH   1   8
TORSDOF 9
ENDMDL
MODEL 4
REMARK VINA RESULT:    -1.832      3.141      5.717
REMARK INTER + INTRA:          -3.026
REMARK INTER:                  -2.476
REMARK INTRA:                  -0.550
REMARK UNBOUND:                -0.231
REMARK SMILES CCCCCCCCCCC(=O)[O-]
REMARK SMILES IDX 7 1 8 2 9 3 10 4 11 5 12 6 13 7 6 8 5 9 4 10 3 11 2 12 1 13
REMARK H PARENT
REMARK Flexibility Score: inf
ROOT
ATOM      1  C   UNL     1      -5.921  39.274  21.458  1.00  0.00     0.000 C 
ENDROOT
BRANCH   1   2
ATOM      2  C   UNL     1      -5.102  39.786  22.658  1.00  0.00     0.000 C 
BRANCH   2   3
ATOM      3  C   UNL     1      -5.458  39.138  24.009  1.00  0.00     0.006 C 
BRANCH   3   4
ATOM      4  C   UNL     1      -6.009  37.714  23.861  1.00  0.00     0.053 C 
BRANCH   4   5
ATOM      5  C   UNL     1      -5.559  36.860  25.004  1.00  0.00     0.041 C 
ATOM      6  O   UNL     1      -5.866  35.640  25.044  1.00  0.00    -0.550 OA
ATOM      7  O   UNL     1      -4.758  37.401  26.003  1.00  0.00    -0.550 OA
ENDBRANCH   4   5
ENDBRANCH   3   4
ENDBRANCH   2   3
ENDBRANCH   1   2
BRANCH   1   8
ATOM      8  C   UNL     1      -5.118  38.469  20.419  1.00  0.00     0.000 C 
BRANCH   8   9
ATOM      9  C   UNL     1      -5.808  37.161  19.977  1.00  0.00    -0.000 C 
BRANCH   9  10
ATOM     10  C   UNL     1      -5.459  35.976  20.895  1.00  0.00    -0.000 C 
BRANCH  10  11
ATOM     11  C   UNL     1      -4.339  35.093  20.322  1.00  0.00    -0.000 C 
BRANCH  11  12
ATOM     12  C   UNL     1      -4.376  35.008  18.789  1.00  0.00    -0.003 C 
ATOM     13  C   UNL     1      -5.405  33.984  18.321  1.00  0.00     0.004 C 
ENDBRANCH  11  12
ENDBRANCH  10  11
ENDBRANCH   9  10
ENDBRANCH   8   9
ENDBRANCH   1   8
TORSDOF 9
ENDMDL
MODEL 5
REMARK VINA RESULT:    -1.811      2.648      4.714
REMARK INTER + INTRA:          -2.995
REMARK INTER:                  -2.365
REMARK INTRA:                  -0.629
REMARK UNBOUND:                -0.231
REMARK SMILES CCCCCCCCCCC(=O)[O-]
REMARK SMILES IDX 7 1 8 2 9 3 10 4 11 5 12 6 13 7 6 8 5 9 4 10 3 11 2 12 1 13
REMARK H PARENT
REMARK Flexibility Score: inf
ROOT
ATOM      1  C   UNL     1      -5.986  36.363  25.261  1.00  0.00     0.000 C 
ENDROOT
BRANCH   1   2
ATOM      2  C   UNL     1      -4.925  37.481  25.288  1.00  0.00     0.000 C 
BRANCH   2   3
ATOM      3  C   UNL     1      -5.322  38.768  24.540  1.00  0.00     0.006 C 
BRANCH   3   4
ATOM      4  C   UNL     1      -6.125  38.492  23.262  1.00  0.00     0.053 C 
BRANCH   4   5
ATOM      5  C   UNL     1      -5.626  39.346  22.140  1.00  0.00     0.041 C 
ATOM      6  O   UNL     1      -4.734  40.210  22.348  1.00  0.00    -0.550 OA
ATOM      7  O   UNL     1      -6.113  39.156  20.852  1.00  0.00    -0.550 OA
ENDBRANCH   4   5
ENDBRANCH   3   4
ENDBRANCH   2   3
ENDBRANCH   1   2
BRANCH   1   8
ATOM      8  C   UNL     1      -5.556  35.076  24.533  1.00  0.00     0.000 C 
BRANCH   8   9
ATOM      9  C   UNL     1      -6.125  34.951  23.103  1.00  0.00    -0.000 C 
BRANCH   9  10
ATOM     10  C   UNL     1      -5.091  35.327  22.028  1.00  0.00    -0.000 C 
BRANCH  10  11
ATOM     11  C   UNL     1      -5.743  35.837  20.733  1.00  0.00    -0.000 C 
BRANCH  11  12
ATOM     12  C   UNL     1      -4.886  35.563  19.488  1.00  0.00    -0.003 C 
ATOM     13  C   UNL     1      -5.392  34.337  18.733  1.00  0.00     0.004 C 
ENDBRANCH  11  12
ENDBRANCH  10  11
ENDBRANCH   9  10
ENDBRANCH   8   9
ENDBRANCH   1   8
TORSDOF 9
ENDMDL
MODEL 6
REMARK VINA RESULT:    -1.577      1.963      3.695
REMARK INTER + INTRA:          -2.638
REMARK INTER:                  -2.190
REMARK INTRA:                  -0.448
REMARK UNBOUND:                -0.231
REMARK SMILES CCCCCCCCCCC(=O)[O-]
REMARK SMILES IDX 7 1 8 2 9 3 10 4 11 5 12 6 13 7 6 8 5 9 4 10 3 11 2 12 1 13
REMARK H PARENT
REMARK Flexibility Score: inf
ROOT
ATOM      1  C   UNL     1      -4.850  38.009  20.705  1.00  0.00     0.000 C 
ENDROOT
BRANCH   1   2
ATOM      2  C   UNL     1      -5.361  37.116  19.557  1.00  0.00     0.000 C 
BRANCH   2   3
ATOM      3  C   UNL     1      -5.445  35.615  19.893  1.00  0.00     0.006 C 
BRANCH   3   4
ATOM      4  C   UNL     1      -6.008  35.348  21.296  1.00  0.00     0.053 C 
BRANCH   4   5
ATOM      5  C   UNL     1      -4.978  34.679  22.151  1.00  0.00     0.041 C 
ATOM      6  O   UNL     1      -3.778  34.629  21.775  1.00  0.00    -0.550 OA
ATOM      7  O   UNL     1      -5.336  34.154  23.387  1.00  0.00    -0.550 OA
ENDBRANCH   4   5
ENDBRANCH   3   4
ENDBRANCH   2   3
ENDBRANCH   1   2
BRANCH   1   8
ATOM      8  C   UNL     1      -5.923  38.889  21.371  1.00  0.00     0.000 C 
BRANCH   8   9
ATOM      9  C   UNL     1      -5.375  39.793  22.496  1.00  0.00    -0.000 C 
BRANCH   9  10
ATOM     10  C   UNL     1      -5.500  39.141  23.884  1.00  0.00    -0.000 C 
BRANCH  10  11
ATOM     11  C   UNL     1      -6.082  37.720  23.820  1.00  0.00    -0.000 C 
BRANCH  11  12
ATOM     12  C   UNL     1      -5.855  36.927  25.115  1.00  0.00    -0.003 C 
ATOM     13  C   UNL     1      -4.677  37.491  25.904  1.00  0.00     0.004 C 
ENDBRANCH  11  12
ENDBRANCH  10  11
ENDBRANCH   9  10
ENDBRANCH   8   9
ENDBRANCH   1   8
TORSDOF 9
ENDMDL
MODEL 7
REMARK VINA RESULT:    -1.268      3.732      6.515
REMARK INTER + INTRA:          -2.166
REMARK INTER:                  -1.968
REMARK INTRA:                  -0.199
REMARK UNBOUND:                -0.231
REMARK SMILES CCCCCCCCCCC(=O)[O-]
REMARK SMILES IDX 7 1 8 2 9 3 10 4 11 5 12 6 13 7 6 8 5 9 4 10 3 11 2 12 1 13
REMARK H PARENT
REMARK Flexibility Score: inf
ROOT
ATOM      1  C   UNL     1      -5.016  35.648  20.101  1.00  0.00     0.000 C 
ENDROOT
BRANCH   1   2
ATOM      2  C   UNL     1      -5.938  35.469  21.322  1.00  0.00     0.000 C 
BRANCH   2   3
ATOM      3  C   UNL     1      -5.221  35.055  22.621  1.00  0.00     0.006 C 
BRANCH   3   4
ATOM      4  C   UNL     1      -6.125  35.145  23.857  1.00  0.00     0.053 C 
BRANCH   4   5
ATOM      5  C   UNL     1      -5.863  36.415  24.602  1.00  0.00     0.041 C 
ATOM      6  O   UNL     1      -5.515  36.382  25.811  1.00  0.00    -0.550 OA
ATOM      7  O   UNL     1      -5.957  37.637  23.947  1.00  0.00    -0.550 OA
ENDBRANCH   4   5
ENDBRANCH   3   4
ENDBRANCH   2   3
ENDBRANCH   1   2
BRANCH   1   8
ATOM      8  C   UNL     1      -5.406  34.816  18.865  1.00  0.00     0.000 C 
BRANCH   8   9
ATOM      9  C   UNL     1      -4.254  34.627  17.855  1.00  0.00    -0.000 C 
BRANCH   9  10
ATOM     10  C   UNL     1      -4.243  35.716  16.769  1.00  0.00    -0.000 C 
BRANCH  10  11
ATOM     11  C   UNL     1      -3.091  35.542  15.766  1.00  0.00    -0.000 C 
BRANCH  11  12
ATOM     12  C   UNL     1      -3.413  36.128  14.384  1.00  0.00    -0.003 C 
ATOM     13  C   UNL     1      -3.872  37.579  14.497  1.00  0.00     0.004 C 
ENDBRANCH  11  12
ENDBRANCH  10  11
ENDBRANCH   9  10
ENDBRANCH   8   9
ENDBRANCH   1   8
TORSDOF 9
ENDMDL
