MODEL 1
REMARK VINA RESULT:    -4.063      0.000      0.000
REMARK INTER + INTRA:          -7.264
REMARK INTER:                  -6.201
REMARK INTRA:                  -1.064
REMARK UNBOUND:                -1.064
REMARK SMILES CCCCCCCCCCC(=O)[O-]
REMARK SMILES IDX 7 1 8 2 9 3 10 4 11 5 12 6 13 7 6 8 5 9 4 10 3 11 2 12 1 13
REMARK H PARENT
REMARK Flexibility Score: inf
ROOT
ATOM      1  C   UNL     1       0.794  -1.138  -7.189  1.00  0.00     0.000 C 
ENDROOT
BRANCH   1   2
ATOM      2  C   UNL     1       1.341  -1.089  -8.620  1.00  0.00     0.000 C 
BRANCH   2   3
ATOM      3  C   UNL     1       2.754  -1.688  -8.690  1.00  0.00     0.006 C 
BRANCH   3   4
ATOM      4  C   UNL     1       3.696  -0.852  -9.565  1.00  0.00     0.053 C 
BRANCH   4   5
ATOM      5  C   UNL     1       5.096  -1.386  -9.544  1.00  0.00     0.041 C 
ATOM      6  O   UNL     1       5.345  -2.527 -10.015  1.00  0.00    -0.550 OA
ATOM      7  O   UNL     1       6.130  -0.611  -9.034  1.00  0.00    -0.550 OA
ENDBRANCH   4   5
ENDBRANCH   3   4
ENDBRANCH   2   3
ENDBRANCH   1   2
BRANCH   1   8
ATOM      8  C   UNL     1       1.784  -1.829  -6.244  1.00  0.00     0.000 C 
BRANCH   8   9
ATOM      9  C   UNL     1       1.262  -3.206  -5.811  1.00  0.00    -0.000 C 
BRANCH   9  10
ATOM     10  C   UNL     1       2.322  -4.291  -6.034  1.00  0.00    -0.000 C 
BRANCH  10  11
ATOM     11  C   UNL     1       2.128  -4.977  -7.396  1.00  0.00    -0.000 C 
BRANCH  11  12
ATOM     12  C   UNL     1       0.674  -4.913  -7.886  1.00  0.00    -0.003 C 
ATOM     13  C   UNL     1       0.567  -4.729  -9.401  1.00  0.00     0.004 C 
ENDBRANCH  11  12
ENDBRANCH  10  11
ENDBRANCH   9  10
ENDBRANCH   8   9
ENDBRANCH   1   8
TORSDOF 9
ENDMDL
MODEL 2
REMARK VINA RESULT:    -3.759      3.394      4.865
REMARK INTER + INTRA:          -6.801
REMARK INTER:                  -6.420
REMARK INTRA:                  -0.381
REMARK UNBOUND:                -1.064
REMARK SMILES CCCCCCCCCCC(=O)[O-]
REMARK SMILES IDX 7 1 8 2 9 3 10 4 11 5 12 6 13 7 6 8 5 9 4 10 3 11 2 12 1 13
REMARK H PARENT
REMARK Flexibility Score: inf
ROOT
ATOM      1  C   UNL     1       0.682  -4.613  -8.254  1.00  0.00     0.000 C 
ENDROOT
BRANCH   1   2
ATOM      2  C   UNL     1       0.874  -4.886  -6.758  1.00  0.00     0.000 C 
BRANCH   2   3
ATOM      3  C   UNL     1       1.089  -3.578  -5.982  1.00  0.00     0.006 C 
BRANCH   3   4
ATOM      4  C   UNL     1       2.350  -2.833  -6.438  1.00  0.00     0.053 C 
BRANCH   4   5
ATOM      5  C   UNL     1       2.023  -1.506  -7.050  1.00  0.00     0.041 C 
ATOM      6  O   UNL     1       1.280  -0.693  -6.439  1.00  0.00    -0.550 OA
ATOM      7  O   UNL     1       2.564  -1.153  -8.280  1.00  0.00    -0.550 OA
ENDBRANCH   4   5
ENDBRANCH   3   4
ENDBRANCH   2   3
ENDBRANCH   1   2
BRANCH   1   8
ATOM      8  C   UNL     1       0.529  -5.922  -9.038  1.00  0.00     0.000 C 
BRANCH   8   9
ATOM      9  C   UNL     1      -0.801  -6.610  -8.707  1.00  0.00    -0.000 C 
BRANCH   9  10
ATOM     10  C   UNL     1      -0.903  -7.974  -9.401  1.00  0.00    -0.000 C 
BRANCH  10  11
ATOM     11  C   UNL     1      -2.352  -8.485  -9.398  1.00  0.00    -0.000 C 
BRANCH  11  12
ATOM     12  C   UNL     1      -3.293  -7.586  -8.583  1.00  0.00    -0.003 C 
ATOM     13  C   UNL     1      -4.317  -8.381  -7.772  1.00  0.00     0.004 C 
ENDBRANCH  11  12
ENDBRANCH  10  11
ENDBRANCH   9  10
ENDBRANCH   8   9
ENDBRANCH   1   8
TORSDOF 9
ENDMDL
MODEL 3
REMARK VINA RESULT:    -3.730      3.226      4.866
REMARK INTER + INTRA:          -6.756
REMARK INTER:                  -5.770
REMARK INTRA:                  -0.987
REMARK UNBOUND:                -1.064
REMARK SMILES CCCCCCCCCCC(=O)[O-]
REMARK SMILES IDX 7 1 8 2 9 3 10 4 11 5 12 6 13 7 6 8 5 9 4 10 3 11 2 12 1 13
REMARK H PARENT
REMARK Flexibility Score: inf
ROOT
ATOM      1  C   UNL     1       1.188  -4.507  -6.410  1.00  0.00     0.000 C 
ENDROOT
BRANCH   1   2
ATOM      2  C   UNL     1       2.527  -4.744  -7.116  1.00  0.00     0.000 C 
BRANCH   2   3
ATOM      3  C   UNL     1       2.321  -5.006  -8.616  1.00  0.00     0.006 C 
BRANCH   3   4
ATOM      4  C   UNL     1       0.857  -5.314  -8.955  1.00  0.00     0.053 C 
BRANCH   4   5
ATOM      5  C   UNL     1       0.682  -6.720  -9.440  1.00  0.00     0.041 C 
ATOM      6  O   UNL     1       1.675  -7.375  -9.853  1.00  0.00    -0.550 OA
ATOM      7  O   UNL     1      -0.571  -7.319  -9.405  1.00  0.00    -0.550 OA
ENDBRANCH   4   5
ENDBRANCH   3   4
ENDBRANCH   2   3
ENDBRANCH   1   2
BRANCH   1   8
ATOM      8  C   UNL     1       1.133  -3.107  -5.787  1.00  0.00     0.000 C 
BRANCH   8   9
ATOM      9  C   UNL     1       2.260  -2.218  -6.330  1.00  0.00    -0.000 C 
BRANCH   9  10
ATOM     10  C   UNL     1       1.765  -1.351  -7.494  1.00  0.00    -0.000 C 
BRANCH  10  11
ATOM     11  C   UNL     1       0.339  -0.842  -7.232  1.00  0.00    -0.000 C 
BRANCH  11  12
ATOM     12  C   UNL     1      -0.488  -0.715  -8.521  1.00  0.00    -0.003 C 
ATOM     13  C   UNL     1      -0.235  -1.861  -9.501  1.00  0.00     0.004 C 
ENDBRANCH  11  12
ENDBRANCH  10  11
ENDBRANCH   9  10
ENDBRANCH   8   9
ENDBRANCH   1   8
TORSDOF 9
ENDMDL
MODEL 4
REMARK VINA RESULT:    -3.707      2.183      4.716
REMARK INTER + INTRA:          -6.721
REMARK INTER:                  -5.831
REMARK INTRA:                  -0.890
REMARK UNBOUND:                -1.064
REMARK SMILES CCCCCCCCCCC(=O)[O-]
REMARK SMILES IDX 7 1 8 2 9 3 10 4 11 5 12 6 13 7 6 8 5 9 4 10 3 11 2 12 1 13
REMARK H PARENT
REMARK Flexibility Score: inf
ROOT
ATOM      1  C   UNL     1       0.763  -1.027  -7.110  1.00  0.00     0.000 C 
ENDROOT
BRANCH   1   2
ATOM      2  C   UNL     1       1.784  -1.804  -6.272  1.00  0.00     0.000 C 
BRANCH   2   3
ATOM      3  C   UNL     1       1.194  -3.135  -5.781  1.00  0.00     0.006 C 
BRANCH   3   4
ATOM      4  C   UNL     1       2.170  -4.305  -5.963  1.00  0.00     0.053 C 
BRANCH   4   5
ATOM      5  C   UNL     1       2.089  -4.889  -7.340  1.00  0.00     0.041 C 
ATOM      6  O   UNL     1       3.129  -5.306  -7.913  1.00  0.00    -0.550 OA
ATOM      7  O   UNL     1       0.860  -5.002  -7.978  1.00  0.00    -0.550 OA
ENDBRANCH   4   5
ENDBRANCH   3   4
ENDBRANCH   2   3
ENDBRANCH   1   2
BRANCH   1   8
ATOM      8  C   UNL     1       0.803  -1.470  -8.577  1.00  0.00     0.000 C 
BRANCH   8   9
ATOM      9  C   UNL     1       2.129  -1.070  -9.237  1.00  0.00    -0.000 C 
BRANCH   9  10
ATOM     10  C   UNL     1       2.884  -2.304  -9.748  1.00  0.00    -0.000 C 
BRANCH  10  11
ATOM     11  C   UNL     1       4.400  -2.058  -9.749  1.00  0.00    -0.000 C 
BRANCH  11  12
ATOM     12  C   UNL     1       4.757  -0.565  -9.807  1.00  0.00    -0.003 C 
ATOM     13  C   UNL     1       6.161  -0.271  -9.278  1.00  0.00     0.004 C 
ENDBRANCH  11  12
ENDBRANCH  10  11
ENDBRANCH   9  10
ENDBRANCH   8   9
ENDBRANCH   1   8
TORSDOF 9
ENDMDL
MODEL 5
REMARK VINA RESULT:    -3.663      2.755      3.710
REMARK INTER + INTRA:          -6.655
REMARK INTER:                  -6.044
REMARK INTRA:                  -0.611
REMARK UNBOUND:                -1.064
REMARK SMILES CCCCCCCCCCC(=O)[O-]
REMARK SMILES IDX 7 1 8 2 9 3 10 4 11 5 12 6 13 7 6 8 5 9 4 10 3 11 2 12 1 13
REMARK H PARENT
REMARK Flexibility Score: inf
ROOT
ATOM      1  C   UNL     1       1.196  -3.349  -5.921  1.00  0.00     0.000 C 
ENDROOT
BRANCH   1   2
ATOM      2  C   UNL     1       1.902  -1.992  -6.010  1.00  0.00     0.000 C 
BRANCH   2   3
ATOM      3  C   UNL     1       1.790  -1.405  -7.426  1.00  0.00     0.006 C 
BRANCH   3   4
ATOM      4  C   UNL     1       0.331  -1.228  -7.868  1.00  0.00     0.053 C 
BRANCH   4   5
ATOM      5  C   UNL     1       0.197  -0.199  -8.948  1.00  0.00     0.041 C 
ATOM      6  O   UNL     1      -0.937   0.082  -9.418  1.00  0.00    -0.550 OA
ATOM      7  O   UNL     1       1.320   0.472  -9.414  1.00  0.00    -0.550 OA
ENDBRANCH   4   5
ENDBRANCH   3   4
ENDBRANCH   2   3
ENDBRANCH   1   2
BRANCH   1   8
ATOM      8  C   UNL     1       2.185  -4.500  -6.143  1.00  0.00     0.000 C 
BRANCH   8   9
ATOM      9  C   UNL     1       2.134  -4.998  -7.593  1.00  0.00    -0.000 C 
BRANCH   9  10
ATOM     10  C   UNL     1       0.703  -4.953  -8.141  1.00  0.00    -0.000 C 
BRANCH  10  11
ATOM     11  C   UNL     1       0.445  -6.124  -9.102  1.00  0.00    -0.000 C 
BRANCH  11  12
ATOM     12  C   UNL     1      -0.925  -6.781  -8.877  1.00  0.00    -0.003 C 
ATOM     13  C   UNL     1      -1.000  -8.200  -9.443  1.00  0.00     0.004 C 
ENDBRANCH  11  12
ENDBRANCH  10  11
ENDBRANCH   9  10
ENDBRANCH   8   9
ENDBRANCH   1   8
TORSDOF 9
ENDMDL
MODEL 6
REMARK VINA RESULT:    -3.588      4.390      5.226
REMARK INTER + INTRA:          -6.539
REMARK INTER:                  -5.751
REMARK INTRA:                  -0.788
REMARK UNBOUND:                -1.064
REMARK SMILES CCCCCCCCCCC(=O)[O-]
REMARK SMILES IDX 7 1 8 2 9 3 10 4 11 5 12 6 13 7 6 8 5 9 4 10 3 11 2 12 1 13
REMARK H PARENT
REMARK Flexibility Score: inf
ROOT
ATOM      1  C   UNL     1       1.232  -1.184  -8.565  1.00  0.00     0.000 C 
ENDROOT
BRANCH   1   2
ATOM      2  C   UNL     1       0.062  -0.956  -9.528  1.00  0.00     0.000 C 
BRANCH   2   3
ATOM      3  C   UNL     1      -1.260  -0.801  -8.761  1.00  0.00     0.006 C 
BRANCH   3   4
ATOM      4  C   UNL     1      -2.178   0.253  -9.394  1.00  0.00     0.053 C 
BRANCH   4   5
ATOM      5  C   UNL     1      -3.624  -0.037  -9.129  1.00  0.00     0.041 C 
ATOM      6  O   UNL     1      -4.020  -1.226  -9.014  1.00  0.00    -0.550 OA
ATOM      7  O   UNL     1      -4.527   1.007  -8.976  1.00  0.00    -0.550 OA
ENDBRANCH   4   5
ENDBRANCH   3   4
ENDBRANCH   2   3
ENDBRANCH   1   2
BRANCH   1   8
ATOM      8  C   UNL     1       0.760  -1.151  -7.106  1.00  0.00     0.000 C 
BRANCH   8   9
ATOM      9  C   UNL     1       1.731  -1.912  -6.195  1.00  0.00    -0.000 C 
BRANCH   9  10
ATOM     10  C   UNL     1       1.155  -3.275  -5.792  1.00  0.00    -0.000 C 
BRANCH  10  11
ATOM     11  C   UNL     1       2.152  -4.404  -6.095  1.00  0.00    -0.000 C 
BRANCH  11  12
ATOM     12  C   UNL     1       2.290  -4.682  -7.599  1.00  0.00    -0.003 C 
ATOM     13  C   UNL     1       0.974  -5.120  -8.244  1.00  0.00     0.004 C 
ENDBRANCH  11  12
ENDBRANCH  10  11
ENDBRANCH   9  10
ENDBRANCH   8   9
ENDBRANCH   1   8
TORSDOF 9
ENDMDL
MODEL 7
REMARK VINA RESULT:    -3.577      3.213      4.879
REMARK INTER + INTRA:          -6.523
REMARK INTER:                  -5.895
REMARK INTRA:                  -0.629
REMARK UNBOUND:                -1.064
REMARK SMILES CCCCCCCCCCC(=O)[O-]
REMARK SMILES IDX 7 1 8 2 9 3 10 4 11 5 12 6 13 7 6 8 5 9 4 10 3 11 2 12 1 13
REMARK H PARENT
REMARK Flexibility Score: inf
ROOT
ATOM      1  C   UNL     1       0.793  -0.990  -7.050  1.00  0.00     0.000 C 
ENDROOT
BRANCH   1   2
ATOM      2  C   UNL     1       1.642  -1.748  -6.023  1.00  0.00     0.000 C 
BRANCH   2   3
ATOM      3  C   UNL     1       1.158  -3.198  -5.870  1.00  0.00     0.006 C 
BRANCH   3   4
ATOM      4  C   UNL     1       2.279  -4.214  -6.123  1.00  0.00     0.053 C 
BRANCH   4   5
ATOM      5  C   UNL     1       2.116  -4.907  -7.441  1.00  0.00     0.041 C 
ATOM      6  O   UNL     1       0.977  -5.002  -7.969  1.00  0.00    -0.550 OA
ATOM      7  O   UNL     1       3.226  -5.419  -8.101  1.00  0.00    -0.550 OA
ENDBRANCH   4   5
ENDBRANCH   3   4
ENDBRANCH   2   3
ENDBRANCH   1   2
BRANCH   1   8
ATOM      8  C   UNL     1       1.151  -1.412  -8.480  1.00  0.00     0.000 C 
BRANCH   8   9
ATOM      9  C   UNL     1      -0.101  -1.830  -9.261  1.00  0.00    -0.000 C 
BRANCH   9  10
ATOM     10  C   UNL     1      -1.249  -0.841  -9.031  1.00  0.00    -0.000 C 
BRANCH  10  11
ATOM     11  C   UNL     1      -2.551  -1.352  -9.668  1.00  0.00    -0.000 C 
BRANCH  11  12
ATOM     12  C   UNL     1      -3.789  -0.587  -9.176  1.00  0.00    -0.003 C 
ATOM     13  C   UNL     1      -4.981  -1.504  -8.900  1.00  0.00     0.004 C 
ENDBRANCH  11  12
ENDBRANCH  10  11
ENDBRANCH   9  10
ENDBRANCH   8   9
ENDBRANCH   1   8
TORSDOF 9
ENDMDL
MODEL 8
REMARK VINA RESULT:    -3.573      2.773      3.764
REMARK INTER + INTRA:          -6.517
REMARK INTER:                  -5.320
REMARK INTRA:                  -1.198
REMARK UNBOUND:                -1.064
REMARK SMILES CCCCCCCCCCC(=O)[O-]
REMARK SMILES IDX 7 1 8 2 9 3 10 4 11 5 12 6 13 7 6 8 5 9 4 10 3 11 2 12 1 13
REMARK H PARENT
REMARK Flexibility Score: inf
ROOT
ATOM      1  C   UNL     1       2.689  -2.976  -6.269  1.00  0.00     0.000 C 
ENDROOT
BRANCH   1   2
ATOM      2  C   UNL     1       1.453  -2.075  -6.350  1.00  0.00     0.000 C 
BRANCH   2   3
ATOM      3  C   UNL     1       1.477  -1.221  -7.627  1.00  0.00     0.006 C 
BRANCH   3   4
ATOM      4  C   UNL     1       0.150  -1.286  -8.395  1.00  0.00     0.053 C 
BRANCH   4   5
ATOM      5  C   UNL     1      -0.061  -0.071  -9.246  1.00  0.00     0.041 C 
ATOM      6  O   UNL     1       0.848   0.792  -9.353  1.00  0.00    -0.550 OA
ATOM      7  O   UNL     1      -1.250   0.091  -9.946  1.00  0.00    -0.550 OA
ENDBRANCH   4   5
ENDBRANCH   3   4
ENDBRANCH   2   3
ENDBRANCH   1   2
BRANCH   1   8
ATOM      8  C   UNL     1       2.295  -4.457  -6.301  1.00  0.00     0.000 C 
BRANCH   8   9
ATOM      9  C   UNL     1       0.815  -4.625  -6.670  1.00  0.00    -0.000 C 
BRANCH   9  10
ATOM     10  C   UNL     1       0.660  -5.113  -8.116  1.00  0.00    -0.000 C 
BRANCH  10  11
ATOM     11  C   UNL     1       2.028  -5.230  -8.806  1.00  0.00    -0.000 C 
BRANCH  11  12
ATOM     12  C   UNL     1       2.166  -4.282 -10.007  1.00  0.00    -0.003 C 
ATOM     13  C   UNL     1       3.427  -3.421  -9.940  1.00  0.00     0.004 C 
ENDBRANCH  11  12
ENDBRANCH  10  11
ENDBRANCH   9  10
ENDBRANCH   8   9
ENDBRANCH   1   8
TORSDOF 9
ENDMDL
MODEL 9
REMARK VINA RESULT:    -3.567     15.244     16.866
REMARK INTER + INTRA:          -6.507
REMARK INTER:                  -5.760
REMARK INTRA:                  -0.747
REMARK UNBOUND:                -1.064
REMARK SMILES CCCCCCCCCCC(=O)[O-]
REMARK SMILES IDX 7 1 8 2 9 3 10 4 11 5 12 6 13 7 6 8 5 9 4 10 3 11 2 12 1 13
REMARK H PARENT
REMARK Flexibility Score: inf
ROOT
ATOM      1  C   UNL     1       8.939   6.659   4.494  1.00  0.00     0.000 C 
ENDROOT
BRANCH   1   2
ATOM      2  C   UNL     1       9.940   5.852   3.660  1.00  0.00     0.000 C 
BRANCH   2   3
ATOM      3  C   UNL     1       9.683   4.344   3.800  1.00  0.00     0.006 C 
BRANCH   3   4
ATOM      4  C   UNL     1       9.085   3.981   5.166  1.00  0.00     0.053 C 
BRANCH   4   5
ATOM      5  C   UNL     1       8.159   2.807   5.074  1.00  0.00     0.041 C 
ATOM      6  O   UNL     1       6.920   2.965   5.229  1.00  0.00    -0.550 OA
ATOM      7  O   UNL     1       8.661   1.544   4.786  1.00  0.00    -0.550 OA
ENDBRANCH   4   5
ENDBRANCH   3   4
ENDBRANCH   2   3
ENDBRANCH   1   2
BRANCH   1   8
ATOM      8  C   UNL     1       9.246   8.160   4.423  1.00  0.00     0.000 C 
BRANCH   8   9
ATOM      9  C   UNL     1       7.976   8.993   4.634  1.00  0.00    -0.000 C 
BRANCH   9  10
ATOM     10  C   UNL     1       7.627   9.794   3.374  1.00  0.00    -0.000 C 
BRANCH  10  11
ATOM     11  C   UNL     1       8.850   9.933   2.455  1.00  0.00    -0.000 C 
BRANCH  11  12
ATOM     12  C   UNL     1       8.562   9.477   1.017  1.00  0.00    -0.003 C 
ATOM     13  C   UNL     1       9.274   8.173   0.655  1.00  0.00     0.004 C 
ENDBRANCH  11  12
ENDBRANCH  10  11
ENDBRANCH   9  10
ENDBRANCH   8   9
ENDBRANCH   1   8
TORSDOF 9
ENDMDL
