MODEL 1
REMARK VINA RESULT:    -6.441      0.000      0.000
REMARK INTER + INTRA:         -10.108
REMARK INTER:                  -9.265
REMARK INTRA:                  -0.842
REMARK UNBOUND:                -0.842
REMARK SMILES O=c1cc(-c2ccc(O)c(O)c2)oc2cc(O[C@H]3O[C@H](CO)[C@H](O)[C@@H](O)[C@@H]3O)cc(O)c12
REMARK SMILES IDX 17 1 16 2 4 3 3 4 13 5 2 6 14 7 1 8 32 9 15 10 30 11 29 12
REMARK SMILES IDX 5 13 6 14 7 15 8 16 12 17 10 18 9 19 11 21 31 23 18 25 27 26
REMARK SMILES IDX 19 27 25 28 20 29 23 30 28 31 26 33 21 35 22 36 24 38
REMARK H PARENT 9 20 11 22 31 24 28 32 26 34 22 37 24 39
REMARK Flexibility Score: inf
ROOT
ATOM      1  O   UNL     1      -6.597  90.767 -14.770  1.00  0.00    -0.462 OA
ENDROOT
BRANCH   1   2
ATOM      2  C   UNL     1      -7.041  90.199 -13.570  1.00  0.00     0.130 A 
ATOM      3  C   UNL     1      -6.374  86.852 -10.258  1.00  0.00     0.138 A 
ATOM      4  C   UNL     1      -7.598  87.130  -9.632  1.00  0.00     0.100 A 
ATOM      5  O   UNL     1      -5.994  87.577 -11.305  1.00  0.00    -0.456 OA
ATOM      6  C   UNL     1      -8.401  88.163 -10.117  1.00  0.00     0.197 A 
ATOM      7  C   UNL     1      -6.722  88.568 -11.810  1.00  0.00     0.146 A 
ATOM      8  O   UNL     1      -9.522  88.354  -9.576  1.00  0.00    -0.289 OA
ATOM      9  C   UNL     1      -7.961  88.936 -11.218  1.00  0.00     0.107 A 
ATOM     10  C   UNL     1      -6.262  89.222 -12.954  1.00  0.00     0.094 A 
ATOM     11  C   UNL     1      -8.699  90.011 -11.792  1.00  0.00     0.134 A 
ATOM     12  C   UNL     1      -8.244  90.600 -12.979  1.00  0.00     0.093 A 
BRANCH   3  13
ATOM     13  C   UNL     1      -5.494  85.761  -9.786  1.00  0.00     0.021 A 
ATOM     14  C   UNL     1      -4.472  86.002  -8.850  1.00  0.00     0.016 A 
ATOM     15  C   UNL     1      -3.677  84.949  -8.390  1.00  0.00     0.051 A 
ATOM     16  C   UNL     1      -3.879  83.647  -8.866  1.00  0.00     0.157 A 
ATOM     17  C   UNL     1      -5.693  84.454 -10.258  1.00  0.00     0.062 A 
ATOM     18  C   UNL     1      -4.887  83.400  -9.811  1.00  0.00     0.158 A 
BRANCH  16  19
ATOM     19  O   UNL     1      -3.077  82.601  -8.406  1.00  0.00    -0.504 OA
ATOM     20  H   UNL     1      -2.671  81.926  -9.048  1.00  0.00     0.293 HD
ENDBRANCH  16  19
BRANCH  18  21
ATOM     21  O   UNL     1      -5.092  82.123 -10.328  1.00  0.00    -0.504 OA
ATOM     22  H   UNL     1      -5.683  81.953 -11.128  1.00  0.00     0.293 HD
ENDBRANCH  18  21
ENDBRANCH   3  13
BRANCH  11  23
ATOM     23  O   UNL     1      -9.860  90.547 -11.227  1.00  0.00    -0.507 OA
ATOM     24  H   UNL     1     -10.622  90.938 -11.764  1.00  0.00     0.293 HD
ENDBRANCH  11  23
ENDBRANCH   1   2
BRANCH   1  25
ATOM     25  C   UNL     1      -5.404  90.341 -15.441  1.00  0.00     0.339 C 
ATOM     26  C   UNL     1      -4.150  91.049 -14.862  1.00  0.00     0.214 C 
ATOM     27  O   UNL     1      -5.518  90.523 -16.843  1.00  0.00    -0.332 OA
ATOM     28  C   UNL     1      -4.006  92.513 -15.354  1.00  0.00     0.180 C 
ATOM     29  C   UNL     1      -5.655  91.891 -17.185  1.00  0.00     0.179 C 
ATOM     30  C   UNL     1      -4.358  92.668 -16.849  1.00  0.00     0.177 C 
BRANCH  26  31
ATOM     31  O   UNL     1      -2.986  90.315 -15.152  1.00  0.00    -0.384 OA
ATOM     32  H   UNL     1      -3.240  89.362 -15.272  1.00  0.00     0.211 HD
ENDBRANCH  26  31
BRANCH  28  33
ATOM     33  O   UNL     1      -4.767  93.396 -14.562  1.00  0.00    -0.387 OA
ATOM     34  H   UNL     1      -4.573  93.209 -13.609  1.00  0.00     0.211 HD
ENDBRANCH  28  33
BRANCH  29  35
ATOM     35  C   UNL     1      -6.004  91.981 -18.680  1.00  0.00     0.191 C 
BRANCH  35  36
ATOM     36  O   UNL     1      -5.202  91.109 -19.433  1.00  0.00    -0.394 OA
ATOM     37  H   UNL     1      -4.648  91.676 -20.033  1.00  0.00     0.210 HD
ENDBRANCH  35  36
ENDBRANCH  29  35
BRANCH  30  38
ATOM     38  O   UNL     1      -3.284  92.190 -17.623  1.00  0.00    -0.387 OA
ATOM     39  H   UNL     1      -2.709  91.645 -17.023  1.00  0.00     0.211 HD
ENDBRANCH  30  38
ENDBRANCH   1  25
TORSDOF 11
ENDMDL
MODEL 2
REMARK VINA RESULT:    -6.136      2.289      8.955
REMARK INTER + INTRA:          -9.669
REMARK INTER:                  -8.848
REMARK INTRA:                  -0.820
REMARK UNBOUND:                -0.842
REMARK SMILES O=c1cc(-c2ccc(O)c(O)c2)oc2cc(O[C@H]3O[C@H](CO)[C@H](O)[C@@H](O)[C@@H]3O)cc(O)c12
REMARK SMILES IDX 17 1 16 2 4 3 3 4 13 5 2 6 14 7 1 8 32 9 15 10 30 11 29 12
REMARK SMILES IDX 5 13 6 14 7 15 8 16 12 17 10 18 9 19 11 21 31 23 18 25 27 26
REMARK SMILES IDX 19 27 25 28 20 29 23 30 28 31 26 33 21 35 22 36 24 38
REMARK H PARENT 9 20 11 22 31 24 28 32 26 34 22 37 24 39
REMARK Flexibility Score: inf
ROOT
ATOM      1  O   UNL     1      -6.887  87.504 -10.533  1.00  0.00    -0.462 OA
ENDROOT
BRANCH   1   2
ATOM      2  C   UNL     1      -6.341  88.712 -10.984  1.00  0.00     0.130 A 
ATOM      3  C   UNL     1      -4.622  91.180 -14.668  1.00  0.00     0.138 A 
ATOM      4  C   UNL     1      -4.171  92.224 -13.847  1.00  0.00     0.100 A 
ATOM      5  O   UNL     1      -5.272  90.154 -14.127  1.00  0.00    -0.456 OA
ATOM      6  C   UNL     1      -4.409  92.171 -12.473  1.00  0.00     0.197 A 
ATOM      7  C   UNL     1      -5.520  90.053 -12.825  1.00  0.00     0.146 A 
ATOM      8  O   UNL     1      -3.942  93.090 -11.750  1.00  0.00    -0.289 OA
ATOM      9  C   UNL     1      -5.124  91.080 -11.926  1.00  0.00     0.107 A 
ATOM     10  C   UNL     1      -6.150  88.901 -12.351  1.00  0.00     0.094 A 
ATOM     11  C   UNL     1      -5.423  90.926 -10.541  1.00  0.00     0.134 A 
ATOM     12  C   UNL     1      -5.993  89.730 -10.089  1.00  0.00     0.093 A 
BRANCH   3  13
ATOM     13  C   UNL     1      -4.386  91.187 -16.129  1.00  0.00     0.021 A 
ATOM     14  C   UNL     1      -3.083  91.201 -16.656  1.00  0.00     0.016 A 
ATOM     15  C   UNL     1      -2.883  91.169 -18.039  1.00  0.00     0.051 A 
ATOM     16  C   UNL     1      -3.978  91.139 -18.913  1.00  0.00     0.157 A 
ATOM     17  C   UNL     1      -5.479  91.154 -17.009  1.00  0.00     0.062 A 
ATOM     18  C   UNL     1      -5.282  91.139 -18.395  1.00  0.00     0.158 A 
BRANCH  16  19
ATOM     19  O   UNL     1      -3.771  91.113 -20.293  1.00  0.00    -0.504 OA
ATOM     20  H   UNL     1      -4.359  91.649 -20.925  1.00  0.00     0.293 HD
ENDBRANCH  16  19
BRANCH  18  21
ATOM     21  O   UNL     1      -6.391  91.142 -19.238  1.00  0.00    -0.504 OA
ATOM     22  H   UNL     1      -7.334  91.058 -18.889  1.00  0.00     0.293 HD
ENDBRANCH  18  21
ENDBRANCH   3  13
BRANCH  11  23
ATOM     23  O   UNL     1      -5.202  91.920  -9.583  1.00  0.00    -0.507 OA
ATOM     24  H   UNL     1      -4.601  92.721  -9.727  1.00  0.00     0.293 HD
ENDBRANCH  11  23
ENDBRANCH   1   2
BRANCH   1  25
ATOM     25  C   UNL     1      -6.773  87.056  -9.176  1.00  0.00     0.339 C 
ATOM     26  C   UNL     1      -5.369  86.455  -8.898  1.00  0.00     0.214 C 
ATOM     27  O   UNL     1      -7.814  86.148  -8.853  1.00  0.00    -0.332 OA
ATOM     28  C   UNL     1      -5.204  85.024  -9.474  1.00  0.00     0.180 C 
ATOM     29  C   UNL     1      -7.739  84.966  -9.631  1.00  0.00     0.179 C 
ATOM     30  C   UNL     1      -6.467  84.159  -9.273  1.00  0.00     0.177 C 
BRANCH  26  31
ATOM     31  O   UNL     1      -5.088  86.467  -7.520  1.00  0.00    -0.384 OA
ATOM     32  H   UNL     1      -5.748  85.883  -7.061  1.00  0.00     0.211 HD
ENDBRANCH  26  31
BRANCH  28  33
ATOM     33  O   UNL     1      -4.828  85.060 -10.831  1.00  0.00    -0.387 OA
ATOM     34  H   UNL     1      -5.194  85.886 -11.237  1.00  0.00     0.211 HD
ENDBRANCH  28  33
BRANCH  29  35
ATOM     35  C   UNL     1      -9.020  84.150  -9.390  1.00  0.00     0.191 C 
BRANCH  35  36
ATOM     36  O   UNL     1      -8.940  82.897 -10.016  1.00  0.00    -0.394 OA
ATOM     37  H   UNL     1      -8.208  82.959 -10.687  1.00  0.00     0.210 HD
ENDBRANCH  35  36
ENDBRANCH  29  35
BRANCH  30  38
ATOM     38  O   UNL     1      -6.518  83.730  -7.935  1.00  0.00    -0.387 OA
ATOM     39  H   UNL     1      -7.469  83.545  -7.720  1.00  0.00     0.211 HD
ENDBRANCH  30  38
ENDBRANCH   1  25
TORSDOF 11
ENDMDL
MODEL 3
REMARK VINA RESULT:    -6.092      3.234      4.623
REMARK INTER + INTRA:          -9.605
REMARK INTER:                  -8.597
REMARK INTRA:                  -1.008
REMARK UNBOUND:                -0.842
REMARK SMILES O=c1cc(-c2ccc(O)c(O)c2)oc2cc(O[C@H]3O[C@H](CO)[C@H](O)[C@@H](O)[C@@H]3O)cc(O)c12
REMARK SMILES IDX 17 1 16 2 4 3 3 4 13 5 2 6 14 7 1 8 32 9 15 10 30 11 29 12
REMARK SMILES IDX 5 13 6 14 7 15 8 16 12 17 10 18 9 19 11 21 31 23 18 25 27 26
REMARK SMILES IDX 19 27 25 28 20 29 23 30 28 31 26 33 21 35 22 36 24 38
REMARK H PARENT 9 20 11 22 31 24 28 32 26 34 22 37 24 39
REMARK Flexibility Score: inf
ROOT
ATOM      1  O   UNL     1      -5.475  92.323 -10.422  1.00  0.00    -0.462 OA
ENDROOT
BRANCH   1   2
ATOM      2  C   UNL     1      -5.175  91.223  -9.610  1.00  0.00     0.130 A 
ATOM      3  C   UNL     1      -6.152  86.704  -8.496  1.00  0.00     0.138 A 
ATOM      4  C   UNL     1      -5.337  86.737  -7.355  1.00  0.00     0.100 A 
ATOM      5  O   UNL     1      -6.228  87.776  -9.278  1.00  0.00    -0.456 OA
ATOM      6  C   UNL     1      -4.617  87.894  -7.056  1.00  0.00     0.197 A 
ATOM      7  C   UNL     1      -5.568  88.905  -9.036  1.00  0.00     0.146 A 
ATOM      8  O   UNL     1      -3.940  87.919  -5.994  1.00  0.00    -0.289 OA
ATOM      9  C   UNL     1      -4.697  89.013  -7.918  1.00  0.00     0.107 A 
ATOM     10  C   UNL     1      -5.772  89.994  -9.883  1.00  0.00     0.094 A 
ATOM     11  C   UNL     1      -4.006  90.242  -7.709  1.00  0.00     0.134 A 
ATOM     12  C   UNL     1      -4.284  91.337  -8.536  1.00  0.00     0.093 A 
BRANCH   3  13
ATOM     13  C   UNL     1      -6.941  85.504  -8.849  1.00  0.00     0.021 A 
ATOM     14  C   UNL     1      -6.316  84.268  -9.098  1.00  0.00     0.016 A 
ATOM     15  C   UNL     1      -7.085  83.139  -9.393  1.00  0.00     0.051 A 
ATOM     16  C   UNL     1      -8.481  83.228  -9.460  1.00  0.00     0.157 A 
ATOM     17  C   UNL     1      -8.341  85.587  -8.916  1.00  0.00     0.062 A 
ATOM     18  C   UNL     1      -9.111  84.460  -9.227  1.00  0.00     0.158 A 
BRANCH  16  19
ATOM     19  O   UNL     1      -9.241  82.097  -9.761  1.00  0.00    -0.504 OA
ATOM     20  H   UNL     1      -9.053  81.202  -9.316  1.00  0.00     0.293 HD
ENDBRANCH  16  19
BRANCH  18  21
ATOM     21  O   UNL     1     -10.495  84.589  -9.317  1.00  0.00    -0.504 OA
ATOM     22  H   UNL     1     -10.989  84.504 -10.193  1.00  0.00     0.293 HD
ENDBRANCH  18  21
ENDBRANCH   3  13
BRANCH  11  23
ATOM     23  O   UNL     1      -3.029  90.427  -6.726  1.00  0.00    -0.507 OA
ATOM     24  H   UNL     1      -3.224  90.758  -5.791  1.00  0.00     0.293 HD
ENDBRANCH  11  23
ENDBRANCH   1   2
BRANCH   1  25
ATOM     25  C   UNL     1      -4.499  92.974 -11.246  1.00  0.00     0.339 C 
ATOM     26  C   UNL     1      -5.071  94.271 -11.879  1.00  0.00     0.214 C 
ATOM     27  O   UNL     1      -3.989  92.084 -12.226  1.00  0.00    -0.332 OA
ATOM     28  C   UNL     1      -6.017  93.988 -13.075  1.00  0.00     0.180 C 
ATOM     29  C   UNL     1      -4.997  91.661 -13.127  1.00  0.00     0.179 C 
ATOM     30  C   UNL     1      -5.496  92.852 -13.982  1.00  0.00     0.177 C 
BRANCH  26  31
ATOM     31  O   UNL     1      -4.032  95.135 -12.266  1.00  0.00    -0.384 OA
ATOM     32  H   UNL     1      -4.408  95.824 -12.874  1.00  0.00     0.211 HD
ENDBRANCH  26  31
BRANCH  28  33
ATOM     33  O   UNL     1      -7.330  93.722 -12.638  1.00  0.00    -0.387 OA
ATOM     34  H   UNL     1      -7.382  93.914 -11.668  1.00  0.00     0.211 HD
ENDBRANCH  28  33
BRANCH  29  35
ATOM     35  C   UNL     1      -4.420  90.534 -13.999  1.00  0.00     0.191 C 
BRANCH  35  36
ATOM     36  O   UNL     1      -3.103  90.826 -14.386  1.00  0.00    -0.394 OA
ATOM     37  H   UNL     1      -3.099  91.769 -14.701  1.00  0.00     0.210 HD
ENDBRANCH  35  36
ENDBRANCH  29  35
BRANCH  30  38
ATOM     38  O   UNL     1      -4.455  93.351 -14.785  1.00  0.00    -0.387 OA
ATOM     39  H   UNL     1      -4.583  92.981 -15.698  1.00  0.00     0.211 HD
ENDBRANCH  30  38
ENDBRANCH   1  25
TORSDOF 11
ENDMDL
MODEL 4
REMARK VINA RESULT:    -6.046      4.723      9.854
REMARK INTER + INTRA:          -9.539
REMARK INTER:                  -8.618
REMARK INTRA:                  -0.921
REMARK UNBOUND:                -0.842
REMARK SMILES O=c1cc(-c2ccc(O)c(O)c2)oc2cc(O[C@H]3O[C@H](CO)[C@H](O)[C@@H](O)[C@@H]3O)cc(O)c12
REMARK SMILES IDX 17 1 16 2 4 3 3 4 13 5 2 6 14 7 1 8 32 9 15 10 30 11 29 12
REMARK SMILES IDX 5 13 6 14 7 15 8 16 12 17 10 18 9 19 11 21 31 23 18 25 27 26
REMARK SMILES IDX 19 27 25 28 20 29 23 30 28 31 26 33 21 35 22 36 24 38
REMARK H PARENT 9 20 11 22 31 24 28 32 26 34 22 37 24 39
REMARK Flexibility Score: inf
ROOT
ATOM      1  O   UNL     1      -9.415  83.771  -9.533  1.00  0.00    -0.462 OA
ENDROOT
BRANCH   1   2
ATOM      2  C   UNL     1      -8.104  84.126  -9.196  1.00  0.00     0.130 A 
ATOM      3  C   UNL     1      -4.973  87.644  -8.534  1.00  0.00     0.138 A 
ATOM      4  C   UNL     1      -3.893  86.755  -8.427  1.00  0.00     0.100 A 
ATOM      5  O   UNL     1      -6.202  87.165  -8.697  1.00  0.00    -0.456 OA
ATOM      6  C   UNL     1      -4.123  85.380  -8.494  1.00  0.00     0.197 A 
ATOM      7  C   UNL     1      -6.475  85.866  -8.773  1.00  0.00     0.146 A 
ATOM      8  O   UNL     1      -3.130  84.606  -8.456  1.00  0.00    -0.289 OA
ATOM      9  C   UNL     1      -5.443  84.896  -8.644  1.00  0.00     0.107 A 
ATOM     10  C   UNL     1      -7.791  85.472  -9.014  1.00  0.00     0.094 A 
ATOM     11  C   UNL     1      -5.791  83.517  -8.723  1.00  0.00     0.134 A 
ATOM     12  C   UNL     1      -7.108  83.156  -9.033  1.00  0.00     0.093 A 
BRANCH   3  13
ATOM     13  C   UNL     1      -4.777  89.109  -8.478  1.00  0.00     0.021 A 
ATOM     14  C   UNL     1      -4.123  89.717  -7.392  1.00  0.00     0.016 A 
ATOM     15  C   UNL     1      -3.916  91.099  -7.378  1.00  0.00     0.051 A 
ATOM     16  C   UNL     1      -4.372  91.895  -8.437  1.00  0.00     0.157 A 
ATOM     17  C   UNL     1      -5.230  89.911  -9.538  1.00  0.00     0.062 A 
ATOM     18  C   UNL     1      -5.039  91.298  -9.519  1.00  0.00     0.158 A 
BRANCH  16  19
ATOM     19  O   UNL     1      -4.167  93.275  -8.414  1.00  0.00    -0.504 OA
ATOM     20  H   UNL     1      -3.896  93.782  -9.252  1.00  0.00     0.293 HD
ENDBRANCH  16  19
BRANCH  18  21
ATOM     21  O   UNL     1      -5.532  92.065 -10.572  1.00  0.00    -0.504 OA
ATOM     22  H   UNL     1      -5.726  91.673 -11.480  1.00  0.00     0.293 HD
ENDBRANCH  18  21
ENDBRANCH   3  13
BRANCH  11  23
ATOM     23  O   UNL     1      -4.892  82.474  -8.483  1.00  0.00    -0.507 OA
ATOM     24  H   UNL     1      -4.511  82.253  -7.573  1.00  0.00     0.293 HD
ENDBRANCH  11  23
ENDBRANCH   1   2
BRANCH   1  25
ATOM     25  C   UNL     1     -10.321  83.162  -8.603  1.00  0.00     0.339 C 
ATOM     26  C   UNL     1     -10.494  81.647  -8.896  1.00  0.00     0.214 C 
ATOM     27  O   UNL     1     -11.564  83.845  -8.586  1.00  0.00    -0.332 OA
ATOM     28  C   UNL     1     -11.419  81.371 -10.110  1.00  0.00     0.180 C 
ATOM     29  C   UNL     1     -12.224  83.766  -9.837  1.00  0.00     0.179 C 
ATOM     30  C   UNL     1     -12.647  82.307 -10.138  1.00  0.00     0.177 C 
BRANCH  26  31
ATOM     31  O   UNL     1     -10.963  80.971  -7.756  1.00  0.00    -0.384 OA
ATOM     32  H   UNL     1     -10.420  81.259  -6.976  1.00  0.00     0.211 HD
ENDBRANCH  26  31
BRANCH  28  33
ATOM     33  O   UNL     1     -10.705  81.440 -11.323  1.00  0.00    -0.387 OA
ATOM     34  H   UNL     1     -11.026  80.715 -11.917  1.00  0.00     0.211 HD
ENDBRANCH  28  33
BRANCH  29  35
ATOM     35  C   UNL     1     -13.433  84.716  -9.804  1.00  0.00     0.191 C 
BRANCH  35  36
ATOM     36  O   UNL     1     -14.450  84.261 -10.657  1.00  0.00    -0.394 OA
ATOM     37  H   UNL     1     -14.266  84.650 -11.554  1.00  0.00     0.210 HD
ENDBRANCH  35  36
ENDBRANCH  29  35
BRANCH  30  38
ATOM     38  O   UNL     1     -13.583  81.861  -9.188  1.00  0.00    -0.387 OA
ATOM     39  H   UNL     1     -14.135  82.644  -8.927  1.00  0.00     0.211 HD
ENDBRANCH  30  38
ENDBRANCH   1  25
TORSDOF 11
ENDMDL
MODEL 5
REMARK VINA RESULT:    -5.971      2.578      9.074
REMARK INTER + INTRA:          -9.431
REMARK INTER:                  -8.401
REMARK INTRA:                  -1.030
REMARK UNBOUND:                -0.842
REMARK SMILES O=c1cc(-c2ccc(O)c(O)c2)oc2cc(O[C@H]3O[C@H](CO)[C@H](O)[C@@H](O)[C@@H]3O)cc(O)c12
REMARK SMILES IDX 17 1 16 2 4 3 3 4 13 5 2 6 14 7 1 8 32 9 15 10 30 11 29 12
REMARK SMILES IDX 5 13 6 14 7 15 8 16 12 17 10 18 9 19 11 21 31 23 18 25 27 26
REMARK SMILES IDX 19 27 25 28 20 29 23 30 28 31 26 33 21 35 22 36 24 38
REMARK H PARENT 9 20 11 22 31 24 28 32 26 34 22 37 24 39
REMARK Flexibility Score: inf
ROOT
ATOM      1  O   UNL     1      -6.207  87.991  -8.862  1.00  0.00    -0.462 OA
ENDROOT
BRANCH   1   2
ATOM      2  C   UNL     1      -5.801  89.197  -9.447  1.00  0.00     0.130 A 
ATOM      3  C   UNL     1      -4.706  91.513 -13.453  1.00  0.00     0.138 A 
ATOM      4  C   UNL     1      -4.229  92.633 -12.756  1.00  0.00     0.100 A 
ATOM      5  O   UNL     1      -5.216  90.490 -12.777  1.00  0.00    -0.456 OA
ATOM      6  C   UNL     1      -4.295  92.658 -11.363  1.00  0.00     0.197 A 
ATOM      7  C   UNL     1      -5.298  90.459 -11.450  1.00  0.00     0.146 A 
ATOM      8  O   UNL     1      -3.806  93.648 -10.759  1.00  0.00    -0.289 OA
ATOM      9  C   UNL     1      -4.866  91.565 -10.668  1.00  0.00     0.107 A 
ATOM     10  C   UNL     1      -5.789  89.306 -10.836  1.00  0.00     0.094 A 
ATOM     11  C   UNL     1      -4.984  91.485  -9.251  1.00  0.00     0.134 A 
ATOM     12  C   UNL     1      -5.415  90.290  -8.663  1.00  0.00     0.093 A 
BRANCH   3  13
ATOM     13  C   UNL     1      -4.648  91.438 -14.930  1.00  0.00     0.021 A 
ATOM     14  C   UNL     1      -5.404  90.490 -15.642  1.00  0.00     0.016 A 
ATOM     15  C   UNL     1      -5.363  90.463 -17.038  1.00  0.00     0.051 A 
ATOM     16  C   UNL     1      -4.557  91.367 -17.742  1.00  0.00     0.157 A 
ATOM     17  C   UNL     1      -3.843  92.344 -15.640  1.00  0.00     0.062 A 
ATOM     18  C   UNL     1      -3.788  92.308 -17.039  1.00  0.00     0.158 A 
BRANCH  16  19
ATOM     19  O   UNL     1      -4.516  91.330 -19.136  1.00  0.00    -0.504 OA
ATOM     20  H   UNL     1      -3.997  90.609 -19.630  1.00  0.00     0.293 HD
ENDBRANCH  16  19
BRANCH  18  21
ATOM     21  O   UNL     1      -2.952  93.199 -17.707  1.00  0.00    -0.504 OA
ATOM     22  H   UNL     1      -2.459  93.937 -17.229  1.00  0.00     0.293 HD
ENDBRANCH  18  21
ENDBRANCH   3  13
BRANCH  11  23
ATOM     23  O   UNL     1      -4.715  92.551  -8.387  1.00  0.00    -0.507 OA
ATOM     24  H   UNL     1      -5.090  93.482  -8.504  1.00  0.00     0.293 HD
ENDBRANCH  11  23
ENDBRANCH   1   2
BRANCH   1  25
ATOM     25  C   UNL     1      -6.258  86.753  -9.583  1.00  0.00     0.339 C 
ATOM     26  C   UNL     1      -7.487  85.905  -9.159  1.00  0.00     0.214 C 
ATOM     27  O   UNL     1      -5.043  86.035  -9.443  1.00  0.00    -0.332 OA
ATOM     28  C   UNL     1      -7.287  85.200  -7.792  1.00  0.00     0.180 C 
ATOM     29  C   UNL     1      -4.807  85.660  -8.098  1.00  0.00     0.179 C 
ATOM     30  C   UNL     1      -5.862  84.629  -7.628  1.00  0.00     0.177 C 
BRANCH  26  31
ATOM     31  O   UNL     1      -7.811  84.967 -10.155  1.00  0.00    -0.384 OA
ATOM     32  H   UNL     1      -7.135  85.034 -10.879  1.00  0.00     0.211 HD
ENDBRANCH  26  31
BRANCH  28  33
ATOM     33  O   UNL     1      -7.613  86.056  -6.722  1.00  0.00    -0.387 OA
ATOM     34  H   UNL     1      -8.538  85.855  -6.429  1.00  0.00     0.211 HD
ENDBRANCH  28  33
BRANCH  29  35
ATOM     35  C   UNL     1      -3.378  85.100  -7.998  1.00  0.00     0.191 C 
BRANCH  35  36
ATOM     36  O   UNL     1      -3.092  84.264  -9.088  1.00  0.00    -0.394 OA
ATOM     37  H   UNL     1      -2.384  83.634  -8.788  1.00  0.00     0.210 HD
ENDBRANCH  35  36
ENDBRANCH  29  35
BRANCH  30  38
ATOM     38  O   UNL     1      -5.757  83.442  -8.376  1.00  0.00    -0.387 OA
ATOM     39  H   UNL     1      -6.512  83.433  -9.022  1.00  0.00     0.211 HD
ENDBRANCH  30  38
ENDBRANCH   1  25
TORSDOF 11
ENDMDL
MODEL 6
REMARK VINA RESULT:    -5.915      5.076     10.369
REMARK INTER + INTRA:          -9.351
REMARK INTER:                  -8.622
REMARK INTRA:                  -0.729
REMARK UNBOUND:                -0.842
REMARK SMILES O=c1cc(-c2ccc(O)c(O)c2)oc2cc(O[C@H]3O[C@H](CO)[C@H](O)[C@@H](O)[C@@H]3O)cc(O)c12
REMARK SMILES IDX 17 1 16 2 4 3 3 4 13 5 2 6 14 7 1 8 32 9 15 10 30 11 29 12
REMARK SMILES IDX 5 13 6 14 7 15 8 16 12 17 10 18 9 19 11 21 31 23 18 25 27 26
REMARK SMILES IDX 19 27 25 28 20 29 23 30 28 31 26 33 21 35 22 36 24 38
REMARK H PARENT 9 20 11 22 31 24 28 32 26 34 22 37 24 39
REMARK Flexibility Score: inf
ROOT
ATOM      1  O   UNL     1     -11.518  84.623  -8.914  1.00  0.00    -0.462 OA
ENDROOT
BRANCH   1   2
ATOM      2  C   UNL     1     -10.125  84.685  -9.046  1.00  0.00     0.130 A 
ATOM      3  C   UNL     1      -6.258  87.445  -9.251  1.00  0.00     0.138 A 
ATOM      4  C   UNL     1      -5.431  86.376  -9.626  1.00  0.00     0.100 A 
ATOM      5  O   UNL     1      -7.544  87.221  -8.999  1.00  0.00    -0.456 OA
ATOM      6  C   UNL     1      -5.968  85.093  -9.730  1.00  0.00     0.197 A 
ATOM      7  C   UNL     1      -8.107  86.020  -9.088  1.00  0.00     0.146 A 
ATOM      8  O   UNL     1      -5.219  84.162 -10.127  1.00  0.00    -0.289 OA
ATOM      9  C   UNL     1      -7.335  84.878  -9.433  1.00  0.00     0.107 A 
ATOM     10  C   UNL     1      -9.480  85.907  -8.868  1.00  0.00     0.094 A 
ATOM     11  C   UNL     1      -7.985  83.612  -9.505  1.00  0.00     0.134 A 
ATOM     12  C   UNL     1      -9.374  83.542  -9.347  1.00  0.00     0.093 A 
BRANCH   3  13
ATOM     13  C   UNL     1      -5.736  88.825  -9.136  1.00  0.00     0.021 A 
ATOM     14  C   UNL     1      -6.247  89.866  -9.930  1.00  0.00     0.016 A 
ATOM     15  C   UNL     1      -5.765  91.169  -9.777  1.00  0.00     0.051 A 
ATOM     16  C   UNL     1      -4.757  91.447  -8.844  1.00  0.00     0.157 A 
ATOM     17  C   UNL     1      -4.729  89.109  -8.201  1.00  0.00     0.062 A 
ATOM     18  C   UNL     1      -4.232  90.411  -8.057  1.00  0.00     0.158 A 
BRANCH  16  19
ATOM     19  O   UNL     1      -4.277  92.750  -8.701  1.00  0.00    -0.504 OA
ATOM     20  H   UNL     1      -3.639  92.997  -7.949  1.00  0.00     0.293 HD
ENDBRANCH  16  19
BRANCH  18  21
ATOM     21  O   UNL     1      -3.208  90.649  -7.143  1.00  0.00    -0.504 OA
ATOM     22  H   UNL     1      -2.647  91.487  -7.168  1.00  0.00     0.293 HD
ENDBRANCH  18  21
ENDBRANCH   3  13
BRANCH  11  23
ATOM     23  O   UNL     1      -7.313  82.403  -9.706  1.00  0.00    -0.507 OA
ATOM     24  H   UNL     1      -7.224  81.682  -9.004  1.00  0.00     0.293 HD
ENDBRANCH  11  23
ENDBRANCH   1   2
BRANCH   1  25
ATOM     25  C   UNL     1     -12.331  83.698  -9.648  1.00  0.00     0.339 C 
ATOM     26  C   UNL     1     -13.805  84.179  -9.719  1.00  0.00     0.214 C 
ATOM     27  O   UNL     1     -12.224  82.391  -9.109  1.00  0.00    -0.332 OA
ATOM     28  C   UNL     1     -14.579  83.941  -8.396  1.00  0.00     0.180 C 
ATOM     29  C   UNL     1     -12.714  82.328  -7.781  1.00  0.00     0.179 C 
ATOM     30  C   UNL     1     -14.243  82.578  -7.755  1.00  0.00     0.177 C 
BRANCH  26  31
ATOM     31  O   UNL     1     -14.474  83.572 -10.797  1.00  0.00    -0.384 OA
ATOM     32  H   UNL     1     -15.433  83.824 -10.753  1.00  0.00     0.211 HD
ENDBRANCH  26  31
BRANCH  28  33
ATOM     33  O   UNL     1     -14.368  84.994  -7.484  1.00  0.00    -0.387 OA
ATOM     34  H   UNL     1     -13.415  84.988  -7.213  1.00  0.00     0.211 HD
ENDBRANCH  28  33
BRANCH  29  35
ATOM     35  C   UNL     1     -12.350  80.953  -7.199  1.00  0.00     0.191 C 
BRANCH  35  36
ATOM     36  O   UNL     1     -12.589  79.934  -8.134  1.00  0.00    -0.394 OA
ATOM     37  H   UNL     1     -13.331  80.249  -8.716  1.00  0.00     0.210 HD
ENDBRANCH  35  36
ENDBRANCH  29  35
BRANCH  30  38
ATOM     38  O   UNL     1     -14.919  81.564  -8.457  1.00  0.00    -0.387 OA
ATOM     39  H   UNL     1     -15.855  81.549  -8.126  1.00  0.00     0.211 HD
ENDBRANCH  30  38
ENDBRANCH   1  25
TORSDOF 11
ENDMDL
MODEL 7
REMARK VINA RESULT:    -5.831      6.747     10.143
REMARK INTER + INTRA:          -9.229
REMARK INTER:                  -8.272
REMARK INTRA:                  -0.957
REMARK UNBOUND:                -0.842
REMARK SMILES O=c1cc(-c2ccc(O)c(O)c2)oc2cc(O[C@H]3O[C@H](CO)[C@H](O)[C@@H](O)[C@@H]3O)cc(O)c12
REMARK SMILES IDX 17 1 16 2 4 3 3 4 13 5 2 6 14 7 1 8 32 9 15 10 30 11 29 12
REMARK SMILES IDX 5 13 6 14 7 15 8 16 12 17 10 18 9 19 11 21 31 23 18 25 27 26
REMARK SMILES IDX 19 27 25 28 20 29 23 30 28 31 26 33 21 35 22 36 24 38
REMARK H PARENT 9 20 11 22 31 24 28 32 26 34 22 37 24 39
REMARK Flexibility Score: inf
ROOT
ATOM      1  O   UNL     1      -7.421  84.226  -8.361  1.00  0.00    -0.462 OA
ENDROOT
BRANCH   1   2
ATOM      2  C   UNL     1      -8.763  83.922  -8.621  1.00  0.00     0.130 A 
ATOM      3  C   UNL     1     -13.123  85.585  -9.538  1.00  0.00     0.138 A 
ATOM      4  C   UNL     1     -13.711  84.320  -9.390  1.00  0.00     0.100 A 
ATOM      5  O   UNL     1     -11.805  85.713  -9.421  1.00  0.00    -0.456 OA
ATOM      6  C   UNL     1     -12.906  83.213  -9.122  1.00  0.00     0.197 A 
ATOM      7  C   UNL     1     -10.993  84.692  -9.160  1.00  0.00     0.146 A 
ATOM      8  O   UNL     1     -13.464  82.100  -8.934  1.00  0.00    -0.289 OA
ATOM      9  C   UNL     1     -11.503  83.372  -9.026  1.00  0.00     0.107 A 
ATOM     10  C   UNL     1      -9.632  84.946  -8.990  1.00  0.00     0.094 A 
ATOM     11  C   UNL     1     -10.590  82.313  -8.756  1.00  0.00     0.134 A 
ATOM     12  C   UNL     1      -9.241  82.610  -8.522  1.00  0.00     0.093 A 
BRANCH   3  13
ATOM     13  C   UNL     1     -13.936  86.790  -9.814  1.00  0.00     0.021 A 
ATOM     14  C   UNL     1     -13.342  87.987 -10.251  1.00  0.00     0.016 A 
ATOM     15  C   UNL     1     -14.134  89.100 -10.542  1.00  0.00     0.051 A 
ATOM     16  C   UNL     1     -15.525  89.041 -10.388  1.00  0.00     0.157 A 
ATOM     17  C   UNL     1     -15.331  86.735  -9.663  1.00  0.00     0.062 A 
ATOM     18  C   UNL     1     -16.126  87.854  -9.939  1.00  0.00     0.158 A 
BRANCH  16  19
ATOM     19  O   UNL     1     -16.309  90.159 -10.675  1.00  0.00    -0.504 OA
ATOM     20  H   UNL     1     -16.711  90.298 -11.599  1.00  0.00     0.293 HD
ENDBRANCH  16  19
BRANCH  18  21
ATOM     21  O   UNL     1     -17.503  87.773  -9.745  1.00  0.00    -0.504 OA
ATOM     22  H   UNL     1     -17.907  87.420  -8.891  1.00  0.00     0.293 HD
ENDBRANCH  18  21
ENDBRANCH   3  13
BRANCH  11  23
ATOM     23  O   UNL     1     -10.950  80.962  -8.731  1.00  0.00    -0.507 OA
ATOM     24  H   UNL     1     -10.484  80.242  -9.265  1.00  0.00     0.293 HD
ENDBRANCH  11  23
ENDBRANCH   1   2
BRANCH   1  25
ATOM     25  C   UNL     1      -6.413  84.238  -9.381  1.00  0.00     0.339 C 
ATOM     26  C   UNL     1      -5.586  82.924  -9.370  1.00  0.00     0.214 C 
ATOM     27  O   UNL     1      -5.588  85.386  -9.265  1.00  0.00    -0.332 OA
ATOM     28  C   UNL     1      -4.545  82.879  -8.221  1.00  0.00     0.180 C 
ATOM     29  C   UNL     1      -4.868  85.394  -8.044  1.00  0.00     0.179 C 
ATOM     30  C   UNL     1      -3.840  84.237  -8.013  1.00  0.00     0.177 C 
BRANCH  26  31
ATOM     31  O   UNL     1      -4.959  82.722 -10.612  1.00  0.00    -0.384 OA
ATOM     32  H   UNL     1      -4.212  83.372 -10.694  1.00  0.00     0.211 HD
ENDBRANCH  26  31
BRANCH  28  33
ATOM     33  O   UNL     1      -5.127  82.425  -7.021  1.00  0.00    -0.387 OA
ATOM     34  H   UNL     1      -5.927  81.885  -7.244  1.00  0.00     0.211 HD
ENDBRANCH  28  33
BRANCH  29  35
ATOM     35  C   UNL     1      -4.190  86.766  -7.895  1.00  0.00     0.191 C 
BRANCH  35  36
ATOM     36  O   UNL     1      -2.981  86.652  -7.192  1.00  0.00    -0.394 OA
ATOM     37  H   UNL     1      -2.447  85.951  -7.653  1.00  0.00     0.210 HD
ENDBRANCH  35  36
ENDBRANCH  29  35
BRANCH  30  38
ATOM     38  O   UNL     1      -2.876  84.409  -9.024  1.00  0.00    -0.387 OA
ATOM     39  H   UNL     1      -2.578  83.504  -9.304  1.00  0.00     0.211 HD
ENDBRANCH  30  38
ENDBRANCH   1  25
TORSDOF 11
ENDMDL
MODEL 8
REMARK VINA RESULT:    -5.827      3.253      4.321
REMARK INTER + INTRA:          -9.225
REMARK INTER:                  -8.259
REMARK INTRA:                  -0.966
REMARK UNBOUND:                -0.842
REMARK SMILES O=c1cc(-c2ccc(O)c(O)c2)oc2cc(O[C@H]3O[C@H](CO)[C@H](O)[C@@H](O)[C@@H]3O)cc(O)c12
REMARK SMILES IDX 17 1 16 2 4 3 3 4 13 5 2 6 14 7 1 8 32 9 15 10 30 11 29 12
REMARK SMILES IDX 5 13 6 14 7 15 8 16 12 17 10 18 9 19 11 21 31 23 18 25 27 26
REMARK SMILES IDX 19 27 25 28 20 29 23 30 28 31 26 33 21 35 22 36 24 38
REMARK H PARENT 9 20 11 22 31 24 28 32 26 34 22 37 24 39
REMARK Flexibility Score: inf
ROOT
ATOM      1  O   UNL     1      -4.852  92.770 -14.869  1.00  0.00    -0.462 OA
ENDROOT
BRANCH   1   2
ATOM      2  C   UNL     1      -4.758  92.911 -13.479  1.00  0.00     0.130 A 
ATOM      3  C   UNL     1      -4.748  90.747  -9.245  1.00  0.00     0.138 A 
ATOM      4  C   UNL     1      -4.805  91.963  -8.547  1.00  0.00     0.100 A 
ATOM      5  O   UNL     1      -4.682  90.757 -10.572  1.00  0.00    -0.456 OA
ATOM      6  C   UNL     1      -4.792  93.165  -9.255  1.00  0.00     0.197 A 
ATOM      7  C   UNL     1      -4.673  91.873 -11.295  1.00  0.00     0.146 A 
ATOM      8  O   UNL     1      -4.905  94.240  -8.609  1.00  0.00    -0.289 OA
ATOM      9  C   UNL     1      -4.697  93.148 -10.666  1.00  0.00     0.107 A 
ATOM     10  C   UNL     1      -4.670  91.769 -12.686  1.00  0.00     0.094 A 
ATOM     11  C   UNL     1      -4.676  94.312 -11.486  1.00  0.00     0.134 A 
ATOM     12  C   UNL     1      -4.743  94.175 -12.878  1.00  0.00     0.093 A 
BRANCH   3  13
ATOM     13  C   UNL     1      -4.767  89.448  -8.538  1.00  0.00     0.021 A 
ATOM     14  C   UNL     1      -5.503  88.358  -9.036  1.00  0.00     0.016 A 
ATOM     15  C   UNL     1      -5.475  87.129  -8.372  1.00  0.00     0.051 A 
ATOM     16  C   UNL     1      -4.729  86.974  -7.196  1.00  0.00     0.157 A 
ATOM     17  C   UNL     1      -4.019  89.287  -7.361  1.00  0.00     0.062 A 
ATOM     18  C   UNL     1      -4.004  88.060  -6.685  1.00  0.00     0.158 A 
BRANCH  16  19
ATOM     19  O   UNL     1      -4.712  85.745  -6.536  1.00  0.00    -0.504 OA
ATOM     20  H   UNL     1      -3.847  85.224  -6.413  1.00  0.00     0.293 HD
ENDBRANCH  16  19
BRANCH  18  21
ATOM     21  O   UNL     1      -3.278  87.948  -5.501  1.00  0.00    -0.504 OA
ATOM     22  H   UNL     1      -2.315  88.239  -5.429  1.00  0.00     0.293 HD
ENDBRANCH  18  21
ENDBRANCH   3  13
BRANCH  11  23
ATOM     23  O   UNL     1      -4.567  95.613 -10.986  1.00  0.00    -0.507 OA
ATOM     24  H   UNL     1      -5.121  96.393 -11.313  1.00  0.00     0.293 HD
ENDBRANCH  11  23
ENDBRANCH   1   2
BRANCH   1  25
ATOM     25  C   UNL     1      -5.504  91.658 -15.498  1.00  0.00     0.339 C 
ATOM     26  C   UNL     1      -4.491  90.781 -16.280  1.00  0.00     0.214 C 
ATOM     27  O   UNL     1      -6.574  92.097 -16.320  1.00  0.00    -0.332 OA
ATOM     28  C   UNL     1      -4.071  91.409 -17.634  1.00  0.00     0.180 C 
ATOM     29  C   UNL     1      -6.114  92.901 -17.393  1.00  0.00     0.179 C 
ATOM     30  C   UNL     1      -5.259  92.061 -18.374  1.00  0.00     0.177 C 
BRANCH  26  31
ATOM     31  O   UNL     1      -5.004  89.486 -16.476  1.00  0.00    -0.384 OA
ATOM     32  H   UNL     1      -4.558  88.873 -15.835  1.00  0.00     0.211 HD
ENDBRANCH  26  31
BRANCH  28  33
ATOM     33  O   UNL     1      -3.017  92.329 -17.465  1.00  0.00    -0.387 OA
ATOM     34  H   UNL     1      -2.631  92.202 -16.562  1.00  0.00     0.211 HD
ENDBRANCH  28  33
BRANCH  29  35
ATOM     35  C   UNL     1      -7.339  93.519 -18.089  1.00  0.00     0.191 C 
BRANCH  35  36
ATOM     36  O   UNL     1      -7.119  93.644 -19.469  1.00  0.00    -0.394 OA
ATOM     37  H   UNL     1      -6.979  94.612 -19.650  1.00  0.00     0.210 HD
ENDBRANCH  35  36
ENDBRANCH  29  35
BRANCH  30  38
ATOM     38  O   UNL     1      -6.039  91.049 -18.964  1.00  0.00    -0.387 OA
ATOM     39  H   UNL     1      -5.462  90.246 -19.052  1.00  0.00     0.211 HD
ENDBRANCH  30  38
ENDBRANCH   1  25
TORSDOF 11
ENDMDL
MODEL 9
REMARK VINA RESULT:    -5.751      1.895      8.653
REMARK INTER + INTRA:          -9.114
REMARK INTER:                  -8.356
REMARK INTRA:                  -0.759
REMARK UNBOUND:                -0.842
REMARK SMILES O=c1cc(-c2ccc(O)c(O)c2)oc2cc(O[C@H]3O[C@H](CO)[C@H](O)[C@@H](O)[C@@H]3O)cc(O)c12
REMARK SMILES IDX 17 1 16 2 4 3 3 4 13 5 2 6 14 7 1 8 32 9 15 10 30 11 29 12
REMARK SMILES IDX 5 13 6 14 7 15 8 16 12 17 10 18 9 19 11 21 31 23 18 25 27 26
REMARK SMILES IDX 19 27 25 28 20 29 23 30 28 31 26 33 21 35 22 36 24 38
REMARK H PARENT 9 20 11 22 31 24 28 32 26 34 22 37 24 39
REMARK Flexibility Score: inf
ROOT
ATOM      1  O   UNL     1      -6.618  85.901  -9.761  1.00  0.00    -0.462 OA
ENDROOT
BRANCH   1   2
ATOM      2  C   UNL     1      -6.714  87.236 -10.174  1.00  0.00     0.130 A 
ATOM      3  C   UNL     1      -5.556  90.490 -13.443  1.00  0.00     0.138 A 
ATOM      4  C   UNL     1      -6.043  91.548 -12.661  1.00  0.00     0.100 A 
ATOM      5  O   UNL     1      -5.670  89.242 -13.000  1.00  0.00    -0.456 OA
ATOM      6  C   UNL     1      -6.638  91.277 -11.429  1.00  0.00     0.197 A 
ATOM      7  C   UNL     1      -6.223  88.929 -11.832  1.00  0.00     0.146 A 
ATOM      8  O   UNL     1      -7.012  92.248 -10.720  1.00  0.00    -0.289 OA
ATOM      9  C   UNL     1      -6.769  89.938 -10.991  1.00  0.00     0.107 A 
ATOM     10  C   UNL     1      -6.231  87.593 -11.431  1.00  0.00     0.094 A 
ATOM     11  C   UNL     1      -7.359  89.549  -9.755  1.00  0.00     0.134 A 
ATOM     12  C   UNL     1      -7.289  88.210  -9.350  1.00  0.00     0.093 A 
BRANCH   3  13
ATOM     13  C   UNL     1      -4.909  90.728 -14.752  1.00  0.00     0.021 A 
ATOM     14  C   UNL     1      -3.538  91.026 -14.844  1.00  0.00     0.016 A 
ATOM     15  C   UNL     1      -2.941  91.210 -16.094  1.00  0.00     0.051 A 
ATOM     16  C   UNL     1      -3.703  91.116 -17.265  1.00  0.00     0.157 A 
ATOM     17  C   UNL     1      -5.668  90.632 -15.929  1.00  0.00     0.062 A 
ATOM     18  C   UNL     1      -5.075  90.832 -17.182  1.00  0.00     0.158 A 
BRANCH  16  19
ATOM     19  O   UNL     1      -3.101  91.306 -18.509  1.00  0.00    -0.504 OA
ATOM     20  H   UNL     1      -3.647  91.572 -19.325  1.00  0.00     0.293 HD
ENDBRANCH  16  19
BRANCH  18  21
ATOM     21  O   UNL     1      -5.867  90.763 -18.325  1.00  0.00    -0.504 OA
ATOM     22  H   UNL     1      -6.813  91.112 -18.348  1.00  0.00     0.293 HD
ENDBRANCH  18  21
ENDBRANCH   3  13
BRANCH  11  23
ATOM     23  O   UNL     1      -8.039  90.428  -8.907  1.00  0.00    -0.507 OA
ATOM     24  H   UNL     1      -8.300  90.208  -7.956  1.00  0.00     0.293 HD
ENDBRANCH  11  23
ENDBRANCH   1   2
BRANCH   1  25
ATOM     25  C   UNL     1      -5.541  85.039 -10.152  1.00  0.00     0.339 C 
ATOM     26  C   UNL     1      -5.819  83.569  -9.739  1.00  0.00     0.214 C 
ATOM     27  O   UNL     1      -4.305  85.511  -9.640  1.00  0.00    -0.332 OA
ATOM     28  C   UNL     1      -5.587  83.315  -8.226  1.00  0.00     0.180 C 
ATOM     29  C   UNL     1      -4.283  85.497  -8.223  1.00  0.00     0.179 C 
ATOM     30  C   UNL     1      -4.333  84.042  -7.693  1.00  0.00     0.177 C 
BRANCH  26  31
ATOM     31  O   UNL     1      -5.047  82.682 -10.511  1.00  0.00    -0.384 OA
ATOM     32  H   UNL     1      -5.360  81.757 -10.331  1.00  0.00     0.211 HD
ENDBRANCH  26  31
BRANCH  28  33
ATOM     33  O   UNL     1      -6.726  83.655  -7.470  1.00  0.00    -0.387 OA
ATOM     34  H   UNL     1      -7.308  84.235  -8.023  1.00  0.00     0.211 HD
ENDBRANCH  28  33
BRANCH  29  35
ATOM     35  C   UNL     1      -3.017  86.232  -7.755  1.00  0.00     0.191 C 
BRANCH  35  36
ATOM     36  O   UNL     1      -3.169  87.621  -7.882  1.00  0.00    -0.394 OA
ATOM     37  H   UNL     1      -2.391  87.948  -8.408  1.00  0.00     0.210 HD
ENDBRANCH  35  36
ENDBRANCH  29  35
BRANCH  30  38
ATOM     38  O   UNL     1      -3.188  83.332  -8.097  1.00  0.00    -0.387 OA
ATOM     39  H   UNL     1      -2.432  83.649  -7.536  1.00  0.00     0.211 HD
ENDBRANCH  30  38
ENDBRANCH   1  25
TORSDOF 11
ENDMDL
