MODEL 1
REMARK VINA RESULT:    -4.795      0.000      0.000
REMARK INTER + INTRA:          -6.101
REMARK INTER:                  -5.776
REMARK INTRA:                  -0.325
REMARK UNBOUND:                -0.325
REMARK SMILES O=c1c(O)c(-c2ccc(O)c(O)c2)oc2cc(O)cc(O)c12
REMARK SMILES IDX 5 1 3 2 2 3 1 4 22 5 20 6 19 7 17 8 16 9 15 10 14 11 6 12
REMARK SMILES IDX 7 13 8 14 9 15 13 16 11 17 10 18 12 20 4 22 21 24 18 26
REMARK H PARENT 10 19 12 21 4 23 21 25 18 27
REMARK Flexibility Score: inf
ROOT
ATOM      1  C   UNL     1     -39.216   4.125  30.449  1.00  0.00     0.180 A 
ATOM      2  C   UNL     1     -38.644   5.025  29.535  1.00  0.00     0.208 A 
ATOM      3  C   UNL     1     -38.803   4.792  28.158  1.00  0.00     0.238 A 
ATOM      4  O   UNL     1     -38.354   5.642  27.347  1.00  0.00    -0.285 OA
ATOM      5  C   UNL     1     -39.482   3.631  27.715  1.00  0.00     0.111 A 
ATOM      6  C   UNL     1     -39.662   3.270  26.344  1.00  0.00     0.134 A 
ATOM      7  C   UNL     1     -40.443   2.154  26.022  1.00  0.00     0.093 A 
ATOM      8  C   UNL     1     -40.996   1.348  27.020  1.00  0.00     0.123 A 
ATOM      9  C   UNL     1     -40.779   1.660  28.360  1.00  0.00     0.094 A 
ATOM     10  C   UNL     1     -40.038   2.790  28.713  1.00  0.00     0.146 A 
ATOM     11  O   UNL     1     -39.875   3.062  30.003  1.00  0.00    -0.452 OA
ENDROOT
BRANCH   1  12
ATOM     12  C   UNL     1     -39.105   4.311  31.913  1.00  0.00     0.025 A 
ATOM     13  C   UNL     1     -38.004   3.770  32.597  1.00  0.00     0.016 A 
ATOM     14  C   UNL     1     -37.888   3.915  33.981  1.00  0.00     0.051 A 
ATOM     15  C   UNL     1     -38.880   4.591  34.705  1.00  0.00     0.157 A 
ATOM     16  C   UNL     1     -40.107   4.971  32.647  1.00  0.00     0.062 A 
ATOM     17  C   UNL     1     -39.993   5.116  34.037  1.00  0.00     0.158 A 
BRANCH  15  18
ATOM     18  O   UNL     1     -38.767   4.740  36.086  1.00  0.00    -0.504 OA
ATOM     19  H   UNL     1     -39.344   5.398  36.597  1.00  0.00     0.293 HD
ENDBRANCH  15  18
BRANCH  17  20
ATOM     20  O   UNL     1     -40.985   5.776  34.762  1.00  0.00    -0.504 OA
ATOM     21  H   UNL     1     -41.554   6.501  34.342  1.00  0.00     0.293 HD
ENDBRANCH  17  20
ENDBRANCH   1  12
BRANCH   2  22
ATOM     22  O   UNL     1     -37.913   6.125  29.992  1.00  0.00    -0.502 OA
ATOM     23  H   UNL     1     -38.072   6.545  30.899  1.00  0.00     0.293 HD
ENDBRANCH   2  22
BRANCH   6  24
ATOM     24  O   UNL     1     -39.081   3.953  25.272  1.00  0.00    -0.507 OA
ATOM     25  H   UNL     1     -39.548   4.173  24.405  1.00  0.00     0.293 HD
ENDBRANCH   6  24
BRANCH   8  26
ATOM     26  O   UNL     1     -41.756   0.228  26.690  1.00  0.00    -0.508 OA
ATOM     27  H   UNL     1     -41.553  -0.685  27.080  1.00  0.00     0.293 HD
ENDBRANCH   8  26
TORSDOF 6
ENDMDL
MODEL 2
REMARK VINA RESULT:    -4.527      1.590      6.870
REMARK INTER + INTRA:          -5.778
REMARK INTER:                  -5.451
REMARK INTRA:                  -0.326
REMARK UNBOUND:                -0.325
REMARK SMILES O=c1c(O)c(-c2ccc(O)c(O)c2)oc2cc(O)cc(O)c12
REMARK SMILES IDX 5 1 3 2 2 3 1 4 22 5 20 6 19 7 17 8 16 9 15 10 14 11 6 12
REMARK SMILES IDX 7 13 8 14 9 15 13 16 11 17 10 18 12 20 4 22 21 24 18 26
REMARK H PARENT 10 19 12 21 4 23 21 25 18 27
REMARK Flexibility Score: inf
ROOT
ATOM      1  C   UNL     1     -39.749   4.258  30.126  1.00  0.00     0.180 A 
ATOM      2  C   UNL     1     -38.385   4.472  30.390  1.00  0.00     0.208 A 
ATOM      3  C   UNL     1     -38.001   4.928  31.662  1.00  0.00     0.238 A 
ATOM      4  O   UNL     1     -36.774   5.045  31.915  1.00  0.00    -0.285 OA
ATOM      5  C   UNL     1     -38.988   5.219  32.634  1.00  0.00     0.111 A 
ATOM      6  C   UNL     1     -38.717   5.730  33.940  1.00  0.00     0.134 A 
ATOM      7  C   UNL     1     -39.766   5.879  34.855  1.00  0.00     0.093 A 
ATOM      8  C   UNL     1     -41.085   5.598  34.491  1.00  0.00     0.123 A 
ATOM      9  C   UNL     1     -41.367   5.153  33.202  1.00  0.00     0.094 A 
ATOM     10  C   UNL     1     -40.337   4.956  32.279  1.00  0.00     0.146 A 
ATOM     11  O   UNL     1     -40.649   4.509  31.068  1.00  0.00    -0.452 OA
ENDROOT
BRANCH   1  12
ATOM     12  C   UNL     1     -40.230   3.765  28.816  1.00  0.00     0.025 A 
ATOM     13  C   UNL     1     -40.539   4.686  27.802  1.00  0.00     0.016 A 
ATOM     14  C   UNL     1     -41.015   4.245  26.565  1.00  0.00     0.051 A 
ATOM     15  C   UNL     1     -41.203   2.876  26.328  1.00  0.00     0.157 A 
ATOM     16  C   UNL     1     -40.440   2.394  28.580  1.00  0.00     0.062 A 
ATOM     17  C   UNL     1     -40.919   1.950  27.340  1.00  0.00     0.158 A 
BRANCH  15  18
ATOM     18  O   UNL     1     -41.675   2.431  25.095  1.00  0.00    -0.504 OA
ATOM     19  H   UNL     1     -42.660   2.465  24.861  1.00  0.00     0.293 HD
ENDBRANCH  15  18
BRANCH  17  20
ATOM     20  O   UNL     1     -41.120   0.590  27.106  1.00  0.00    -0.504 OA
ATOM     21  H   UNL     1     -40.470  -0.108  27.447  1.00  0.00     0.293 HD
ENDBRANCH  17  20
ENDBRANCH   1  12
BRANCH   2  22
ATOM     22  O   UNL     1     -37.432   4.252  29.392  1.00  0.00    -0.502 OA
ATOM     23  H   UNL     1     -37.424   3.415  28.823  1.00  0.00     0.293 HD
ENDBRANCH   2  22
BRANCH   6  24
ATOM     24  O   UNL     1     -37.449   6.125  34.378  1.00  0.00    -0.507 OA
ATOM     25  H   UNL     1     -36.818   5.551  34.916  1.00  0.00     0.293 HD
ENDBRANCH   6  24
BRANCH   8  26
ATOM     26  O   UNL     1     -42.125   5.767  35.402  1.00  0.00    -0.508 OA
ATOM     27  H   UNL     1     -42.786   6.531  35.317  1.00  0.00     0.293 HD
ENDBRANCH   8  26
TORSDOF 6
ENDMDL
MODEL 3
REMARK VINA RESULT:    -4.423      1.653      6.841
REMARK INTER + INTRA:          -5.653
REMARK INTER:                  -5.330
REMARK INTRA:                  -0.323
REMARK UNBOUND:                -0.325
REMARK SMILES O=c1c(O)c(-c2ccc(O)c(O)c2)oc2cc(O)cc(O)c12
REMARK SMILES IDX 5 1 3 2 2 3 1 4 22 5 20 6 19 7 17 8 16 9 15 10 14 11 6 12
REMARK SMILES IDX 7 13 8 14 9 15 13 16 11 17 10 18 12 20 4 22 21 24 18 26
REMARK H PARENT 10 19 12 21 4 23 21 25 18 27
REMARK Flexibility Score: inf
ROOT
ATOM      1  C   UNL     1     -39.767   4.330  30.120  1.00  0.00     0.180 A 
ATOM      2  C   UNL     1     -38.402   4.528  30.385  1.00  0.00     0.208 A 
ATOM      3  C   UNL     1     -38.012   4.966  31.662  1.00  0.00     0.238 A 
ATOM      4  O   UNL     1     -36.784   5.068  31.916  1.00  0.00    -0.285 OA
ATOM      5  C   UNL     1     -38.996   5.254  32.639  1.00  0.00     0.111 A 
ATOM      6  C   UNL     1     -38.719   5.747  33.951  1.00  0.00     0.134 A 
ATOM      7  C   UNL     1     -39.765   5.895  34.868  1.00  0.00     0.093 A 
ATOM      8  C   UNL     1     -41.088   5.630  34.502  1.00  0.00     0.123 A 
ATOM      9  C   UNL     1     -41.374   5.203  33.209  1.00  0.00     0.094 A 
ATOM     10  C   UNL     1     -40.347   5.008  32.282  1.00  0.00     0.146 A 
ATOM     11  O   UNL     1     -40.665   4.578  31.066  1.00  0.00    -0.452 OA
ENDROOT
BRANCH   1  12
ATOM     12  C   UNL     1     -40.254   3.857  28.805  1.00  0.00     0.025 A 
ATOM     13  C   UNL     1     -40.342   2.478  28.557  1.00  0.00     0.016 A 
ATOM     14  C   UNL     1     -40.779   2.008  27.316  1.00  0.00     0.051 A 
ATOM     15  C   UNL     1     -41.120   2.909  26.299  1.00  0.00     0.157 A 
ATOM     16  C   UNL     1     -40.579   4.758  27.775  1.00  0.00     0.062 A 
ATOM     17  C   UNL     1     -41.016   4.288  26.529  1.00  0.00     0.158 A 
BRANCH  15  18
ATOM     18  O   UNL     1     -41.559   2.445  25.061  1.00  0.00    -0.504 OA
ATOM     19  H   UNL     1     -42.517   2.571  24.757  1.00  0.00     0.293 HD
ENDBRANCH  15  18
BRANCH  17  20
ATOM     20  O   UNL     1     -41.342   5.182  25.510  1.00  0.00    -0.504 OA
ATOM     21  H   UNL     1     -40.646   5.513  24.852  1.00  0.00     0.293 HD
ENDBRANCH  17  20
ENDBRANCH   1  12
BRANCH   2  22
ATOM     22  O   UNL     1     -37.451   4.311  29.384  1.00  0.00    -0.502 OA
ATOM     23  H   UNL     1     -36.503   4.658  29.450  1.00  0.00     0.293 HD
ENDBRANCH   2  22
BRANCH   6  24
ATOM     24  O   UNL     1     -37.447   6.125  34.392  1.00  0.00    -0.507 OA
ATOM     25  H   UNL     1     -36.996   7.001  34.176  1.00  0.00     0.293 HD
ENDBRANCH   6  24
BRANCH   8  26
ATOM     26  O   UNL     1     -42.125   5.798  35.417  1.00  0.00    -0.508 OA
ATOM     27  H   UNL     1     -42.072   6.488  36.157  1.00  0.00     0.293 HD
ENDBRANCH   8  26
TORSDOF 6
ENDMDL
MODEL 4
REMARK VINA RESULT:    -4.300      1.515      7.109
REMARK INTER + INTRA:          -5.504
REMARK INTER:                  -5.238
REMARK INTRA:                  -0.266
REMARK UNBOUND:                -0.325
REMARK SMILES O=c1c(O)c(-c2ccc(O)c(O)c2)oc2cc(O)cc(O)c12
REMARK SMILES IDX 5 1 3 2 2 3 1 4 22 5 20 6 19 7 17 8 16 9 15 10 14 11 6 12
REMARK SMILES IDX 7 13 8 14 9 15 13 16 11 17 10 18 12 20 4 22 21 24 18 26
REMARK H PARENT 10 19 12 21 4 23 21 25 18 27
REMARK Flexibility Score: inf
ROOT
ATOM      1  C   UNL     1     -39.858   4.249  30.627  1.00  0.00     0.180 A 
ATOM      2  C   UNL     1     -41.029   4.889  31.066  1.00  0.00     0.208 A 
ATOM      3  C   UNL     1     -41.086   5.376  32.382  1.00  0.00     0.238 A 
ATOM      4  O   UNL     1     -42.108   6.015  32.744  1.00  0.00    -0.285 OA
ATOM      5  C   UNL     1     -39.995   5.166  33.259  1.00  0.00     0.111 A 
ATOM      6  C   UNL     1     -39.962   5.576  34.628  1.00  0.00     0.134 A 
ATOM      7  C   UNL     1     -38.787   5.409  35.370  1.00  0.00     0.093 A 
ATOM      8  C   UNL     1     -37.665   4.789  34.814  1.00  0.00     0.123 A 
ATOM      9  C   UNL     1     -37.706   4.336  33.498  1.00  0.00     0.094 A 
ATOM     10  C   UNL     1     -38.851   4.523  32.720  1.00  0.00     0.146 A 
ATOM     11  O   UNL     1     -38.838   4.095  31.463  1.00  0.00    -0.452 OA
ENDROOT
BRANCH   1  12
ATOM     12  C   UNL     1     -39.716   3.723  29.250  1.00  0.00     0.025 A 
ATOM     13  C   UNL     1     -38.971   4.449  28.307  1.00  0.00     0.016 A 
ATOM     14  C   UNL     1     -38.841   3.983  26.997  1.00  0.00     0.051 A 
ATOM     15  C   UNL     1     -39.466   2.791  26.606  1.00  0.00     0.157 A 
ATOM     16  C   UNL     1     -40.358   2.538  28.848  1.00  0.00     0.062 A 
ATOM     17  C   UNL     1     -40.230   2.070  27.533  1.00  0.00     0.158 A 
BRANCH  15  18
ATOM     18  O   UNL     1     -39.337   2.321  25.300  1.00  0.00    -0.504 OA
ATOM     19  H   UNL     1     -39.296   1.330  25.095  1.00  0.00     0.293 HD
ENDBRANCH  15  18
BRANCH  17  20
ATOM     20  O   UNL     1     -40.862   0.892  27.137  1.00  0.00    -0.504 OA
ATOM     21  H   UNL     1     -41.797   0.899  26.746  1.00  0.00     0.293 HD
ENDBRANCH  17  20
ENDBRANCH   1  12
BRANCH   2  22
ATOM     22  O   UNL     1     -42.124   5.020  30.208  1.00  0.00    -0.502 OA
ATOM     23  H   UNL     1     -42.237   5.811  29.586  1.00  0.00     0.293 HD
ENDBRANCH   2  22
BRANCH   6  24
ATOM     24  O   UNL     1     -41.054   6.125  35.307  1.00  0.00    -0.507 OA
ATOM     25  H   UNL     1     -41.624   5.634  35.978  1.00  0.00     0.293 HD
ENDBRANCH   6  24
BRANCH   8  26
ATOM     26  O   UNL     1     -36.506   4.611  35.566  1.00  0.00    -0.508 OA
ATOM     27  H   UNL     1     -36.404   3.832  36.207  1.00  0.00     0.293 HD
ENDBRANCH   8  26
TORSDOF 6
ENDMDL
MODEL 5
REMARK VINA RESULT:    -4.064      1.846      6.954
REMARK INTER + INTRA:          -5.220
REMARK INTER:                  -5.052
REMARK INTRA:                  -0.168
REMARK UNBOUND:                -0.325
REMARK SMILES O=c1c(O)c(-c2ccc(O)c(O)c2)oc2cc(O)cc(O)c12
REMARK SMILES IDX 5 1 3 2 2 3 1 4 22 5 20 6 19 7 17 8 16 9 15 10 14 11 6 12
REMARK SMILES IDX 7 13 8 14 9 15 13 16 11 17 10 18 12 20 4 22 21 24 18 26
REMARK H PARENT 10 19 12 21 4 23 21 25 18 27
REMARK Flexibility Score: inf
ROOT
ATOM      1  C   UNL     1     -39.330   4.495  29.039  1.00  0.00     0.180 A 
ATOM      2  C   UNL     1     -40.581   5.122  29.168  1.00  0.00     0.208 A 
ATOM      3  C   UNL     1     -41.039   5.470  30.450  1.00  0.00     0.238 A 
ATOM      4  O   UNL     1     -42.124   6.099  30.552  1.00  0.00    -0.285 OA
ATOM      5  C   UNL     1     -40.267   5.136  31.589  1.00  0.00     0.111 A 
ATOM      6  C   UNL     1     -40.655   5.399  32.938  1.00  0.00     0.134 A 
ATOM      7  C   UNL     1     -39.763   5.120  33.980  1.00  0.00     0.093 A 
ATOM      8  C   UNL     1     -38.523   4.527  33.728  1.00  0.00     0.123 A 
ATOM      9  C   UNL     1     -38.159   4.215  32.420  1.00  0.00     0.094 A 
ATOM     10  C   UNL     1     -39.011   4.518  31.356  1.00  0.00     0.146 A 
ATOM     11  O   UNL     1     -38.614   4.223  30.123  1.00  0.00    -0.452 OA
ENDROOT
BRANCH   1  12
ATOM     12  C   UNL     1     -38.773   4.111  27.722  1.00  0.00     0.025 A 
ATOM     13  C   UNL     1     -37.636   4.775  27.234  1.00  0.00     0.016 A 
ATOM     14  C   UNL     1     -37.105   4.444  25.985  1.00  0.00     0.051 A 
ATOM     15  C   UNL     1     -37.712   3.456  25.198  1.00  0.00     0.157 A 
ATOM     16  C   UNL     1     -39.391   3.134  26.921  1.00  0.00     0.062 A 
ATOM     17  C   UNL     1     -38.860   2.802  25.666  1.00  0.00     0.158 A 
BRANCH  15  18
ATOM     18  O   UNL     1     -37.184   3.121  23.953  1.00  0.00    -0.504 OA
ATOM     19  H   UNL     1     -36.760   3.818  23.352  1.00  0.00     0.293 HD
ENDBRANCH  15  18
BRANCH  17  20
ATOM     20  O   UNL     1     -39.470   1.830  24.875  1.00  0.00    -0.504 OA
ATOM     21  H   UNL     1     -40.476   1.795  24.761  1.00  0.00     0.293 HD
ENDBRANCH  17  20
ENDBRANCH   1  12
BRANCH   2  22
ATOM     22  O   UNL     1     -41.362   5.375  28.037  1.00  0.00    -0.502 OA
ATOM     23  H   UNL     1     -42.214   4.865  27.839  1.00  0.00     0.293 HD
ENDBRANCH   2  22
BRANCH   6  24
ATOM     24  O   UNL     1     -41.904   5.908  33.309  1.00  0.00    -0.507 OA
ATOM     25  H   UNL     1     -42.768   5.389  33.292  1.00  0.00     0.293 HD
ENDBRANCH   6  24
BRANCH   8  26
ATOM     26  O   UNL     1     -37.649   4.236  34.772  1.00  0.00    -0.508 OA
ATOM     27  H   UNL     1     -37.978   3.837  35.644  1.00  0.00     0.293 HD
ENDBRANCH   8  26
TORSDOF 6
ENDMDL
MODEL 6
REMARK VINA RESULT:    -4.043      2.115      6.928
REMARK INTER + INTRA:          -5.195
REMARK INTER:                  -4.880
REMARK INTRA:                  -0.315
REMARK UNBOUND:                -0.325
REMARK SMILES O=c1c(O)c(-c2ccc(O)c(O)c2)oc2cc(O)cc(O)c12
REMARK SMILES IDX 5 1 3 2 2 3 1 4 22 5 20 6 19 7 17 8 16 9 15 10 14 11 6 12
REMARK SMILES IDX 7 13 8 14 9 15 13 16 11 17 10 18 12 20 4 22 21 24 18 26
REMARK H PARENT 10 19 12 21 4 23 21 25 18 27
REMARK Flexibility Score: inf
ROOT
ATOM      1  C   UNL     1     -38.557   4.680  30.687  1.00  0.00     0.180 A 
ATOM      2  C   UNL     1     -37.165   4.793  30.533  1.00  0.00     0.208 A 
ATOM      3  C   UNL     1     -36.382   5.142  31.647  1.00  0.00     0.238 A 
ATOM      4  O   UNL     1     -35.131   5.167  31.520  1.00  0.00    -0.285 OA
ATOM      5  C   UNL     1     -37.007   5.429  32.884  1.00  0.00     0.111 A 
ATOM      6  C   UNL     1     -36.318   5.837  34.067  1.00  0.00     0.134 A 
ATOM      7  C   UNL     1     -37.029   5.990  35.263  1.00  0.00     0.093 A 
ATOM      8  C   UNL     1     -38.415   5.814  35.305  1.00  0.00     0.123 A 
ATOM      9  C   UNL     1     -39.103   5.471  34.145  1.00  0.00     0.094 A 
ATOM     10  C   UNL     1     -38.416   5.272  32.945  1.00  0.00     0.146 A 
ATOM     11  O   UNL     1     -39.111   4.924  31.868  1.00  0.00    -0.452 OA
ENDROOT
BRANCH   1  12
ATOM     12  C   UNL     1     -39.445   4.303  29.564  1.00  0.00     0.025 A 
ATOM     13  C   UNL     1     -39.914   5.297  28.690  1.00  0.00     0.016 A 
ATOM     14  C   UNL     1     -40.770   4.967  27.637  1.00  0.00     0.051 A 
ATOM     15  C   UNL     1     -41.183   3.641  27.451  1.00  0.00     0.157 A 
ATOM     16  C   UNL     1     -39.879   2.977  29.386  1.00  0.00     0.062 A 
ATOM     17  C   UNL     1     -40.739   2.644  28.331  1.00  0.00     0.158 A 
BRANCH  15  18
ATOM     18  O   UNL     1     -42.035   3.307  26.400  1.00  0.00    -0.504 OA
ATOM     19  H   UNL     1     -42.808   3.905  26.134  1.00  0.00     0.293 HD
ENDBRANCH  15  18
BRANCH  17  20
ATOM     20  O   UNL     1     -41.164   1.329  28.152  1.00  0.00    -0.504 OA
ATOM     21  H   UNL     1     -41.311   0.708  28.940  1.00  0.00     0.293 HD
ENDBRANCH  17  20
ENDBRANCH   1  12
BRANCH   2  22
ATOM     22  O   UNL     1     -36.574   4.580  29.284  1.00  0.00    -0.502 OA
ATOM     23  H   UNL     1     -35.587   4.384  29.176  1.00  0.00     0.293 HD
ENDBRANCH   2  22
BRANCH   6  24
ATOM     24  O   UNL     1     -34.950   6.125  34.116  1.00  0.00    -0.507 OA
ATOM     25  H   UNL     1     -34.270   5.819  33.438  1.00  0.00     0.293 HD
ENDBRANCH   6  24
BRANCH   8  26
ATOM     26  O   UNL     1     -39.117   5.987  36.495  1.00  0.00    -0.508 OA
ATOM     27  H   UNL     1     -38.751   5.653  37.380  1.00  0.00     0.293 HD
ENDBRANCH   8  26
TORSDOF 6
ENDMDL
MODEL 7
REMARK VINA RESULT:    -3.984      1.824      7.114
REMARK INTER + INTRA:          -5.124
REMARK INTER:                  -4.903
REMARK INTRA:                  -0.220
REMARK UNBOUND:                -0.325
REMARK SMILES O=c1c(O)c(-c2ccc(O)c(O)c2)oc2cc(O)cc(O)c12
REMARK SMILES IDX 5 1 3 2 2 3 1 4 22 5 20 6 19 7 17 8 16 9 15 10 14 11 6 12
REMARK SMILES IDX 7 13 8 14 9 15 13 16 11 17 10 18 12 20 4 22 21 24 18 26
REMARK H PARENT 10 19 12 21 4 23 21 25 18 27
REMARK Flexibility Score: inf
ROOT
ATOM      1  C   UNL     1     -39.438   4.355  30.112  1.00  0.00     0.180 A 
ATOM      2  C   UNL     1     -40.481   4.728  30.977  1.00  0.00     0.208 A 
ATOM      3  C   UNL     1     -40.163   5.250  32.241  1.00  0.00     0.238 A 
ATOM      4  O   UNL     1     -41.098   5.652  32.980  1.00  0.00    -0.285 OA
ATOM      5  C   UNL     1     -38.809   5.340  32.646  1.00  0.00     0.111 A 
ATOM      6  C   UNL     1     -38.372   5.811  33.922  1.00  0.00     0.134 A 
ATOM      7  C   UNL     1     -37.003   5.956  34.173  1.00  0.00     0.093 A 
ATOM      8  C   UNL     1     -36.052   5.586  33.218  1.00  0.00     0.123 A 
ATOM      9  C   UNL     1     -36.467   5.074  31.992  1.00  0.00     0.094 A 
ATOM     10  C   UNL     1     -37.827   4.954  31.697  1.00  0.00     0.146 A 
ATOM     11  O   UNL     1     -38.177   4.481  30.507  1.00  0.00    -0.452 OA
ENDROOT
BRANCH   1  12
ATOM     12  C   UNL     1     -39.693   3.811  28.759  1.00  0.00     0.025 A 
ATOM     13  C   UNL     1     -39.432   4.608  27.633  1.00  0.00     0.016 A 
ATOM     14  C   UNL     1     -39.684   4.124  26.348  1.00  0.00     0.051 A 
ATOM     15  C   UNL     1     -40.217   2.840  26.169  1.00  0.00     0.157 A 
ATOM     16  C   UNL     1     -40.247   2.531  28.575  1.00  0.00     0.062 A 
ATOM     17  C   UNL     1     -40.503   2.044  27.286  1.00  0.00     0.158 A 
BRANCH  15  18
ATOM     18  O   UNL     1     -40.468   2.352  24.888  1.00  0.00    -0.504 OA
ATOM     19  H   UNL     1     -39.866   2.580  24.106  1.00  0.00     0.293 HD
ENDBRANCH  15  18
BRANCH  17  20
ATOM     20  O   UNL     1     -41.046   0.773  27.105  1.00  0.00    -0.504 OA
ATOM     21  H   UNL     1     -41.442   0.488  26.216  1.00  0.00     0.293 HD
ENDBRANCH  17  20
ENDBRANCH   1  12
BRANCH   2  22
ATOM     22  O   UNL     1     -41.813   4.560  30.588  1.00  0.00    -0.502 OA
ATOM     23  H   UNL     1     -42.452   5.339  30.487  1.00  0.00     0.293 HD
ENDBRANCH   2  22
BRANCH   6  24
ATOM     24  O   UNL     1     -39.234   6.125  34.978  1.00  0.00    -0.507 OA
ATOM     25  H   UNL     1     -39.241   7.001  35.477  1.00  0.00     0.293 HD
ENDBRANCH   6  24
BRANCH   8  26
ATOM     26  O   UNL     1     -34.691   5.717  33.483  1.00  0.00    -0.508 OA
ATOM     27  H   UNL     1     -34.068   6.189  32.838  1.00  0.00     0.293 HD
ENDBRANCH   8  26
TORSDOF 6
ENDMDL
MODEL 8
REMARK VINA RESULT:    -3.904      1.934      3.424
REMARK INTER + INTRA:          -5.028
REMARK INTER:                  -4.839
REMARK INTRA:                  -0.188
REMARK UNBOUND:                -0.325
REMARK SMILES O=c1c(O)c(-c2ccc(O)c(O)c2)oc2cc(O)cc(O)c12
REMARK SMILES IDX 5 1 3 2 2 3 1 4 22 5 20 6 19 7 17 8 16 9 15 10 14 11 6 12
REMARK SMILES IDX 7 13 8 14 9 15 13 16 11 17 10 18 12 20 4 22 21 24 18 26
REMARK H PARENT 10 19 12 21 4 23 21 25 18 27
REMARK Flexibility Score: inf
ROOT
ATOM      1  C   UNL     1     -39.639   4.145  28.883  1.00  0.00     0.180 A 
ATOM      2  C   UNL     1     -40.883   3.669  28.436  1.00  0.00     0.208 A 
ATOM      3  C   UNL     1     -41.023   3.286  27.091  1.00  0.00     0.238 A 
ATOM      4  O   UNL     1     -42.117   2.791  26.716  1.00  0.00    -0.285 OA
ATOM      5  C   UNL     1     -39.934   3.437  26.199  1.00  0.00     0.111 A 
ATOM      6  C   UNL     1     -39.975   3.125  24.806  1.00  0.00     0.134 A 
ATOM      7  C   UNL     1     -38.805   3.214  24.043  1.00  0.00     0.093 A 
ATOM      8  C   UNL     1     -37.609   3.666  24.607  1.00  0.00     0.123 A 
ATOM      9  C   UNL     1     -37.572   4.026  25.952  1.00  0.00     0.094 A 
ATOM     10  C   UNL     1     -38.714   3.911  26.749  1.00  0.00     0.146 A 
ATOM     11  O   UNL     1     -38.627   4.245  28.031  1.00  0.00    -0.452 OA
ENDROOT
BRANCH   1  12
ATOM     12  C   UNL     1     -39.411   4.553  30.288  1.00  0.00     0.025 A 
ATOM     13  C   UNL     1     -40.036   5.709  30.782  1.00  0.00     0.016 A 
ATOM     14  C   UNL     1     -39.819   6.125  32.097  1.00  0.00     0.051 A 
ATOM     15  C   UNL     1     -38.960   5.400  32.934  1.00  0.00     0.157 A 
ATOM     16  C   UNL     1     -38.534   3.840  31.125  1.00  0.00     0.062 A 
ATOM     17  C   UNL     1     -38.313   4.257  32.445  1.00  0.00     0.158 A 
BRANCH  15  18
ATOM     18  O   UNL     1     -38.742   5.810  34.248  1.00  0.00    -0.504 OA
ATOM     19  H   UNL     1     -38.990   5.222  35.035  1.00  0.00     0.293 HD
ENDBRANCH  15  18
BRANCH  17  20
ATOM     20  O   UNL     1     -37.449   3.546  33.276  1.00  0.00    -0.504 OA
ATOM     21  H   UNL     1     -37.247   2.566  33.116  1.00  0.00     0.293 HD
ENDBRANCH  17  20
ENDBRANCH   1  12
BRANCH   2  22
ATOM     22  O   UNL     1     -41.968   3.599  29.314  1.00  0.00    -0.502 OA
ATOM     23  H   UNL     1     -41.932   3.970  30.255  1.00  0.00     0.293 HD
ENDBRANCH   2  22
BRANCH   6  24
ATOM     24  O   UNL     1     -41.135   2.748  24.122  1.00  0.00    -0.507 OA
ATOM     25  H   UNL     1     -41.417   3.103  23.222  1.00  0.00     0.293 HD
ENDBRANCH   6  24
BRANCH   8  26
ATOM     26  O   UNL     1     -36.454   3.769  23.836  1.00  0.00    -0.508 OA
ATOM     27  H   UNL     1     -36.437   4.301  22.974  1.00  0.00     0.293 HD
ENDBRANCH   8  26
TORSDOF 6
ENDMDL
MODEL 9
REMARK VINA RESULT:    -2.625      1.479      7.128
REMARK INTER + INTRA:          -3.487
REMARK INTER:                  -3.186
REMARK INTRA:                  -0.301
REMARK UNBOUND:                -0.325
REMARK SMILES O=c1c(O)c(-c2ccc(O)c(O)c2)oc2cc(O)cc(O)c12
REMARK SMILES IDX 5 1 3 2 2 3 1 4 22 5 20 6 19 7 17 8 16 9 15 10 14 11 6 12
REMARK SMILES IDX 7 13 8 14 9 15 13 16 11 17 10 18 12 20 4 22 21 24 18 26
REMARK H PARENT 10 19 12 21 4 23 21 25 18 27
REMARK Flexibility Score: inf
ROOT
ATOM      1  C   UNL     1     -39.828   4.288  30.612  1.00  0.00     0.180 A 
ATOM      2  C   UNL     1     -41.016   4.893  31.054  1.00  0.00     0.208 A 
ATOM      3  C   UNL     1     -41.086   5.378  32.371  1.00  0.00     0.238 A 
ATOM      4  O   UNL     1     -42.125   5.985  32.736  1.00  0.00    -0.285 OA
ATOM      5  C   UNL     1     -39.987   5.200  33.245  1.00  0.00     0.111 A 
ATOM      6  C   UNL     1     -39.963   5.609  34.614  1.00  0.00     0.134 A 
ATOM      7  C   UNL     1     -38.782   5.478  35.353  1.00  0.00     0.093 A 
ATOM      8  C   UNL     1     -37.643   4.891  34.795  1.00  0.00     0.123 A 
ATOM      9  C   UNL     1     -37.674   4.438  33.479  1.00  0.00     0.094 A 
ATOM     10  C   UNL     1     -38.825   4.592  32.703  1.00  0.00     0.146 A 
ATOM     11  O   UNL     1     -38.802   4.165  31.446  1.00  0.00    -0.452 OA
ENDROOT
BRANCH   1  12
ATOM     12  C   UNL     1     -39.673   3.768  29.235  1.00  0.00     0.025 A 
ATOM     13  C   UNL     1     -40.176   2.496  28.917  1.00  0.00     0.016 A 
ATOM     14  C   UNL     1     -40.023   1.975  27.630  1.00  0.00     0.051 A 
ATOM     15  C   UNL     1     -39.352   2.712  26.645  1.00  0.00     0.157 A 
ATOM     16  C   UNL     1     -38.982   4.495  28.249  1.00  0.00     0.062 A 
ATOM     17  C   UNL     1     -38.827   3.973  26.957  1.00  0.00     0.158 A 
BRANCH  15  18
ATOM     18  O   UNL     1     -39.199   2.198  25.359  1.00  0.00    -0.504 OA
ATOM     19  H   UNL     1     -39.979   1.794  24.854  1.00  0.00     0.293 HD
ENDBRANCH  15  18
BRANCH  17  20
ATOM     20  O   UNL     1     -38.147   4.698  25.979  1.00  0.00    -0.504 OA
ATOM     21  H   UNL     1     -37.343   5.271  26.208  1.00  0.00     0.293 HD
ENDBRANCH  17  20
ENDBRANCH   1  12
BRANCH   2  22
ATOM     22  O   UNL     1     -42.117   4.992  30.198  1.00  0.00    -0.502 OA
ATOM     23  H   UNL     1     -42.094   5.531  29.342  1.00  0.00     0.293 HD
ENDBRANCH   2  22
BRANCH   6  24
ATOM     24  O   UNL     1     -41.069   6.125  35.296  1.00  0.00    -0.507 OA
ATOM     25  H   UNL     1     -41.757   6.745  34.897  1.00  0.00     0.293 HD
ENDBRANCH   6  24
BRANCH   8  26
ATOM     26  O   UNL     1     -36.478   4.748  35.544  1.00  0.00    -0.508 OA
ATOM     27  H   UNL     1     -36.496   4.742  36.558  1.00  0.00     0.293 HD
ENDBRANCH   8  26
TORSDOF 6
ENDMDL
