MODEL 1
REMARK VINA RESULT:    -3.133      0.000      0.000
REMARK INTER + INTRA:          -3.978
REMARK INTER:                  -3.774
REMARK INTRA:                  -0.204
REMARK UNBOUND:                -0.204
REMARK SMILES OCC(O)CO
REMARK SMILES IDX 3 1 5 2 6 3 2 5 1 6 4 8
REMARK H PARENT 6 4 1 7 4 9
REMARK Flexibility Score: inf
ROOT
ATOM      1  C   UNL     1     -54.151   8.950 -32.473  1.00  0.00     0.165 C 
ENDROOT
BRANCH   1   2
ATOM      2  C   UNL     1     -53.178  10.139 -32.589  1.00  0.00     0.190 C 
BRANCH   2   3
ATOM      3  O   UNL     1     -53.844  11.266 -33.091  1.00  0.00    -0.394 OA
ATOM      4  H   UNL     1     -54.393  10.955 -33.858  1.00  0.00     0.210 HD
ENDBRANCH   2   3
ENDBRANCH   1   2
BRANCH   1   5
ATOM      5  C   UNL     1     -54.295   8.186 -33.801  1.00  0.00     0.190 C 
BRANCH   5   6
ATOM      6  O   UNL     1     -55.020   8.932 -34.743  1.00  0.00    -0.394 OA
ATOM      7  H   UNL     1     -55.325   9.757 -34.284  1.00  0.00     0.210 HD
ENDBRANCH   5   6
ENDBRANCH   1   5
BRANCH   1   8
ATOM      8  O   UNL     1     -55.406   9.365 -31.997  1.00  0.00    -0.388 OA
ATOM      9  H   UNL     1     -55.683  10.160 -32.523  1.00  0.00     0.211 HD
ENDBRANCH   1   8
TORSDOF 5
ENDMDL
MODEL 2
REMARK VINA RESULT:    -3.098     16.869     17.912
REMARK INTER + INTRA:          -3.936
REMARK INTER:                  -3.918
REMARK INTRA:                  -0.018
REMARK UNBOUND:                -0.204
REMARK SMILES OCC(O)CO
REMARK SMILES IDX 3 1 5 2 6 3 2 5 1 6 4 8
REMARK H PARENT 6 4 1 7 4 9
REMARK Flexibility Score: inf
ROOT
ATOM      1  C   UNL     1     -38.968  18.228 -29.620  1.00  0.00     0.165 C 
ENDROOT
BRANCH   1   2
ATOM      2  C   UNL     1     -40.079  19.049 -30.302  1.00  0.00     0.190 C 
BRANCH   2   3
ATOM      3  O   UNL     1     -40.832  18.235 -31.157  1.00  0.00    -0.394 OA
ATOM      4  H   UNL     1     -40.994  18.760 -31.984  1.00  0.00     0.210 HD
ENDBRANCH   2   3
ENDBRANCH   1   2
BRANCH   1   5
ATOM      5  C   UNL     1     -37.596  18.446 -30.280  1.00  0.00     0.190 C 
BRANCH   5   6
ATOM      6  O   UNL     1     -37.132  17.272 -30.894  1.00  0.00    -0.394 OA
ATOM      7  H   UNL     1     -36.697  16.729 -30.186  1.00  0.00     0.210 HD
ENDBRANCH   5   6
ENDBRANCH   1   5
BRANCH   1   8
ATOM      8  O   UNL     1     -39.295  16.861 -29.587  1.00  0.00    -0.388 OA
ATOM      9  H   UNL     1     -40.267  16.777 -29.767  1.00  0.00     0.211 HD
ENDBRANCH   1   8
TORSDOF 5
ENDMDL
MODEL 3
REMARK VINA RESULT:    -3.081     10.622     11.438
REMARK INTER + INTRA:          -3.915
REMARK INTER:                  -3.723
REMARK INTRA:                  -0.192
REMARK UNBOUND:                -0.204
REMARK SMILES OCC(O)CO
REMARK SMILES IDX 3 1 5 2 6 3 2 5 1 6 4 8
REMARK H PARENT 6 4 1 7 4 9
REMARK Flexibility Score: inf
ROOT
ATOM      1  C   UNL     1     -54.715  19.974 -30.864  1.00  0.00     0.165 C 
ENDROOT
BRANCH   1   2
ATOM      2  C   UNL     1     -56.040  20.205 -30.112  1.00  0.00     0.190 C 
BRANCH   2   3
ATOM      3  O   UNL     1     -56.021  21.446 -29.461  1.00  0.00    -0.394 OA
ATOM      4  H   UNL     1     -55.938  21.258 -28.490  1.00  0.00     0.210 HD
ENDBRANCH   2   3
ENDBRANCH   1   2
BRANCH   1   5
ATOM      5  C   UNL     1     -53.739  19.093 -30.064  1.00  0.00     0.190 C 
BRANCH   5   6
ATOM      6  O   UNL     1     -53.769  19.410 -28.698  1.00  0.00    -0.394 OA
ATOM      7  H   UNL     1     -53.418  20.335 -28.608  1.00  0.00     0.210 HD
ENDBRANCH   5   6
ENDBRANCH   1   5
BRANCH   1   8
ATOM      8  O   UNL     1     -54.112  21.194 -31.217  1.00  0.00    -0.388 OA
ATOM      9  H   UNL     1     -53.443  21.007 -31.926  1.00  0.00     0.211 HD
ENDBRANCH   1   8
TORSDOF 5
ENDMDL
MODEL 4
REMARK VINA RESULT:    -3.069     17.877     19.227
REMARK INTER + INTRA:          -3.901
REMARK INTER:                  -3.884
REMARK INTRA:                  -0.017
REMARK UNBOUND:                -0.204
REMARK SMILES OCC(O)CO
REMARK SMILES IDX 3 1 5 2 6 3 2 5 1 6 4 8
REMARK H PARENT 6 4 1 7 4 9
REMARK Flexibility Score: inf
ROOT
ATOM      1  C   UNL     1     -41.797  23.179 -29.168  1.00  0.00     0.165 C 
ENDROOT
BRANCH   1   2
ATOM      2  C   UNL     1     -41.713  21.784 -28.520  1.00  0.00     0.190 C 
BRANCH   2   3
ATOM      3  O   UNL     1     -42.887  21.504 -27.809  1.00  0.00    -0.394 OA
ATOM      4  H   UNL     1     -43.416  22.345 -27.789  1.00  0.00     0.210 HD
ENDBRANCH   2   3
ENDBRANCH   1   2
BRANCH   1   5
ATOM      5  C   UNL     1     -40.917  24.211 -28.442  1.00  0.00     0.190 C 
BRANCH   5   6
ATOM      6  O   UNL     1     -41.697  25.166 -27.772  1.00  0.00    -0.394 OA
ATOM      7  H   UNL     1     -41.428  25.138 -26.817  1.00  0.00     0.210 HD
ENDBRANCH   5   6
ENDBRANCH   1   5
BRANCH   1   8
ATOM      8  O   UNL     1     -43.128  23.623 -29.245  1.00  0.00    -0.388 OA
ATOM      9  H   UNL     1     -43.271  24.280 -28.515  1.00  0.00     0.211 HD
ENDBRANCH   1   8
TORSDOF 5
ENDMDL
MODEL 5
REMARK VINA RESULT:    -3.040      0.680      2.427
REMARK INTER + INTRA:          -3.866
REMARK INTER:                  -3.642
REMARK INTRA:                  -0.223
REMARK UNBOUND:                -0.204
REMARK SMILES OCC(O)CO
REMARK SMILES IDX 3 1 5 2 6 3 2 5 1 6 4 8
REMARK H PARENT 6 4 1 7 4 9
REMARK Flexibility Score: inf
ROOT
ATOM      1  C   UNL     1     -53.790   9.403 -32.638  1.00  0.00     0.165 C 
ENDROOT
BRANCH   1   2
ATOM      2  C   UNL     1     -53.977   8.433 -33.820  1.00  0.00     0.190 C 
BRANCH   2   3
ATOM      3  O   UNL     1     -54.935   8.931 -34.713  1.00  0.00    -0.394 OA
ATOM      4  H   UNL     1     -55.212   8.171 -35.289  1.00  0.00     0.210 HD
ENDBRANCH   2   3
ENDBRANCH   1   2
BRANCH   1   5
ATOM      5  C   UNL     1     -54.813   9.157 -31.516  1.00  0.00     0.190 C 
BRANCH   5   6
ATOM      6  O   UNL     1     -56.125   9.141 -32.015  1.00  0.00    -0.394 OA
ATOM      7  H   UNL     1     -56.726   8.983 -31.241  1.00  0.00     0.210 HD
ENDBRANCH   5   6
ENDBRANCH   1   5
BRANCH   1   8
ATOM      8  O   UNL     1     -53.833  10.741 -33.068  1.00  0.00    -0.388 OA
ATOM      9  H   UNL     1     -53.282  10.813 -33.891  1.00  0.00     0.211 HD
ENDBRANCH   1   8
TORSDOF 5
ENDMDL
MODEL 6
REMARK VINA RESULT:    -3.018     10.006     10.830
REMARK INTER + INTRA:          -3.840
REMARK INTER:                  -3.616
REMARK INTRA:                  -0.224
REMARK UNBOUND:                -0.204
REMARK SMILES OCC(O)CO
REMARK SMILES IDX 3 1 5 2 6 3 2 5 1 6 4 8
REMARK H PARENT 6 4 1 7 4 9
REMARK Flexibility Score: inf
ROOT
ATOM      1  C   UNL     1     -54.288  19.074 -29.038  1.00  0.00     0.165 C 
ENDROOT
BRANCH   1   2
ATOM      2  C   UNL     1     -55.762  19.469 -29.248  1.00  0.00     0.190 C 
BRANCH   2   3
ATOM      3  O   UNL     1     -55.947  20.828 -28.962  1.00  0.00    -0.394 OA
ATOM      4  H   UNL     1     -56.556  21.187 -29.661  1.00  0.00     0.210 HD
ENDBRANCH   2   3
ENDBRANCH   1   2
BRANCH   1   5
ATOM      5  C   UNL     1     -53.433  19.331 -30.292  1.00  0.00     0.190 C 
BRANCH   5   6
ATOM      6  O   UNL     1     -53.771  20.551 -30.898  1.00  0.00    -0.394 OA
ATOM      7  H   UNL     1     -54.301  20.333 -31.709  1.00  0.00     0.210 HD
ENDBRANCH   5   6
ENDBRANCH   1   5
BRANCH   1   8
ATOM      8  O   UNL     1     -54.175  17.736 -28.623  1.00  0.00    -0.388 OA
ATOM      9  H   UNL     1     -53.770  17.220 -29.368  1.00  0.00     0.211 HD
ENDBRANCH   1   8
TORSDOF 5
ENDMDL
MODEL 7
REMARK VINA RESULT:    -2.935      0.776      2.548
REMARK INTER + INTRA:          -3.739
REMARK INTER:                  -3.515
REMARK INTRA:                  -0.224
REMARK UNBOUND:                -0.204
REMARK SMILES OCC(O)CO
REMARK SMILES IDX 3 1 5 2 6 3 2 5 1 6 4 8
REMARK H PARENT 6 4 1 7 4 9
REMARK Flexibility Score: inf
ROOT
ATOM      1  C   UNL     1     -54.383   8.586 -33.349  1.00  0.00     0.165 C 
ENDROOT
BRANCH   1   2
ATOM      2  C   UNL     1     -55.451   8.231 -32.296  1.00  0.00     0.190 C 
BRANCH   2   3
ATOM      3  O   UNL     1     -56.112   9.389 -31.864  1.00  0.00    -0.394 OA
ATOM      4  H   UNL     1     -56.787   9.609 -32.557  1.00  0.00     0.210 HD
ENDBRANCH   2   3
ENDBRANCH   1   2
BRANCH   1   5
ATOM      5  C   UNL     1     -53.409   9.667 -32.848  1.00  0.00     0.190 C 
BRANCH   5   6
ATOM      6  O   UNL     1     -53.924  10.955 -33.061  1.00  0.00    -0.394 OA
ATOM      7  H   UNL     1     -54.433  11.200 -32.244  1.00  0.00     0.210 HD
ENDBRANCH   5   6
ENDBRANCH   1   5
BRANCH   1   8
ATOM      8  O   UNL     1     -54.976   8.972 -34.564  1.00  0.00    -0.388 OA
ATOM      9  H   UNL     1     -54.256   9.304 -35.160  1.00  0.00     0.211 HD
ENDBRANCH   1   8
TORSDOF 5
ENDMDL
MODEL 8
REMARK VINA RESULT:    -2.911      5.159      6.480
REMARK INTER + INTRA:          -3.710
REMARK INTER:                  -3.487
REMARK INTRA:                  -0.223
REMARK UNBOUND:                -0.204
REMARK SMILES OCC(O)CO
REMARK SMILES IDX 3 1 5 2 6 3 2 5 1 6 4 8
REMARK H PARENT 6 4 1 7 4 9
REMARK Flexibility Score: inf
ROOT
ATOM      1  C   UNL     1     -51.391  14.036 -29.520  1.00  0.00     0.165 C 
ENDROOT
BRANCH   1   2
ATOM      2  C   UNL     1     -50.645  13.076 -28.574  1.00  0.00     0.190 C 
BRANCH   2   3
ATOM      3  O   UNL     1     -49.328  12.884 -29.012  1.00  0.00    -0.394 OA
ATOM      4  H   UNL     1     -48.963  13.783 -29.221  1.00  0.00     0.210 HD
ENDBRANCH   2   3
ENDBRANCH   1   2
BRANCH   1   5
ATOM      5  C   UNL     1     -52.063  13.295 -30.688  1.00  0.00     0.190 C 
BRANCH   5   6
ATOM      6  O   UNL     1     -51.238  12.278 -31.190  1.00  0.00    -0.394 OA
ATOM      7  H   UNL     1     -50.999  11.695 -30.423  1.00  0.00     0.210 HD
ENDBRANCH   5   6
ENDBRANCH   1   5
BRANCH   1   8
ATOM      8  O   UNL     1     -50.536  15.046 -29.994  1.00  0.00    -0.388 OA
ATOM      9  H   UNL     1     -50.633  15.086 -30.981  1.00  0.00     0.211 HD
ENDBRANCH   1   8
TORSDOF 5
ENDMDL
MODEL 9
REMARK VINA RESULT:    -2.850     17.647     18.671
REMARK INTER + INTRA:          -3.637
REMARK INTER:                  -3.422
REMARK INTRA:                  -0.215
REMARK UNBOUND:                -0.204
REMARK SMILES OCC(O)CO
REMARK SMILES IDX 3 1 5 2 6 3 2 5 1 6 4 8
REMARK H PARENT 6 4 1 7 4 9
REMARK Flexibility Score: inf
ROOT
ATOM      1  C   UNL     1     -41.082  22.015 -29.125  1.00  0.00     0.165 C 
ENDROOT
BRANCH   1   2
ATOM      2  C   UNL     1     -41.493  23.469 -28.824  1.00  0.00     0.190 C 
BRANCH   2   3
ATOM      3  O   UNL     1     -42.800  23.708 -29.270  1.00  0.00    -0.394 OA
ATOM      4  H   UNL     1     -42.789  23.602 -30.257  1.00  0.00     0.210 HD
ENDBRANCH   2   3
ENDBRANCH   1   2
BRANCH   1   5
ATOM      5  C   UNL     1     -41.628  21.028 -28.079  1.00  0.00     0.190 C 
BRANCH   5   6
ATOM      6  O   UNL     1     -42.945  21.348 -27.714  1.00  0.00    -0.394 OA
ATOM      7  H   UNL     1     -43.529  21.069 -28.467  1.00  0.00     0.210 HD
ENDBRANCH   5   6
ENDBRANCH   1   5
BRANCH   1   8
ATOM      8  O   UNL     1     -39.686  21.896 -29.244  1.00  0.00    -0.388 OA
ATOM      9  H   UNL     1     -39.470  20.930 -29.324  1.00  0.00     0.211 HD
ENDBRANCH   1   8
TORSDOF 5
ENDMDL
