MODEL 1
REMARK VINA RESULT:    -6.466      0.000      0.000
REMARK INTER + INTRA:          -7.109
REMARK INTER:                  -6.844
REMARK INTRA:                  -0.265
REMARK UNBOUND:                -0.265
REMARK SMILES C=C1CC[C@@H](C(C)C)[C@@H]2C=C(C)CC[C@@H]12
REMARK SMILES IDX 12 1 11 2 10 3 9 4 15 5 14 6 13 7 2 8 1 9 3 10 4 11 5 12
REMARK SMILES IDX 6 13 7 14 8 15
REMARK H PARENT
REMARK Flexibility Score: inf
ROOT
ATOM      1  C   UNL     1     -42.254 -46.488  25.093  1.00  0.00     0.039 C 
ATOM      2  C   UNL     1     -42.116 -47.458  26.236  1.00  0.00    -0.077 C 
ATOM      3  C   UNL     1     -40.976 -47.459  26.961  1.00  0.00    -0.024 C 
ATOM      4  C   UNL     1     -40.699 -48.452  28.084  1.00  0.00     0.022 C 
ATOM      5  C   UNL     1     -42.027 -49.024  28.646  1.00  0.00     0.022 C 
ATOM      6  C   UNL     1     -42.923 -49.507  27.493  1.00  0.00     0.013 C 
ATOM      7  C   UNL     1     -43.303 -48.324  26.600  1.00  0.00     0.031 C 
ATOM      8  C   UNL     1     -41.708 -50.069  29.702  1.00  0.00    -0.074 C 
ATOM      9  C   UNL     1     -42.071 -51.363  29.625  1.00  0.00     0.008 C 
ATOM     10  C   UNL     1     -40.872 -49.580  30.852  1.00  0.00     0.031 C 
ATOM     11  C   UNL     1     -39.574 -48.968  30.316  1.00  0.00     0.009 C 
ATOM     12  C   UNL     1     -39.826 -47.860  29.250  1.00  0.00    -0.001 C 
ENDROOT
BRANCH  12  13
ATOM     13  C   UNL     1     -38.494 -47.183  28.728  1.00  0.00    -0.014 C 
ATOM     14  C   UNL     1     -37.225 -48.057  28.788  1.00  0.00     0.007 C 
ATOM     15  C   UNL     1     -38.212 -45.875  29.492  1.00  0.00     0.007 C 
ENDBRANCH  12  13
TORSDOF 1
ENDMDL
MODEL 2
REMARK VINA RESULT:    -6.174     11.374     14.823
REMARK INTER + INTRA:          -6.800
REMARK INTER:                  -6.583
REMARK INTRA:                  -0.216
REMARK UNBOUND:                -0.265
REMARK SMILES C=C1CC[C@@H](C(C)C)[C@@H]2C=C(C)CC[C@@H]12
REMARK SMILES IDX 12 1 11 2 10 3 9 4 15 5 14 6 13 7 2 8 1 9 3 10 4 11 5 12
REMARK SMILES IDX 6 13 7 14 8 15
REMARK H PARENT
REMARK Flexibility Score: inf
ROOT
ATOM      1  C   UNL     1     -50.377 -48.574  24.514  1.00  0.00     0.039 C 
ATOM      2  C   UNL     1     -51.571 -48.146  23.703  1.00  0.00    -0.077 C 
ATOM      3  C   UNL     1     -51.717 -48.624  22.448  1.00  0.00    -0.024 C 
ATOM      4  C   UNL     1     -52.841 -48.194  21.512  1.00  0.00     0.022 C 
ATOM      5  C   UNL     1     -54.043 -47.642  22.322  1.00  0.00     0.022 C 
ATOM      6  C   UNL     1     -53.555 -46.607  23.350  1.00  0.00     0.013 C 
ATOM      7  C   UNL     1     -52.622 -47.278  24.360  1.00  0.00     0.031 C 
ATOM      8  C   UNL     1     -55.105 -47.146  21.356  1.00  0.00    -0.074 C 
ATOM      9  C   UNL     1     -55.543 -45.875  21.294  1.00  0.00     0.008 C 
ATOM     10  C   UNL     1     -55.614 -48.175  20.383  1.00  0.00     0.031 C 
ATOM     11  C   UNL     1     -54.435 -48.767  19.604  1.00  0.00     0.009 C 
ATOM     12  C   UNL     1     -53.319 -49.328  20.534  1.00  0.00    -0.001 C 
ENDROOT
BRANCH  12  13
ATOM     13  C   UNL     1     -52.121 -49.991  19.741  1.00  0.00    -0.014 C 
ATOM     14  C   UNL     1     -52.265 -50.025  18.206  1.00  0.00     0.007 C 
ATOM     15  C   UNL     1     -51.874 -51.431  20.230  1.00  0.00     0.007 C 
ENDBRANCH  12  13
TORSDOF 1
ENDMDL
MODEL 3
REMARK VINA RESULT:    -6.068     11.589     15.074
REMARK INTER + INTRA:          -6.687
REMARK INTER:                  -6.422
REMARK INTRA:                  -0.265
REMARK UNBOUND:                -0.265
REMARK SMILES C=C1CC[C@@H](C(C)C)[C@@H]2C=C(C)CC[C@@H]12
REMARK SMILES IDX 12 1 11 2 10 3 9 4 15 5 14 6 13 7 2 8 1 9 3 10 4 11 5 12
REMARK SMILES IDX 6 13 7 14 8 15
REMARK H PARENT
REMARK Flexibility Score: inf
ROOT
ATOM      1  C   UNL     1     -51.904 -46.516  24.860  1.00  0.00     0.039 C 
ATOM      2  C   UNL     1     -52.013 -47.394  23.643  1.00  0.00    -0.077 C 
ATOM      3  C   UNL     1     -53.185 -47.444  22.973  1.00  0.00    -0.024 C 
ATOM      4  C   UNL     1     -53.430 -48.360  21.780  1.00  0.00     0.022 C 
ATOM      5  C   UNL     1     -52.088 -48.753  21.110  1.00  0.00     0.022 C 
ATOM      6  C   UNL     1     -51.091 -49.243  22.173  1.00  0.00     0.013 C 
ATOM      7  C   UNL     1     -50.774 -48.109  23.150  1.00  0.00     0.031 C 
ATOM      8  C   UNL     1     -52.366 -49.730  19.980  1.00  0.00    -0.074 C 
ATOM      9  C   UNL     1     -51.882 -50.986  19.925  1.00  0.00     0.008 C 
ATOM     10  C   UNL     1     -53.304 -49.229  18.917  1.00  0.00     0.031 C 
ATOM     11  C   UNL     1     -54.622 -48.791  19.564  1.00  0.00     0.009 C 
ATOM     12  C   UNL     1     -54.416 -47.758  20.712  1.00  0.00    -0.001 C 
ENDROOT
BRANCH  12  13
ATOM     13  C   UNL     1     -55.774 -47.259  21.352  1.00  0.00    -0.014 C 
ATOM     14  C   UNL     1     -56.983 -48.203  21.191  1.00  0.00     0.007 C 
ATOM     15  C   UNL     1     -56.165 -45.878  20.791  1.00  0.00     0.007 C 
ENDBRANCH  12  13
TORSDOF 1
ENDMDL
MODEL 4
REMARK VINA RESULT:    -6.056     10.737     14.027
REMARK INTER + INTRA:          -6.675
REMARK INTER:                  -6.408
REMARK INTRA:                  -0.267
REMARK UNBOUND:                -0.265
REMARK SMILES C=C1CC[C@@H](C(C)C)[C@@H]2C=C(C)CC[C@@H]12
REMARK SMILES IDX 12 1 11 2 10 3 9 4 15 5 14 6 13 7 2 8 1 9 3 10 4 11 5 12
REMARK SMILES IDX 6 13 7 14 8 15
REMARK H PARENT
REMARK Flexibility Score: inf
ROOT
ATOM      1  C   UNL     1     -51.885 -50.632  17.644  1.00  0.00     0.039 C 
ATOM      2  C   UNL     1     -51.534 -50.104  19.009  1.00  0.00    -0.077 C 
ATOM      3  C   UNL     1     -52.437 -49.348  19.671  1.00  0.00    -0.024 C 
ATOM      4  C   UNL     1     -52.155 -48.695  21.020  1.00  0.00     0.022 C 
ATOM      5  C   UNL     1     -51.014 -49.442  21.759  1.00  0.00     0.022 C 
ATOM      6  C   UNL     1     -49.816 -49.641  20.816  1.00  0.00     0.013 C 
ATOM      7  C   UNL     1     -50.224 -50.527  19.637  1.00  0.00     0.031 C 
ATOM      8  C   UNL     1     -50.706 -48.715  23.057  1.00  0.00    -0.074 C 
ATOM      9  C   UNL     1     -49.512 -48.171  23.358  1.00  0.00     0.008 C 
ATOM     10  C   UNL     1     -51.869 -48.565  23.998  1.00  0.00     0.031 C 
ATOM     11  C   UNL     1     -53.026 -47.870  23.273  1.00  0.00     0.009 C 
ATOM     12  C   UNL     1     -53.422 -48.584  21.945  1.00  0.00    -0.001 C 
ENDROOT
BRANCH  12  13
ATOM     13  C   UNL     1     -54.651 -47.906  21.215  1.00  0.00    -0.014 C 
ATOM     14  C   UNL     1     -55.017 -46.485  21.689  1.00  0.00     0.007 C 
ATOM     15  C   UNL     1     -55.908 -48.788  21.330  1.00  0.00     0.007 C 
ENDBRANCH  12  13
TORSDOF 1
ENDMDL
MODEL 5
REMARK VINA RESULT:    -6.044      0.964      3.806
REMARK INTER + INTRA:          -6.662
REMARK INTER:                  -6.422
REMARK INTRA:                  -0.240
REMARK UNBOUND:                -0.265
REMARK SMILES C=C1CC[C@@H](C(C)C)[C@@H]2C=C(C)CC[C@@H]12
REMARK SMILES IDX 12 1 11 2 10 3 9 4 15 5 14 6 13 7 2 8 1 9 3 10 4 11 5 12
REMARK SMILES IDX 6 13 7 14 8 15
REMARK H PARENT
REMARK Flexibility Score: inf
ROOT
ATOM      1  C   UNL     1     -43.885 -48.750  25.277  1.00  0.00     0.039 C 
ATOM      2  C   UNL     1     -42.769 -48.286  26.173  1.00  0.00    -0.077 C 
ATOM      3  C   UNL     1     -42.610 -48.872  27.380  1.00  0.00    -0.024 C 
ATOM      4  C   UNL     1     -41.566 -48.426  28.398  1.00  0.00     0.022 C 
ATOM      5  C   UNL     1     -40.406 -47.673  27.694  1.00  0.00     0.022 C 
ATOM      6  C   UNL     1     -40.971 -46.595  26.754  1.00  0.00     0.013 C 
ATOM      7  C   UNL     1     -41.797 -47.252  25.647  1.00  0.00     0.031 C 
ATOM      8  C   UNL     1     -39.432 -47.172  28.747  1.00  0.00    -0.074 C 
ATOM      9  C   UNL     1     -39.134 -45.875  28.950  1.00  0.00     0.008 C 
ATOM     10  C   UNL     1     -38.846 -48.236  29.633  1.00  0.00     0.031 C 
ATOM     11  C   UNL     1     -39.976 -49.023  30.303  1.00  0.00     0.009 C 
ATOM     12  C   UNL     1     -40.999 -49.599  29.278  1.00  0.00    -0.001 C 
ENDROOT
BRANCH  12  13
ATOM     13  C   UNL     1     -42.142 -50.459  29.954  1.00  0.00    -0.014 C 
ATOM     14  C   UNL     1     -42.091 -50.558  31.492  1.00  0.00     0.007 C 
ATOM     15  C   UNL     1     -42.159 -51.889  29.382  1.00  0.00     0.007 C 
ENDBRANCH  12  13
TORSDOF 1
ENDMDL
MODEL 6
REMARK VINA RESULT:    -5.952      1.133      3.937
REMARK INTER + INTRA:          -6.565
REMARK INTER:                  -6.300
REMARK INTRA:                  -0.265
REMARK UNBOUND:                -0.265
REMARK SMILES C=C1CC[C@@H](C(C)C)[C@@H]2C=C(C)CC[C@@H]12
REMARK SMILES IDX 12 1 11 2 10 3 9 4 15 5 14 6 13 7 2 8 1 9 3 10 4 11 5 12
REMARK SMILES IDX 6 13 7 14 8 15
REMARK H PARENT
REMARK Flexibility Score: inf
ROOT
ATOM      1  C   UNL     1     -42.447 -51.124  31.875  1.00  0.00     0.039 C 
ATOM      2  C   UNL     1     -42.645 -50.345  30.602  1.00  0.00    -0.077 C 
ATOM      3  C   UNL     1     -41.673 -49.502  30.191  1.00  0.00    -0.024 C 
ATOM      4  C   UNL     1     -41.804 -48.605  28.965  1.00  0.00     0.022 C 
ATOM      5  C   UNL     1     -42.862 -49.175  27.984  1.00  0.00     0.022 C 
ATOM      6  C   UNL     1     -44.156 -49.514  28.743  1.00  0.00     0.013 C 
ATOM      7  C   UNL     1     -43.882 -50.612  29.772  1.00  0.00     0.031 C 
ATOM      8  C   UNL     1     -43.025 -48.213  26.820  1.00  0.00    -0.074 C 
ATOM      9  C   UNL     1     -44.177 -47.594  26.501  1.00  0.00     0.008 C 
ATOM     10  C   UNL     1     -41.766 -47.920  26.051  1.00  0.00     0.031 C 
ATOM     11  C   UNL     1     -40.691 -47.399  27.010  1.00  0.00     0.009 C 
ATOM     12  C   UNL     1     -40.445 -48.356  28.216  1.00  0.00    -0.001 C 
ENDROOT
BRANCH  12  13
ATOM     13  C   UNL     1     -39.299 -47.855  29.185  1.00  0.00    -0.014 C 
ATOM     14  C   UNL     1     -39.087 -46.328  29.246  1.00  0.00     0.007 C 
ATOM     15  C   UNL     1     -37.953 -48.511  28.823  1.00  0.00     0.007 C 
ENDBRANCH  12  13
TORSDOF 1
ENDMDL
MODEL 7
REMARK VINA RESULT:    -5.920      1.563      5.291
REMARK INTER + INTRA:          -6.531
REMARK INTER:                  -6.282
REMARK INTRA:                  -0.248
REMARK UNBOUND:                -0.265
REMARK SMILES C=C1CC[C@@H](C(C)C)[C@@H]2C=C(C)CC[C@@H]12
REMARK SMILES IDX 12 1 11 2 10 3 9 4 15 5 14 6 13 7 2 8 1 9 3 10 4 11 5 12
REMARK SMILES IDX 6 13 7 14 8 15
REMARK H PARENT
REMARK Flexibility Score: inf
ROOT
ATOM      1  C   UNL     1     -44.745 -51.480  30.767  1.00  0.00     0.039 C 
ATOM      2  C   UNL     1     -43.638 -50.690  30.122  1.00  0.00    -0.077 C 
ATOM      3  C   UNL     1     -43.696 -50.441  28.795  1.00  0.00    -0.024 C 
ATOM      4  C   UNL     1     -42.591 -49.724  28.027  1.00  0.00     0.022 C 
ATOM      5  C   UNL     1     -41.738 -48.854  28.986  1.00  0.00     0.022 C 
ATOM      6  C   UNL     1     -41.313 -49.681  30.212  1.00  0.00     0.013 C 
ATOM      7  C   UNL     1     -42.550 -50.111  31.002  1.00  0.00     0.031 C 
ATOM      8  C   UNL     1     -40.599 -48.224  28.202  1.00  0.00    -0.074 C 
ATOM      9  C   UNL     1     -39.294 -48.432  28.457  1.00  0.00     0.008 C 
ATOM     10  C   UNL     1     -41.021 -47.377  27.032  1.00  0.00     0.031 C 
ATOM     11  C   UNL     1     -41.905 -48.205  26.094  1.00  0.00     0.009 C 
ATOM     12  C   UNL     1     -43.117 -48.856  26.827  1.00  0.00    -0.001 C 
ENDROOT
BRANCH  12  13
ATOM     13  C   UNL     1     -44.067 -49.669  25.857  1.00  0.00    -0.014 C 
ATOM     14  C   UNL     1     -43.614 -49.758  24.386  1.00  0.00     0.007 C 
ATOM     15  C   UNL     1     -45.496 -49.094  25.885  1.00  0.00     0.007 C 
ENDBRANCH  12  13
TORSDOF 1
ENDMDL
MODEL 8
REMARK VINA RESULT:    -5.919     11.073     14.026
REMARK INTER + INTRA:          -6.530
REMARK INTER:                  -6.267
REMARK INTRA:                  -0.263
REMARK UNBOUND:                -0.265
REMARK SMILES C=C1CC[C@@H](C(C)C)[C@@H]2C=C(C)CC[C@@H]12
REMARK SMILES IDX 12 1 11 2 10 3 9 4 15 5 14 6 13 7 2 8 1 9 3 10 4 11 5 12
REMARK SMILES IDX 6 13 7 14 8 15
REMARK H PARENT
REMARK Flexibility Score: inf
ROOT
ATOM      1  C   UNL     1     -56.299 -47.792  20.646  1.00  0.00     0.039 C 
ATOM      2  C   UNL     1     -54.915 -47.720  21.233  1.00  0.00    -0.077 C 
ATOM      3  C   UNL     1     -53.956 -48.543  20.755  1.00  0.00    -0.024 C 
ATOM      4  C   UNL     1     -52.546 -48.611  21.330  1.00  0.00     0.022 C 
ATOM      5  C   UNL     1     -52.198 -47.296  22.075  1.00  0.00     0.022 C 
ATOM      6  C   UNL     1     -53.331 -46.924  23.046  1.00  0.00     0.013 C 
ATOM      7  C   UNL     1     -54.618 -46.652  22.264  1.00  0.00     0.031 C 
ATOM      8  C   UNL     1     -50.822 -47.433  22.705  1.00  0.00    -0.074 C 
ATOM      9  C   UNL     1     -50.579 -47.350  24.026  1.00  0.00     0.008 C 
ATOM     10  C   UNL     1     -49.709 -47.749  21.744  1.00  0.00     0.031 C 
ATOM     11  C   UNL     1     -50.054 -49.022  20.963  1.00  0.00     0.009 C 
ATOM     12  C   UNL     1     -51.442 -48.939  20.260  1.00  0.00    -0.001 C 
ENDROOT
BRANCH  12  13
ATOM     13  C   UNL     1     -51.785 -50.226  19.406  1.00  0.00    -0.014 C 
ATOM     14  C   UNL     1     -51.892 -51.548  20.192  1.00  0.00     0.007 C 
ATOM     15  C   UNL     1     -50.756 -50.421  18.276  1.00  0.00     0.007 C 
ENDBRANCH  12  13
TORSDOF 1
ENDMDL
MODEL 9
REMARK VINA RESULT:    -5.886      1.309      3.988
REMARK INTER + INTRA:          -6.494
REMARK INTER:                  -6.417
REMARK INTRA:                  -0.078
REMARK UNBOUND:                -0.265
REMARK SMILES C=C1CC[C@@H](C(C)C)[C@@H]2C=C(C)CC[C@@H]12
REMARK SMILES IDX 12 1 11 2 10 3 9 4 15 5 14 6 13 7 2 8 1 9 3 10 4 11 5 12
REMARK SMILES IDX 6 13 7 14 8 15
REMARK H PARENT
REMARK Flexibility Score: inf
ROOT
ATOM      1  C   UNL     1     -44.411 -49.835  25.405  1.00  0.00     0.039 C 
ATOM      2  C   UNL     1     -43.296 -49.261  26.236  1.00  0.00    -0.077 C 
ATOM      3  C   UNL     1     -43.246 -49.547  27.556  1.00  0.00    -0.024 C 
ATOM      4  C   UNL     1     -42.210 -48.954  28.504  1.00  0.00     0.022 C 
ATOM      5  C   UNL     1     -40.955 -48.492  27.719  1.00  0.00     0.022 C 
ATOM      6  C   UNL     1     -41.372 -47.632  26.514  1.00  0.00     0.013 C 
ATOM      7  C   UNL     1     -42.207 -48.469  25.544  1.00  0.00     0.031 C 
ATOM      8  C   UNL     1     -39.984 -47.832  28.683  1.00  0.00    -0.074 C 
ATOM      9  C   UNL     1     -39.572 -46.554  28.591  1.00  0.00     0.008 C 
ATOM     10  C   UNL     1     -39.541 -48.693  29.834  1.00  0.00     0.031 C 
ATOM     11  C   UNL     1     -40.769 -49.198  30.596  1.00  0.00     0.009 C 
ATOM     12  C   UNL     1     -41.796 -49.920  29.673  1.00  0.00    -0.001 C 
ENDROOT
BRANCH  12  13
ATOM     13  C   UNL     1     -43.045 -50.494  30.458  1.00  0.00    -0.014 C 
ATOM     14  C   UNL     1     -44.184 -49.493  30.737  1.00  0.00     0.007 C 
ATOM     15  C   UNL     1     -42.608 -51.109  31.802  1.00  0.00     0.007 C 
ENDBRANCH  12  13
TORSDOF 1
ENDMDL
