MODEL 1
REMARK VINA RESULT:    -4.075      0.000      0.000
REMARK INTER + INTRA:          -4.814
REMARK INTER:                  -4.790
REMARK INTRA:                  -0.024
REMARK UNBOUND:                -0.024
REMARK SMILES [NH3+][C@@H](CO)C(=O)[O-]
REMARK SMILES IDX 3 1 2 2 1 3 5 7 6 8 7 9 4 10
REMARK H PARENT 1 4 1 5 1 6 4 11
REMARK Flexibility Score: inf
ROOT
ATOM      1  C   UNL     1      13.628  35.460  13.008  1.00  0.00     0.227 C 
ENDROOT
BRANCH   1   2
ATOM      2  C   UNL     1      14.137  34.278  13.853  1.00  0.00     0.253 C 
BRANCH   2   3
ATOM      3  N   UNL     1      15.606  34.227  13.862  1.00  0.00    -0.348 N 
ATOM      4  H   UNL     1      15.944  33.663  13.048  1.00  0.00     0.345 HD
ATOM      5  H   UNL     1      16.011  35.189  13.805  1.00  0.00     0.345 HD
ATOM      6  H   UNL     1      15.941  33.765  14.738  1.00  0.00     0.345 HD
ENDBRANCH   2   3
BRANCH   2   7
ATOM      7  C   UNL     1      13.569  32.987  13.332  1.00  0.00     0.102 C 
ATOM      8  O   UNL     1      12.711  32.349  14.000  1.00  0.00    -0.544 OA
ATOM      9  O   UNL     1      14.000  32.481  12.113  1.00  0.00    -0.544 OA
ENDBRANCH   2   7
ENDBRANCH   1   2
BRANCH   1  10
ATOM     10  O   UNL     1      12.584  36.129  13.663  1.00  0.00    -0.390 OA
ATOM     11  H   UNL     1      12.952  36.453  14.525  1.00  0.00     0.210 HD
ENDBRANCH   1  10
TORSDOF 4
ENDMDL
MODEL 2
REMARK VINA RESULT:    -4.008      1.911      2.138
REMARK INTER + INTRA:          -4.736
REMARK INTER:                  -4.376
REMARK INTRA:                  -0.360
REMARK UNBOUND:                -0.024
REMARK SMILES [NH3+][C@@H](CO)C(=O)[O-]
REMARK SMILES IDX 3 1 2 2 1 3 5 7 6 8 7 9 4 10
REMARK H PARENT 1 4 1 5 1 6 4 11
REMARK Flexibility Score: inf
ROOT
ATOM      1  C   UNL     1      15.191  34.572  13.704  1.00  0.00     0.227 C 
ENDROOT
BRANCH   1   2
ATOM      2  C   UNL     1      13.773  34.372  13.138  1.00  0.00     0.253 C 
BRANCH   2   3
ATOM      3  N   UNL     1      12.769  35.038  13.977  1.00  0.00    -0.348 N 
ATOM      4  H   UNL     1      12.826  36.074  13.842  1.00  0.00     0.345 HD
ATOM      5  H   UNL     1      11.805  34.712  13.731  1.00  0.00     0.345 HD
ATOM      6  H   UNL     1      12.953  34.832  14.985  1.00  0.00     0.345 HD
ENDBRANCH   2   3
BRANCH   2   7
ATOM      7  C   UNL     1      13.468  32.904  13.016  1.00  0.00     0.102 C 
ATOM      8  O   UNL     1      12.816  32.309  13.915  1.00  0.00    -0.544 OA
ATOM      9  O   UNL     1      13.919  32.191  11.913  1.00  0.00    -0.544 OA
ENDBRANCH   2   7
ENDBRANCH   1   2
BRANCH   1  10
ATOM     10  O   UNL     1      15.893  33.359  13.732  1.00  0.00    -0.390 OA
ATOM     11  H   UNL     1      15.998  33.070  12.789  1.00  0.00     0.210 HD
ENDBRANCH   1  10
TORSDOF 4
ENDMDL
MODEL 3
REMARK VINA RESULT:    -3.871     14.489     14.907
REMARK INTER + INTRA:          -4.574
REMARK INTER:                  -4.188
REMARK INTRA:                  -0.386
REMARK UNBOUND:                -0.024
REMARK SMILES [NH3+][C@@H](CO)C(=O)[O-]
REMARK SMILES IDX 3 1 2 2 1 3 5 7 6 8 7 9 4 10
REMARK H PARENT 1 4 1 5 1 6 4 11
REMARK Flexibility Score: inf
ROOT
ATOM      1  C   UNL     1       4.125  44.543   9.641  1.00  0.00     0.227 C 
ENDROOT
BRANCH   1   2
ATOM      2  C   UNL     1       3.429  45.254  10.817  1.00  0.00     0.253 C 
BRANCH   2   3
ATOM      3  N   UNL     1       4.065  46.546  11.107  1.00  0.00    -0.348 N 
ATOM      4  H   UNL     1       4.769  46.430  11.871  1.00  0.00     0.345 HD
ATOM      5  H   UNL     1       4.541  46.924  10.255  1.00  0.00     0.345 HD
ATOM      6  H   UNL     1       3.346  47.233  11.430  1.00  0.00     0.345 HD
ENDBRANCH   2   3
BRANCH   2   7
ATOM      7  C   UNL     1       3.446  44.374  12.037  1.00  0.00     0.102 C 
ATOM      8  O   UNL     1       4.445  44.362  12.803  1.00  0.00    -0.544 OA
ATOM      9  O   UNL     1       2.359  43.554  12.316  1.00  0.00    -0.544 OA
ENDBRANCH   2   7
ENDBRANCH   1   2
BRANCH   1  10
ATOM     10  O   UNL     1       4.572  43.270  10.023  1.00  0.00    -0.390 OA
ATOM     11  H   UNL     1       5.339  43.411  10.637  1.00  0.00     0.210 HD
ENDBRANCH   1  10
TORSDOF 4
ENDMDL
MODEL 4
REMARK VINA RESULT:    -3.860     12.881     14.093
REMARK INTER + INTRA:          -4.561
REMARK INTER:                  -4.335
REMARK INTRA:                  -0.226
REMARK UNBOUND:                -0.024
REMARK SMILES [NH3+][C@@H](CO)C(=O)[O-]
REMARK SMILES IDX 3 1 2 2 1 3 5 7 6 8 7 9 4 10
REMARK H PARENT 1 4 1 5 1 6 4 11
REMARK Flexibility Score: inf
ROOT
ATOM      1  C   UNL     1       3.311  42.077  11.734  1.00  0.00     0.227 C 
ENDROOT
BRANCH   1   2
ATOM      2  C   UNL     1       3.543  43.311  10.843  1.00  0.00     0.253 C 
BRANCH   2   3
ATOM      3  N   UNL     1       4.564  43.044   9.822  1.00  0.00    -0.348 N 
ATOM      4  H   UNL     1       4.140  42.510   9.029  1.00  0.00     0.345 HD
ATOM      5  H   UNL     1       4.967  43.938   9.458  1.00  0.00     0.345 HD
ATOM      6  H   UNL     1       5.332  42.464  10.229  1.00  0.00     0.345 HD
ENDBRANCH   2   3
BRANCH   2   7
ATOM      7  C   UNL     1       3.940  44.491  11.688  1.00  0.00     0.102 C 
ATOM      8  O   UNL     1       4.404  44.321  12.847  1.00  0.00    -0.544 OA
ATOM      9  O   UNL     1       3.780  45.781  11.198  1.00  0.00    -0.544 OA
ENDBRANCH   2   7
ENDBRANCH   1   2
BRANCH   1  10
ATOM     10  O   UNL     1       4.531  41.483  12.089  1.00  0.00    -0.390 OA
ATOM     11  H   UNL     1       5.085  41.458  11.267  1.00  0.00     0.210 HD
ENDBRANCH   1  10
TORSDOF 4
ENDMDL
MODEL 5
REMARK VINA RESULT:    -3.701      2.085      2.230
REMARK INTER + INTRA:          -4.374
REMARK INTER:                  -4.149
REMARK INTRA:                  -0.225
REMARK UNBOUND:                -0.024
REMARK SMILES [NH3+][C@@H](CO)C(=O)[O-]
REMARK SMILES IDX 3 1 2 2 1 3 5 7 6 8 7 9 4 10
REMARK H PARENT 1 4 1 5 1 6 4 11
REMARK Flexibility Score: inf
ROOT
ATOM      1  C   UNL     1      13.158  35.345  13.574  1.00  0.00     0.227 C 
ENDROOT
BRANCH   1   2
ATOM      2  C   UNL     1      13.631  33.923  13.220  1.00  0.00     0.253 C 
BRANCH   2   3
ATOM      3  N   UNL     1      12.831  32.909  13.921  1.00  0.00    -0.348 N 
ATOM      4  H   UNL     1      12.432  32.233  13.230  1.00  0.00     0.345 HD
ATOM      5  H   UNL     1      13.418  32.387  14.613  1.00  0.00     0.345 HD
ATOM      6  H   UNL     1      12.037  33.366  14.423  1.00  0.00     0.345 HD
ENDBRANCH   2   3
BRANCH   2   7
ATOM      7  C   UNL     1      15.089  33.765  13.553  1.00  0.00     0.102 C 
ATOM      8  O   UNL     1      15.720  34.695  14.122  1.00  0.00    -0.544 OA
ATOM      9  O   UNL     1      15.754  32.592  13.218  1.00  0.00    -0.544 OA
ENDBRANCH   2   7
ENDBRANCH   1   2
BRANCH   1  10
ATOM     10  O   UNL     1      13.656  36.279  12.654  1.00  0.00    -0.390 OA
ATOM     11  H   UNL     1      12.940  36.426  11.983  1.00  0.00     0.210 HD
ENDBRANCH   1  10
TORSDOF 4
ENDMDL
MODEL 6
REMARK VINA RESULT:    -3.632     13.857     14.349
REMARK INTER + INTRA:          -4.293
REMARK INTER:                  -4.074
REMARK INTRA:                  -0.219
REMARK UNBOUND:                -0.024
REMARK SMILES [NH3+][C@@H](CO)C(=O)[O-]
REMARK SMILES IDX 3 1 2 2 1 3 5 7 6 8 7 9 4 10
REMARK H PARENT 1 4 1 5 1 6 4 11
REMARK Flexibility Score: inf
ROOT
ATOM      1  C   UNL     1       4.018  44.078  10.224  1.00  0.00     0.227 C 
ENDROOT
BRANCH   1   2
ATOM      2  C   UNL     1       3.385  44.263  11.616  1.00  0.00     0.253 C 
BRANCH   2   3
ATOM      3  N   UNL     1       4.415  44.326  12.662  1.00  0.00    -0.348 N 
ATOM      4  H   UNL     1       5.104  43.550  12.528  1.00  0.00     0.345 HD
ATOM      5  H   UNL     1       4.920  45.242  12.630  1.00  0.00     0.345 HD
ATOM      6  H   UNL     1       3.976  44.211  13.603  1.00  0.00     0.345 HD
ENDBRANCH   2   3
BRANCH   2   7
ATOM      7  C   UNL     1       2.419  43.145  11.897  1.00  0.00     0.102 C 
ATOM      8  O   UNL     1       1.198  43.388  12.094  1.00  0.00    -0.544 OA
ATOM      9  O   UNL     1       2.873  41.833  11.957  1.00  0.00    -0.544 OA
ENDBRANCH   2   7
ENDBRANCH   1   2
BRANCH   1  10
ATOM     10  O   UNL     1       4.769  42.895  10.171  1.00  0.00    -0.390 OA
ATOM     11  H   UNL     1       4.678  42.461  11.058  1.00  0.00     0.210 HD
ENDBRANCH   1  10
TORSDOF 4
ENDMDL
MODEL 7
REMARK VINA RESULT:    -3.622     14.839     15.321
REMARK INTER + INTRA:          -4.281
REMARK INTER:                  -3.907
REMARK INTRA:                  -0.374
REMARK UNBOUND:                -0.024
REMARK SMILES [NH3+][C@@H](CO)C(=O)[O-]
REMARK SMILES IDX 3 1 2 2 1 3 5 7 6 8 7 9 4 10
REMARK H PARENT 1 4 1 5 1 6 4 11
REMARK Flexibility Score: inf
ROOT
ATOM      1  C   UNL     1       2.617  43.261   9.093  1.00  0.00     0.227 C 
ENDROOT
BRANCH   1   2
ATOM      2  C   UNL     1       4.035  43.748   9.446  1.00  0.00     0.253 C 
BRANCH   2   3
ATOM      3  N   UNL     1       4.608  42.959  10.546  1.00  0.00    -0.348 N 
ATOM      4  H   UNL     1       4.094  43.166  11.434  1.00  0.00     0.345 HD
ATOM      5  H   UNL     1       4.542  41.936  10.341  1.00  0.00     0.345 HD
ATOM      6  H   UNL     1       5.611  43.217  10.684  1.00  0.00     0.345 HD
ENDBRANCH   2   3
BRANCH   2   7
ATOM      7  C   UNL     1       4.005  45.208   9.806  1.00  0.00     0.102 C 
ATOM      8  O   UNL     1       4.372  46.080   8.975  1.00  0.00    -0.544 OA
ATOM      9  O   UNL     1       3.584  45.603  11.070  1.00  0.00    -0.544 OA
ENDBRANCH   2   7
ENDBRANCH   1   2
BRANCH   1  10
ATOM     10  O   UNL     1       1.774  44.344   8.808  1.00  0.00    -0.390 OA
ATOM     11  H   UNL     1       1.910  45.008   9.533  1.00  0.00     0.210 HD
ENDBRANCH   1  10
TORSDOF 4
ENDMDL
MODEL 8
REMARK VINA RESULT:    -3.599     14.617     15.223
REMARK INTER + INTRA:          -4.254
REMARK INTER:                  -4.016
REMARK INTRA:                  -0.238
REMARK UNBOUND:                -0.024
REMARK SMILES [NH3+][C@@H](CO)C(=O)[O-]
REMARK SMILES IDX 3 1 2 2 1 3 5 7 6 8 7 9 4 10
REMARK H PARENT 1 4 1 5 1 6 4 11
REMARK Flexibility Score: inf
ROOT
ATOM      1  C   UNL     1       4.494  45.750  10.283  1.00  0.00     0.227 C 
ENDROOT
BRANCH   1   2
ATOM      2  C   UNL     1       4.181  44.471  11.082  1.00  0.00     0.253 C 
BRANCH   2   3
ATOM      3  N   UNL     1       4.545  43.268  10.322  1.00  0.00    -0.348 N 
ATOM      4  H   UNL     1       3.699  42.668  10.183  1.00  0.00     0.345 HD
ATOM      5  H   UNL     1       4.940  43.525   9.388  1.00  0.00     0.345 HD
ATOM      6  H   UNL     1       5.254  42.713  10.852  1.00  0.00     0.345 HD
ENDBRANCH   2   3
BRANCH   2   7
ATOM      7  C   UNL     1       2.723  44.438  11.453  1.00  0.00     0.102 C 
ATOM      8  O   UNL     1       2.329  43.764  12.441  1.00  0.00    -0.544 OA
ATOM      9  O   UNL     1       1.798  45.143  10.693  1.00  0.00    -0.544 OA
ENDBRANCH   2   7
ENDBRANCH   1   2
BRANCH   1  10
ATOM     10  O   UNL     1       4.144  46.894  11.014  1.00  0.00    -0.390 OA
ATOM     11  H   UNL     1       3.233  46.733  11.372  1.00  0.00     0.210 HD
ENDBRANCH   1  10
TORSDOF 4
ENDMDL
MODEL 9
REMARK VINA RESULT:    -3.588      1.918      3.079
REMARK INTER + INTRA:          -4.241
REMARK INTER:                  -4.134
REMARK INTRA:                  -0.107
REMARK UNBOUND:                -0.024
REMARK SMILES [NH3+][C@@H](CO)C(=O)[O-]
REMARK SMILES IDX 3 1 2 2 1 3 5 7 6 8 7 9 4 10
REMARK H PARENT 1 4 1 5 1 6 4 11
REMARK Flexibility Score: inf
ROOT
ATOM      1  C   UNL     1      12.928  31.424  13.859  1.00  0.00     0.227 C 
ENDROOT
BRANCH   1   2
ATOM      2  C   UNL     1      13.315  32.499  12.827  1.00  0.00     0.253 C 
BRANCH   2   3
ATOM      3  N   UNL     1      14.272  31.972  11.845  1.00  0.00    -0.348 N 
ATOM      4  H   UNL     1      13.760  31.634  10.998  1.00  0.00     0.345 HD
ATOM      5  H   UNL     1      14.957  32.710  11.562  1.00  0.00     0.345 HD
ATOM      6  H   UNL     1      14.792  31.162  12.254  1.00  0.00     0.345 HD
ENDBRANCH   2   3
BRANCH   2   7
ATOM      7  C   UNL     1      13.886  33.704  13.524  1.00  0.00     0.102 C 
ATOM      8  O   UNL     1      13.125  34.589  13.998  1.00  0.00    -0.544 OA
ATOM      9  O   UNL     1      15.262  33.853  13.636  1.00  0.00    -0.544 OA
ENDBRANCH   2   7
ENDBRANCH   1   2
BRANCH   1  10
ATOM     10  O   UNL     1      11.638  31.653  14.358  1.00  0.00    -0.390 OA
ATOM     11  H   UNL     1      11.741  31.868  15.321  1.00  0.00     0.210 HD
ENDBRANCH   1  10
TORSDOF 4
ENDMDL
