MODEL 1
REMARK VINA RESULT:    -3.178      0.000      0.000
REMARK INTER + INTRA:          -4.251
REMARK INTER:                  -3.921
REMARK INTRA:                  -0.330
REMARK UNBOUND:                -0.330
REMARK SMILES C=CCc1ccc(OC)c(OC)c1
REMARK SMILES IDX 7 1 10 2 13 3 4 4 5 5 6 6 8 7 9 8 11 9 12 10 3 11 2 12 1 13
REMARK H PARENT
REMARK Flexibility Score: inf
ROOT
ATOM      1  C   UNL     1     109.998 111.141 104.671  1.00  0.00     0.160 A 
ATOM      2  C   UNL     1     108.597 111.171 104.762  1.00  0.00     0.160 A 
ATOM      3  C   UNL     1     107.858 109.993 104.537  1.00  0.00     0.054 A 
ATOM      4  C   UNL     1     108.510 108.792 104.217  1.00  0.00    -0.040 A 
ATOM      5  C   UNL     1     109.908 108.768 104.139  1.00  0.00     0.008 A 
ATOM      6  C   UNL     1     110.648 109.931 104.360  1.00  0.00     0.051 A 
ENDROOT
BRANCH   1   7
ATOM      7  O   UNL     1     110.707 112.330 104.899  1.00  0.00    -0.493 OA
ATOM      8  C   UNL     1     111.369 113.081 103.886  1.00  0.00     0.278 C 
ENDBRANCH   1   7
BRANCH   2   9
ATOM      9  O   UNL     1     107.977 112.391 105.078  1.00  0.00    -0.493 OA
ATOM     10  C   UNL     1     106.971 112.549 106.074  1.00  0.00     0.278 C 
ENDBRANCH   2   9
BRANCH   4  11
ATOM     11  C   UNL     1     107.713 107.532 104.009  1.00  0.00     0.062 C 
BRANCH  11  12
ATOM     12  C   UNL     1     107.927 106.570 105.145  1.00  0.00    -0.030 C 
ATOM     13  C   UNL     1     107.463 106.819 106.372  1.00  0.00     0.004 C 
ENDBRANCH  11  12
ENDBRANCH   4  11
TORSDOF 4
ENDMDL
MODEL 2
REMARK VINA RESULT:    -3.164      2.250      4.194
REMARK INTER + INTRA:          -4.234
REMARK INTER:                  -3.931
REMARK INTRA:                  -0.302
REMARK UNBOUND:                -0.330
REMARK SMILES C=CCc1ccc(OC)c(OC)c1
REMARK SMILES IDX 7 1 10 2 13 3 4 4 5 5 6 6 8 7 9 8 11 9 12 10 3 11 2 12 1 13
REMARK H PARENT
REMARK Flexibility Score: inf
ROOT
ATOM      1  C   UNL     1     111.340 109.442 104.681  1.00  0.00     0.160 A 
ATOM      2  C   UNL     1     110.110 109.008 104.161  1.00  0.00     0.160 A 
ATOM      3  C   UNL     1     109.078 109.941 103.938  1.00  0.00     0.054 A 
ATOM      4  C   UNL     1     109.268 111.299 104.236  1.00  0.00    -0.040 A 
ATOM      5  C   UNL     1     110.502 111.726 104.744  1.00  0.00     0.008 A 
ATOM      6  C   UNL     1     111.529 110.807 104.969  1.00  0.00     0.051 A 
ENDROOT
BRANCH   1   7
ATOM      7  O   UNL     1     112.348 108.490 104.893  1.00  0.00    -0.493 OA
ATOM      8  C   UNL     1     113.494 108.329 104.063  1.00  0.00     0.278 C 
ENDBRANCH   1   7
BRANCH   2   9
ATOM      9  O   UNL     1     109.952 107.641 103.879  1.00  0.00    -0.493 OA
ATOM     10  C   UNL     1     108.707 106.949 103.912  1.00  0.00     0.278 C 
ENDBRANCH   2   9
BRANCH   4  11
ATOM     11  C   UNL     1     108.170 112.293 103.966  1.00  0.00     0.062 C 
BRANCH  11  12
ATOM     12  C   UNL     1     106.942 111.963 104.767  1.00  0.00    -0.030 C 
ATOM     13  C   UNL     1     106.770 112.419 106.011  1.00  0.00     0.004 C 
ENDBRANCH  11  12
ENDBRANCH   4  11
TORSDOF 4
ENDMDL
MODEL 3
REMARK VINA RESULT:    -3.159      1.507      3.056
REMARK INTER + INTRA:          -4.228
REMARK INTER:                  -3.917
REMARK INTRA:                  -0.310
REMARK UNBOUND:                -0.330
REMARK SMILES C=CCc1ccc(OC)c(OC)c1
REMARK SMILES IDX 7 1 10 2 13 3 4 4 5 5 6 6 8 7 9 8 11 9 12 10 3 11 2 12 1 13
REMARK H PARENT
REMARK Flexibility Score: inf
ROOT
ATOM      1  C   UNL     1     110.867 111.050 104.503  1.00  0.00     0.160 A 
ATOM      2  C   UNL     1     111.225 109.747 104.119  1.00  0.00     0.160 A 
ATOM      3  C   UNL     1     110.228 108.761 103.987  1.00  0.00     0.054 A 
ATOM      4  C   UNL     1     108.883 109.067 104.242  1.00  0.00    -0.040 A 
ATOM      5  C   UNL     1     108.533 110.371 104.615  1.00  0.00     0.008 A 
ATOM      6  C   UNL     1     109.515 111.354 104.748  1.00  0.00     0.051 A 
ENDROOT
BRANCH   1   7
ATOM      7  O   UNL     1     111.882 112.011 104.627  1.00  0.00    -0.493 OA
ATOM      8  C   UNL     1     111.883 113.273 103.967  1.00  0.00     0.278 C 
ENDBRANCH   1   7
BRANCH   2   9
ATOM      9  O   UNL     1     112.581 109.474 103.876  1.00  0.00    -0.493 OA
ATOM     10  C   UNL     1     113.171 108.180 103.961  1.00  0.00     0.278 C 
ENDBRANCH   2   9
BRANCH   4  11
ATOM     11  C   UNL     1     107.822 108.013 104.069  1.00  0.00     0.062 C 
BRANCH  11  12
ATOM     12  C   UNL     1     108.024 106.886 105.043  1.00  0.00    -0.030 C 
ATOM     13  C   UNL     1     107.672 106.996 106.327  1.00  0.00     0.004 C 
ENDBRANCH  11  12
ENDBRANCH   4  11
TORSDOF 4
ENDMDL
MODEL 4
REMARK VINA RESULT:    -3.138      2.016      4.732
REMARK INTER + INTRA:          -4.202
REMARK INTER:                  -3.920
REMARK INTRA:                  -0.282
REMARK UNBOUND:                -0.330
REMARK SMILES C=CCc1ccc(OC)c(OC)c1
REMARK SMILES IDX 7 1 10 2 13 3 4 4 5 5 6 6 8 7 9 8 11 9 12 10 3 11 2 12 1 13
REMARK H PARENT
REMARK Flexibility Score: inf
ROOT
ATOM      1  C   UNL     1     109.640 108.675 104.734  1.00  0.00     0.160 A 
ATOM      2  C   UNL     1     109.215 109.894 104.181  1.00  0.00     0.160 A 
ATOM      3  C   UNL     1     110.152 110.919 103.949  1.00  0.00     0.054 A 
ATOM      4  C   UNL     1     111.505 110.735 104.272  1.00  0.00    -0.040 A 
ATOM      5  C   UNL     1     111.923 109.512 104.813  1.00  0.00     0.008 A 
ATOM      6  C   UNL     1     111.000 108.491 105.046  1.00  0.00     0.051 A 
ENDROOT
BRANCH   1   7
ATOM      7  O   UNL     1     108.683 107.672 104.955  1.00  0.00    -0.493 OA
ATOM      8  C   UNL     1     108.315 106.683 103.998  1.00  0.00     0.278 C 
ENDBRANCH   1   7
BRANCH   2   9
ATOM      9  O   UNL     1     107.852 110.046 103.875  1.00  0.00    -0.493 OA
ATOM     10  C   UNL     1     107.149 111.284 103.922  1.00  0.00     0.278 C 
ENDBRANCH   2   9
BRANCH   4  11
ATOM     11  C   UNL     1     112.504 111.825 103.992  1.00  0.00     0.062 C 
BRANCH  11  12
ATOM     12  C   UNL     1     112.250 113.020 104.868  1.00  0.00    -0.030 C 
ATOM     13  C   UNL     1     112.565 113.020 106.166  1.00  0.00     0.004 C 
ENDBRANCH  11  12
ENDBRANCH   4  11
TORSDOF 4
ENDMDL
MODEL 5
REMARK VINA RESULT:    -3.125      1.808      3.643
REMARK INTER + INTRA:          -4.186
REMARK INTER:                  -3.926
REMARK INTRA:                  -0.260
REMARK UNBOUND:                -0.330
REMARK SMILES C=CCc1ccc(OC)c(OC)c1
REMARK SMILES IDX 7 1 10 2 13 3 4 4 5 5 6 6 8 7 9 8 11 9 12 10 3 11 2 12 1 13
REMARK H PARENT
REMARK Flexibility Score: inf
ROOT
ATOM      1  C   UNL     1     108.726 110.720 104.753  1.00  0.00     0.160 A 
ATOM      2  C   UNL     1     110.062 111.113 104.574  1.00  0.00     0.160 A 
ATOM      3  C   UNL     1     111.074 110.135 104.515  1.00  0.00     0.054 A 
ATOM      4  C   UNL     1     110.760 108.773 104.640  1.00  0.00    -0.040 A 
ATOM      5  C   UNL     1     109.423 108.389 104.807  1.00  0.00     0.008 A 
ATOM      6  C   UNL     1     108.414 109.352 104.867  1.00  0.00     0.051 A 
ENDROOT
BRANCH   1   7
ATOM      7  O   UNL     1     107.739 111.716 104.809  1.00  0.00    -0.493 OA
ATOM      8  C   UNL     1     106.626 111.799 103.925  1.00  0.00     0.278 C 
ENDBRANCH   1   7
BRANCH   2   9
ATOM      9  O   UNL     1     110.343 112.484 104.459  1.00  0.00    -0.493 OA
ATOM     10  C   UNL     1     111.527 113.019 103.875  1.00  0.00     0.278 C 
ENDBRANCH   2   9
BRANCH   4  11
ATOM     11  C   UNL     1     111.845 107.735 104.545  1.00  0.00     0.062 C 
BRANCH  11  12
ATOM     12  C   UNL     1     113.022 108.112 105.401  1.00  0.00    -0.030 C 
ATOM     13  C   UNL     1     113.404 107.365 106.440  1.00  0.00     0.004 C 
ENDBRANCH  11  12
ENDBRANCH   4  11
TORSDOF 4
ENDMDL
MODEL 6
REMARK VINA RESULT:    -3.123      2.460      4.075
REMARK INTER + INTRA:          -4.183
REMARK INTER:                  -3.914
REMARK INTRA:                  -0.269
REMARK UNBOUND:                -0.330
REMARK SMILES C=CCc1ccc(OC)c(OC)c1
REMARK SMILES IDX 7 1 10 2 13 3 4 4 5 5 6 6 8 7 9 8 11 9 12 10 3 11 2 12 1 13
REMARK H PARENT
REMARK Flexibility Score: inf
ROOT
ATOM      1  C   UNL     1     108.665 109.650 104.210  1.00  0.00     0.160 A 
ATOM      2  C   UNL     1     108.795 108.309 104.607  1.00  0.00     0.160 A 
ATOM      3  C   UNL     1     110.073 107.719 104.663  1.00  0.00     0.054 A 
ATOM      4  C   UNL     1     111.215 108.457 104.320  1.00  0.00    -0.040 A 
ATOM      5  C   UNL     1     111.079 109.798 103.935  1.00  0.00     0.008 A 
ATOM      6  C   UNL     1     109.815 110.389 103.877  1.00  0.00     0.051 A 
ENDROOT
BRANCH   1   7
ATOM      7  O   UNL     1     107.379 110.210 104.162  1.00  0.00    -0.493 OA
ATOM      8  C   UNL     1     107.080 111.568 104.469  1.00  0.00     0.278 C 
ENDBRANCH   1   7
BRANCH   2   9
ATOM      9  O   UNL     1     107.630 107.598 104.938  1.00  0.00    -0.493 OA
ATOM     10  C   UNL     1     107.462 106.836 106.130  1.00  0.00     0.278 C 
ENDBRANCH   2   9
BRANCH   4  11
ATOM     11  C   UNL     1     112.579 107.827 104.413  1.00  0.00     0.062 C 
BRANCH  11  12
ATOM     12  C   UNL     1     113.177 108.045 105.775  1.00  0.00    -0.030 C 
ATOM     13  C   UNL     1     113.378 107.033 106.624  1.00  0.00     0.004 C 
ENDBRANCH  11  12
ENDBRANCH   4  11
TORSDOF 4
ENDMDL
MODEL 7
REMARK VINA RESULT:    -3.078      2.569      5.715
REMARK INTER + INTRA:          -4.128
REMARK INTER:                  -3.882
REMARK INTRA:                  -0.246
REMARK UNBOUND:                -0.330
REMARK SMILES C=CCc1ccc(OC)c(OC)c1
REMARK SMILES IDX 7 1 10 2 13 3 4 4 5 5 6 6 8 7 9 8 11 9 12 10 3 11 2 12 1 13
REMARK H PARENT
REMARK Flexibility Score: inf
ROOT
ATOM      1  C   UNL     1     109.931 109.494 104.320  1.00  0.00     0.160 A 
ATOM      2  C   UNL     1     111.335 109.478 104.335  1.00  0.00     0.160 A 
ATOM      3  C   UNL     1     112.042 110.657 104.641  1.00  0.00     0.054 A 
ATOM      4  C   UNL     1     111.357 111.848 104.923  1.00  0.00    -0.040 A 
ATOM      5  C   UNL     1     109.956 111.853 104.916  1.00  0.00     0.008 A 
ATOM      6  C   UNL     1     109.247 110.689 104.614  1.00  0.00     0.051 A 
ENDROOT
BRANCH   1   7
ATOM      7  O   UNL     1     109.253 108.305 104.011  1.00  0.00    -0.493 OA
ATOM      8  C   UNL     1     108.593 107.481 104.967  1.00  0.00     0.278 C 
ENDBRANCH   1   7
BRANCH   2   9
ATOM      9  O   UNL     1     111.990 108.270 104.043  1.00  0.00    -0.493 OA
ATOM     10  C   UNL     1     113.398 108.136 103.876  1.00  0.00     0.278 C 
ENDBRANCH   2   9
BRANCH   4  11
ATOM     11  C   UNL     1     112.122 113.095 105.278  1.00  0.00     0.062 C 
BRANCH  11  12
ATOM     12  C   UNL     1     112.453 113.119 106.744  1.00  0.00    -0.030 C 
ATOM     13  C   UNL     1     113.547 113.730 107.208  1.00  0.00     0.004 C 
ENDBRANCH  11  12
ENDBRANCH   4  11
TORSDOF 4
ENDMDL
MODEL 8
REMARK VINA RESULT:    -3.033      1.949      3.914
REMARK INTER + INTRA:          -4.072
REMARK INTER:                  -3.755
REMARK INTRA:                  -0.317
REMARK UNBOUND:                -0.330
REMARK SMILES C=CCc1ccc(OC)c(OC)c1
REMARK SMILES IDX 7 1 10 2 13 3 4 4 5 5 6 6 8 7 9 8 11 9 12 10 3 11 2 12 1 13
REMARK H PARENT
REMARK Flexibility Score: inf
ROOT
ATOM      1  C   UNL     1     110.775 109.830 104.557  1.00  0.00     0.160 A 
ATOM      2  C   UNL     1     110.674 111.219 104.377  1.00  0.00     0.160 A 
ATOM      3  C   UNL     1     109.429 111.855 104.548  1.00  0.00     0.054 A 
ATOM      4  C   UNL     1     108.289 111.113 104.890  1.00  0.00    -0.040 A 
ATOM      5  C   UNL     1     108.400 109.729 105.079  1.00  0.00     0.008 A 
ATOM      6  C   UNL     1     109.631 109.091 104.911  1.00  0.00     0.051 A 
ENDROOT
BRANCH   1   7
ATOM      7  O   UNL     1     112.028 109.223 104.379  1.00  0.00    -0.493 OA
ATOM      8  C   UNL     1     112.652 108.366 105.330  1.00  0.00     0.278 C 
ENDBRANCH   1   7
BRANCH   2   9
ATOM      9  O   UNL     1     111.834 111.931 104.029  1.00  0.00    -0.493 OA
ATOM     10  C   UNL     1     111.899 113.347 103.888  1.00  0.00     0.278 C 
ENDBRANCH   2   9
BRANCH   4  11
ATOM     11  C   UNL     1     106.970 111.807 105.100  1.00  0.00     0.062 C 
BRANCH  11  12
ATOM     12  C   UNL     1     107.030 112.721 106.292  1.00  0.00    -0.030 C 
ATOM     13  C   UNL     1     107.115 112.246 107.537  1.00  0.00     0.004 C 
ENDBRANCH  11  12
ENDBRANCH   4  11
TORSDOF 4
ENDMDL
MODEL 9
REMARK VINA RESULT:    -3.001      3.412      5.438
REMARK INTER + INTRA:          -4.033
REMARK INTER:                  -3.733
REMARK INTRA:                  -0.300
REMARK UNBOUND:                -0.330
REMARK SMILES C=CCc1ccc(OC)c(OC)c1
REMARK SMILES IDX 7 1 10 2 13 3 4 4 5 5 6 6 8 7 9 8 11 9 12 10 3 11 2 12 1 13
REMARK H PARENT
REMARK Flexibility Score: inf
ROOT
ATOM      1  C   UNL     1     108.117 107.375 107.191  1.00  0.00     0.160 A 
ATOM      2  C   UNL     1     108.570 107.700 105.902  1.00  0.00     0.160 A 
ATOM      3  C   UNL     1     109.908 108.097 105.713  1.00  0.00     0.054 A 
ATOM      4  C   UNL     1     110.789 108.177 106.802  1.00  0.00    -0.040 A 
ATOM      5  C   UNL     1     110.332 107.841 108.083  1.00  0.00     0.008 A 
ATOM      6  C   UNL     1     109.007 107.447 108.278  1.00  0.00     0.051 A 
ENDROOT
BRANCH   1   7
ATOM      7  O   UNL     1     106.778 106.983 107.348  1.00  0.00    -0.493 OA
ATOM      8  C   UNL     1     106.356 105.819 108.052  1.00  0.00     0.278 C 
ENDBRANCH   1   7
BRANCH   2   9
ATOM      9  O   UNL     1     107.660 107.614 104.835  1.00  0.00    -0.493 OA
ATOM     10  C   UNL     1     107.444 108.643 103.875  1.00  0.00     0.278 C 
ENDBRANCH   2   9
BRANCH   4  11
ATOM     11  C   UNL     1     112.225 108.574 106.585  1.00  0.00     0.062 C 
BRANCH  11  12
ATOM     12  C   UNL     1     113.060 107.380 106.216  1.00  0.00    -0.030 C 
ATOM     13  C   UNL     1     113.744 106.690 107.133  1.00  0.00     0.004 C 
ENDBRANCH  11  12
ENDBRANCH   4  11
TORSDOF 4
ENDMDL
