MODEL 1
REMARK VINA RESULT:    -6.855      0.000      0.000
REMARK INTER + INTRA:         -19.491
REMARK INTER:                 -17.273
REMARK INTRA:                  -2.218
REMARK UNBOUND:                -2.218
REMARK SMILES CCCCCCCCCCCCCCCCCCCCCCCCCCCC(=O)[O-]
REMARK SMILES IDX 15 1 16 2 17 3 18 4 19 5 20 6 21 7 22 8 23 9 24 10 25 11
REMARK SMILES IDX 26 12 27 13 28 14 29 15 30 16 14 17 13 18 12 19 11 20 10 21
REMARK SMILES IDX 9 22 8 23 7 24 6 25 5 26 4 27 3 28 2 29 1 30
REMARK H PARENT
REMARK Flexibility Score: inf
ROOT
ATOM      1  C   UNL     1     -21.697 -21.436  31.416  1.00  0.00     0.000 C 
ENDROOT
BRANCH   1   2
ATOM      2  C   UNL     1     -22.797 -22.294  32.065  1.00  0.00     0.000 C 
BRANCH   2   3
ATOM      3  C   UNL     1     -22.807 -23.736  31.538  1.00  0.00     0.000 C 
BRANCH   3   4
ATOM      4  C   UNL     1     -22.115 -23.876  30.171  1.00  0.00     0.000 C 
BRANCH   4   5
ATOM      5  C   UNL     1     -23.108 -24.160  29.032  1.00  0.00     0.000 C 
BRANCH   5   6
ATOM      6  C   UNL     1     -23.241 -25.644  28.640  1.00  0.00     0.000 C 
BRANCH   6   7
ATOM      7  C   UNL     1     -23.932 -26.510  29.715  1.00  0.00     0.000 C 
BRANCH   7   8
ATOM      8  C   UNL     1     -25.304 -25.944  30.124  1.00  0.00     0.000 C 
BRANCH   8   9
ATOM      9  C   UNL     1     -26.106 -26.912  31.009  1.00  0.00     0.000 C 
BRANCH   9  10
ATOM     10  C   UNL     1     -25.957 -28.376  30.574  1.00  0.00     0.000 C 
BRANCH  10  11
ATOM     11  C   UNL     1     -26.892 -28.700  29.399  1.00  0.00     0.000 C 
BRANCH  11  12
ATOM     12  C   UNL     1     -26.164 -28.693  28.044  1.00  0.00     0.006 C 
BRANCH  12  13
ATOM     13  C   UNL     1     -26.893 -27.859  26.981  1.00  0.00     0.053 C 
BRANCH  13  14
ATOM     14  C   UNL     1     -27.096 -28.647  25.721  1.00  0.00     0.041 C 
ATOM     15  O   UNL     1     -28.258 -28.958  25.348  1.00  0.00    -0.550 OA
ATOM     16  O   UNL     1     -25.999 -29.076  24.980  1.00  0.00    -0.550 OA
ENDBRANCH  13  14
ENDBRANCH  12  13
ENDBRANCH  11  12
ENDBRANCH  10  11
ENDBRANCH   9  10
ENDBRANCH   8   9
ENDBRANCH   7   8
ENDBRANCH   6   7
ENDBRANCH   5   6
ENDBRANCH   4   5
ENDBRANCH   3   4
ENDBRANCH   2   3
ENDBRANCH   1   2
BRANCH   1  17
ATOM     17  C   UNL     1     -22.256 -20.258  30.597  1.00  0.00     0.000 C 
BRANCH  17  18
ATOM     18  C   UNL     1     -21.646 -20.082  29.190  1.00  0.00     0.000 C 
BRANCH  18  19
ATOM     19  C   UNL     1     -20.810 -18.803  28.992  1.00  0.00     0.000 C 
BRANCH  19  20
ATOM     20  C   UNL     1     -19.420 -18.828  29.655  1.00  0.00     0.000 C 
BRANCH  20  21
ATOM     21  C   UNL     1     -19.427 -18.369  31.128  1.00  0.00     0.000 C 
BRANCH  21  22
ATOM     22  C   UNL     1     -19.514 -16.842  31.270  1.00  0.00    -0.000 C 
BRANCH  22  23
ATOM     23  C   UNL     1     -18.120 -16.207  31.217  1.00  0.00    -0.000 C 
BRANCH  23  24
ATOM     24  C   UNL     1     -18.083 -15.036  30.224  1.00  0.00    -0.000 C 
BRANCH  24  25
ATOM     25  C   UNL     1     -17.326 -15.386  28.934  1.00  0.00    -0.000 C 
BRANCH  25  26
ATOM     26  C   UNL     1     -18.240 -15.997  27.861  1.00  0.00    -0.000 C 
BRANCH  26  27
ATOM     27  C   UNL     1     -17.459 -16.265  26.565  1.00  0.00    -0.000 C 
BRANCH  27  28
ATOM     28  C   UNL     1     -17.426 -15.045  25.631  1.00  0.00    -0.000 C 
BRANCH  28  29
ATOM     29  C   UNL     1     -16.059 -14.860  24.955  1.00  0.00    -0.003 C 
ATOM     30  C   UNL     1     -15.623 -16.135  24.238  1.00  0.00     0.004 C 
ENDBRANCH  28  29
ENDBRANCH  27  28
ENDBRANCH  26  27
ENDBRANCH  25  26
ENDBRANCH  24  25
ENDBRANCH  23  24
ENDBRANCH  22  23
ENDBRANCH  21  22
ENDBRANCH  20  21
ENDBRANCH  19  20
ENDBRANCH  18  19
ENDBRANCH  17  18
ENDBRANCH   1  17
TORSDOF 26
ENDMDL
MODEL 2
REMARK VINA RESULT:    -6.790      4.347     12.544
REMARK INTER + INTRA:         -19.327
REMARK INTER:                 -16.905
REMARK INTRA:                  -2.423
REMARK UNBOUND:                -2.218
REMARK SMILES CCCCCCCCCCCCCCCCCCCCCCCCCCCC(=O)[O-]
REMARK SMILES IDX 15 1 16 2 17 3 18 4 19 5 20 6 21 7 22 8 23 9 24 10 25 11
REMARK SMILES IDX 26 12 27 13 28 14 29 15 30 16 14 17 13 18 12 19 11 20 10 21
REMARK SMILES IDX 9 22 8 23 7 24 6 25 5 26 4 27 3 28 2 29 1 30
REMARK H PARENT
REMARK Flexibility Score: inf
ROOT
ATOM      1  C   UNL     1     -21.798 -21.467  31.578  1.00  0.00     0.000 C 
ENDROOT
BRANCH   1   2
ATOM      2  C   UNL     1     -22.312 -20.379  30.619  1.00  0.00     0.000 C 
BRANCH   2   3
ATOM      3  C   UNL     1     -21.706 -20.500  29.213  1.00  0.00     0.000 C 
BRANCH   3   4
ATOM      4  C   UNL     1     -21.532 -19.138  28.520  1.00  0.00     0.000 C 
BRANCH   4   5
ATOM      5  C   UNL     1     -20.661 -18.168  29.336  1.00  0.00     0.000 C 
BRANCH   5   6
ATOM      6  C   UNL     1     -19.351 -18.771  29.880  1.00  0.00     0.000 C 
BRANCH   6   7
ATOM      7  C   UNL     1     -19.157 -18.563  31.397  1.00  0.00     0.000 C 
BRANCH   7   8
ATOM      8  C   UNL     1     -18.953 -17.081  31.760  1.00  0.00     0.000 C 
BRANCH   8   9
ATOM      9  C   UNL     1     -17.803 -16.430  30.975  1.00  0.00     0.000 C 
BRANCH   9  10
ATOM     10  C   UNL     1     -18.183 -15.066  30.384  1.00  0.00     0.000 C 
BRANCH  10  11
ATOM     11  C   UNL     1     -17.595 -14.891  28.977  1.00  0.00     0.000 C 
BRANCH  11  12
ATOM     12  C   UNL     1     -18.235 -15.835  27.946  1.00  0.00     0.006 C 
BRANCH  12  13
ATOM     13  C   UNL     1     -17.272 -16.220  26.813  1.00  0.00     0.053 C 
BRANCH  13  14
ATOM     14  C   UNL     1     -17.425 -15.299  25.639  1.00  0.00     0.041 C 
ATOM     15  O   UNL     1     -18.559 -15.116  25.120  1.00  0.00    -0.550 OA
ATOM     16  O   UNL     1     -16.309 -14.677  25.087  1.00  0.00    -0.550 OA
ENDBRANCH  13  14
ENDBRANCH  12  13
ENDBRANCH  11  12
ENDBRANCH  10  11
ENDBRANCH   9  10
ENDBRANCH   8   9
ENDBRANCH   7   8
ENDBRANCH   6   7
ENDBRANCH   5   6
ENDBRANCH   4   5
ENDBRANCH   3   4
ENDBRANCH   2   3
ENDBRANCH   1   2
BRANCH   1  17
ATOM     17  C   UNL     1     -22.915 -22.397  32.088  1.00  0.00     0.000 C 
BRANCH  17  18
ATOM     18  C   UNL     1     -23.022 -23.759  31.368  1.00  0.00     0.000 C 
BRANCH  18  19
ATOM     19  C   UNL     1     -22.246 -23.863  30.041  1.00  0.00     0.000 C 
BRANCH  19  20
ATOM     20  C   UNL     1     -23.038 -24.484  28.874  1.00  0.00     0.000 C 
BRANCH  20  21
ATOM     21  C   UNL     1     -24.255 -25.318  29.325  1.00  0.00     0.000 C 
BRANCH  21  22
ATOM     22  C   UNL     1     -23.907 -26.796  29.554  1.00  0.00    -0.000 C 
BRANCH  22  23
ATOM     23  C   UNL     1     -24.709 -27.372  30.727  1.00  0.00    -0.000 C 
BRANCH  23  24
ATOM     24  C   UNL     1     -26.193 -27.523  30.360  1.00  0.00    -0.000 C 
BRANCH  24  25
ATOM     25  C   UNL     1     -26.598 -28.989  30.149  1.00  0.00    -0.000 C 
BRANCH  25  26
ATOM     26  C   UNL     1     -26.616 -29.388  28.665  1.00  0.00    -0.000 C 
BRANCH  26  27
ATOM     27  C   UNL     1     -26.923 -28.174  27.775  1.00  0.00    -0.000 C 
BRANCH  27  28
ATOM     28  C   UNL     1     -26.578 -28.422  26.298  1.00  0.00    -0.000 C 
BRANCH  28  29
ATOM     29  C   UNL     1     -27.755 -29.019  25.512  1.00  0.00    -0.003 C 
ATOM     30  C   UNL     1     -28.339 -28.001  24.536  1.00  0.00     0.004 C 
ENDBRANCH  28  29
ENDBRANCH  27  28
ENDBRANCH  26  27
ENDBRANCH  25  26
ENDBRANCH  24  25
ENDBRANCH  23  24
ENDBRANCH  22  23
ENDBRANCH  21  22
ENDBRANCH  20  21
ENDBRANCH  19  20
ENDBRANCH  18  19
ENDBRANCH  17  18
ENDBRANCH   1  17
TORSDOF 26
ENDMDL
MODEL 3
REMARK VINA RESULT:    -6.466      4.380     12.544
REMARK INTER + INTRA:         -18.513
REMARK INTER:                 -16.262
REMARK INTRA:                  -2.251
REMARK UNBOUND:                -2.218
REMARK SMILES CCCCCCCCCCCCCCCCCCCCCCCCCCCC(=O)[O-]
REMARK SMILES IDX 15 1 16 2 17 3 18 4 19 5 20 6 21 7 22 8 23 9 24 10 25 11
REMARK SMILES IDX 26 12 27 13 28 14 29 15 30 16 14 17 13 18 12 19 11 20 10 21
REMARK SMILES IDX 9 22 8 23 7 24 6 25 5 26 4 27 3 28 2 29 1 30
REMARK H PARENT
REMARK Flexibility Score: inf
ROOT
ATOM      1  C   UNL     1     -22.520 -22.695  31.431  1.00  0.00     0.000 C 
ENDROOT
BRANCH   1   2
ATOM      2  C   UNL     1     -21.632 -21.480  31.749  1.00  0.00     0.000 C 
BRANCH   2   3
ATOM      3  C   UNL     1     -22.079 -20.213  31.004  1.00  0.00     0.000 C 
BRANCH   3   4
ATOM      4  C   UNL     1     -22.233 -20.436  29.490  1.00  0.00     0.000 C 
BRANCH   4   5
ATOM      5  C   UNL     1     -21.256 -19.581  28.665  1.00  0.00     0.000 C 
BRANCH   5   6
ATOM      6  C   UNL     1     -20.819 -18.264  29.336  1.00  0.00     0.000 C 
BRANCH   6   7
ATOM      7  C   UNL     1     -19.441 -18.348  30.028  1.00  0.00     0.000 C 
BRANCH   7   8
ATOM      8  C   UNL     1     -19.293 -17.310  31.156  1.00  0.00     0.000 C 
BRANCH   8   9
ATOM      9  C   UNL     1     -18.019 -16.462  31.018  1.00  0.00     0.000 C 
BRANCH   9  10
ATOM     10  C   UNL     1     -18.282 -15.095  30.372  1.00  0.00     0.000 C 
BRANCH  10  11
ATOM     11  C   UNL     1     -17.537 -14.964  29.035  1.00  0.00     0.000 C 
BRANCH  11  12
ATOM     12  C   UNL     1     -18.179 -15.801  27.916  1.00  0.00     0.006 C 
BRANCH  12  13
ATOM     13  C   UNL     1     -17.149 -16.354  26.920  1.00  0.00     0.053 C 
BRANCH  13  14
ATOM     14  C   UNL     1     -17.187 -15.595  25.626  1.00  0.00     0.041 C 
ATOM     15  O   UNL     1     -16.164 -15.542  24.893  1.00  0.00    -0.550 OA
ATOM     16  O   UNL     1     -18.338 -14.909  25.251  1.00  0.00    -0.550 OA
ENDBRANCH  13  14
ENDBRANCH  12  13
ENDBRANCH  11  12
ENDBRANCH  10  11
ENDBRANCH   9  10
ENDBRANCH   8   9
ENDBRANCH   7   8
ENDBRANCH   6   7
ENDBRANCH   5   6
ENDBRANCH   4   5
ENDBRANCH   3   4
ENDBRANCH   2   3
ENDBRANCH   1   2
BRANCH   1  17
ATOM     17  C   UNL     1     -21.750 -23.844  30.753  1.00  0.00     0.000 C 
BRANCH  17  18
ATOM     18  C   UNL     1     -21.816 -23.866  29.211  1.00  0.00     0.000 C 
BRANCH  18  19
ATOM     19  C   UNL     1     -23.125 -24.420  28.618  1.00  0.00     0.000 C 
BRANCH  19  20
ATOM     20  C   UNL     1     -23.668 -25.683  29.313  1.00  0.00     0.000 C 
BRANCH  20  21
ATOM     21  C   UNL     1     -24.924 -25.427  30.173  1.00  0.00     0.000 C 
BRANCH  21  22
ATOM     22  C   UNL     1     -24.998 -26.347  31.400  1.00  0.00    -0.000 C 
BRANCH  22  23
ATOM     23  C   UNL     1     -25.078 -27.819  30.975  1.00  0.00    -0.000 C 
BRANCH  23  24
ATOM     24  C   UNL     1     -26.511 -28.202  30.576  1.00  0.00    -0.000 C 
BRANCH  24  25
ATOM     25  C   UNL     1     -26.546 -29.220  29.426  1.00  0.00    -0.000 C 
BRANCH  25  26
ATOM     26  C   UNL     1     -27.174 -28.644  28.147  1.00  0.00    -0.000 C 
BRANCH  26  27
ATOM     27  C   UNL     1     -26.092 -28.295  27.115  1.00  0.00    -0.000 C 
BRANCH  27  28
ATOM     28  C   UNL     1     -26.481 -28.712  25.687  1.00  0.00    -0.000 C 
BRANCH  28  29
ATOM     29  C   UNL     1     -28.000 -28.858  25.511  1.00  0.00    -0.003 C 
ATOM     30  C   UNL     1     -28.508 -27.984  24.367  1.00  0.00     0.004 C 
ENDBRANCH  28  29
ENDBRANCH  27  28
ENDBRANCH  26  27
ENDBRANCH  25  26
ENDBRANCH  24  25
ENDBRANCH  23  24
ENDBRANCH  22  23
ENDBRANCH  21  22
ENDBRANCH  20  21
ENDBRANCH  19  20
ENDBRANCH  18  19
ENDBRANCH  17  18
ENDBRANCH   1  17
TORSDOF 26
ENDMDL
MODEL 4
REMARK VINA RESULT:    -6.405      4.592     12.765
REMARK INTER + INTRA:         -18.357
REMARK INTER:                 -16.388
REMARK INTRA:                  -1.968
REMARK UNBOUND:                -2.218
REMARK SMILES CCCCCCCCCCCCCCCCCCCCCCCCCCCC(=O)[O-]
REMARK SMILES IDX 15 1 16 2 17 3 18 4 19 5 20 6 21 7 22 8 23 9 24 10 25 11
REMARK SMILES IDX 26 12 27 13 28 14 29 15 30 16 14 17 13 18 12 19 11 20 10 21
REMARK SMILES IDX 9 22 8 23 7 24 6 25 5 26 4 27 3 28 2 29 1 30
REMARK H PARENT
REMARK Flexibility Score: inf
ROOT
ATOM      1  C   UNL     1     -22.384 -20.706  30.560  1.00  0.00     0.000 C 
ENDROOT
BRANCH   1   2
ATOM      2  C   UNL     1     -21.441 -20.569  29.353  1.00  0.00     0.000 C 
BRANCH   2   3
ATOM      3  C   UNL     1     -21.605 -19.225  28.627  1.00  0.00     0.000 C 
BRANCH   3   4
ATOM      4  C   UNL     1     -20.530 -18.199  29.024  1.00  0.00     0.000 C 
BRANCH   4   5
ATOM      5  C   UNL     1     -19.444 -18.803  29.930  1.00  0.00     0.000 C 
BRANCH   5   6
ATOM      6  C   UNL     1     -19.340 -18.169  31.332  1.00  0.00     0.000 C 
BRANCH   6   7
ATOM      7  C   UNL     1     -19.350 -16.626  31.316  1.00  0.00     0.000 C 
BRANCH   7   8
ATOM      8  C   UNL     1     -17.958 -16.039  31.014  1.00  0.00     0.000 C 
BRANCH   8   9
ATOM      9  C   UNL     1     -18.009 -14.884  30.002  1.00  0.00     0.000 C 
BRANCH   9  10
ATOM     10  C   UNL     1     -17.313 -15.225  28.676  1.00  0.00     0.000 C 
BRANCH  10  11
ATOM     11  C   UNL     1     -18.283 -15.917  27.707  1.00  0.00     0.000 C 
BRANCH  11  12
ATOM     12  C   UNL     1     -17.659 -16.166  26.324  1.00  0.00     0.006 C 
BRANCH  12  13
ATOM     13  C   UNL     1     -17.050 -14.898  25.709  1.00  0.00     0.053 C 
BRANCH  13  14
ATOM     14  C   UNL     1     -15.759 -15.203  25.008  1.00  0.00     0.041 C 
ATOM     15  O   UNL     1     -15.706 -16.125  24.151  1.00  0.00    -0.550 OA
ATOM     16  O   UNL     1     -14.603 -14.500  25.333  1.00  0.00    -0.550 OA
ENDBRANCH  13  14
ENDBRANCH  12  13
ENDBRANCH  11  12
ENDBRANCH  10  11
ENDBRANCH   9  10
ENDBRANCH   8   9
ENDBRANCH   7   8
ENDBRANCH   6   7
ENDBRANCH   5   6
ENDBRANCH   4   5
ENDBRANCH   3   4
ENDBRANCH   2   3
ENDBRANCH   1   2
BRANCH   1  17
ATOM     17  C   UNL     1     -21.911 -21.760  31.578  1.00  0.00     0.000 C 
BRANCH  17  18
ATOM     18  C   UNL     1     -23.033 -22.462  32.374  1.00  0.00     0.000 C 
BRANCH  18  19
ATOM     19  C   UNL     1     -23.520 -23.799  31.784  1.00  0.00     0.000 C 
BRANCH  19  20
ATOM     20  C   UNL     1     -22.549 -24.457  30.784  1.00  0.00     0.000 C 
BRANCH  20  21
ATOM     21  C   UNL     1     -23.083 -24.500  29.338  1.00  0.00     0.000 C 
BRANCH  21  22
ATOM     22  C   UNL     1     -23.738 -25.844  28.988  1.00  0.00    -0.000 C 
BRANCH  22  23
ATOM     23  C   UNL     1     -25.196 -25.882  29.462  1.00  0.00    -0.000 C 
BRANCH  23  24
ATOM     24  C   UNL     1     -25.497 -27.183  30.221  1.00  0.00    -0.000 C 
BRANCH  24  25
ATOM     25  C   UNL     1     -26.327 -28.170  29.385  1.00  0.00    -0.000 C 
BRANCH  25  26
ATOM     26  C   UNL     1     -25.876 -28.223  27.917  1.00  0.00    -0.000 C 
BRANCH  26  27
ATOM     27  C   UNL     1     -27.065 -27.992  26.972  1.00  0.00    -0.000 C 
BRANCH  27  28
ATOM     28  C   UNL     1     -26.907 -28.730  25.632  1.00  0.00    -0.000 C 
BRANCH  28  29
ATOM     29  C   UNL     1     -28.258 -29.098  25.002  1.00  0.00    -0.003 C 
ATOM     30  C   UNL     1     -28.753 -27.991  24.075  1.00  0.00     0.004 C 
ENDBRANCH  28  29
ENDBRANCH  27  28
ENDBRANCH  26  27
ENDBRANCH  25  26
ENDBRANCH  24  25
ENDBRANCH  23  24
ENDBRANCH  22  23
ENDBRANCH  21  22
ENDBRANCH  20  21
ENDBRANCH  19  20
ENDBRANCH  18  19
ENDBRANCH  17  18
ENDBRANCH   1  17
TORSDOF 26
ENDMDL
MODEL 5
REMARK VINA RESULT:    -6.385      4.584     12.459
REMARK INTER + INTRA:         -18.308
REMARK INTER:                 -16.396
REMARK INTRA:                  -1.913
REMARK UNBOUND:                -2.218
REMARK SMILES CCCCCCCCCCCCCCCCCCCCCCCCCCCC(=O)[O-]
REMARK SMILES IDX 15 1 16 2 17 3 18 4 19 5 20 6 21 7 22 8 23 9 24 10 25 11
REMARK SMILES IDX 26 12 27 13 28 14 29 15 30 16 14 17 13 18 12 19 11 20 10 21
REMARK SMILES IDX 9 22 8 23 7 24 6 25 5 26 4 27 3 28 2 29 1 30
REMARK H PARENT
REMARK Flexibility Score: inf
ROOT
ATOM      1  C   UNL     1     -22.213 -21.559  28.672  1.00  0.00     0.000 C 
ENDROOT
BRANCH   1   2
ATOM      2  C   UNL     1     -22.456 -20.760  29.963  1.00  0.00     0.000 C 
BRANCH   2   3
ATOM      3  C   UNL     1     -21.970 -21.504  31.216  1.00  0.00     0.000 C 
BRANCH   3   4
ATOM      4  C   UNL     1     -20.872 -20.739  31.975  1.00  0.00     0.000 C 
BRANCH   4   5
ATOM      5  C   UNL     1     -20.913 -19.226  31.705  1.00  0.00     0.000 C 
BRANCH   5   6
ATOM      6  C   UNL     1     -19.581 -18.487  31.940  1.00  0.00     0.000 C 
BRANCH   6   7
ATOM      7  C   UNL     1     -19.308 -17.361  30.920  1.00  0.00     0.000 C 
BRANCH   7   8
ATOM      8  C   UNL     1     -20.268 -17.422  29.718  1.00  0.00     0.000 C 
BRANCH   8   9
ATOM      9  C   UNL     1     -19.559 -17.164  28.379  1.00  0.00     0.000 C 
BRANCH   9  10
ATOM     10  C   UNL     1     -18.032 -17.095  28.519  1.00  0.00     0.000 C 
BRANCH  10  11
ATOM     11  C   UNL     1     -17.541 -15.640  28.487  1.00  0.00     0.000 C 
BRANCH  11  12
ATOM     12  C   UNL     1     -17.753 -14.974  27.118  1.00  0.00     0.006 C 
BRANCH  12  13
ATOM     13  C   UNL     1     -17.507 -15.933  25.945  1.00  0.00     0.053 C 
BRANCH  13  14
ATOM     14  C   UNL     1     -16.319 -15.502  25.135  1.00  0.00     0.041 C 
ATOM     15  O   UNL     1     -15.921 -14.308  25.180  1.00  0.00    -0.550 OA
ATOM     16  O   UNL     1     -15.677 -16.409  24.298  1.00  0.00    -0.550 OA
ENDBRANCH  13  14
ENDBRANCH  12  13
ENDBRANCH  11  12
ENDBRANCH  10  11
ENDBRANCH   9  10
ENDBRANCH   8   9
ENDBRANCH   7   8
ENDBRANCH   6   7
ENDBRANCH   5   6
ENDBRANCH   4   5
ENDBRANCH   3   4
ENDBRANCH   2   3
ENDBRANCH   1   2
BRANCH   1  17
ATOM     17  C   UNL     1     -21.843 -23.031  28.934  1.00  0.00     0.000 C 
BRANCH  17  18
ATOM     18  C   UNL     1     -22.945 -24.060  28.599  1.00  0.00     0.000 C 
BRANCH  18  19
ATOM     19  C   UNL     1     -23.129 -25.185  29.634  1.00  0.00     0.000 C 
BRANCH  19  20
ATOM     20  C   UNL     1     -22.969 -24.748  31.103  1.00  0.00     0.000 C 
BRANCH  20  21
ATOM     21  C   UNL     1     -24.002 -25.384  32.056  1.00  0.00     0.000 C 
BRANCH  21  22
ATOM     22  C   UNL     1     -25.309 -25.761  31.344  1.00  0.00    -0.000 C 
BRANCH  22  23
ATOM     23  C   UNL     1     -25.712 -27.205  31.667  1.00  0.00    -0.000 C 
BRANCH  23  24
ATOM     24  C   UNL     1     -26.055 -27.982  30.388  1.00  0.00    -0.000 C 
BRANCH  24  25
ATOM     25  C   UNL     1     -25.903 -27.124  29.123  1.00  0.00    -0.000 C 
BRANCH  25  26
ATOM     26  C   UNL     1     -25.639 -27.969  27.866  1.00  0.00    -0.000 C 
BRANCH  26  27
ATOM     27  C   UNL     1     -26.958 -28.354  27.180  1.00  0.00    -0.000 C 
BRANCH  27  28
ATOM     28  C   UNL     1     -26.778 -28.661  25.684  1.00  0.00    -0.000 C 
BRANCH  28  29
ATOM     29  C   UNL     1     -28.097 -29.057  25.003  1.00  0.00    -0.003 C 
ATOM     30  C   UNL     1     -28.656 -27.904  24.173  1.00  0.00     0.004 C 
ENDBRANCH  28  29
ENDBRANCH  27  28
ENDBRANCH  26  27
ENDBRANCH  25  26
ENDBRANCH  24  25
ENDBRANCH  23  24
ENDBRANCH  22  23
ENDBRANCH  21  22
ENDBRANCH  20  21
ENDBRANCH  19  20
ENDBRANCH  18  19
ENDBRANCH  17  18
ENDBRANCH   1  17
TORSDOF 26
ENDMDL
MODEL 6
REMARK VINA RESULT:    -6.273      1.109      1.777
REMARK INTER + INTRA:         -18.024
REMARK INTER:                 -15.867
REMARK INTRA:                  -2.158
REMARK UNBOUND:                -2.218
REMARK SMILES CCCCCCCCCCCCCCCCCCCCCCCCCCCC(=O)[O-]
REMARK SMILES IDX 15 1 16 2 17 3 18 4 19 5 20 6 21 7 22 8 23 9 24 10 25 11
REMARK SMILES IDX 26 12 27 13 28 14 29 15 30 16 14 17 13 18 12 19 11 20 10 21
REMARK SMILES IDX 9 22 8 23 7 24 6 25 5 26 4 27 3 28 2 29 1 30
REMARK H PARENT
REMARK Flexibility Score: inf
ROOT
ATOM      1  C   UNL     1     -22.642 -21.161  29.011  1.00  0.00     0.000 C 
ENDROOT
BRANCH   1   2
ATOM      2  C   UNL     1     -22.148 -22.617  29.003  1.00  0.00     0.000 C 
BRANCH   2   3
ATOM      3  C   UNL     1     -21.561 -23.047  30.356  1.00  0.00     0.000 C 
BRANCH   3   4
ATOM      4  C   UNL     1     -22.380 -22.531  31.551  1.00  0.00     0.000 C 
BRANCH   4   5
ATOM      5  C   UNL     1     -23.518 -23.487  31.945  1.00  0.00     0.000 C 
BRANCH   5   6
ATOM      6  C   UNL     1     -23.360 -24.932  31.431  1.00  0.00     0.000 C 
BRANCH   6   7
ATOM      7  C   UNL     1     -24.413 -25.909  31.997  1.00  0.00     0.000 C 
BRANCH   7   8
ATOM      8  C   UNL     1     -25.525 -26.219  30.977  1.00  0.00     0.000 C 
BRANCH   8   9
ATOM      9  C   UNL     1     -25.174 -25.751  29.556  1.00  0.00     0.000 C 
BRANCH   9  10
ATOM     10  C   UNL     1     -24.720 -26.902  28.647  1.00  0.00     0.000 C 
BRANCH  10  11
ATOM     11  C   UNL     1     -25.767 -28.025  28.614  1.00  0.00     0.000 C 
BRANCH  11  12
ATOM     12  C   UNL     1     -26.840 -27.801  27.536  1.00  0.00     0.006 C 
BRANCH  12  13
ATOM     13  C   UNL     1     -26.577 -28.609  26.257  1.00  0.00     0.053 C 
BRANCH  13  14
ATOM     14  C   UNL     1     -27.747 -28.536  25.321  1.00  0.00     0.041 C 
ATOM     15  O   UNL     1     -28.146 -27.420  24.892  1.00  0.00    -0.550 OA
ATOM     16  O   UNL     1     -28.425 -29.694  24.955  1.00  0.00    -0.550 OA
ENDBRANCH  13  14
ENDBRANCH  12  13
ENDBRANCH  11  12
ENDBRANCH  10  11
ENDBRANCH   9  10
ENDBRANCH   8   9
ENDBRANCH   7   8
ENDBRANCH   6   7
ENDBRANCH   5   6
ENDBRANCH   4   5
ENDBRANCH   3   4
ENDBRANCH   2   3
ENDBRANCH   1   2
BRANCH   1  17
ATOM     17  C   UNL     1     -21.565 -20.156  28.561  1.00  0.00     0.000 C 
BRANCH  17  18
ATOM     18  C   UNL     1     -21.279 -19.005  29.550  1.00  0.00     0.000 C 
BRANCH  18  19
ATOM     19  C   UNL     1     -21.487 -19.350  31.037  1.00  0.00     0.000 C 
BRANCH  19  20
ATOM     20  C   UNL     1     -20.249 -19.140  31.930  1.00  0.00     0.000 C 
BRANCH  20  21
ATOM     21  C   UNL     1     -18.968 -18.796  31.143  1.00  0.00     0.000 C 
BRANCH  21  22
ATOM     22  C   UNL     1     -18.392 -17.424  31.522  1.00  0.00    -0.000 C 
BRANCH  22  23
ATOM     23  C   UNL     1     -19.139 -16.299  30.796  1.00  0.00    -0.000 C 
BRANCH  23  24
ATOM     24  C   UNL     1     -18.194 -15.137  30.456  1.00  0.00    -0.000 C 
BRANCH  24  25
ATOM     25  C   UNL     1     -17.413 -15.378  29.155  1.00  0.00    -0.000 C 
BRANCH  25  26
ATOM     26  C   UNL     1     -18.290 -15.974  28.043  1.00  0.00    -0.000 C 
BRANCH  26  27
ATOM     27  C   UNL     1     -17.442 -16.347  26.818  1.00  0.00    -0.000 C 
BRANCH  27  28
ATOM     28  C   UNL     1     -17.520 -15.293  25.702  1.00  0.00    -0.000 C 
BRANCH  28  29
ATOM     29  C   UNL     1     -16.141 -14.961  25.111  1.00  0.00    -0.003 C 
ATOM     30  C   UNL     1     -15.681 -16.048  24.143  1.00  0.00     0.004 C 
ENDBRANCH  28  29
ENDBRANCH  27  28
ENDBRANCH  26  27
ENDBRANCH  25  26
ENDBRANCH  24  25
ENDBRANCH  23  24
ENDBRANCH  22  23
ENDBRANCH  21  22
ENDBRANCH  20  21
ENDBRANCH  19  20
ENDBRANCH  18  19
ENDBRANCH  17  18
ENDBRANCH   1  17
TORSDOF 26
ENDMDL
MODEL 7
REMARK VINA RESULT:    -6.200      0.841      2.177
REMARK INTER + INTRA:         -17.840
REMARK INTER:                 -15.540
REMARK INTRA:                  -2.300
REMARK UNBOUND:                -2.218
REMARK SMILES CCCCCCCCCCCCCCCCCCCCCCCCCCCC(=O)[O-]
REMARK SMILES IDX 15 1 16 2 17 3 18 4 19 5 20 6 21 7 22 8 23 9 24 10 25 11
REMARK SMILES IDX 26 12 27 13 28 14 29 15 30 16 14 17 13 18 12 19 11 20 10 21
REMARK SMILES IDX 9 22 8 23 7 24 6 25 5 26 4 27 3 28 2 29 1 30
REMARK H PARENT
REMARK Flexibility Score: inf
ROOT
ATOM      1  C   UNL     1     -23.259 -22.543  32.120  1.00  0.00     0.000 C 
ENDROOT
BRANCH   1   2
ATOM      2  C   UNL     1     -23.083 -24.001  31.660  1.00  0.00     0.000 C 
BRANCH   2   3
ATOM      3  C   UNL     1     -22.131 -24.129  30.461  1.00  0.00     0.000 C 
BRANCH   3   4
ATOM      4  C   UNL     1     -22.863 -24.056  29.110  1.00  0.00     0.000 C 
BRANCH   4   5
ATOM      5  C   UNL     1     -23.963 -25.123  28.977  1.00  0.00     0.000 C 
BRANCH   5   6
ATOM      6  C   UNL     1     -23.521 -26.560  29.316  1.00  0.00     0.000 C 
BRANCH   6   7
ATOM      7  C   UNL     1     -24.064 -27.073  30.667  1.00  0.00     0.000 C 
BRANCH   7   8
ATOM      8  C   UNL     1     -25.448 -26.484  30.998  1.00  0.00     0.000 C 
BRANCH   8   9
ATOM      9  C   UNL     1     -26.512 -27.567  31.239  1.00  0.00     0.000 C 
BRANCH   9  10
ATOM     10  C   UNL     1     -26.150 -28.910  30.589  1.00  0.00     0.000 C 
BRANCH  10  11
ATOM     11  C   UNL     1     -26.968 -29.141  29.310  1.00  0.00     0.000 C 
BRANCH  11  12
ATOM     12  C   UNL     1     -26.858 -27.972  28.317  1.00  0.00     0.006 C 
BRANCH  12  13
ATOM     13  C   UNL     1     -25.865 -28.248  27.179  1.00  0.00     0.053 C 
BRANCH  13  14
ATOM     14  C   UNL     1     -26.582 -28.629  25.918  1.00  0.00     0.041 C 
ATOM     15  O   UNL     1     -25.928 -28.970  24.896  1.00  0.00    -0.550 OA
ATOM     16  O   UNL     1     -27.971 -28.567  25.854  1.00  0.00    -0.550 OA
ENDBRANCH  13  14
ENDBRANCH  12  13
ENDBRANCH  11  12
ENDBRANCH  10  11
ENDBRANCH   9  10
ENDBRANCH   8   9
ENDBRANCH   7   8
ENDBRANCH   6   7
ENDBRANCH   5   6
ENDBRANCH   4   5
ENDBRANCH   3   4
ENDBRANCH   2   3
ENDBRANCH   1   2
BRANCH   1  17
ATOM     17  C   UNL     1     -21.924 -21.851  32.453  1.00  0.00     0.000 C 
BRANCH  17  18
ATOM     18  C   UNL     1     -21.358 -20.937  31.345  1.00  0.00     0.000 C 
BRANCH  18  19
ATOM     19  C   UNL     1     -22.384 -20.457  30.301  1.00  0.00     0.000 C 
BRANCH  19  20
ATOM     20  C   UNL     1     -21.868 -20.428  28.850  1.00  0.00     0.000 C 
BRANCH  20  21
ATOM     21  C   UNL     1     -21.334 -19.050  28.409  1.00  0.00     0.000 C 
BRANCH  21  22
ATOM     22  C   UNL     1     -20.740 -18.245  29.574  1.00  0.00    -0.000 C 
BRANCH  22  23
ATOM     23  C   UNL     1     -19.272 -18.621  29.805  1.00  0.00    -0.000 C 
BRANCH  23  24
ATOM     24  C   UNL     1     -18.703 -17.896  31.034  1.00  0.00    -0.000 C 
BRANCH  24  25
ATOM     25  C   UNL     1     -19.038 -16.397  31.037  1.00  0.00    -0.000 C 
BRANCH  25  26
ATOM     26  C   UNL     1     -17.823 -15.521  30.693  1.00  0.00    -0.000 C 
BRANCH  26  27
ATOM     27  C   UNL     1     -18.013 -14.834  29.332  1.00  0.00    -0.000 C 
BRANCH  27  28
ATOM     28  C   UNL     1     -17.124 -15.442  28.234  1.00  0.00    -0.000 C 
BRANCH  28  29
ATOM     29  C   UNL     1     -17.920 -15.811  26.973  1.00  0.00    -0.003 C 
ATOM     30  C   UNL     1     -17.243 -15.268  25.717  1.00  0.00     0.004 C 
ENDBRANCH  28  29
ENDBRANCH  27  28
ENDBRANCH  26  27
ENDBRANCH  25  26
ENDBRANCH  24  25
ENDBRANCH  23  24
ENDBRANCH  22  23
ENDBRANCH  21  22
ENDBRANCH  20  21
ENDBRANCH  19  20
ENDBRANCH  18  19
ENDBRANCH  17  18
ENDBRANCH   1  17
TORSDOF 26
ENDMDL
MODEL 8
REMARK VINA RESULT:    -5.878      4.649     12.330
REMARK INTER + INTRA:         -17.030
REMARK INTER:                 -15.442
REMARK INTRA:                  -1.588
REMARK UNBOUND:                -2.218
REMARK SMILES CCCCCCCCCCCCCCCCCCCCCCCCCCCC(=O)[O-]
REMARK SMILES IDX 15 1 16 2 17 3 18 4 19 5 20 6 21 7 22 8 23 9 24 10 25 11
REMARK SMILES IDX 26 12 27 13 28 14 29 15 30 16 14 17 13 18 12 19 11 20 10 21
REMARK SMILES IDX 9 22 8 23 7 24 6 25 5 26 4 27 3 28 2 29 1 30
REMARK H PARENT
REMARK Flexibility Score: inf
ROOT
ATOM      1  C   UNL     1     -22.679 -21.020  30.793  1.00  0.00     0.000 C 
ENDROOT
BRANCH   1   2
ATOM      2  C   UNL     1     -21.616 -21.518  31.788  1.00  0.00     0.000 C 
BRANCH   2   3
ATOM      3  C   UNL     1     -20.550 -20.455  32.091  1.00  0.00     0.000 C 
BRANCH   3   4
ATOM      4  C   UNL     1     -21.046 -19.022  31.830  1.00  0.00     0.000 C 
BRANCH   4   5
ATOM      5  C   UNL     1     -19.913 -17.984  31.900  1.00  0.00     0.000 C 
BRANCH   5   6
ATOM      6  C   UNL     1     -18.673 -18.315  31.047  1.00  0.00     0.000 C 
BRANCH   6   7
ATOM      7  C   UNL     1     -18.999 -18.606  29.567  1.00  0.00     0.000 C 
BRANCH   7   8
ATOM      8  C   UNL     1     -20.046 -17.630  29.000  1.00  0.00     0.000 C 
BRANCH   8   9
ATOM      9  C   UNL     1     -19.420 -16.525  28.134  1.00  0.00     0.000 C 
BRANCH   9  10
ATOM     10  C   UNL     1     -18.131 -15.954  28.741  1.00  0.00     0.000 C 
BRANCH  10  11
ATOM     11  C   UNL     1     -17.142 -15.537  27.643  1.00  0.00     0.000 C 
BRANCH  11  12
ATOM     12  C   UNL     1     -17.758 -15.601  26.236  1.00  0.00     0.006 C 
BRANCH  12  13
ATOM     13  C   UNL     1     -17.039 -14.692  25.229  1.00  0.00     0.053 C 
BRANCH  13  14
ATOM     14  C   UNL     1     -15.694 -15.246  24.864  1.00  0.00     0.041 C 
ATOM     15  O   UNL     1     -15.596 -16.407  24.385  1.00  0.00    -0.550 OA
ATOM     16  O   UNL     1     -14.543 -14.499  25.094  1.00  0.00    -0.550 OA
ENDBRANCH  13  14
ENDBRANCH  12  13
ENDBRANCH  11  12
ENDBRANCH  10  11
ENDBRANCH   9  10
ENDBRANCH   8   9
ENDBRANCH   7   8
ENDBRANCH   6   7
ENDBRANCH   5   6
ENDBRANCH   4   5
ENDBRANCH   3   4
ENDBRANCH   2   3
ENDBRANCH   1   2
BRANCH   1  17
ATOM     17  C   UNL     1     -22.087 -20.626  29.427  1.00  0.00     0.000 C 
BRANCH  17  18
ATOM     18  C   UNL     1     -22.038 -21.757  28.376  1.00  0.00     0.000 C 
BRANCH  18  19
ATOM     19  C   UNL     1     -21.805 -23.170  28.944  1.00  0.00     0.000 C 
BRANCH  19  20
ATOM     20  C   UNL     1     -22.849 -24.220  28.518  1.00  0.00     0.000 C 
BRANCH  20  21
ATOM     21  C   UNL     1     -23.188 -25.242  29.622  1.00  0.00     0.000 C 
BRANCH  21  22
ATOM     22  C   UNL     1     -23.243 -24.606  31.019  1.00  0.00    -0.000 C 
BRANCH  22  23
ATOM     23  C   UNL     1     -23.992 -25.512  32.003  1.00  0.00    -0.000 C 
BRANCH  23  24
ATOM     24  C   UNL     1     -25.466 -25.666  31.600  1.00  0.00    -0.000 C 
BRANCH  24  25
ATOM     25  C   UNL     1     -25.916 -27.135  31.576  1.00  0.00    -0.000 C 
BRANCH  25  26
ATOM     26  C   UNL     1     -25.668 -27.805  30.215  1.00  0.00    -0.000 C 
BRANCH  26  27
ATOM     27  C   UNL     1     -26.581 -29.026  30.032  1.00  0.00    -0.000 C 
BRANCH  27  28
ATOM     28  C   UNL     1     -27.103 -29.164  28.592  1.00  0.00    -0.000 C 
BRANCH  28  29
ATOM     29  C   UNL     1     -26.398 -28.206  27.619  1.00  0.00    -0.003 C 
ATOM     30  C   UNL     1     -26.894 -28.411  26.190  1.00  0.00     0.004 C 
ENDBRANCH  28  29
ENDBRANCH  27  28
ENDBRANCH  26  27
ENDBRANCH  25  26
ENDBRANCH  24  25
ENDBRANCH  23  24
ENDBRANCH  22  23
ENDBRANCH  21  22
ENDBRANCH  20  21
ENDBRANCH  19  20
ENDBRANCH  18  19
ENDBRANCH  17  18
ENDBRANCH   1  17
TORSDOF 26
ENDMDL
MODEL 9
REMARK VINA RESULT:    -5.760      4.408     12.683
REMARK INTER + INTRA:         -16.732
REMARK INTER:                 -15.808
REMARK INTRA:                  -0.924
REMARK UNBOUND:                -2.218
REMARK SMILES CCCCCCCCCCCCCCCCCCCCCCCCCCCC(=O)[O-]
REMARK SMILES IDX 15 1 16 2 17 3 18 4 19 5 20 6 21 7 22 8 23 9 24 10 25 11
REMARK SMILES IDX 26 12 27 13 28 14 29 15 30 16 14 17 13 18 12 19 11 20 10 21
REMARK SMILES IDX 9 22 8 23 7 24 6 25 5 26 4 27 3 28 2 29 1 30
REMARK H PARENT
REMARK Flexibility Score: inf
ROOT
ATOM      1  C   UNL     1     -22.125 -22.574  28.867  1.00  0.00     0.000 C 
ENDROOT
BRANCH   1   2
ATOM      2  C   UNL     1     -22.092 -22.099  30.329  1.00  0.00     0.000 C 
BRANCH   2   3
ATOM      3  C   UNL     1     -22.332 -20.588  30.463  1.00  0.00     0.000 C 
BRANCH   3   4
ATOM      4  C   UNL     1     -22.405 -19.874  29.102  1.00  0.00     0.000 C 
BRANCH   4   5
ATOM      5  C   UNL     1     -21.204 -18.945  28.858  1.00  0.00     0.000 C 
BRANCH   5   6
ATOM      6  C   UNL     1     -19.971 -19.232  29.737  1.00  0.00     0.000 C 
BRANCH   6   7
ATOM      7  C   UNL     1     -20.110 -18.717  31.186  1.00  0.00     0.000 C 
BRANCH   7   8
ATOM      8  C   UNL     1     -19.069 -17.633  31.520  1.00  0.00     0.000 C 
BRANCH   8   9
ATOM      9  C   UNL     1     -19.148 -16.423  30.575  1.00  0.00     0.000 C 
BRANCH   9  10
ATOM     10  C   UNL     1     -17.880 -15.559  30.610  1.00  0.00     0.000 C 
BRANCH  10  11
ATOM     11  C   UNL     1     -17.657 -14.853  29.265  1.00  0.00     0.000 C 
BRANCH  11  12
ATOM     12  C   UNL     1     -18.261 -15.628  28.082  1.00  0.00     0.006 C 
BRANCH  12  13
ATOM     13  C   UNL     1     -17.198 -16.134  27.097  1.00  0.00     0.053 C 
BRANCH  13  14
ATOM     14  C   UNL     1     -17.287 -15.410  25.786  1.00  0.00     0.041 C 
ATOM     15  O   UNL     1     -18.408 -15.218  25.243  1.00  0.00    -0.550 OA
ATOM     16  O   UNL     1     -16.130 -14.984  25.142  1.00  0.00    -0.550 OA
ENDBRANCH  13  14
ENDBRANCH  12  13
ENDBRANCH  11  12
ENDBRANCH  10  11
ENDBRANCH   9  10
ENDBRANCH   8   9
ENDBRANCH   7   8
ENDBRANCH   6   7
ENDBRANCH   5   6
ENDBRANCH   4   5
ENDBRANCH   3   4
ENDBRANCH   2   3
ENDBRANCH   1   2
BRANCH   1  17
ATOM     17  C   UNL     1     -22.496 -24.062  28.725  1.00  0.00     0.000 C 
BRANCH  17  18
ATOM     18  C   UNL     1     -23.587 -24.568  29.694  1.00  0.00     0.000 C 
BRANCH  18  19
ATOM     19  C   UNL     1     -23.135 -24.749  31.155  1.00  0.00     0.000 C 
BRANCH  19  20
ATOM     20  C   UNL     1     -23.938 -25.790  31.958  1.00  0.00     0.000 C 
BRANCH  20  21
ATOM     21  C   UNL     1     -25.443 -25.807  31.620  1.00  0.00     0.000 C 
BRANCH  21  22
ATOM     22  C   UNL     1     -25.981 -27.227  31.390  1.00  0.00    -0.000 C 
BRANCH  22  23
ATOM     23  C   UNL     1     -25.681 -27.700  29.963  1.00  0.00    -0.000 C 
BRANCH  23  24
ATOM     24  C   UNL     1     -26.514 -28.939  29.604  1.00  0.00    -0.000 C 
BRANCH  24  25
ATOM     25  C   UNL     1     -27.345 -28.737  28.327  1.00  0.00    -0.000 C 
BRANCH  25  26
ATOM     26  C   UNL     1     -26.602 -27.911  27.266  1.00  0.00    -0.000 C 
BRANCH  26  27
ATOM     27  C   UNL     1     -26.290 -28.765  26.028  1.00  0.00    -0.000 C 
BRANCH  27  28
ATOM     28  C   UNL     1     -27.547 -29.097  25.207  1.00  0.00    -0.000 C 
BRANCH  28  29
ATOM     29  C   UNL     1     -28.353 -27.844  24.834  1.00  0.00    -0.003 C 
ATOM     30  C   UNL     1     -29.186 -28.079  23.576  1.00  0.00     0.004 C 
ENDBRANCH  28  29
ENDBRANCH  27  28
ENDBRANCH  26  27
ENDBRANCH  25  26
ENDBRANCH  24  25
ENDBRANCH  23  24
ENDBRANCH  22  23
ENDBRANCH  21  22
ENDBRANCH  20  21
ENDBRANCH  19  20
ENDBRANCH  18  19
ENDBRANCH  17  18
ENDBRANCH   1  17
TORSDOF 26
ENDMDL
