MODEL 1
REMARK VINA RESULT:    -6.673      0.000      0.000
REMARK INTER + INTRA:          -8.370
REMARK INTER:                  -8.038
REMARK INTRA:                  -0.332
REMARK UNBOUND:                -0.332
REMARK SMILES Oc1cc(O)c2c(c1)O[C@@H](c1ccc(O)c(O)c1)[C@@H](O)C2
REMARK SMILES IDX 21 1 19 2 10 3 9 4 7 5 8 6 2 7 3 8 4 9 6 10 20 11 11 13
REMARK SMILES IDX 18 14 12 15 16 16 13 17 14 18 17 19 15 21 5 23 1 25
REMARK H PARENT 20 12 17 20 15 22 5 24 1 26
REMARK Flexibility Score: inf
ROOT
ATOM      1  C   UNL     1      -1.289   3.839  12.264  1.00  0.00     0.079 C 
ATOM      2  C   UNL     1      -1.016   5.332  11.986  1.00  0.00     0.164 C 
ATOM      3  C   UNL     1      -2.323   6.145  12.097  1.00  0.00     0.232 C 
ATOM      4  O   UNL     1      -2.929   5.932  13.371  1.00  0.00    -0.482 OA
ATOM      5  C   UNL     1      -2.951   4.675  13.983  1.00  0.00     0.131 A 
ATOM      6  C   UNL     1      -3.744   4.489  15.119  1.00  0.00     0.093 A 
ATOM      7  C   UNL     1      -3.797   3.243  15.747  1.00  0.00     0.122 A 
ATOM      8  C   UNL     1      -3.058   2.172  15.230  1.00  0.00     0.092 A 
ATOM      9  C   UNL     1      -2.258   2.340  14.094  1.00  0.00     0.126 A 
ATOM     10  C   UNL     1      -2.169   3.612  13.478  1.00  0.00     0.039 A 
ENDROOT
BRANCH   2  11
ATOM     11  O   UNL     1      -0.018   5.830  12.846  1.00  0.00    -0.389 OA
ATOM     12  H   UNL     1       0.864   5.544  12.491  1.00  0.00     0.211 HD
ENDBRANCH   2  11
BRANCH   3  13
ATOM     13  C   UNL     1      -2.080   7.618  11.862  1.00  0.00    -0.001 A 
ATOM     14  C   UNL     1      -1.922   8.128  10.560  1.00  0.00     0.057 A 
ATOM     15  C   UNL     1      -2.071   8.506  12.949  1.00  0.00     0.012 A 
ATOM     16  C   UNL     1      -1.733   9.502  10.352  1.00  0.00     0.157 A 
ATOM     17  C   UNL     1      -1.881   9.876  12.743  1.00  0.00     0.050 A 
ATOM     18  C   UNL     1      -1.709  10.377  11.445  1.00  0.00     0.157 A 
BRANCH  16  19
ATOM     19  O   UNL     1      -1.570  10.003   9.062  1.00  0.00    -0.504 OA
ATOM     20  H   UNL     1      -0.651  10.137   8.656  1.00  0.00     0.293 HD
ENDBRANCH  16  19
BRANCH  18  21
ATOM     21  O   UNL     1      -1.518  11.742  11.235  1.00  0.00    -0.504 OA
ATOM     22  H   UNL     1      -2.279  12.403  11.331  1.00  0.00     0.293 HD
ENDBRANCH  18  21
ENDBRANCH   3  13
BRANCH   9  23
ATOM     23  O   UNL     1      -1.577   1.225  13.600  1.00  0.00    -0.507 OA
ATOM     24  H   UNL     1      -0.606   1.247  13.314  1.00  0.00     0.293 HD
ENDBRANCH   9  23
BRANCH   7  25
ATOM     25  O   UNL     1      -4.591   3.077  16.878  1.00  0.00    -0.508 OA
ATOM     26  H   UNL     1      -5.113   3.850  17.276  1.00  0.00     0.293 HD
ENDBRANCH   7  25
TORSDOF 6
ENDMDL
MODEL 2
REMARK VINA RESULT:    -6.164      1.911      6.627
REMARK INTER + INTRA:          -7.758
REMARK INTER:                  -7.704
REMARK INTRA:                  -0.054
REMARK UNBOUND:                -0.332
REMARK SMILES Oc1cc(O)c2c(c1)O[C@@H](c1ccc(O)c(O)c1)[C@@H](O)C2
REMARK SMILES IDX 21 1 19 2 10 3 9 4 7 5 8 6 2 7 3 8 4 9 6 10 20 11 11 13
REMARK SMILES IDX 18 14 12 15 16 16 13 17 14 18 17 19 15 21 5 23 1 25
REMARK H PARENT 20 12 17 20 15 22 5 24 1 26
REMARK Flexibility Score: inf
ROOT
ATOM      1  C   UNL     1      -1.676   3.508  11.055  1.00  0.00     0.079 C 
ATOM      2  C   UNL     1      -2.671   3.204  12.195  1.00  0.00     0.164 C 
ATOM      3  C   UNL     1      -2.550   4.265  13.308  1.00  0.00     0.232 C 
ATOM      4  O   UNL     1      -2.730   5.572  12.765  1.00  0.00    -0.482 OA
ATOM      5  C   UNL     1      -2.200   5.941  11.524  1.00  0.00     0.131 A 
ATOM      6  C   UNL     1      -2.225   7.288  11.152  1.00  0.00     0.093 A 
ATOM      7  C   UNL     1      -1.694   7.691   9.925  1.00  0.00     0.122 A 
ATOM      8  C   UNL     1      -1.125   6.741   9.068  1.00  0.00     0.092 A 
ATOM      9  C   UNL     1      -1.092   5.387   9.424  1.00  0.00     0.126 A 
ATOM     10  C   UNL     1      -1.667   4.969  10.649  1.00  0.00     0.039 A 
ENDROOT
BRANCH   2  11
ATOM     11  O   UNL     1      -3.988   3.112  11.703  1.00  0.00    -0.389 OA
ATOM     12  H   UNL     1      -4.002   3.500  10.790  1.00  0.00     0.211 HD
ENDBRANCH   2  11
BRANCH   3  13
ATOM     13  C   UNL     1      -3.537   4.011  14.425  1.00  0.00    -0.001 A 
ATOM     14  C   UNL     1      -4.050   5.072  15.193  1.00  0.00     0.057 A 
ATOM     15  C   UNL     1      -3.998   2.707  14.666  1.00  0.00     0.012 A 
ATOM     16  C   UNL     1      -4.992   4.828  16.204  1.00  0.00     0.157 A 
ATOM     17  C   UNL     1      -4.936   2.463  15.674  1.00  0.00     0.050 A 
ATOM     18  C   UNL     1      -5.433   3.521  16.446  1.00  0.00     0.157 A 
BRANCH  16  19
ATOM     19  O   UNL     1      -5.494   5.880  16.968  1.00  0.00    -0.504 OA
ATOM     20  H   UNL     1      -5.694   6.785  16.558  1.00  0.00     0.293 HD
ENDBRANCH  16  19
BRANCH  18  21
ATOM     21  O   UNL     1      -6.367   3.283  17.453  1.00  0.00    -0.504 OA
ATOM     22  H   UNL     1      -6.987   2.482  17.421  1.00  0.00     0.293 HD
ENDBRANCH  18  21
ENDBRANCH   3  13
BRANCH   9  23
ATOM     23  O   UNL     1      -0.474   4.493   8.548  1.00  0.00    -0.507 OA
ATOM     24  H   UNL     1      -0.807   4.314   7.609  1.00  0.00     0.293 HD
ENDBRANCH   9  23
BRANCH   7  25
ATOM     25  O   UNL     1      -1.729   9.037   9.570  1.00  0.00    -0.508 OA
ATOM     26  H   UNL     1      -2.288   9.364   8.791  1.00  0.00     0.293 HD
ENDBRANCH   7  25
TORSDOF 6
ENDMDL
MODEL 3
REMARK VINA RESULT:    -6.147      1.600      6.746
REMARK INTER + INTRA:          -7.737
REMARK INTER:                  -7.599
REMARK INTRA:                  -0.138
REMARK UNBOUND:                -0.332
REMARK SMILES Oc1cc(O)c2c(c1)O[C@@H](c1ccc(O)c(O)c1)[C@@H](O)C2
REMARK SMILES IDX 21 1 19 2 10 3 9 4 7 5 8 6 2 7 3 8 4 9 6 10 20 11 11 13
REMARK SMILES IDX 18 14 12 15 16 16 13 17 14 18 17 19 15 21 5 23 1 25
REMARK H PARENT 20 12 17 20 15 22 5 24 1 26
REMARK Flexibility Score: inf
ROOT
ATOM      1  C   UNL     1      -1.430   4.648  11.116  1.00  0.00     0.079 C 
ATOM      2  C   UNL     1      -2.388   4.012  12.145  1.00  0.00     0.164 C 
ATOM      3  C   UNL     1      -2.369   4.816  13.462  1.00  0.00     0.232 C 
ATOM      4  O   UNL     1      -2.677   6.185  13.208  1.00  0.00    -0.482 OA
ATOM      5  C   UNL     1      -2.189   6.862  12.085  1.00  0.00     0.131 A 
ATOM      6  C   UNL     1      -2.346   8.248  12.009  1.00  0.00     0.093 A 
ATOM      7  C   UNL     1      -1.858   8.955  10.907  1.00  0.00     0.122 A 
ATOM      8  C   UNL     1      -1.201   8.270   9.879  1.00  0.00     0.092 A 
ATOM      9  C   UNL     1      -1.035   6.881   9.937  1.00  0.00     0.126 A 
ATOM     10  C   UNL     1      -1.564   6.156  11.033  1.00  0.00     0.039 A 
ENDROOT
BRANCH   2  11
ATOM     11  O   UNL     1      -3.690   3.903  11.620  1.00  0.00    -0.389 OA
ATOM     12  H   UNL     1      -4.332   4.151  12.335  1.00  0.00     0.211 HD
ENDBRANCH   2  11
BRANCH   3  13
ATOM     13  C   UNL     1      -3.325   4.234  14.479  1.00  0.00    -0.001 A 
ATOM     14  C   UNL     1      -4.032   5.066  15.366  1.00  0.00     0.057 A 
ATOM     15  C   UNL     1      -3.559   2.850  14.505  1.00  0.00     0.012 A 
ATOM     16  C   UNL     1      -4.942   4.517  16.282  1.00  0.00     0.157 A 
ATOM     17  C   UNL     1      -4.465   2.303  15.419  1.00  0.00     0.050 A 
ATOM     18  C   UNL     1      -5.157   3.134  16.310  1.00  0.00     0.157 A 
BRANCH  16  19
ATOM     19  O   UNL     1      -5.637   5.342  17.164  1.00  0.00    -0.504 OA
ATOM     20  H   UNL     1      -6.278   4.964  17.853  1.00  0.00     0.293 HD
ENDBRANCH  16  19
BRANCH  18  21
ATOM     21  O   UNL     1      -6.060   2.593  17.224  1.00  0.00    -0.504 OA
ATOM     22  H   UNL     1      -7.004   2.950  17.309  1.00  0.00     0.293 HD
ENDBRANCH  18  21
ENDBRANCH   3  13
BRANCH   9  23
ATOM     23  O   UNL     1      -0.335   6.259   8.901  1.00  0.00    -0.507 OA
ATOM     24  H   UNL     1      -0.735   6.078   7.990  1.00  0.00     0.293 HD
ENDBRANCH   9  23
BRANCH   7  25
ATOM     25  O   UNL     1      -2.025  10.336  10.849  1.00  0.00    -0.508 OA
ATOM     26  H   UNL     1      -2.892  10.751  10.524  1.00  0.00     0.293 HD
ENDBRANCH   7  25
TORSDOF 6
ENDMDL
MODEL 4
REMARK VINA RESULT:    -5.984      3.363      5.819
REMARK INTER + INTRA:          -7.541
REMARK INTER:                  -7.215
REMARK INTRA:                  -0.325
REMARK UNBOUND:                -0.332
REMARK SMILES Oc1cc(O)c2c(c1)O[C@@H](c1ccc(O)c(O)c1)[C@@H](O)C2
REMARK SMILES IDX 21 1 19 2 10 3 9 4 7 5 8 6 2 7 3 8 4 9 6 10 20 11 11 13
REMARK SMILES IDX 18 14 12 15 16 16 13 17 14 18 17 19 15 21 5 23 1 25
REMARK H PARENT 20 12 17 20 15 22 5 24 1 26
REMARK Flexibility Score: inf
ROOT
ATOM      1  C   UNL     1      -2.679   3.297   9.709  1.00  0.00     0.079 C 
ATOM      2  C   UNL     1      -2.912   4.340  10.821  1.00  0.00     0.164 C 
ATOM      3  C   UNL     1      -1.888   4.146  11.959  1.00  0.00     0.232 C 
ATOM      4  O   UNL     1      -0.560   4.193  11.441  1.00  0.00    -0.482 OA
ATOM      5  C   UNL     1      -0.217   3.605  10.219  1.00  0.00     0.131 A 
ATOM      6  C   UNL     1       1.133   3.497   9.875  1.00  0.00     0.093 A 
ATOM      7  C   UNL     1       1.509   2.904   8.668  1.00  0.00     0.122 A 
ATOM      8  C   UNL     1       0.528   2.406   7.803  1.00  0.00     0.092 A 
ATOM      9  C   UNL     1      -0.830   2.506   8.131  1.00  0.00     0.126 A 
ATOM     10  C   UNL     1      -1.217   3.144   9.334  1.00  0.00     0.039 A 
ENDROOT
BRANCH   2  11
ATOM     11  O   UNL     1      -2.872   5.648  10.301  1.00  0.00    -0.389 OA
ATOM     12  H   UNL     1      -3.774   6.048  10.405  1.00  0.00     0.211 HD
ENDBRANCH   2  11
BRANCH   3  13
ATOM     13  C   UNL     1      -2.071   5.177  13.050  1.00  0.00    -0.001 A 
ATOM     14  C   UNL     1      -3.086   5.038  14.015  1.00  0.00     0.057 A 
ATOM     15  C   UNL     1      -1.183   6.260  13.144  1.00  0.00     0.012 A 
ATOM     16  C   UNL     1      -3.223   5.982  15.043  1.00  0.00     0.157 A 
ATOM     17  C   UNL     1      -1.320   7.202  14.167  1.00  0.00     0.050 A 
ATOM     18  C   UNL     1      -2.341   7.067  15.117  1.00  0.00     0.157 A 
BRANCH  16  19
ATOM     19  O   UNL     1      -4.233   5.846  15.994  1.00  0.00    -0.504 OA
ATOM     20  H   UNL     1      -4.041   5.500  16.927  1.00  0.00     0.293 HD
ENDBRANCH  16  19
BRANCH  18  21
ATOM     21  O   UNL     1      -2.483   8.005  16.139  1.00  0.00    -0.504 OA
ATOM     22  H   UNL     1      -1.741   8.656  16.366  1.00  0.00     0.293 HD
ENDBRANCH  18  21
ENDBRANCH   3  13
BRANCH   9  23
ATOM     23  O   UNL     1      -1.760   1.954   7.247  1.00  0.00    -0.507 OA
ATOM     24  H   UNL     1      -1.730   0.991   6.937  1.00  0.00     0.293 HD
ENDBRANCH   9  23
BRANCH   7  25
ATOM     25  O   UNL     1       2.859   2.807   8.342  1.00  0.00    -0.508 OA
ATOM     26  H   UNL     1       3.195   3.019   7.409  1.00  0.00     0.293 HD
ENDBRANCH   7  25
TORSDOF 6
ENDMDL
MODEL 5
REMARK VINA RESULT:    -5.888      2.939      5.051
REMARK INTER + INTRA:          -7.425
REMARK INTER:                  -7.220
REMARK INTRA:                  -0.205
REMARK UNBOUND:                -0.332
REMARK SMILES Oc1cc(O)c2c(c1)O[C@@H](c1ccc(O)c(O)c1)[C@@H](O)C2
REMARK SMILES IDX 21 1 19 2 10 3 9 4 7 5 8 6 2 7 3 8 4 9 6 10 20 11 11 13
REMARK SMILES IDX 18 14 12 15 16 16 13 17 14 18 17 19 15 21 5 23 1 25
REMARK H PARENT 20 12 17 20 15 22 5 24 1 26
REMARK Flexibility Score: inf
ROOT
ATOM      1  C   UNL     1      -1.900   6.066  13.522  1.00  0.00     0.079 C 
ATOM      2  C   UNL     1      -1.442   5.633  12.114  1.00  0.00     0.164 C 
ATOM      3  C   UNL     1      -1.056   4.139  12.113  1.00  0.00     0.232 C 
ATOM      4  O   UNL     1      -2.140   3.349  12.598  1.00  0.00    -0.482 OA
ATOM      5  C   UNL     1      -2.940   3.761  13.669  1.00  0.00     0.131 A 
ATOM      6  C   UNL     1      -3.839   2.851  14.231  1.00  0.00     0.093 A 
ATOM      7  C   UNL     1      -4.644   3.227  15.309  1.00  0.00     0.122 A 
ATOM      8  C   UNL     1      -4.541   4.520  15.834  1.00  0.00     0.092 A 
ATOM      9  C   UNL     1      -3.646   5.446  15.283  1.00  0.00     0.126 A 
ATOM     10  C   UNL     1      -2.859   5.082  14.164  1.00  0.00     0.039 A 
ENDROOT
BRANCH   2  11
ATOM     11  O   UNL     1      -2.432   5.916  11.153  1.00  0.00    -0.389 OA
ATOM     12  H   UNL     1      -2.631   5.077  10.661  1.00  0.00     0.211 HD
ENDBRANCH   2  11
BRANCH   3  13
ATOM     13  C   UNL     1      -0.633   3.677  10.737  1.00  0.00    -0.001 A 
ATOM     14  C   UNL     1      -1.572   3.163   9.825  1.00  0.00     0.057 A 
ATOM     15  C   UNL     1       0.705   3.816  10.335  1.00  0.00     0.012 A 
ATOM     16  C   UNL     1      -1.174   2.770   8.539  1.00  0.00     0.157 A 
ATOM     17  C   UNL     1       1.104   3.424   9.053  1.00  0.00     0.050 A 
ATOM     18  C   UNL     1       0.166   2.899   8.153  1.00  0.00     0.157 A 
BRANCH  16  19
ATOM     19  O   UNL     1      -2.105   2.255   7.640  1.00  0.00    -0.504 OA
ATOM     20  H   UNL     1      -2.664   1.440   7.863  1.00  0.00     0.293 HD
ENDBRANCH  16  19
BRANCH  18  21
ATOM     21  O   UNL     1       0.559   2.505   6.875  1.00  0.00    -0.504 OA
ATOM     22  H   UNL     1       1.360   2.922   6.416  1.00  0.00     0.293 HD
ENDBRANCH  18  21
ENDBRANCH   3  13
BRANCH   9  23
ATOM     23  O   UNL     1      -3.559   6.707  15.877  1.00  0.00    -0.507 OA
ATOM     24  H   UNL     1      -2.844   7.384  15.642  1.00  0.00     0.293 HD
ENDBRANCH   9  23
BRANCH   7  25
ATOM     25  O   UNL     1      -5.535   2.307  15.855  1.00  0.00    -0.508 OA
ATOM     26  H   UNL     1      -5.418   1.953  16.797  1.00  0.00     0.293 HD
ENDBRANCH   7  25
TORSDOF 6
ENDMDL
MODEL 6
REMARK VINA RESULT:    -5.845      1.650      6.915
REMARK INTER + INTRA:          -7.373
REMARK INTER:                  -7.163
REMARK INTRA:                  -0.210
REMARK UNBOUND:                -0.332
REMARK SMILES Oc1cc(O)c2c(c1)O[C@@H](c1ccc(O)c(O)c1)[C@@H](O)C2
REMARK SMILES IDX 21 1 19 2 10 3 9 4 7 5 8 6 2 7 3 8 4 9 6 10 20 11 11 13
REMARK SMILES IDX 18 14 12 15 16 16 13 17 14 18 17 19 15 21 5 23 1 25
REMARK H PARENT 20 12 17 20 15 22 5 24 1 26
REMARK Flexibility Score: inf
ROOT
ATOM      1  C   UNL     1       0.075   7.239  11.565  1.00  0.00     0.079 C 
ATOM      2  C   UNL     1      -0.714   6.117  12.271  1.00  0.00     0.164 C 
ATOM      3  C   UNL     1      -1.253   6.614  13.628  1.00  0.00     0.232 C 
ATOM      4  O   UNL     1      -2.034   7.794  13.446  1.00  0.00    -0.482 OA
ATOM      5  C   UNL     1      -1.667   8.797  12.543  1.00  0.00     0.131 A 
ATOM      6  C   UNL     1      -2.350  10.015  12.570  1.00  0.00     0.093 A 
ATOM      7  C   UNL     1      -2.000  11.041  11.690  1.00  0.00     0.122 A 
ATOM      8  C   UNL     1      -0.952  10.850  10.782  1.00  0.00     0.092 A 
ATOM      9  C   UNL     1      -0.256   9.636  10.740  1.00  0.00     0.126 A 
ATOM     10  C   UNL     1      -0.635   8.579  11.602  1.00  0.00     0.039 A 
ENDROOT
BRANCH   2  11
ATOM     11  O   UNL     1      -1.747   5.632  11.446  1.00  0.00    -0.389 OA
ATOM     12  H   UNL     1      -1.605   4.658  11.316  1.00  0.00     0.211 HD
ENDBRANCH   2  11
BRANCH   3  13
ATOM     13  C   UNL     1      -2.059   5.544  14.329  1.00  0.00    -0.001 A 
ATOM     14  C   UNL     1      -3.249   5.862  15.010  1.00  0.00     0.057 A 
ATOM     15  C   UNL     1      -1.653   4.202  14.254  1.00  0.00     0.012 A 
ATOM     16  C   UNL     1      -4.006   4.856  15.626  1.00  0.00     0.157 A 
ATOM     17  C   UNL     1      -2.407   3.199  14.870  1.00  0.00     0.050 A 
ATOM     18  C   UNL     1      -3.583   3.523  15.559  1.00  0.00     0.157 A 
BRANCH  16  19
ATOM     19  O   UNL     1      -5.181   5.175  16.305  1.00  0.00    -0.504 OA
ATOM     20  H   UNL     1      -6.090   5.081  15.867  1.00  0.00     0.293 HD
ENDBRANCH  16  19
BRANCH  18  21
ATOM     21  O   UNL     1      -4.338   2.526  16.175  1.00  0.00    -0.504 OA
ATOM     22  H   UNL     1      -4.619   1.690  15.676  1.00  0.00     0.293 HD
ENDBRANCH  18  21
ENDBRANCH   3  13
BRANCH   9  23
ATOM     23  O   UNL     1       0.806   9.519   9.841  1.00  0.00    -0.507 OA
ATOM     24  H   UNL     1       1.731   9.209  10.110  1.00  0.00     0.293 HD
ENDBRANCH   9  23
BRANCH   7  25
ATOM     25  O   UNL     1      -2.693  12.248  11.731  1.00  0.00    -0.508 OA
ATOM     26  H   UNL     1      -2.488  12.999  11.082  1.00  0.00     0.293 HD
ENDBRANCH   7  25
TORSDOF 6
ENDMDL
MODEL 7
REMARK VINA RESULT:    -5.817      4.224      7.283
REMARK INTER + INTRA:          -7.339
REMARK INTER:                  -6.957
REMARK INTRA:                  -0.382
REMARK UNBOUND:                -0.332
REMARK SMILES Oc1cc(O)c2c(c1)O[C@@H](c1ccc(O)c(O)c1)[C@@H](O)C2
REMARK SMILES IDX 21 1 19 2 10 3 9 4 7 5 8 6 2 7 3 8 4 9 6 10 20 11 11 13
REMARK SMILES IDX 18 14 12 15 16 16 13 17 14 18 17 19 15 21 5 23 1 25
REMARK H PARENT 20 12 17 20 15 22 5 24 1 26
REMARK Flexibility Score: inf
ROOT
ATOM      1  C   UNL     1       1.896   7.721  11.143  1.00  0.00     0.079 C 
ATOM      2  C   UNL     1       1.480   6.549  10.229  1.00  0.00     0.164 C 
ATOM      3  C   UNL     1       0.023   6.135  10.519  1.00  0.00     0.232 C 
ATOM      4  O   UNL     1      -0.845   7.261  10.386  1.00  0.00    -0.482 OA
ATOM      5  C   UNL     1      -0.482   8.536  10.834  1.00  0.00     0.131 A 
ATOM      6  C   UNL     1      -1.453   9.540  10.873  1.00  0.00     0.093 A 
ATOM      7  C   UNL     1      -1.126  10.820  11.326  1.00  0.00     0.122 A 
ATOM      8  C   UNL     1       0.178  11.095  11.751  1.00  0.00     0.092 A 
ATOM      9  C   UNL     1       1.164  10.101  11.718  1.00  0.00     0.126 A 
ATOM     10  C   UNL     1       0.848   8.814  11.221  1.00  0.00     0.039 A 
ENDROOT
BRANCH   2  11
ATOM     11  O   UNL     1       1.669   6.877   8.872  1.00  0.00    -0.389 OA
ATOM     12  H   UNL     1       2.642   6.833   8.678  1.00  0.00     0.211 HD
ENDBRANCH   2  11
BRANCH   3  13
ATOM     13  C   UNL     1      -0.424   5.009   9.614  1.00  0.00    -0.001 A 
ATOM     14  C   UNL     1       0.216   3.757   9.647  1.00  0.00     0.057 A 
ATOM     15  C   UNL     1      -1.531   5.190   8.770  1.00  0.00     0.012 A 
ATOM     16  C   UNL     1      -0.230   2.709   8.828  1.00  0.00     0.157 A 
ATOM     17  C   UNL     1      -1.976   4.146   7.952  1.00  0.00     0.050 A 
ATOM     18  C   UNL     1      -1.325   2.905   7.978  1.00  0.00     0.157 A 
BRANCH  16  19
ATOM     19  O   UNL     1       0.410   1.471   8.857  1.00  0.00    -0.504 OA
ATOM     20  H   UNL     1       0.480   0.890   8.030  1.00  0.00     0.293 HD
ENDBRANCH  16  19
BRANCH  18  21
ATOM     21  O   UNL     1      -1.764   1.861   7.164  1.00  0.00    -0.504 OA
ATOM     22  H   UNL     1      -2.475   2.005   6.457  1.00  0.00     0.293 HD
ENDBRANCH  18  21
ENDBRANCH   3  13
BRANCH   9  23
ATOM     23  O   UNL     1       2.437  10.423  12.194  1.00  0.00    -0.507 OA
ATOM     24  H   UNL     1       2.666  11.317  12.610  1.00  0.00     0.293 HD
ENDBRANCH   9  23
BRANCH   7  25
ATOM     25  O   UNL     1      -2.107  11.808  11.357  1.00  0.00    -0.508 OA
ATOM     26  H   UNL     1      -3.018  11.637  11.768  1.00  0.00     0.293 HD
ENDBRANCH   7  25
TORSDOF 6
ENDMDL
MODEL 8
REMARK VINA RESULT:    -5.771      3.389      6.394
REMARK INTER + INTRA:          -7.284
REMARK INTER:                  -6.968
REMARK INTRA:                  -0.316
REMARK UNBOUND:                -0.332
REMARK SMILES Oc1cc(O)c2c(c1)O[C@@H](c1ccc(O)c(O)c1)[C@@H](O)C2
REMARK SMILES IDX 21 1 19 2 10 3 9 4 7 5 8 6 2 7 3 8 4 9 6 10 20 11 11 13
REMARK SMILES IDX 18 14 12 15 16 16 13 17 14 18 17 19 15 21 5 23 1 25
REMARK H PARENT 20 12 17 20 15 22 5 24 1 26
REMARK Flexibility Score: inf
ROOT
ATOM      1  C   UNL     1       0.013   5.241  11.015  1.00  0.00     0.079 C 
ATOM      2  C   UNL     1      -0.714   4.973  12.349  1.00  0.00     0.164 C 
ATOM      3  C   UNL     1      -2.228   4.801  12.108  1.00  0.00     0.232 C 
ATOM      4  O   UNL     1      -2.460   3.772  11.147  1.00  0.00    -0.482 OA
ATOM      5  C   UNL     1      -1.651   3.613  10.017  1.00  0.00     0.131 A 
ATOM      6  C   UNL     1      -2.059   2.732   9.012  1.00  0.00     0.093 A 
ATOM      7  C   UNL     1      -1.280   2.560   7.866  1.00  0.00     0.122 A 
ATOM      8  C   UNL     1      -0.089   3.280   7.720  1.00  0.00     0.092 A 
ATOM      9  C   UNL     1       0.336   4.166   8.718  1.00  0.00     0.126 A 
ATOM     10  C   UNL     1      -0.430   4.313   9.900  1.00  0.00     0.039 A 
ENDROOT
BRANCH   2  11
ATOM     11  O   UNL     1      -0.161   3.858  13.008  1.00  0.00    -0.389 OA
ATOM     12  H   UNL     1      -0.907   3.268  13.293  1.00  0.00     0.211 HD
ENDBRANCH   2  11
BRANCH   3  13
ATOM     13  C   UNL     1      -2.963   4.504  13.395  1.00  0.00    -0.001 A 
ATOM     14  C   UNL     1      -3.306   5.536  14.288  1.00  0.00     0.057 A 
ATOM     15  C   UNL     1      -3.366   3.190  13.682  1.00  0.00     0.012 A 
ATOM     16  C   UNL     1      -4.019   5.252  15.462  1.00  0.00     0.157 A 
ATOM     17  C   UNL     1      -4.076   2.906  14.852  1.00  0.00     0.050 A 
ATOM     18  C   UNL     1      -4.402   3.936  15.746  1.00  0.00     0.157 A 
BRANCH  16  19
ATOM     19  O   UNL     1      -4.352   6.275  16.348  1.00  0.00    -0.504 OA
ATOM     20  H   UNL     1      -4.796   6.083  17.238  1.00  0.00     0.293 HD
ENDBRANCH  16  19
BRANCH  18  21
ATOM     21  O   UNL     1      -5.109   3.658  16.915  1.00  0.00    -0.504 OA
ATOM     22  H   UNL     1      -4.633   3.424  17.778  1.00  0.00     0.293 HD
ENDBRANCH  18  21
ENDBRANCH   3  13
BRANCH   9  23
ATOM     23  O   UNL     1       1.512   4.888   8.498  1.00  0.00    -0.507 OA
ATOM     24  H   UNL     1       1.942   4.986   7.587  1.00  0.00     0.293 HD
ENDBRANCH   9  23
BRANCH   7  25
ATOM     25  O   UNL     1      -1.702   1.677   6.875  1.00  0.00    -0.508 OA
ATOM     26  H   UNL     1      -2.337   0.914   7.082  1.00  0.00     0.293 HD
ENDBRANCH   7  25
TORSDOF 6
ENDMDL
MODEL 9
REMARK VINA RESULT:    -5.760      2.381      3.285
REMARK INTER + INTRA:          -7.271
REMARK INTER:                  -6.896
REMARK INTRA:                  -0.375
REMARK UNBOUND:                -0.332
REMARK SMILES Oc1cc(O)c2c(c1)O[C@@H](c1ccc(O)c(O)c1)[C@@H](O)C2
REMARK SMILES IDX 21 1 19 2 10 3 9 4 7 5 8 6 2 7 3 8 4 9 6 10 20 11 11 13
REMARK SMILES IDX 18 14 12 15 16 16 13 17 14 18 17 19 15 21 5 23 1 25
REMARK H PARENT 20 12 17 20 15 22 5 24 1 26
REMARK Flexibility Score: inf
ROOT
ATOM      1  C   UNL     1      -2.871   6.404  15.092  1.00  0.00     0.079 C 
ATOM      2  C   UNL     1      -2.009   7.121  14.033  1.00  0.00     0.164 C 
ATOM      3  C   UNL     1      -0.747   6.291  13.719  1.00  0.00     0.232 C 
ATOM      4  O   UNL     1      -1.112   4.971  13.319  1.00  0.00    -0.482 OA
ATOM      5  C   UNL     1      -2.154   4.269  13.933  1.00  0.00     0.131 A 
ATOM      6  C   UNL     1      -2.317   2.911  13.645  1.00  0.00     0.093 A 
ATOM      7  C   UNL     1      -3.341   2.179  14.251  1.00  0.00     0.122 A 
ATOM      8  C   UNL     1      -4.201   2.807  15.158  1.00  0.00     0.092 A 
ATOM      9  C   UNL     1      -4.054   4.167  15.458  1.00  0.00     0.126 A 
ATOM     10  C   UNL     1      -3.043   4.923  14.815  1.00  0.00     0.039 A 
ENDROOT
BRANCH   2  11
ATOM     11  O   UNL     1      -2.758   7.389  12.871  1.00  0.00    -0.389 OA
ATOM     12  H   UNL     1      -2.614   6.643  12.233  1.00  0.00     0.211 HD
ENDBRANCH   2  11
BRANCH   3  13
ATOM     13  C   UNL     1       0.103   6.954  12.659  1.00  0.00    -0.001 A 
ATOM     14  C   UNL     1       0.218   6.399  11.371  1.00  0.00     0.057 A 
ATOM     15  C   UNL     1       0.741   8.173  12.937  1.00  0.00     0.012 A 
ATOM     16  C   UNL     1       0.981   7.042  10.386  1.00  0.00     0.157 A 
ATOM     17  C   UNL     1       1.503   8.814  11.956  1.00  0.00     0.050 A 
ATOM     18  C   UNL     1       1.627   8.249  10.679  1.00  0.00     0.157 A 
BRANCH  16  19
ATOM     19  O   UNL     1       1.099   6.487   9.113  1.00  0.00    -0.504 OA
ATOM     20  H   UNL     1       1.388   5.525   8.977  1.00  0.00     0.293 HD
ENDBRANCH  16  19
BRANCH  18  21
ATOM     21  O   UNL     1       2.386   8.884   9.697  1.00  0.00    -0.504 OA
ATOM     22  H   UNL     1       2.592   9.874   9.746  1.00  0.00     0.293 HD
ENDBRANCH  18  21
ENDBRANCH   3  13
BRANCH   9  23
ATOM     23  O   UNL     1      -4.916   4.728  16.402  1.00  0.00    -0.507 OA
ATOM     24  H   UNL     1      -4.626   4.989  17.336  1.00  0.00     0.293 HD
ENDBRANCH   9  23
BRANCH   7  25
ATOM     25  O   UNL     1      -3.488   0.827  13.950  1.00  0.00    -0.508 OA
ATOM     26  H   UNL     1      -3.022   0.408  13.154  1.00  0.00     0.293 HD
ENDBRANCH   7  25
TORSDOF 6
ENDMDL
