MODEL 1
REMARK VINA RESULT:    -4.620      0.000      0.000
REMARK INTER + INTRA:          -6.164
REMARK INTER:                  -5.970
REMARK INTRA:                  -0.194
REMARK UNBOUND:                -0.194
REMARK SMILES CCCCCCC(=O)[O-]
REMARK SMILES IDX 5 1 6 2 7 3 8 4 9 5 4 6 3 7 2 8 1 9
REMARK H PARENT
REMARK Flexibility Score: inf
ROOT
ATOM      1  C   UNL     1       9.944   1.395 -34.475  1.00  0.00     0.006 C 
ENDROOT
BRANCH   1   2
ATOM      2  C   UNL     1       9.577   1.682 -35.937  1.00  0.00     0.053 C 
BRANCH   2   3
ATOM      3  C   UNL     1       8.099   1.839 -36.119  1.00  0.00     0.041 C 
ATOM      4  O   UNL     1       7.348   1.966 -35.117  1.00  0.00    -0.550 OA
ATOM      5  O   UNL     1       7.549   1.815 -37.393  1.00  0.00    -0.550 OA
ENDBRANCH   2   3
ENDBRANCH   1   2
BRANCH   1   6
ATOM      6  C   UNL     1      11.389   1.802 -34.148  1.00  0.00     0.000 C 
BRANCH   6   7
ATOM      7  C   UNL     1      12.077   2.418 -35.374  1.00  0.00    -0.000 C 
BRANCH   7   8
ATOM      8  C   UNL     1      13.607   2.443 -35.243  1.00  0.00    -0.003 C 
ATOM      9  C   UNL     1      14.079   2.258 -33.800  1.00  0.00     0.004 C 
ENDBRANCH   7   8
ENDBRANCH   6   7
ENDBRANCH   1   6
TORSDOF 5
ENDMDL
MODEL 2
REMARK VINA RESULT:    -4.480      2.771      4.811
REMARK INTER + INTRA:          -5.984
REMARK INTER:                  -5.790
REMARK INTRA:                  -0.194
REMARK UNBOUND:                -0.194
REMARK SMILES CCCCCCC(=O)[O-]
REMARK SMILES IDX 5 1 6 2 7 3 8 4 9 5 4 6 3 7 2 8 1 9
REMARK H PARENT
REMARK Flexibility Score: inf
ROOT
ATOM      1  C   UNL     1       9.282   1.379 -35.493  1.00  0.00     0.006 C 
ENDROOT
BRANCH   1   2
ATOM      2  C   UNL     1      10.697   1.940 -35.294  1.00  0.00     0.053 C 
BRANCH   2   3
ATOM      3  C   UNL     1      11.299   1.481 -34.002  1.00  0.00     0.041 C 
ATOM      4  O   UNL     1      12.521   1.183 -33.943  1.00  0.00    -0.550 OA
ATOM      5  O   UNL     1      10.504   1.354 -32.871  1.00  0.00    -0.550 OA
ENDBRANCH   2   3
ENDBRANCH   1   2
BRANCH   1   6
ATOM      6  C   UNL     1       8.459   2.217 -36.483  1.00  0.00     0.000 C 
BRANCH   6   7
ATOM      7  C   UNL     1       7.915   1.343 -37.622  1.00  0.00    -0.000 C 
BRANCH   7   8
ATOM      8  C   UNL     1       8.988   0.426 -38.227  1.00  0.00    -0.003 C 
ATOM      9  C   UNL     1       8.601  -1.052 -38.174  1.00  0.00     0.004 C 
ENDBRANCH   7   8
ENDBRANCH   6   7
ENDBRANCH   1   6
TORSDOF 5
ENDMDL
MODEL 3
REMARK VINA RESULT:    -4.375      1.540      1.829
REMARK INTER + INTRA:          -5.847
REMARK INTER:                  -5.690
REMARK INTRA:                  -0.158
REMARK UNBOUND:                -0.194
REMARK SMILES CCCCCCC(=O)[O-]
REMARK SMILES IDX 5 1 6 2 7 3 8 4 9 5 4 6 3 7 2 8 1 9
REMARK H PARENT
REMARK Flexibility Score: inf
ROOT
ATOM      1  C   UNL     1       9.381   1.470 -34.909  1.00  0.00     0.006 C 
ENDROOT
BRANCH   1   2
ATOM      2  C   UNL     1       8.555   1.651 -36.190  1.00  0.00     0.053 C 
BRANCH   2   3
ATOM      3  C   UNL     1       8.661   0.460 -37.091  1.00  0.00     0.041 C 
ATOM      4  O   UNL     1       8.097  -0.622 -36.781  1.00  0.00    -0.550 OA
ATOM      5  O   UNL     1       9.409   0.535 -38.258  1.00  0.00    -0.550 OA
ENDBRANCH   2   3
ENDBRANCH   1   2
BRANCH   1   6
ATOM      6  C   UNL     1      10.865   1.807 -35.122  1.00  0.00     0.000 C 
BRANCH   6   7
ATOM      7  C   UNL     1      11.697   1.423 -33.890  1.00  0.00    -0.000 C 
BRANCH   7   8
ATOM      8  C   UNL     1      13.208   1.540 -34.138  1.00  0.00    -0.003 C 
ATOM      9  C   UNL     1      13.543   2.421 -35.341  1.00  0.00     0.004 C 
ENDBRANCH   7   8
ENDBRANCH   6   7
ENDBRANCH   1   6
TORSDOF 5
ENDMDL
MODEL 4
REMARK VINA RESULT:    -4.317      3.198      4.872
REMARK INTER + INTRA:          -5.772
REMARK INTER:                  -5.540
REMARK INTRA:                  -0.233
REMARK UNBOUND:                -0.194
REMARK SMILES CCCCCCC(=O)[O-]
REMARK SMILES IDX 5 1 6 2 7 3 8 4 9 5 4 6 3 7 2 8 1 9
REMARK H PARENT
REMARK Flexibility Score: inf
ROOT
ATOM      1  C   UNL     1      10.583   1.465 -34.400  1.00  0.00     0.006 C 
ENDROOT
BRANCH   1   2
ATOM      2  C   UNL     1      11.399   2.266 -35.424  1.00  0.00     0.053 C 
BRANCH   2   3
ATOM      3  C   UNL     1      12.869   2.185 -35.149  1.00  0.00     0.041 C 
ATOM      4  O   UNL     1      13.664   2.979 -35.716  1.00  0.00    -0.550 OA
ATOM      5  O   UNL     1      13.363   1.211 -34.291  1.00  0.00    -0.550 OA
ENDBRANCH   2   3
ENDBRANCH   1   2
BRANCH   1   6
ATOM      6  C   UNL     1       9.092   1.404 -34.764  1.00  0.00     0.000 C 
BRANCH   6   7
ATOM      7  C   UNL     1       8.874   1.749 -36.244  1.00  0.00    -0.000 C 
BRANCH   7   8
ATOM      8  C   UNL     1       8.349   0.557 -37.057  1.00  0.00    -0.003 C 
ATOM      9  C   UNL     1       9.148   0.317 -38.338  1.00  0.00     0.004 C 
ENDBRANCH   7   8
ENDBRANCH   6   7
ENDBRANCH   1   6
TORSDOF 5
ENDMDL
MODEL 5
REMARK VINA RESULT:    -4.003      3.327      4.896
REMARK INTER + INTRA:          -5.366
REMARK INTER:                  -5.158
REMARK INTRA:                  -0.209
REMARK UNBOUND:                -0.194
REMARK SMILES CCCCCCC(=O)[O-]
REMARK SMILES IDX 5 1 6 2 7 3 8 4 9 5 4 6 3 7 2 8 1 9
REMARK H PARENT
REMARK Flexibility Score: inf
ROOT
ATOM      1  C   UNL     1      11.129   1.600 -34.283  1.00  0.00     0.006 C 
ENDROOT
BRANCH   1   2
ATOM      2  C   UNL     1      10.297   1.442 -33.002  1.00  0.00     0.053 C 
BRANCH   2   3
ATOM      3  C   UNL     1      10.908   2.179 -31.850  1.00  0.00     0.041 C 
ATOM      4  O   UNL     1      11.608   3.205 -32.053  1.00  0.00    -0.550 OA
ATOM      5  O   UNL     1      10.729   1.713 -30.554  1.00  0.00    -0.550 OA
ENDBRANCH   2   3
ENDBRANCH   1   2
BRANCH   1   6
ATOM      6  C   UNL     1      10.249   1.772 -35.530  1.00  0.00     0.000 C 
BRANCH   6   7
ATOM      7  C   UNL     1       8.836   1.223 -35.284  1.00  0.00    -0.000 C 
BRANCH   7   8
ATOM      8  C   UNL     1       8.335   0.343 -36.440  1.00  0.00    -0.003 C 
ATOM      9  C   UNL     1       8.992   0.692 -37.775  1.00  0.00     0.004 C 
ENDBRANCH   7   8
ENDBRANCH   6   7
ENDBRANCH   1   6
TORSDOF 5
ENDMDL
MODEL 6
REMARK VINA RESULT:    -3.999      4.023      4.767
REMARK INTER + INTRA:          -5.361
REMARK INTER:                  -5.224
REMARK INTRA:                  -0.137
REMARK UNBOUND:                -0.194
REMARK SMILES CCCCCCC(=O)[O-]
REMARK SMILES IDX 5 1 6 2 7 3 8 4 9 5 4 6 3 7 2 8 1 9
REMARK H PARENT
REMARK Flexibility Score: inf
ROOT
ATOM      1  C   UNL     1       8.012   1.344 -34.941  1.00  0.00     0.006 C 
ENDROOT
BRANCH   1   2
ATOM      2  C   UNL     1       6.912   1.845 -33.995  1.00  0.00     0.053 C 
BRANCH   2   3
ATOM      3  C   UNL     1       7.021   1.222 -32.638  1.00  0.00     0.041 C 
ATOM      4  O   UNL     1       8.042   1.421 -31.929  1.00  0.00    -0.550 OA
ATOM      5  O   UNL     1       6.009   0.395 -32.169  1.00  0.00    -0.550 OA
ENDBRANCH   2   3
ENDBRANCH   1   2
BRANCH   1   6
ATOM      6  C   UNL     1       8.155   2.231 -36.187  1.00  0.00     0.000 C 
BRANCH   6   7
ATOM      7  C   UNL     1       7.791   1.452 -37.459  1.00  0.00    -0.000 C 
BRANCH   7   8
ATOM      8  C   UNL     1       8.942   0.565 -37.958  1.00  0.00    -0.003 C 
ATOM      9  C   UNL     1       8.468  -0.812 -38.424  1.00  0.00     0.004 C 
ENDBRANCH   7   8
ENDBRANCH   6   7
ENDBRANCH   1   6
TORSDOF 5
ENDMDL
MODEL 7
REMARK VINA RESULT:    -3.897      1.740      2.511
REMARK INTER + INTRA:          -5.230
REMARK INTER:                  -5.027
REMARK INTRA:                  -0.202
REMARK UNBOUND:                -0.194
REMARK SMILES CCCCCCC(=O)[O-]
REMARK SMILES IDX 5 1 6 2 7 3 8 4 9 5 4 6 3 7 2 8 1 9
REMARK H PARENT
REMARK Flexibility Score: inf
ROOT
ATOM      1  C   UNL     1      10.561   1.707 -35.344  1.00  0.00     0.006 C 
ENDROOT
BRANCH   1   2
ATOM      2  C   UNL     1       9.060   1.422 -35.200  1.00  0.00     0.053 C 
BRANCH   2   3
ATOM      3  C   UNL     1       8.441   1.031 -36.506  1.00  0.00     0.041 C 
ATOM      4  O   UNL     1       7.739   1.856 -37.148  1.00  0.00    -0.550 OA
ATOM      5  O   UNL     1       8.613  -0.256 -37.000  1.00  0.00    -0.550 OA
ENDBRANCH   2   3
ENDBRANCH   1   2
BRANCH   1   6
ATOM      6  C   UNL     1      11.265   1.815 -33.983  1.00  0.00     0.000 C 
BRANCH   6   7
ATOM      7  C   UNL     1      10.319   1.413 -32.843  1.00  0.00    -0.000 C 
BRANCH   7   8
ATOM      8  C   UNL     1      10.699   2.063 -31.504  1.00  0.00    -0.003 C 
ATOM      9  C   UNL     1      11.769   3.145 -31.654  1.00  0.00     0.004 C 
ENDBRANCH   7   8
ENDBRANCH   6   7
ENDBRANCH   1   6
TORSDOF 5
ENDMDL
MODEL 8
REMARK VINA RESULT:    -3.869      1.790      2.541
REMARK INTER + INTRA:          -5.194
REMARK INTER:                  -4.968
REMARK INTRA:                  -0.226
REMARK UNBOUND:                -0.194
REMARK SMILES CCCCCCC(=O)[O-]
REMARK SMILES IDX 5 1 6 2 7 3 8 4 9 5 4 6 3 7 2 8 1 9
REMARK H PARENT
REMARK Flexibility Score: inf
ROOT
ATOM      1  C   UNL     1       9.353   1.133 -35.626  1.00  0.00     0.006 C 
ENDROOT
BRANCH   1   2
ATOM      2  C   UNL     1       8.028   1.907 -35.654  1.00  0.00     0.053 C 
BRANCH   2   3
ATOM      3  C   UNL     1       7.017   1.310 -34.724  1.00  0.00     0.041 C 
ATOM      4  O   UNL     1       6.430   0.239 -35.027  1.00  0.00    -0.550 OA
ATOM      5  O   UNL     1       6.699   1.955 -33.535  1.00  0.00    -0.550 OA
ENDBRANCH   2   3
ENDBRANCH   1   2
BRANCH   1   6
ATOM      6  C   UNL     1      10.568   2.055 -35.803  1.00  0.00     0.000 C 
BRANCH   6   7
ATOM      7  C   UNL     1      11.459   2.034 -34.553  1.00  0.00    -0.000 C 
BRANCH   7   8
ATOM      8  C   UNL     1      10.831   1.247 -33.393  1.00  0.00    -0.003 C 
ATOM      9  C   UNL     1      10.796   2.044 -32.089  1.00  0.00     0.004 C 
ENDBRANCH   7   8
ENDBRANCH   6   7
ENDBRANCH   1   6
TORSDOF 5
ENDMDL
MODEL 9
REMARK VINA RESULT:    -3.847      2.793      5.330
REMARK INTER + INTRA:          -5.166
REMARK INTER:                  -5.010
REMARK INTRA:                  -0.156
REMARK UNBOUND:                -0.194
REMARK SMILES CCCCCCC(=O)[O-]
REMARK SMILES IDX 5 1 6 2 7 3 8 4 9 5 4 6 3 7 2 8 1 9
REMARK H PARENT
REMARK Flexibility Score: inf
ROOT
ATOM      1  C   UNL     1       9.199   1.026 -35.855  1.00  0.00     0.006 C 
ENDROOT
BRANCH   1   2
ATOM      2  C   UNL     1      10.386   1.883 -35.394  1.00  0.00     0.053 C 
BRANCH   2   3
ATOM      3  C   UNL     1      10.890   1.456 -34.050  1.00  0.00     0.041 C 
ATOM      4  O   UNL     1      12.099   1.141 -33.897  1.00  0.00    -0.550 OA
ATOM      5  O   UNL     1      10.017   1.375 -32.974  1.00  0.00    -0.550 OA
ENDBRANCH   2   3
ENDBRANCH   1   2
BRANCH   1   6
ATOM      6  C   UNL     1       7.859   1.760 -35.701  1.00  0.00     0.000 C 
BRANCH   6   7
ATOM      7  C   UNL     1       6.704   0.764 -35.526  1.00  0.00    -0.000 C 
BRANCH   7   8
ATOM      8  C   UNL     1       6.303   0.577 -34.055  1.00  0.00    -0.003 C 
ATOM      9  C   UNL     1       5.334  -0.587 -33.850  1.00  0.00     0.004 C 
ENDBRANCH   7   8
ENDBRANCH   6   7
ENDBRANCH   1   6
TORSDOF 5
ENDMDL
