MODEL 1
REMARK VINA RESULT:    -3.778      0.000      0.000
REMARK INTER + INTRA:          -5.073
REMARK INTER:                  -4.882
REMARK INTRA:                  -0.191
REMARK UNBOUND:                -0.191
REMARK SMILES CCCCCCC(=O)[O-]
REMARK SMILES IDX 5 1 6 2 7 3 8 4 9 5 4 6 3 7 2 8 1 9
REMARK H PARENT
REMARK Flexibility Score: inf
ROOT
ATOM      1  C   UNL     1      12.534  25.752  33.800  1.00  0.00     0.006 C 
ENDROOT
BRANCH   1   2
ATOM      2  C   UNL     1      12.845  27.134  34.387  1.00  0.00     0.053 C 
BRANCH   2   3
ATOM      3  C   UNL     1      11.826  27.506  35.417  1.00  0.00     0.041 C 
ATOM      4  O   UNL     1      11.744  26.854  36.492  1.00  0.00    -0.550 OA
ATOM      5  O   UNL     1      11.000  28.603  35.214  1.00  0.00    -0.550 OA
ENDBRANCH   2   3
ENDBRANCH   1   2
BRANCH   1   6
ATOM      6  C   UNL     1      13.750  25.104  33.113  1.00  0.00     0.000 C 
BRANCH   6   7
ATOM      7  C   UNL     1      15.101  25.776  33.416  1.00  0.00    -0.000 C 
BRANCH   7   8
ATOM      8  C   UNL     1      16.237  24.766  33.629  1.00  0.00    -0.003 C 
ATOM      9  C   UNL     1      15.802  23.358  33.234  1.00  0.00     0.004 C 
ENDBRANCH   7   8
ENDBRANCH   6   7
ENDBRANCH   1   6
TORSDOF 5
ENDMDL
MODEL 2
REMARK VINA RESULT:    -3.703      0.139      1.088
REMARK INTER + INTRA:          -4.977
REMARK INTER:                  -4.783
REMARK INTRA:                  -0.194
REMARK UNBOUND:                -0.191
REMARK SMILES CCCCCCC(=O)[O-]
REMARK SMILES IDX 5 1 6 2 7 3 8 4 9 5 4 6 3 7 2 8 1 9
REMARK H PARENT
REMARK Flexibility Score: inf
ROOT
ATOM      1  C   UNL     1      12.621  25.759  33.782  1.00  0.00     0.006 C 
ENDROOT
BRANCH   1   2
ATOM      2  C   UNL     1      12.948  27.125  34.397  1.00  0.00     0.053 C 
BRANCH   2   3
ATOM      3  C   UNL     1      11.922  27.498  35.419  1.00  0.00     0.041 C 
ATOM      4  O   UNL     1      11.129  28.452  35.203  1.00  0.00    -0.550 OA
ATOM      5  O   UNL     1      11.806  26.760  36.590  1.00  0.00    -0.550 OA
ENDBRANCH   2   3
ENDBRANCH   1   2
BRANCH   1   6
ATOM      6  C   UNL     1      13.800  25.156  32.997  1.00  0.00     0.000 C 
BRANCH   6   7
ATOM      7  C   UNL     1      15.185  25.713  33.376  1.00  0.00    -0.000 C 
BRANCH   7   8
ATOM      8  C   UNL     1      16.208  24.611  33.686  1.00  0.00    -0.003 C 
ATOM      9  C   UNL     1      15.697  23.245  33.240  1.00  0.00     0.004 C 
ENDBRANCH   7   8
ENDBRANCH   6   7
ENDBRANCH   1   6
TORSDOF 5
ENDMDL
MODEL 3
REMARK VINA RESULT:    -3.675      1.067      1.494
REMARK INTER + INTRA:          -4.940
REMARK INTER:                  -4.845
REMARK INTRA:                  -0.096
REMARK UNBOUND:                -0.191
REMARK SMILES CCCCCCC(=O)[O-]
REMARK SMILES IDX 5 1 6 2 7 3 8 4 9 5 4 6 3 7 2 8 1 9
REMARK H PARENT
REMARK Flexibility Score: inf
ROOT
ATOM      1  C   UNL     1      12.752  25.610  33.625  1.00  0.00     0.006 C 
ENDROOT
BRANCH   1   2
ATOM      2  C   UNL     1      12.674  26.620  34.776  1.00  0.00     0.053 C 
BRANCH   2   3
ATOM      3  C   UNL     1      11.534  27.565  34.566  1.00  0.00     0.041 C 
ATOM      4  O   UNL     1      10.915  27.577  33.469  1.00  0.00    -0.550 OA
ATOM      5  O   UNL     1      11.122  28.399  35.597  1.00  0.00    -0.550 OA
ENDBRANCH   2   3
ENDBRANCH   1   2
BRANCH   1   6
ATOM      6  C   UNL     1      14.195  25.347  33.154  1.00  0.00     0.000 C 
BRANCH   6   7
ATOM      7  C   UNL     1      14.953  24.272  33.954  1.00  0.00    -0.000 C 
BRANCH   7   8
ATOM      8  C   UNL     1      15.612  23.214  33.060  1.00  0.00    -0.003 C 
ATOM      9  C   UNL     1      16.201  22.079  33.893  1.00  0.00     0.004 C 
ENDBRANCH   7   8
ENDBRANCH   6   7
ENDBRANCH   1   6
TORSDOF 5
ENDMDL
MODEL 4
REMARK VINA RESULT:    -3.608      2.710      4.818
REMARK INTER + INTRA:          -4.854
REMARK INTER:                  -4.693
REMARK INTRA:                  -0.162
REMARK UNBOUND:                -0.191
REMARK SMILES CCCCCCC(=O)[O-]
REMARK SMILES IDX 5 1 6 2 7 3 8 4 9 5 4 6 3 7 2 8 1 9
REMARK H PARENT
REMARK Flexibility Score: inf
ROOT
ATOM      1  C   UNL     1      14.294  25.245  33.029  1.00  0.00     0.006 C 
ENDROOT
BRANCH   1   2
ATOM      2  C   UNL     1      14.843  23.827  33.229  1.00  0.00     0.053 C 
BRANCH   2   3
ATOM      3  C   UNL     1      15.292  23.636  34.643  1.00  0.00     0.041 C 
ATOM      4  O   UNL     1      15.343  22.481  35.141  1.00  0.00    -0.550 OA
ATOM      5  O   UNL     1      15.703  24.728  35.396  1.00  0.00    -0.550 OA
ENDBRANCH   2   3
ENDBRANCH   1   2
BRANCH   1   6
ATOM      6  C   UNL     1      12.843  25.402  33.521  1.00  0.00     0.000 C 
BRANCH   6   7
ATOM      7  C   UNL     1      12.636  26.483  34.597  1.00  0.00    -0.000 C 
BRANCH   7   8
ATOM      8  C   UNL     1      11.535  27.488  34.230  1.00  0.00    -0.003 C 
ATOM      9  C   UNL     1      11.265  28.452  35.382  1.00  0.00     0.004 C 
ENDBRANCH   7   8
ENDBRANCH   6   7
ENDBRANCH   1   6
TORSDOF 5
ENDMDL
MODEL 5
REMARK VINA RESULT:    -3.487      2.610      4.461
REMARK INTER + INTRA:          -4.698
REMARK INTER:                  -4.313
REMARK INTRA:                  -0.385
REMARK UNBOUND:                -0.191
REMARK SMILES CCCCCCC(=O)[O-]
REMARK SMILES IDX 5 1 6 2 7 3 8 4 9 5 4 6 3 7 2 8 1 9
REMARK H PARENT
REMARK Flexibility Score: inf
ROOT
ATOM      1  C   UNL     1      14.884  23.819  33.250  1.00  0.00     0.006 C 
ENDROOT
BRANCH   1   2
ATOM      2  C   UNL     1      15.860  23.831  34.433  1.00  0.00     0.053 C 
BRANCH   2   3
ATOM      3  C   UNL     1      15.173  23.377  35.681  1.00  0.00     0.041 C 
ATOM      4  O   UNL     1      14.540  24.201  36.394  1.00  0.00    -0.550 OA
ATOM      5  O   UNL     1      15.188  22.033  36.034  1.00  0.00    -0.550 OA
ENDBRANCH   2   3
ENDBRANCH   1   2
BRANCH   1   6
ATOM      6  C   UNL     1      14.244  25.194  32.984  1.00  0.00     0.000 C 
BRANCH   6   7
ATOM      7  C   UNL     1      12.790  25.338  33.468  1.00  0.00    -0.000 C 
BRANCH   7   8
ATOM      8  C   UNL     1      12.527  26.669  34.185  1.00  0.00    -0.003 C 
ATOM      9  C   UNL     1      13.828  27.288  34.690  1.00  0.00     0.004 C 
ENDBRANCH   7   8
ENDBRANCH   6   7
ENDBRANCH   1   6
TORSDOF 5
ENDMDL
MODEL 6
REMARK VINA RESULT:    -3.343      3.582      5.527
REMARK INTER + INTRA:          -4.511
REMARK INTER:                  -4.433
REMARK INTRA:                  -0.079
REMARK UNBOUND:                -0.191
REMARK SMILES CCCCCCC(=O)[O-]
REMARK SMILES IDX 5 1 6 2 7 3 8 4 9 5 4 6 3 7 2 8 1 9
REMARK H PARENT
REMARK Flexibility Score: inf
ROOT
ATOM      1  C   UNL     1      14.491  24.064  33.110  1.00  0.00     0.006 C 
ENDROOT
BRANCH   1   2
ATOM      2  C   UNL     1      15.953  23.791  33.484  1.00  0.00     0.053 C 
BRANCH   2   3
ATOM      3  C   UNL     1      16.158  22.337  33.765  1.00  0.00     0.041 C 
ATOM      4  O   UNL     1      16.780  21.613  32.943  1.00  0.00    -0.550 OA
ATOM      5  O   UNL     1      15.707  21.789  34.959  1.00  0.00    -0.550 OA
ENDBRANCH   2   3
ENDBRANCH   1   2
BRANCH   1   6
ATOM      6  C   UNL     1      14.145  25.564  33.096  1.00  0.00     0.000 C 
BRANCH   6   7
ATOM      7  C   UNL     1      12.815  25.930  33.780  1.00  0.00    -0.000 C 
BRANCH   7   8
ATOM      8  C   UNL     1      12.910  27.203  34.631  1.00  0.00    -0.003 C 
ATOM      9  C   UNL     1      11.536  27.628  35.141  1.00  0.00     0.004 C 
ENDBRANCH   7   8
ENDBRANCH   6   7
ENDBRANCH   1   6
TORSDOF 5
ENDMDL
MODEL 7
REMARK VINA RESULT:    -3.182      3.022      4.269
REMARK INTER + INTRA:          -4.304
REMARK INTER:                  -3.963
REMARK INTRA:                  -0.341
REMARK UNBOUND:                -0.191
REMARK SMILES CCCCCCC(=O)[O-]
REMARK SMILES IDX 5 1 6 2 7 3 8 4 9 5 4 6 3 7 2 8 1 9
REMARK H PARENT
REMARK Flexibility Score: inf
ROOT
ATOM      1  C   UNL     1      13.008  25.734  34.633  1.00  0.00     0.006 C 
ENDROOT
BRANCH   1   2
ATOM      2  C   UNL     1      13.418  25.229  33.245  1.00  0.00     0.053 C 
BRANCH   2   3
ATOM      3  C   UNL     1      14.753  24.558  33.306  1.00  0.00     0.041 C 
ATOM      4  O   UNL     1      14.829  23.305  33.418  1.00  0.00    -0.550 OA
ATOM      5  O   UNL     1      15.915  25.309  33.189  1.00  0.00    -0.550 OA
ENDBRANCH   2   3
ENDBRANCH   1   2
BRANCH   1   6
ATOM      6  C   UNL     1      12.479  27.180  34.614  1.00  0.00     0.000 C 
BRANCH   6   7
ATOM      7  C   UNL     1      13.303  28.183  35.442  1.00  0.00    -0.000 C 
BRANCH   7   8
ATOM      8  C   UNL     1      14.796  27.834  35.492  1.00  0.00    -0.003 C 
ATOM      9  C   UNL     1      15.580  28.620  34.446  1.00  0.00     0.004 C 
ENDBRANCH   7   8
ENDBRANCH   6   7
ENDBRANCH   1   6
TORSDOF 5
ENDMDL
MODEL 8
REMARK VINA RESULT:    -3.169      2.692      4.868
REMARK INTER + INTRA:          -4.286
REMARK INTER:                  -4.037
REMARK INTRA:                  -0.249
REMARK UNBOUND:                -0.191
REMARK SMILES CCCCCCC(=O)[O-]
REMARK SMILES IDX 5 1 6 2 7 3 8 4 9 5 4 6 3 7 2 8 1 9
REMARK H PARENT
REMARK Flexibility Score: inf
ROOT
ATOM      1  C   UNL     1      13.047  25.661  35.375  1.00  0.00     0.006 C 
ENDROOT
BRANCH   1   2
ATOM      2  C   UNL     1      12.986  25.841  33.853  1.00  0.00     0.053 C 
BRANCH   2   3
ATOM      3  C   UNL     1      14.346  25.673  33.252  1.00  0.00     0.041 C 
ATOM      4  O   UNL     1      15.113  26.664  33.131  1.00  0.00    -0.550 OA
ATOM      5  O   UNL     1      14.787  24.412  32.873  1.00  0.00    -0.550 OA
ENDBRANCH   2   3
ENDBRANCH   1   2
BRANCH   1   6
ATOM      6  C   UNL     1      12.328  26.786  36.142  1.00  0.00     0.000 C 
BRANCH   6   7
ATOM      7  C   UNL     1      11.496  27.740  35.265  1.00  0.00    -0.000 C 
BRANCH   7   8
ATOM      8  C   UNL     1      11.611  29.207  35.703  1.00  0.00    -0.003 C 
ATOM      9  C   UNL     1      13.031  29.535  36.156  1.00  0.00     0.004 C 
ENDBRANCH   7   8
ENDBRANCH   6   7
ENDBRANCH   1   6
TORSDOF 5
ENDMDL
MODEL 9
REMARK VINA RESULT:    -3.107      3.198      4.166
REMARK INTER + INTRA:          -4.207
REMARK INTER:                  -4.078
REMARK INTRA:                  -0.129
REMARK UNBOUND:                -0.191
REMARK SMILES CCCCCCC(=O)[O-]
REMARK SMILES IDX 5 1 6 2 7 3 8 4 9 5 4 6 3 7 2 8 1 9
REMARK H PARENT
REMARK Flexibility Score: inf
ROOT
ATOM      1  C   UNL     1      15.065  27.594  34.108  1.00  0.00     0.006 C 
ENDROOT
BRANCH   1   2
ATOM      2  C   UNL     1      14.653  26.344  33.320  1.00  0.00     0.053 C 
BRANCH   2   3
ATOM      3  C   UNL     1      13.443  25.715  33.933  1.00  0.00     0.041 C 
ATOM      4  O   UNL     1      12.555  25.203  33.202  1.00  0.00    -0.550 OA
ATOM      5  O   UNL     1      13.319  25.647  35.315  1.00  0.00    -0.550 OA
ENDBRANCH   2   3
ENDBRANCH   1   2
BRANCH   1   6
ATOM      6  C   UNL     1      16.439  28.145  33.684  1.00  0.00     0.000 C 
BRANCH   6   7
ATOM      7  C   UNL     1      16.680  28.190  32.164  1.00  0.00    -0.000 C 
BRANCH   7   8
ATOM      8  C   UNL     1      16.822  29.619  31.623  1.00  0.00    -0.003 C 
ATOM      9  C   UNL     1      16.885  29.626  30.099  1.00  0.00     0.004 C 
ENDBRANCH   7   8
ENDBRANCH   6   7
ENDBRANCH   1   6
TORSDOF 5
ENDMDL
