MODEL 1
REMARK VINA RESULT:    -3.083      0.000      0.000
REMARK INTER + INTRA:          -4.161
REMARK INTER:                  -3.984
REMARK INTRA:                  -0.177
REMARK UNBOUND:                -0.177
REMARK SMILES CCCCCCC(=O)[O-]
REMARK SMILES IDX 5 1 6 2 7 3 8 4 9 5 4 6 3 7 2 8 1 9
REMARK H PARENT
REMARK Flexibility Score: inf
ROOT
ATOM      1  C   UNL     1     -99.743  69.199  25.747  1.00  0.00     0.006 C 
ENDROOT
BRANCH   1   2
ATOM      2  C   UNL     1     -98.732  69.274  26.894  1.00  0.00     0.053 C 
BRANCH   2   3
ATOM      3  C   UNL     1     -99.345  68.778  28.165  1.00  0.00     0.041 C 
ATOM      4  O   UNL     1    -100.532  68.356  28.174  1.00  0.00    -0.550 OA
ATOM      5  O   UNL     1     -98.590  68.734  29.331  1.00  0.00    -0.550 OA
ENDBRANCH   2   3
ENDBRANCH   1   2
BRANCH   1   6
ATOM      6  C   UNL     1     -99.176  68.404  24.564  1.00  0.00     0.000 C 
BRANCH   6   7
ATOM      7  C   UNL     1     -99.296  69.197  23.258  1.00  0.00    -0.000 C 
BRANCH   7   8
ATOM      8  C   UNL     1     -98.589  70.553  23.372  1.00  0.00    -0.003 C 
ATOM      9  C   UNL     1     -98.004  70.983  22.030  1.00  0.00     0.004 C 
ENDBRANCH   7   8
ENDBRANCH   6   7
ENDBRANCH   1   6
TORSDOF 5
ENDMDL
MODEL 2
REMARK VINA RESULT:    -3.052      1.282      1.951
REMARK INTER + INTRA:          -4.122
REMARK INTER:                  -3.763
REMARK INTRA:                  -0.358
REMARK UNBOUND:                -0.177
REMARK SMILES CCCCCCC(=O)[O-]
REMARK SMILES IDX 5 1 6 2 7 3 8 4 9 5 4 6 3 7 2 8 1 9
REMARK H PARENT
REMARK Flexibility Score: inf
ROOT
ATOM      1  C   UNL     1     -99.019  70.798  26.884  1.00  0.00     0.006 C 
ENDROOT
BRANCH   1   2
ATOM      2  C   UNL     1     -98.726  69.364  27.334  1.00  0.00     0.053 C 
BRANCH   2   3
ATOM      3  C   UNL     1     -99.961  68.728  27.891  1.00  0.00     0.041 C 
ATOM      4  O   UNL     1    -101.046  68.785  27.253  1.00  0.00    -0.550 OA
ATOM      5  O   UNL     1     -99.903  68.030  29.091  1.00  0.00    -0.550 OA
ENDBRANCH   2   3
ENDBRANCH   1   2
BRANCH   1   6
ATOM      6  C   UNL     1     -98.631  71.004  25.414  1.00  0.00     0.000 C 
BRANCH   6   7
ATOM      7  C   UNL     1     -99.704  70.438  24.477  1.00  0.00    -0.000 C 
BRANCH   7   8
ATOM      8  C   UNL     1     -99.083  69.503  23.432  1.00  0.00    -0.003 C 
ATOM      9  C   UNL     1     -99.130  68.051  23.896  1.00  0.00     0.004 C 
ENDBRANCH   7   8
ENDBRANCH   6   7
ENDBRANCH   1   6
TORSDOF 5
ENDMDL
MODEL 3
REMARK VINA RESULT:    -3.047      1.903      2.537
REMARK INTER + INTRA:          -4.114
REMARK INTER:                  -3.800
REMARK INTRA:                  -0.314
REMARK UNBOUND:                -0.177
REMARK SMILES CCCCCCC(=O)[O-]
REMARK SMILES IDX 5 1 6 2 7 3 8 4 9 5 4 6 3 7 2 8 1 9
REMARK H PARENT
REMARK Flexibility Score: inf
ROOT
ATOM      1  C   UNL     1    -100.923  68.703  27.413  1.00  0.00     0.006 C 
ENDROOT
BRANCH   1   2
ATOM      2  C   UNL     1    -100.535  68.998  28.864  1.00  0.00     0.053 C 
BRANCH   2   3
ATOM      3  C   UNL     1     -99.095  68.666  29.099  1.00  0.00     0.041 C 
ATOM      4  O   UNL     1     -98.191  69.452  28.711  1.00  0.00    -0.550 OA
ATOM      5  O   UNL     1     -98.752  67.510  29.791  1.00  0.00    -0.550 OA
ENDBRANCH   2   3
ENDBRANCH   1   2
BRANCH   1   6
ATOM      6  C   UNL     1    -101.122  70.002  26.622  1.00  0.00     0.000 C 
BRANCH   6   7
ATOM      7  C   UNL     1    -100.246  70.020  25.363  1.00  0.00    -0.000 C 
BRANCH   7   8
ATOM      8  C   UNL     1     -99.277  68.831  25.351  1.00  0.00    -0.003 C 
ATOM      9  C   UNL     1     -99.175  68.219  23.958  1.00  0.00     0.004 C 
ENDBRANCH   7   8
ENDBRANCH   6   7
ENDBRANCH   1   6
TORSDOF 5
ENDMDL
MODEL 4
REMARK VINA RESULT:    -3.039      2.433      3.684
REMARK INTER + INTRA:          -4.105
REMARK INTER:                  -3.898
REMARK INTRA:                  -0.207
REMARK UNBOUND:                -0.177
REMARK SMILES CCCCCCC(=O)[O-]
REMARK SMILES IDX 5 1 6 2 7 3 8 4 9 5 4 6 3 7 2 8 1 9
REMARK H PARENT
REMARK Flexibility Score: inf
ROOT
ATOM      1  C   UNL     1     -98.618  70.212  22.570  1.00  0.00     0.006 C 
ENDROOT
BRANCH   1   2
ATOM      2  C   UNL     1     -98.970  70.245  24.059  1.00  0.00     0.053 C 
BRANCH   2   3
ATOM      3  C   UNL     1     -99.312  68.873  24.547  1.00  0.00     0.041 C 
ATOM      4  O   UNL     1     -99.046  67.864  23.841  1.00  0.00    -0.550 OA
ATOM      5  O   UNL     1     -99.880  68.703  25.804  1.00  0.00    -0.550 OA
ENDBRANCH   2   3
ENDBRANCH   1   2
BRANCH   1   6
ATOM      6  C   UNL     1     -97.670  71.360  22.202  1.00  0.00     0.000 C 
BRANCH   6   7
ATOM      7  C   UNL     1     -97.357  72.229  23.425  1.00  0.00    -0.000 C 
BRANCH   7   8
ATOM      8  C   UNL     1     -95.928  72.781  23.356  1.00  0.00    -0.003 C 
ATOM      9  C   UNL     1     -95.542  73.130  21.922  1.00  0.00     0.004 C 
ENDBRANCH   7   8
ENDBRANCH   6   7
ENDBRANCH   1   6
TORSDOF 5
ENDMDL
MODEL 5
REMARK VINA RESULT:    -3.013      9.724     11.032
REMARK INTER + INTRA:          -4.070
REMARK INTER:                  -3.906
REMARK INTRA:                  -0.164
REMARK UNBOUND:                -0.177
REMARK SMILES CCCCCCC(=O)[O-]
REMARK SMILES IDX 5 1 6 2 7 3 8 4 9 5 4 6 3 7 2 8 1 9
REMARK H PARENT
REMARK Flexibility Score: inf
ROOT
ATOM      1  C   UNL     1    -100.494  63.506  33.905  1.00  0.00     0.006 C 
ENDROOT
BRANCH   1   2
ATOM      2  C   UNL     1    -100.619  62.291  34.828  1.00  0.00     0.053 C 
BRANCH   2   3
ATOM      3  C   UNL     1    -100.527  61.023  34.040  1.00  0.00     0.041 C 
ATOM      4  O   UNL     1    -100.107  61.043  32.852  1.00  0.00    -0.550 OA
ATOM      5  O   UNL     1    -100.860  59.810  34.631  1.00  0.00    -0.550 OA
ENDBRANCH   2   3
ENDBRANCH   1   2
BRANCH   1   6
ATOM      6  C   UNL     1     -99.650  64.608  34.557  1.00  0.00     0.000 C 
BRANCH   6   7
ATOM      7  C   UNL     1     -98.592  65.141  33.584  1.00  0.00    -0.000 C 
BRANCH   7   8
ATOM      8  C   UNL     1     -97.487  65.896  34.333  1.00  0.00    -0.003 C 
ATOM      9  C   UNL     1     -97.809  66.011  35.820  1.00  0.00     0.004 C 
ENDBRANCH   7   8
ENDBRANCH   6   7
ENDBRANCH   1   6
TORSDOF 5
ENDMDL
MODEL 6
REMARK VINA RESULT:    -2.969      2.735      4.939
REMARK INTER + INTRA:          -4.013
REMARK INTER:                  -3.768
REMARK INTRA:                  -0.246
REMARK UNBOUND:                -0.177
REMARK SMILES CCCCCCC(=O)[O-]
REMARK SMILES IDX 5 1 6 2 7 3 8 4 9 5 4 6 3 7 2 8 1 9
REMARK H PARENT
REMARK Flexibility Score: inf
ROOT
ATOM      1  C   UNL     1     -98.881  70.449  25.744  1.00  0.00     0.006 C 
ENDROOT
BRANCH   1   2
ATOM      2  C   UNL     1     -99.893  69.875  24.749  1.00  0.00     0.053 C 
BRANCH   2   3
ATOM      3  C   UNL     1     -99.194  69.087  23.687  1.00  0.00     0.041 C 
ATOM      4  O   UNL     1     -99.038  67.844  23.819  1.00  0.00    -0.550 OA
ATOM      5  O   UNL     1     -98.756  69.716  22.528  1.00  0.00    -0.550 OA
ENDBRANCH   2   3
ENDBRANCH   1   2
BRANCH   1   6
ATOM      6  C   UNL     1     -98.761  69.555  26.984  1.00  0.00     0.000 C 
BRANCH   6   7
ATOM      7  C   UNL     1    -100.128  68.993  27.393  1.00  0.00    -0.000 C 
BRANCH   7   8
ATOM      8  C   UNL     1    -100.063  68.347  28.782  1.00  0.00    -0.003 C 
ATOM      9  C   UNL     1     -98.636  68.344  29.322  1.00  0.00     0.004 C 
ENDBRANCH   7   8
ENDBRANCH   6   7
ENDBRANCH   1   6
TORSDOF 5
ENDMDL
MODEL 7
REMARK VINA RESULT:    -2.968      9.824     11.139
REMARK INTER + INTRA:          -4.012
REMARK INTER:                  -3.864
REMARK INTRA:                  -0.149
REMARK UNBOUND:                -0.177
REMARK SMILES CCCCCCC(=O)[O-]
REMARK SMILES IDX 5 1 6 2 7 3 8 4 9 5 4 6 3 7 2 8 1 9
REMARK H PARENT
REMARK Flexibility Score: inf
ROOT
ATOM      1  C   UNL     1    -100.822  61.924  34.307  1.00  0.00     0.006 C 
ENDROOT
BRANCH   1   2
ATOM      2  C   UNL     1    -100.468  61.007  33.134  1.00  0.00     0.053 C 
BRANCH   2   3
ATOM      3  C   UNL     1    -101.710  60.517  32.459  1.00  0.00     0.041 C 
ATOM      4  O   UNL     1    -101.671  60.132  31.260  1.00  0.00    -0.550 OA
ATOM      5  O   UNL     1    -102.902  60.438  33.168  1.00  0.00    -0.550 OA
ENDBRANCH   2   3
ENDBRANCH   1   2
BRANCH   1   6
ATOM      6  C   UNL     1    -100.506  63.388  33.977  1.00  0.00     0.000 C 
BRANCH   6   7
ATOM      7  C   UNL     1     -99.796  64.076  35.148  1.00  0.00    -0.000 C 
BRANCH   7   8
ATOM      8  C   UNL     1     -99.261  65.453  34.734  1.00  0.00    -0.003 C 
ATOM      9  C   UNL     1     -98.189  65.325  33.657  1.00  0.00     0.004 C 
ENDBRANCH   7   8
ENDBRANCH   6   7
ENDBRANCH   1   6
TORSDOF 5
ENDMDL
MODEL 8
REMARK VINA RESULT:    -2.919      1.638      2.401
REMARK INTER + INTRA:          -3.950
REMARK INTER:                  -3.773
REMARK INTRA:                  -0.177
REMARK UNBOUND:                -0.177
REMARK SMILES CCCCCCC(=O)[O-]
REMARK SMILES IDX 5 1 6 2 7 3 8 4 9 5 4 6 3 7 2 8 1 9
REMARK H PARENT
REMARK Flexibility Score: inf
ROOT
ATOM      1  C   UNL     1     -99.163  70.323  23.996  1.00  0.00     0.006 C 
ENDROOT
BRANCH   1   2
ATOM      2  C   UNL     1     -99.210  68.951  24.674  1.00  0.00     0.053 C 
BRANCH   2   3
ATOM      3  C   UNL     1     -99.444  69.102  26.144  1.00  0.00     0.041 C 
ATOM      4  O   UNL     1    -100.565  68.815  26.640  1.00  0.00    -0.550 OA
ATOM      5  O   UNL     1     -98.409  69.513  26.975  1.00  0.00    -0.550 OA
ENDBRANCH   2   3
ENDBRANCH   1   2
BRANCH   1   6
ATOM      6  C   UNL     1     -98.679  70.203  22.546  1.00  0.00     0.000 C 
BRANCH   6   7
ATOM      7  C   UNL     1     -97.649  71.291  22.217  1.00  0.00    -0.000 C 
BRANCH   7   8
ATOM      8  C   UNL     1     -97.348  72.152  23.450  1.00  0.00    -0.003 C 
ATOM      9  C   UNL     1     -95.973  72.804  23.343  1.00  0.00     0.004 C 
ENDBRANCH   7   8
ENDBRANCH   6   7
ENDBRANCH   1   6
TORSDOF 5
ENDMDL
MODEL 9
REMARK VINA RESULT:    -2.852      9.845     11.212
REMARK INTER + INTRA:          -3.863
REMARK INTER:                  -3.607
REMARK INTRA:                  -0.256
REMARK UNBOUND:                -0.177
REMARK SMILES CCCCCCC(=O)[O-]
REMARK SMILES IDX 5 1 6 2 7 3 8 4 9 5 4 6 3 7 2 8 1 9
REMARK H PARENT
REMARK Flexibility Score: inf
ROOT
ATOM      1  C   UNL     1    -100.484  62.718  34.971  1.00  0.00     0.006 C 
ENDROOT
BRANCH   1   2
ATOM      2  C   UNL     1    -100.111  63.560  33.748  1.00  0.00     0.053 C 
BRANCH   2   3
ATOM      3  C   UNL     1     -99.241  64.709  34.150  1.00  0.00     0.041 C 
ATOM      4  O   UNL     1     -98.318  65.102  33.388  1.00  0.00    -0.550 OA
ATOM      5  O   UNL     1     -99.480  65.379  35.343  1.00  0.00    -0.550 OA
ENDBRANCH   2   3
ENDBRANCH   1   2
BRANCH   1   6
ATOM      6  C   UNL     1    -100.782  61.268  34.571  1.00  0.00     0.000 C 
BRANCH   6   7
ATOM      7  C   UNL     1    -100.421  61.016  33.103  1.00  0.00    -0.000 C 
BRANCH   7   8
ATOM      8  C   UNL     1    -101.461  60.115  32.427  1.00  0.00    -0.003 C 
ATOM      9  C   UNL     1    -102.825  60.249  33.099  1.00  0.00     0.004 C 
ENDBRANCH   7   8
ENDBRANCH   6   7
ENDBRANCH   1   6
TORSDOF 5
ENDMDL
