MODEL 1
REMARK VINA RESULT:    -2.297      0.000      0.000
REMARK INTER + INTRA:          -2.297
REMARK INTER:                  -2.297
REMARK INTRA:                   0.000
REMARK UNBOUND:                 0.000
REMARK SMILES CC(C)=C1CC[C@@H](C)CC1=O
REMARK SMILES IDX 8 1 7 2 6 3 5 4 4 5 2 6 1 7 3 8 10 9 11 10 9 11
REMARK H PARENT
REMARK Flexibility Score: inf
ROOT
ATOM      1  C   UNL     1      28.736  32.720  22.435  1.00  0.00     0.008 C 
ATOM      2  C   UNL     1      29.124  31.548  23.345  1.00  0.00    -0.006 C 
ATOM      3  C   UNL     1      28.652  30.216  22.743  1.00  0.00     0.008 C 
ATOM      4  C   UNL     1      29.121  29.024  23.588  1.00  0.00     0.039 C 
ATOM      5  C   UNL     1      28.745  29.167  25.057  1.00  0.00    -0.006 C 
ATOM      6  C   UNL     1      28.468  28.076  25.828  1.00  0.00    -0.070 C 
ATOM      7  C   UNL     1      28.539  26.676  25.260  1.00  0.00     0.039 C 
ATOM      8  C   UNL     1      28.039  28.208  27.271  1.00  0.00     0.039 C 
ATOM      9  C   UNL     1      28.815  30.549  25.620  1.00  0.00     0.159 C 
ATOM     10  O   UNL     1      29.124  30.750  26.825  1.00  0.00    -0.295 OA
ATOM     11  C   UNL     1      28.522  31.733  24.746  1.00  0.00     0.084 C 
ENDROOT
TORSDOF 0
ENDMDL
MODEL 2
REMARK VINA RESULT:    -2.238      2.985      4.590
REMARK INTER + INTRA:          -2.238
REMARK INTER:                  -2.238
REMARK INTRA:                   0.000
REMARK UNBOUND:                 0.000
REMARK SMILES CC(C)=C1CC[C@@H](C)CC1=O
REMARK SMILES IDX 8 1 7 2 6 3 5 4 4 5 2 6 1 7 3 8 10 9 11 10 9 11
REMARK H PARENT
REMARK Flexibility Score: inf
ROOT
ATOM      1  C   UNL     1      28.443  29.589  26.007  1.00  0.00     0.008 C 
ATOM      2  C   UNL     1      28.345  28.065  26.144  1.00  0.00    -0.006 C 
ATOM      3  C   UNL     1      29.125  27.369  25.018  1.00  0.00     0.008 C 
ATOM      4  C   UNL     1      29.124  25.845  25.197  1.00  0.00     0.039 C 
ATOM      5  C   UNL     1      27.721  25.280  25.373  1.00  0.00    -0.006 C 
ATOM      6  C   UNL     1      27.397  24.031  24.926  1.00  0.00    -0.070 C 
ATOM      7  C   UNL     1      28.425  23.150  24.252  1.00  0.00     0.039 C 
ATOM      8  C   UNL     1      25.995  23.481  25.044  1.00  0.00     0.039 C 
ATOM      9  C   UNL     1      26.769  26.120  26.160  1.00  0.00     0.159 C 
ATOM     10  O   UNL     1      25.869  25.598  26.872  1.00  0.00    -0.295 OA
ATOM     11  C   UNL     1      26.877  27.616  26.121  1.00  0.00     0.084 C 
ENDROOT
TORSDOF 0
ENDMDL
MODEL 3
REMARK VINA RESULT:    -2.188      1.543      2.353
REMARK INTER + INTRA:          -2.188
REMARK INTER:                  -2.188
REMARK INTRA:                   0.000
REMARK UNBOUND:                 0.000
REMARK SMILES CC(C)=C1CC[C@@H](C)CC1=O
REMARK SMILES IDX 8 1 7 2 6 3 5 4 4 5 2 6 1 7 3 8 10 9 11 10 9 11
REMARK H PARENT
REMARK Flexibility Score: inf
ROOT
ATOM      1  C   UNL     1      28.520  32.857  22.779  1.00  0.00     0.008 C 
ATOM      2  C   UNL     1      28.117  31.824  23.838  1.00  0.00    -0.006 C 
ATOM      3  C   UNL     1      29.120  31.825  25.002  1.00  0.00     0.008 C 
ATOM      4  C   UNL     1      28.678  30.870  26.120  1.00  0.00     0.039 C 
ATOM      5  C   UNL     1      28.379  29.469  25.606  1.00  0.00    -0.006 C 
ATOM      6  C   UNL     1      28.595  28.367  26.383  1.00  0.00    -0.070 C 
ATOM      7  C   UNL     1      29.125  28.494  27.793  1.00  0.00     0.039 C 
ATOM      8  C   UNL     1      28.356  26.968  25.864  1.00  0.00     0.039 C 
ATOM      9  C   UNL     1      27.732  29.387  24.262  1.00  0.00     0.159 C 
ATOM     10  O   UNL     1      26.923  28.463  23.980  1.00  0.00    -0.295 OA
ATOM     11  C   UNL     1      28.034  30.421  23.218  1.00  0.00     0.084 C 
ENDROOT
TORSDOF 0
ENDMDL
MODEL 4
REMARK VINA RESULT:    -2.000      3.186      4.958
REMARK INTER + INTRA:          -2.000
REMARK INTER:                  -2.000
REMARK INTRA:                   0.000
REMARK UNBOUND:                 0.000
REMARK SMILES CC(C)=C1CC[C@@H](C)CC1=O
REMARK SMILES IDX 8 1 7 2 6 3 5 4 4 5 2 6 1 7 3 8 10 9 11 10 9 11
REMARK H PARENT
REMARK Flexibility Score: inf
ROOT
ATOM      1  C   UNL     1      29.124  29.179  25.474  1.00  0.00     0.008 C 
ATOM      2  C   UNL     1      28.253  27.924  25.347  1.00  0.00    -0.006 C 
ATOM      3  C   UNL     1      27.218  27.867  26.481  1.00  0.00     0.008 C 
ATOM      4  C   UNL     1      26.270  26.671  26.312  1.00  0.00     0.039 C 
ATOM      5  C   UNL     1      27.017  25.356  26.135  1.00  0.00    -0.006 C 
ATOM      6  C   UNL     1      26.498  24.178  26.590  1.00  0.00    -0.070 C 
ATOM      7  C   UNL     1      25.150  24.128  27.273  1.00  0.00     0.039 C 
ATOM      8  C   UNL     1      27.255  22.875  26.470  1.00  0.00     0.039 C 
ATOM      9  C   UNL     1      28.279  25.420  25.339  1.00  0.00     0.159 C 
ATOM     10  O   UNL     1      28.655  24.451  24.627  1.00  0.00    -0.295 OA
ATOM     11  C   UNL     1      29.125  26.660  25.368  1.00  0.00     0.084 C 
ENDROOT
TORSDOF 0
ENDMDL
MODEL 5
REMARK VINA RESULT:    -1.789      1.949      4.934
REMARK INTER + INTRA:          -1.789
REMARK INTER:                  -1.789
REMARK INTRA:                   0.000
REMARK UNBOUND:                 0.000
REMARK SMILES CC(C)=C1CC[C@@H](C)CC1=O
REMARK SMILES IDX 8 1 7 2 6 3 5 4 4 5 2 6 1 7 3 8 10 9 11 10 9 11
REMARK H PARENT
REMARK Flexibility Score: inf
ROOT
ATOM      1  C   UNL     1      28.066  23.637  26.169  1.00  0.00     0.008 C 
ATOM      2  C   UNL     1      27.733  25.134  26.176  1.00  0.00    -0.006 C 
ATOM      3  C   UNL     1      27.238  25.584  24.793  1.00  0.00     0.008 C 
ATOM      4  C   UNL     1      26.803  27.056  24.807  1.00  0.00     0.039 C 
ATOM      5  C   UNL     1      27.876  27.976  25.372  1.00  0.00    -0.006 C 
ATOM      6  C   UNL     1      28.015  29.260  24.931  1.00  0.00    -0.070 C 
ATOM      7  C   UNL     1      27.095  29.828  23.873  1.00  0.00     0.039 C 
ATOM      8  C   UNL     1      29.112  30.165  25.443  1.00  0.00     0.039 C 
ATOM      9  C   UNL     1      28.679  27.428  26.507  1.00  0.00     0.159 C 
ATOM     10  O   UNL     1      29.124  28.179  27.416  1.00  0.00    -0.295 OA
ATOM     11  C   UNL     1      28.963  25.957  26.587  1.00  0.00     0.084 C 
ENDROOT
TORSDOF 0
ENDMDL
MODEL 6
REMARK VINA RESULT:    -1.769      6.453      7.585
REMARK INTER + INTRA:          -1.769
REMARK INTER:                  -1.769
REMARK INTRA:                   0.000
REMARK UNBOUND:                 0.000
REMARK SMILES CC(C)=C1CC[C@@H](C)CC1=O
REMARK SMILES IDX 8 1 7 2 6 3 5 4 4 5 2 6 1 7 3 8 10 9 11 10 9 11
REMARK H PARENT
REMARK Flexibility Score: inf
ROOT
ATOM      1  C   UNL     1      29.116  23.598  24.227  1.00  0.00     0.008 C 
ATOM      2  C   UNL     1      27.716  24.021  24.689  1.00  0.00    -0.006 C 
ATOM      3  C   UNL     1      27.725  24.378  26.183  1.00  0.00     0.008 C 
ATOM      4  C   UNL     1      26.356  24.901  26.640  1.00  0.00     0.039 C 
ATOM      5  C   UNL     1      25.219  23.958  26.270  1.00  0.00    -0.006 C 
ATOM      6  C   UNL     1      24.105  23.848  27.053  1.00  0.00    -0.070 C 
ATOM      7  C   UNL     1      23.948  24.672  28.311  1.00  0.00     0.039 C 
ATOM      8  C   UNL     1      22.996  22.875  26.727  1.00  0.00     0.039 C 
ATOM      9  C   UNL     1      25.345  23.261  24.955  1.00  0.00     0.159 C 
ATOM     10  O   UNL     1      24.330  22.971  24.267  1.00  0.00    -0.295 OA
ATOM     11  C   UNL     1      26.701  22.899  24.423  1.00  0.00     0.084 C 
ENDROOT
TORSDOF 0
ENDMDL
MODEL 7
REMARK VINA RESULT:    -1.617      5.205      7.028
REMARK INTER + INTRA:          -1.617
REMARK INTER:                  -1.617
REMARK INTRA:                   0.000
REMARK UNBOUND:                 0.000
REMARK SMILES CC(C)=C1CC[C@@H](C)CC1=O
REMARK SMILES IDX 8 1 7 2 6 3 5 4 4 5 2 6 1 7 3 8 10 9 11 10 9 11
REMARK H PARENT
REMARK Flexibility Score: inf
ROOT
ATOM      1  C   UNL     1      29.113  25.928  26.004  1.00  0.00     0.008 C 
ATOM      2  C   UNL     1      28.063  24.818  25.868  1.00  0.00    -0.006 C 
ATOM      3  C   UNL     1      27.185  25.053  24.629  1.00  0.00     0.008 C 
ATOM      4  C   UNL     1      26.196  23.898  24.419  1.00  0.00     0.039 C 
ATOM      5  C   UNL     1      25.378  23.597  25.667  1.00  0.00    -0.006 C 
ATOM      6  C   UNL     1      24.098  23.129  25.581  1.00  0.00    -0.070 C 
ATOM      7  C   UNL     1      23.446  22.875  24.241  1.00  0.00     0.039 C 
ATOM      8  C   UNL     1      23.257  22.880  26.811  1.00  0.00     0.039 C 
ATOM      9  C   UNL     1      26.096  23.730  26.970  1.00  0.00     0.159 C 
ATOM     10  O   UNL     1      25.811  22.995  27.953  1.00  0.00    -0.295 OA
ATOM     11  C   UNL     1      27.187  24.748  27.127  1.00  0.00     0.084 C 
ENDROOT
TORSDOF 0
ENDMDL
