MODEL 1
REMARK VINA RESULT:    -4.767      0.000      0.000
REMARK INTER + INTRA:          -5.892
REMARK INTER:                  -5.603
REMARK INTRA:                  -0.289
REMARK UNBOUND:                -0.289
REMARK SMILES O=c1c(O)c(-c2ccc(O)cc2)oc2cc(O)cc(O)c12
REMARK SMILES IDX 5 1 3 2 2 3 1 4 21 5 19 6 18 7 16 8 15 9 14 10 13 11 6 12
REMARK SMILES IDX 7 13 8 14 9 15 12 16 11 17 10 18 4 20 20 22 17 24
REMARK H PARENT 10 19 4 21 20 23 17 25
REMARK Flexibility Score: inf
ROOT
ATOM      1  C   UNL     1      41.001   0.559  -2.783  1.00  0.00     0.180 A 
ATOM      2  C   UNL     1      41.814  -0.565  -2.556  1.00  0.00     0.208 A 
ATOM      3  C   UNL     1      41.794  -1.618  -3.485  1.00  0.00     0.238 A 
ATOM      4  O   UNL     1      42.482  -2.646  -3.248  1.00  0.00    -0.285 OA
ATOM      5  C   UNL     1      40.977  -1.526  -4.637  1.00  0.00     0.111 A 
ATOM      6  C   UNL     1      40.909  -2.515  -5.663  1.00  0.00     0.134 A 
ATOM      7  C   UNL     1      39.969  -2.380  -6.693  1.00  0.00     0.093 A 
ATOM      8  C   UNL     1      39.139  -1.259  -6.766  1.00  0.00     0.123 A 
ATOM      9  C   UNL     1      39.238  -0.260  -5.801  1.00  0.00     0.094 A 
ATOM     10  C   UNL     1      40.142  -0.383  -4.743  1.00  0.00     0.146 A 
ATOM     11  O   UNL     1      40.196   0.587  -3.839  1.00  0.00    -0.452 OA
ENDROOT
BRANCH   1  12
ATOM     12  C   UNL     1      40.986   1.719  -1.863  1.00  0.00     0.021 A 
ATOM     13  C   UNL     1      41.955   2.736  -1.948  1.00  0.00     0.016 A 
ATOM     14  C   UNL     1      41.906   3.833  -1.084  1.00  0.00     0.047 A 
ATOM     15  C   UNL     1      40.883   3.936  -0.133  1.00  0.00     0.115 A 
ATOM     16  C   UNL     1      39.951   1.841  -0.919  1.00  0.00     0.016 A 
ATOM     17  C   UNL     1      39.906   2.939  -0.056  1.00  0.00     0.047 A 
BRANCH  15  18
ATOM     18  O   UNL     1      40.825   5.025   0.734  1.00  0.00    -0.508 OA
ATOM     19  H   UNL     1      40.033   5.656   0.740  1.00  0.00     0.293 HD
ENDBRANCH  15  18
ENDBRANCH   1  12
BRANCH   2  20
ATOM     20  O   UNL     1      42.596  -0.646  -1.400  1.00  0.00    -0.502 OA
ATOM     21  H   UNL     1      43.498  -1.105  -1.385  1.00  0.00     0.293 HD
ENDBRANCH   2  20
BRANCH   6  22
ATOM     22  O   UNL     1      41.756  -3.626  -5.734  1.00  0.00    -0.507 OA
ATOM     23  H   UNL     1      41.611  -4.491  -5.236  1.00  0.00     0.293 HD
ENDBRANCH   6  22
BRANCH   8  24
ATOM     24  O   UNL     1      38.216  -1.125  -7.802  1.00  0.00    -0.508 OA
ATOM     25  H   UNL     1      38.226  -0.322  -8.419  1.00  0.00     0.293 HD
ENDBRANCH   8  24
TORSDOF 5
ENDMDL
MODEL 2
REMARK VINA RESULT:    -4.208     10.553     13.094
REMARK INTER + INTRA:          -5.236
REMARK INTER:                  -4.947
REMARK INTRA:                  -0.288
REMARK UNBOUND:                -0.289
REMARK SMILES O=c1c(O)c(-c2ccc(O)cc2)oc2cc(O)cc(O)c12
REMARK SMILES IDX 5 1 3 2 2 3 1 4 21 5 19 6 18 7 16 8 15 9 14 10 13 11 6 12
REMARK SMILES IDX 7 13 8 14 9 15 12 16 11 17 10 18 4 20 20 22 17 24
REMARK H PARENT 10 19 4 21 20 23 17 25
REMARK Flexibility Score: inf
ROOT
ATOM      1  C   UNL     1      31.621   5.222  -6.869  1.00  0.00     0.180 A 
ATOM      2  C   UNL     1      31.626   6.459  -7.539  1.00  0.00     0.208 A 
ATOM      3  C   UNL     1      30.678   7.431  -7.181  1.00  0.00     0.238 A 
ATOM      4  O   UNL     1      30.653   8.515  -7.822  1.00  0.00    -0.285 OA
ATOM      5  C   UNL     1      29.748   7.162  -6.149  1.00  0.00     0.111 A 
ATOM      6  C   UNL     1      28.770   8.088  -5.678  1.00  0.00     0.134 A 
ATOM      7  C   UNL     1      27.816   7.670  -4.741  1.00  0.00     0.093 A 
ATOM      8  C   UNL     1      27.847   6.377  -4.211  1.00  0.00     0.123 A 
ATOM      9  C   UNL     1      28.835   5.485  -4.621  1.00  0.00     0.094 A 
ATOM     10  C   UNL     1      29.778   5.862  -5.580  1.00  0.00     0.146 A 
ATOM     11  O   UNL     1      30.694   4.976  -5.950  1.00  0.00    -0.452 OA
ENDROOT
BRANCH   1  12
ATOM     12  C   UNL     1      32.604   4.158  -7.172  1.00  0.00     0.021 A 
ATOM     13  C   UNL     1      32.338   3.165  -8.132  1.00  0.00     0.016 A 
ATOM     14  C   UNL     1      33.293   2.184  -8.418  1.00  0.00     0.047 A 
ATOM     15  C   UNL     1      34.529   2.191  -7.759  1.00  0.00     0.115 A 
ATOM     16  C   UNL     1      33.855   4.169  -6.530  1.00  0.00     0.016 A 
ATOM     17  C   UNL     1      34.807   3.187  -6.817  1.00  0.00     0.047 A 
BRANCH  15  18
ATOM     18  O   UNL     1      35.487   1.218  -8.035  1.00  0.00    -0.508 OA
ATOM     19  H   UNL     1      36.335   1.439  -8.543  1.00  0.00     0.293 HD
ENDBRANCH  15  18
ENDBRANCH   1  12
BRANCH   2  20
ATOM     20  O   UNL     1      32.538   6.695  -8.571  1.00  0.00    -0.502 OA
ATOM     21  H   UNL     1      33.124   5.965  -8.957  1.00  0.00     0.293 HD
ENDBRANCH   2  20
BRANCH   6  22
ATOM     22  O   UNL     1      28.709   9.428  -6.074  1.00  0.00    -0.507 OA
ATOM     23  H   UNL     1      28.539  10.203  -5.452  1.00  0.00     0.293 HD
ENDBRANCH   6  22
BRANCH   8  24
ATOM     24  O   UNL     1      26.904   5.974  -3.268  1.00  0.00    -0.508 OA
ATOM     25  H   UNL     1      26.152   6.586  -2.975  1.00  0.00     0.293 HD
ENDBRANCH   8  24
TORSDOF 5
ENDMDL
MODEL 3
REMARK VINA RESULT:    -4.196      2.661      6.602
REMARK INTER + INTRA:          -5.221
REMARK INTER:                  -4.966
REMARK INTRA:                  -0.255
REMARK UNBOUND:                -0.289
REMARK SMILES O=c1c(O)c(-c2ccc(O)cc2)oc2cc(O)cc(O)c12
REMARK SMILES IDX 5 1 3 2 2 3 1 4 21 5 19 6 18 7 16 8 15 9 14 10 13 11 6 12
REMARK SMILES IDX 7 13 8 14 9 15 12 16 11 17 10 18 4 20 20 22 17 24
REMARK H PARENT 10 19 4 21 20 23 17 25
REMARK Flexibility Score: inf
ROOT
ATOM      1  C   UNL     1      38.455  -0.472  -6.800  1.00  0.00     0.180 A 
ATOM      2  C   UNL     1      38.895  -1.774  -7.097  1.00  0.00     0.208 A 
ATOM      3  C   UNL     1      39.884  -2.359  -6.290  1.00  0.00     0.238 A 
ATOM      4  O   UNL     1      40.313  -3.504  -6.594  1.00  0.00    -0.285 OA
ATOM      5  C   UNL     1      40.408  -1.643  -5.187  1.00  0.00     0.111 A 
ATOM      6  C   UNL     1      41.383  -2.154  -4.279  1.00  0.00     0.134 A 
ATOM      7  C   UNL     1      41.925  -1.310  -3.300  1.00  0.00     0.093 A 
ATOM      8  C   UNL     1      41.479   0.005  -3.158  1.00  0.00     0.123 A 
ATOM      9  C   UNL     1      40.484   0.495  -4.001  1.00  0.00     0.094 A 
ATOM     10  C   UNL     1      39.950  -0.312  -5.009  1.00  0.00     0.146 A 
ATOM     11  O   UNL     1      39.012   0.198  -5.798  1.00  0.00    -0.452 OA
ENDROOT
BRANCH   1  12
ATOM     12  C   UNL     1      37.399   0.201  -7.589  1.00  0.00     0.021 A 
ATOM     13  C   UNL     1      36.077   0.296  -7.115  1.00  0.00     0.016 A 
ATOM     14  C   UNL     1      35.102   0.958  -7.867  1.00  0.00     0.047 A 
ATOM     15  C   UNL     1      35.437   1.544  -9.094  1.00  0.00     0.115 A 
ATOM     16  C   UNL     1      37.730   0.810  -8.812  1.00  0.00     0.016 A 
ATOM     17  C   UNL     1      36.753   1.470  -9.562  1.00  0.00     0.047 A 
BRANCH  15  18
ATOM     18  O   UNL     1      34.473   2.205  -9.853  1.00  0.00    -0.508 OA
ATOM     19  H   UNL     1      33.535   1.836  -9.955  1.00  0.00     0.293 HD
ENDBRANCH  15  18
ENDBRANCH   1  12
BRANCH   2  20
ATOM     20  O   UNL     1      38.381  -2.455  -8.205  1.00  0.00    -0.502 OA
ATOM     21  H   UNL     1      38.628  -2.211  -9.156  1.00  0.00     0.293 HD
ENDBRANCH   2  20
BRANCH   6  22
ATOM     22  O   UNL     1      41.829  -3.479  -4.277  1.00  0.00    -0.507 OA
ATOM     23  H   UNL     1      42.685  -3.796  -3.848  1.00  0.00     0.293 HD
ENDBRANCH   6  22
BRANCH   8  24
ATOM     24  O   UNL     1      42.012   0.833  -2.172  1.00  0.00    -0.508 OA
ATOM     25  H   UNL     1      41.757   1.812  -2.106  1.00  0.00     0.293 HD
ENDBRANCH   8  24
TORSDOF 5
ENDMDL
MODEL 4
REMARK VINA RESULT:    -4.131      7.657     11.005
REMARK INTER + INTRA:          -5.144
REMARK INTER:                  -4.849
REMARK INTRA:                  -0.295
REMARK UNBOUND:                -0.289
REMARK SMILES O=c1c(O)c(-c2ccc(O)cc2)oc2cc(O)cc(O)c12
REMARK SMILES IDX 5 1 3 2 2 3 1 4 21 5 19 6 18 7 16 8 15 9 14 10 13 11 6 12
REMARK SMILES IDX 7 13 8 14 9 15 12 16 11 17 10 18 4 20 20 22 17 24
REMARK H PARENT 10 19 4 21 20 23 17 25
REMARK Flexibility Score: inf
ROOT
ATOM      1  C   UNL     1      36.087   6.659  -6.698  1.00  0.00     0.180 A 
ATOM      2  C   UNL     1      35.359   7.838  -6.937  1.00  0.00     0.208 A 
ATOM      3  C   UNL     1      35.884   9.063  -6.493  1.00  0.00     0.238 A 
ATOM      4  O   UNL     1      35.202  10.109  -6.661  1.00  0.00    -0.285 OA
ATOM      5  C   UNL     1      37.136   9.096  -5.834  1.00  0.00     0.111 A 
ATOM      6  C   UNL     1      37.781  10.285  -5.379  1.00  0.00     0.134 A 
ATOM      7  C   UNL     1      38.956  10.187  -4.622  1.00  0.00     0.093 A 
ATOM      8  C   UNL     1      39.543   8.947  -4.362  1.00  0.00     0.123 A 
ATOM      9  C   UNL     1      38.953   7.785  -4.853  1.00  0.00     0.094 A 
ATOM     10  C   UNL     1      37.761   7.848  -5.580  1.00  0.00     0.146 A 
ATOM     11  O   UNL     1      37.226   6.715  -6.019  1.00  0.00    -0.452 OA
ENDROOT
BRANCH   1  12
ATOM     12  C   UNL     1      35.611   5.334  -7.157  1.00  0.00     0.021 A 
ATOM     13  C   UNL     1      35.975   4.819  -8.415  1.00  0.00     0.016 A 
ATOM     14  C   UNL     1      35.534   3.555  -8.816  1.00  0.00     0.047 A 
ATOM     15  C   UNL     1      34.735   2.785  -7.962  1.00  0.00     0.115 A 
ATOM     16  C   UNL     1      34.826   4.545  -6.299  1.00  0.00     0.016 A 
ATOM     17  C   UNL     1      34.385   3.282  -6.703  1.00  0.00     0.047 A 
BRANCH  15  18
ATOM     18  O   UNL     1      34.287   1.524  -8.352  1.00  0.00    -0.508 OA
ATOM     19  H   UNL     1      33.309   1.346  -8.545  1.00  0.00     0.293 HD
ENDBRANCH  15  18
ENDBRANCH   1  12
BRANCH   2  20
ATOM     20  O   UNL     1      34.114   7.781  -7.569  1.00  0.00    -0.502 OA
ATOM     21  H   UNL     1      33.982   7.340  -8.471  1.00  0.00     0.293 HD
ENDBRANCH   2  20
BRANCH   6  22
ATOM     22  O   UNL     1      37.327  11.576  -5.663  1.00  0.00    -0.507 OA
ATOM     23  H   UNL     1      37.121  11.922  -6.588  1.00  0.00     0.293 HD
ENDBRANCH   6  22
BRANCH   8  24
ATOM     24  O   UNL     1      40.721   8.860  -3.622  1.00  0.00    -0.508 OA
ATOM     25  H   UNL     1      40.709   8.653  -2.630  1.00  0.00     0.293 HD
ENDBRANCH   8  24
TORSDOF 5
ENDMDL
MODEL 5
REMARK VINA RESULT:    -4.107      3.394      5.265
REMARK INTER + INTRA:          -5.116
REMARK INTER:                  -4.841
REMARK INTRA:                  -0.275
REMARK UNBOUND:                -0.289
REMARK SMILES O=c1c(O)c(-c2ccc(O)cc2)oc2cc(O)cc(O)c12
REMARK SMILES IDX 5 1 3 2 2 3 1 4 21 5 19 6 18 7 16 8 15 9 14 10 13 11 6 12
REMARK SMILES IDX 7 13 8 14 9 15 12 16 11 17 10 18 4 20 20 22 17 24
REMARK H PARENT 10 19 4 21 20 23 17 25
REMARK Flexibility Score: inf
ROOT
ATOM      1  C   UNL     1      41.741  -0.269  -0.329  1.00  0.00     0.180 A 
ATOM      2  C   UNL     1      42.307  -0.826  -1.489  1.00  0.00     0.208 A 
ATOM      3  C   UNL     1      42.635  -2.192  -1.499  1.00  0.00     0.238 A 
ATOM      4  O   UNL     1      43.192  -2.673  -2.521  1.00  0.00    -0.285 OA
ATOM      5  C   UNL     1      42.376  -2.987  -0.357  1.00  0.00     0.111 A 
ATOM      6  C   UNL     1      42.630  -4.388  -0.270  1.00  0.00     0.134 A 
ATOM      7  C   UNL     1      42.457  -5.048   0.954  1.00  0.00     0.093 A 
ATOM      8  C   UNL     1      41.978  -4.368   2.075  1.00  0.00     0.123 A 
ATOM      9  C   UNL     1      41.670  -3.013   1.985  1.00  0.00     0.094 A 
ATOM     10  C   UNL     1      41.866  -2.320   0.788  1.00  0.00     0.146 A 
ATOM     11  O   UNL     1      41.571  -1.026   0.748  1.00  0.00    -0.452 OA
ENDROOT
BRANCH   1  12
ATOM     12  C   UNL     1      41.346   1.155  -0.251  1.00  0.00     0.021 A 
ATOM     13  C   UNL     1      40.014   1.560  -0.457  1.00  0.00     0.016 A 
ATOM     14  C   UNL     1      39.662   2.909  -0.354  1.00  0.00     0.047 A 
ATOM     15  C   UNL     1      40.631   3.868  -0.033  1.00  0.00     0.115 A 
ATOM     16  C   UNL     1      42.308   2.122   0.090  1.00  0.00     0.016 A 
ATOM     17  C   UNL     1      41.952   3.470   0.191  1.00  0.00     0.047 A 
BRANCH  15  18
ATOM     18  O   UNL     1      40.291   5.215   0.070  1.00  0.00    -0.508 OA
ATOM     19  H   UNL     1      40.008   5.753  -0.740  1.00  0.00     0.293 HD
ENDBRANCH  15  18
ENDBRANCH   1  12
BRANCH   2  20
ATOM     20  O   UNL     1      42.576  -0.019  -2.599  1.00  0.00    -0.502 OA
ATOM     21  H   UNL     1      42.534  -0.368  -3.548  1.00  0.00     0.293 HD
ENDBRANCH   2  20
BRANCH   6  22
ATOM     22  O   UNL     1      43.023  -5.178  -1.355  1.00  0.00    -0.507 OA
ATOM     23  H   UNL     1      43.913  -5.646  -1.431  1.00  0.00     0.293 HD
ENDBRANCH   6  22
BRANCH   8  24
ATOM     24  O   UNL     1      41.794  -5.035   3.285  1.00  0.00    -0.508 OA
ATOM     25  H   UNL     1      41.902  -6.040   3.358  1.00  0.00     0.293 HD
ENDBRANCH   8  24
TORSDOF 5
ENDMDL
MODEL 6
REMARK VINA RESULT:    -4.089      3.370      4.447
REMARK INTER + INTRA:          -5.096
REMARK INTER:                  -4.797
REMARK INTRA:                  -0.299
REMARK UNBOUND:                -0.289
REMARK SMILES O=c1c(O)c(-c2ccc(O)cc2)oc2cc(O)cc(O)c12
REMARK SMILES IDX 5 1 3 2 2 3 1 4 21 5 19 6 18 7 16 8 15 9 14 10 13 11 6 12
REMARK SMILES IDX 7 13 8 14 9 15 12 16 11 17 10 18 4 20 20 22 17 24
REMARK H PARENT 10 19 4 21 20 23 17 25
REMARK Flexibility Score: inf
ROOT
ATOM      1  C   UNL     1      41.919  -0.832  -0.190  1.00  0.00     0.180 A 
ATOM      2  C   UNL     1      41.950  -1.619   0.976  1.00  0.00     0.208 A 
ATOM      3  C   UNL     1      42.352  -2.961   0.881  1.00  0.00     0.238 A 
ATOM      4  O   UNL     1      42.324  -3.675   1.918  1.00  0.00    -0.285 OA
ATOM      5  C   UNL     1      42.735  -3.495  -0.373  1.00  0.00     0.111 A 
ATOM      6  C   UNL     1      43.197  -4.829  -0.578  1.00  0.00     0.134 A 
ATOM      7  C   UNL     1      43.425  -5.290  -1.882  1.00  0.00     0.093 A 
ATOM      8  C   UNL     1      43.268  -4.442  -2.981  1.00  0.00     0.123 A 
ATOM      9  C   UNL     1      42.874  -3.121  -2.786  1.00  0.00     0.094 A 
ATOM     10  C   UNL     1      42.606  -2.643  -1.500  1.00  0.00     0.146 A 
ATOM     11  O   UNL     1      42.222  -1.380  -1.361  1.00  0.00    -0.452 OA
ENDROOT
BRANCH   1  12
ATOM     12  C   UNL     1      41.532   0.596  -0.166  1.00  0.00     0.021 A 
ATOM     13  C   UNL     1      42.476   1.609   0.084  1.00  0.00     0.016 A 
ATOM     14  C   UNL     1      42.090   2.952   0.078  1.00  0.00     0.047 A 
ATOM     15  C   UNL     1      40.761   3.302  -0.191  1.00  0.00     0.115 A 
ATOM     16  C   UNL     1      40.204   0.957  -0.455  1.00  0.00     0.016 A 
ATOM     17  C   UNL     1      39.821   2.301  -0.460  1.00  0.00     0.047 A 
BRANCH  15  18
ATOM     18  O   UNL     1      40.364   4.637  -0.199  1.00  0.00    -0.508 OA
ATOM     19  H   UNL     1      40.418   5.201  -1.039  1.00  0.00     0.293 HD
ENDBRANCH  15  18
ENDBRANCH   1  12
BRANCH   2  20
ATOM     20  O   UNL     1      41.546  -1.078   2.200  1.00  0.00    -0.502 OA
ATOM     21  H   UNL     1      41.983  -0.260   2.603  1.00  0.00     0.293 HD
ENDBRANCH   2  20
BRANCH   6  22
ATOM     22  O   UNL     1      43.474  -5.727   0.458  1.00  0.00    -0.507 OA
ATOM     23  H   UNL     1      43.984  -5.497   1.297  1.00  0.00     0.293 HD
ENDBRANCH   6  22
BRANCH   8  24
ATOM     24  O   UNL     1      43.511  -4.903  -4.273  1.00  0.00    -0.508 OA
ATOM     25  H   UNL     1      43.794  -4.274  -5.016  1.00  0.00     0.293 HD
ENDBRANCH   8  24
TORSDOF 5
ENDMDL
MODEL 7
REMARK VINA RESULT:    -4.080      1.676      6.114
REMARK INTER + INTRA:          -5.084
REMARK INTER:                  -4.795
REMARK INTRA:                  -0.289
REMARK UNBOUND:                -0.289
REMARK SMILES O=c1c(O)c(-c2ccc(O)cc2)oc2cc(O)cc(O)c12
REMARK SMILES IDX 5 1 3 2 2 3 1 4 21 5 19 6 18 7 16 8 15 9 14 10 13 11 6 12
REMARK SMILES IDX 7 13 8 14 9 15 12 16 11 17 10 18 4 20 20 22 17 24
REMARK H PARENT 10 19 4 21 20 23 17 25
REMARK Flexibility Score: inf
ROOT
ATOM      1  C   UNL     1      40.860   0.097  -3.935  1.00  0.00     0.180 A 
ATOM      2  C   UNL     1      41.691  -0.963  -3.531  1.00  0.00     0.208 A 
ATOM      3  C   UNL     1      42.089  -1.042  -2.186  1.00  0.00     0.238 A 
ATOM      4  O   UNL     1      42.877  -1.962  -1.843  1.00  0.00    -0.285 OA
ATOM      5  C   UNL     1      41.638  -0.072  -1.260  1.00  0.00     0.111 A 
ATOM      6  C   UNL     1      41.946  -0.077   0.133  1.00  0.00     0.134 A 
ATOM      7  C   UNL     1      41.553   1.004   0.933  1.00  0.00     0.093 A 
ATOM      8  C   UNL     1      40.808   2.059   0.400  1.00  0.00     0.123 A 
ATOM      9  C   UNL     1      40.452   2.044  -0.946  1.00  0.00     0.094 A 
ATOM     10  C   UNL     1      40.859   0.996  -1.776  1.00  0.00     0.146 A 
ATOM     11  O   UNL     1      40.507   1.028  -3.055  1.00  0.00    -0.452 OA
ENDROOT
BRANCH   1  12
ATOM     12  C   UNL     1      40.378   0.234  -5.327  1.00  0.00     0.021 A 
ATOM     13  C   UNL     1      41.125   0.927  -6.298  1.00  0.00     0.016 A 
ATOM     14  C   UNL     1      40.661   1.022  -7.613  1.00  0.00     0.047 A 
ATOM     15  C   UNL     1      39.453   0.415  -7.979  1.00  0.00     0.115 A 
ATOM     16  C   UNL     1      39.177  -0.388  -5.708  1.00  0.00     0.016 A 
ATOM     17  C   UNL     1      38.714  -0.291  -7.024  1.00  0.00     0.047 A 
BRANCH  15  18
ATOM     18  O   UNL     1      38.979   0.505  -9.286  1.00  0.00    -0.508 OA
ATOM     19  H   UNL     1      38.788   1.401  -9.720  1.00  0.00     0.293 HD
ENDBRANCH  15  18
ENDBRANCH   1  12
BRANCH   2  20
ATOM     20  O   UNL     1      42.143  -1.897  -4.467  1.00  0.00    -0.502 OA
ATOM     21  H   UNL     1      42.379  -1.644  -5.418  1.00  0.00     0.293 HD
ENDBRANCH   2  20
BRANCH   6  22
ATOM     22  O   UNL     1      42.605  -1.126   0.783  1.00  0.00    -0.507 OA
ATOM     23  H   UNL     1      42.148  -1.929   1.187  1.00  0.00     0.293 HD
ENDBRANCH   6  22
BRANCH   8  24
ATOM     24  O   UNL     1      40.408   3.124   1.205  1.00  0.00    -0.508 OA
ATOM     25  H   UNL     1      40.307   4.060   0.833  1.00  0.00     0.293 HD
ENDBRANCH   8  24
TORSDOF 5
ENDMDL
MODEL 8
REMARK VINA RESULT:    -4.045      1.871      3.811
REMARK INTER + INTRA:          -5.043
REMARK INTER:                  -4.777
REMARK INTRA:                  -0.266
REMARK UNBOUND:                -0.289
REMARK SMILES O=c1c(O)c(-c2ccc(O)cc2)oc2cc(O)cc(O)c12
REMARK SMILES IDX 5 1 3 2 2 3 1 4 21 5 19 6 18 7 16 8 15 9 14 10 13 11 6 12
REMARK SMILES IDX 7 13 8 14 9 15 12 16 11 17 10 18 4 20 20 22 17 24
REMARK H PARENT 10 19 4 21 20 23 17 25
REMARK Flexibility Score: inf
ROOT
ATOM      1  C   UNL     1      41.566   0.319  -2.175  1.00  0.00     0.180 A 
ATOM      2  C   UNL     1      41.448   0.158  -3.567  1.00  0.00     0.208 A 
ATOM      3  C   UNL     1      41.767  -1.085  -4.138  1.00  0.00     0.238 A 
ATOM      4  O   UNL     1      41.712  -1.206  -5.390  1.00  0.00    -0.285 OA
ATOM      5  C   UNL     1      42.184  -2.154  -3.310  1.00  0.00     0.111 A 
ATOM      6  C   UNL     1      42.494  -3.467  -3.777  1.00  0.00     0.134 A 
ATOM      7  C   UNL     1      43.022  -4.411  -2.886  1.00  0.00     0.093 A 
ATOM      8  C   UNL     1      43.189  -4.107  -1.533  1.00  0.00     0.123 A 
ATOM      9  C   UNL     1      42.834  -2.848  -1.057  1.00  0.00     0.094 A 
ATOM     10  C   UNL     1      42.338  -1.874  -1.928  1.00  0.00     0.146 A 
ATOM     11  O   UNL     1      42.023  -0.684  -1.433  1.00  0.00    -0.452 OA
ENDROOT
BRANCH   1  12
ATOM     12  C   UNL     1      41.224   1.590  -1.497  1.00  0.00     0.021 A 
ATOM     13  C   UNL     1      39.994   1.761  -0.836  1.00  0.00     0.016 A 
ATOM     14  C   UNL     1      39.703   2.961  -0.182  1.00  0.00     0.047 A 
ATOM     15  C   UNL     1      40.642   4.001  -0.170  1.00  0.00     0.115 A 
ATOM     16  C   UNL     1      42.167   2.631  -1.462  1.00  0.00     0.016 A 
ATOM     17  C   UNL     1      41.874   3.831  -0.809  1.00  0.00     0.047 A 
BRANCH  15  18
ATOM     18  O   UNL     1      40.362   5.203   0.477  1.00  0.00    -0.508 OA
ATOM     19  H   UNL     1      40.012   5.224   1.428  1.00  0.00     0.293 HD
ENDBRANCH  15  18
ENDBRANCH   1  12
BRANCH   2  20
ATOM     20  O   UNL     1      41.056   1.234  -4.369  1.00  0.00    -0.502 OA
ATOM     21  H   UNL     1      41.073   1.193  -5.380  1.00  0.00     0.293 HD
ENDBRANCH   2  20
BRANCH   6  22
ATOM     22  O   UNL     1      42.277  -3.900  -5.089  1.00  0.00    -0.507 OA
ATOM     23  H   UNL     1      42.027  -3.298  -5.858  1.00  0.00     0.293 HD
ENDBRANCH   6  22
BRANCH   8  24
ATOM     24  O   UNL     1      43.700  -5.057  -0.651  1.00  0.00    -0.508 OA
ATOM     25  H   UNL     1      44.383  -4.810   0.056  1.00  0.00     0.293 HD
ENDBRANCH   8  24
TORSDOF 5
ENDMDL
MODEL 9
REMARK VINA RESULT:    -3.957      8.563     11.661
REMARK INTER + INTRA:          -4.940
REMARK INTER:                  -4.687
REMARK INTRA:                  -0.254
REMARK UNBOUND:                -0.289
REMARK SMILES O=c1c(O)c(-c2ccc(O)cc2)oc2cc(O)cc(O)c12
REMARK SMILES IDX 5 1 3 2 2 3 1 4 21 5 19 6 18 7 16 8 15 9 14 10 13 11 6 12
REMARK SMILES IDX 7 13 8 14 9 15 12 16 11 17 10 18 4 20 20 22 17 24
REMARK H PARENT 10 19 4 21 20 23 17 25
REMARK Flexibility Score: inf
ROOT
ATOM      1  C   UNL     1      35.369   6.630  -7.260  1.00  0.00     0.180 A 
ATOM      2  C   UNL     1      34.489   7.461  -7.976  1.00  0.00     0.208 A 
ATOM      3  C   UNL     1      34.617   8.854  -7.855  1.00  0.00     0.238 A 
ATOM      4  O   UNL     1      33.791   9.591  -8.456  1.00  0.00    -0.285 OA
ATOM      5  C   UNL     1      35.632   9.400  -7.035  1.00  0.00     0.111 A 
ATOM      6  C   UNL     1      35.879  10.795  -6.871  1.00  0.00     0.134 A 
ATOM      7  C   UNL     1      36.827  11.225  -5.932  1.00  0.00     0.093 A 
ATOM      8  C   UNL     1      37.581  10.305  -5.200  1.00  0.00     0.123 A 
ATOM      9  C   UNL     1      37.390   8.940  -5.397  1.00  0.00     0.094 A 
ATOM     10  C   UNL     1      36.427   8.482  -6.300  1.00  0.00     0.146 A 
ATOM     11  O   UNL     1      36.269   7.172  -6.448  1.00  0.00    -0.452 OA
ENDROOT
BRANCH   1  12
ATOM     12  C   UNL     1      35.313   5.154  -7.356  1.00  0.00     0.021 A 
ATOM     13  C   UNL     1      34.685   4.378  -6.364  1.00  0.00     0.016 A 
ATOM     14  C   UNL     1      34.624   2.987  -6.488  1.00  0.00     0.047 A 
ATOM     15  C   UNL     1      35.177   2.355  -7.610  1.00  0.00     0.115 A 
ATOM     16  C   UNL     1      35.847   4.514  -8.487  1.00  0.00     0.016 A 
ATOM     17  C   UNL     1      35.785   3.123  -8.608  1.00  0.00     0.047 A 
BRANCH  15  18
ATOM     18  O   UNL     1      35.123   0.970  -7.744  1.00  0.00    -0.508 OA
ATOM     19  H   UNL     1      35.858   0.374  -7.381  1.00  0.00     0.293 HD
ENDBRANCH  15  18
ENDBRANCH   1  12
BRANCH   2  20
ATOM     20  O   UNL     1      33.478   6.901  -8.763  1.00  0.00    -0.502 OA
ATOM     21  H   UNL     1      32.566   7.330  -8.863  1.00  0.00     0.293 HD
ENDBRANCH   2  20
BRANCH   6  22
ATOM     22  O   UNL     1      35.245  11.793  -7.618  1.00  0.00    -0.507 OA
ATOM     23  H   UNL     1      34.571  12.446  -7.250  1.00  0.00     0.293 HD
ENDBRANCH   6  22
BRANCH   8  24
ATOM     24  O   UNL     1      38.533  10.740  -4.280  1.00  0.00    -0.508 OA
ATOM     25  H   UNL     1      39.341  11.279  -4.568  1.00  0.00     0.293 HD
ENDBRANCH   8  24
TORSDOF 5
ENDMDL
