MODEL 1
REMARK VINA RESULT:    -5.302      0.000      0.000
REMARK INTER + INTRA:          -7.789
REMARK INTER:                  -7.162
REMARK INTRA:                  -0.627
REMARK UNBOUND:                -0.627
REMARK SMILES COc1ccc(-c2cc(=O)c3c(OC)c(OC)c(OC)c(OC)c3o2)cc1
REMARK SMILES IDX 7 1 8 2 9 3 10 4 11 5 24 6 25 7 21 8 18 9 15 10 12 11 6 12
REMARK SMILES IDX 3 13 4 14 27 15 5 16 26 17 2 18 1 19 22 20 23 21 13 22 14 23
REMARK SMILES IDX 19 24 20 25 16 26 17 27
REMARK H PARENT
REMARK Flexibility Score: inf
ROOT
ATOM      1  C   UNL     1      22.013  43.711  92.338  1.00  0.00     0.138 A 
ATOM      2  C   UNL     1      22.683  43.683  91.107  1.00  0.00     0.100 A 
ATOM      3  C   UNL     1      22.380  42.684  90.183  1.00  0.00     0.197 A 
ATOM      4  O   UNL     1      22.994  42.675  89.083  1.00  0.00    -0.289 OA
ATOM      5  C   UNL     1      21.396  41.716  90.492  1.00  0.00     0.115 A 
ATOM      6  C   UNL     1      20.748  41.828  91.743  1.00  0.00     0.188 A 
ATOM      7  O   UNL     1      21.082  42.797  92.591  1.00  0.00    -0.452 OA
ATOM      8  C   UNL     1      19.744  40.929  92.115  1.00  0.00     0.209 A 
ATOM      9  C   UNL     1      19.351  39.917  91.215  1.00  0.00     0.211 A 
ATOM     10  C   UNL     1      20.054  39.730  90.004  1.00  0.00     0.208 A 
ATOM     11  C   UNL     1      21.064  40.649  89.620  1.00  0.00     0.179 A 
ENDROOT
BRANCH   1  12
ATOM     12  C   UNL     1      22.298  44.743  93.369  1.00  0.00     0.018 A 
ATOM     13  C   UNL     1      22.855  46.656  95.375  1.00  0.00     0.118 A 
ATOM     14  C   UNL     1      22.718  47.053  94.033  1.00  0.00     0.047 A 
ATOM     15  C   UNL     1      22.724  45.303  95.701  1.00  0.00     0.047 A 
ATOM     16  C   UNL     1      22.449  46.105  93.040  1.00  0.00     0.016 A 
ATOM     17  C   UNL     1      22.452  44.354  94.713  1.00  0.00     0.016 A 
BRANCH  13  18
ATOM     18  O   UNL     1      23.120  47.570  96.406  1.00  0.00    -0.497 OA
ATOM     19  C   UNL     1      22.879  48.972  96.321  1.00  0.00     0.278 C 
ENDBRANCH  13  18
ENDBRANCH   1  12
BRANCH   8  20
ATOM     20  O   UNL     1      19.166  41.110  93.386  1.00  0.00    -0.490 OA
ATOM     21  C   UNL     1      19.558  40.463  94.592  1.00  0.00     0.278 C 
ENDBRANCH   8  20
BRANCH  11  22
ATOM     22  O   UNL     1      21.775  40.539  88.406  1.00  0.00    -0.492 OA
ATOM     23  C   UNL     1      21.231  40.462  87.091  1.00  0.00     0.278 C 
ENDBRANCH  11  22
BRANCH   9  24
ATOM     24  O   UNL     1      18.237  39.126  91.500  1.00  0.00    -0.490 OA
ATOM     25  C   UNL     1      18.357  37.901  92.214  1.00  0.00     0.279 C 
ENDBRANCH   9  24
BRANCH  10  26
ATOM     26  O   UNL     1      19.756  38.639  89.176  1.00  0.00    -0.490 OA
ATOM     27  C   UNL     1      20.444  37.393  89.231  1.00  0.00     0.278 C 
ENDBRANCH  10  26
TORSDOF 6
ENDMDL
MODEL 2
REMARK VINA RESULT:    -5.145      2.031      4.568
REMARK INTER + INTRA:          -7.577
REMARK INTER:                  -6.939
REMARK INTRA:                  -0.638
REMARK UNBOUND:                -0.627
REMARK SMILES COc1ccc(-c2cc(=O)c3c(OC)c(OC)c(OC)c(OC)c3o2)cc1
REMARK SMILES IDX 7 1 8 2 9 3 10 4 11 5 24 6 25 7 21 8 18 9 15 10 12 11 6 12
REMARK SMILES IDX 3 13 4 14 27 15 5 16 26 17 2 18 1 19 22 20 23 21 13 22 14 23
REMARK SMILES IDX 19 24 20 25 16 26 17 27
REMARK H PARENT
REMARK Flexibility Score: inf
ROOT
ATOM      1  C   UNL     1      19.621  41.321  93.623  1.00  0.00     0.138 A 
ATOM      2  C   UNL     1      18.628  40.823  94.479  1.00  0.00     0.100 A 
ATOM      3  C   UNL     1      17.805  39.784  94.044  1.00  0.00     0.197 A 
ATOM      4  O   UNL     1      16.917  39.351  94.826  1.00  0.00    -0.289 OA
ATOM      5  C   UNL     1      17.986  39.239  92.751  1.00  0.00     0.115 A 
ATOM      6  C   UNL     1      19.025  39.779  91.960  1.00  0.00     0.188 A 
ATOM      7  O   UNL     1      19.776  40.776  92.421  1.00  0.00    -0.452 OA
ATOM      8  C   UNL     1      19.289  39.278  90.682  1.00  0.00     0.209 A 
ATOM      9  C   UNL     1      18.528  38.198  90.189  1.00  0.00     0.211 A 
ATOM     10  C   UNL     1      17.424  37.713  90.924  1.00  0.00     0.208 A 
ATOM     11  C   UNL     1      17.163  38.211  92.227  1.00  0.00     0.179 A 
ENDROOT
BRANCH   1  12
ATOM     12  C   UNL     1      20.522  42.433  94.024  1.00  0.00     0.018 A 
ATOM     13  C   UNL     1      22.238  44.523  94.851  1.00  0.00     0.118 A 
ATOM     14  C   UNL     1      21.999  44.298  93.484  1.00  0.00     0.047 A 
ATOM     15  C   UNL     1      21.625  43.692  95.795  1.00  0.00     0.047 A 
ATOM     16  C   UNL     1      21.155  43.259  93.075  1.00  0.00     0.016 A 
ATOM     17  C   UNL     1      20.778  42.656  95.390  1.00  0.00     0.016 A 
BRANCH  13  18
ATOM     18  O   UNL     1      23.071  45.554  95.310  1.00  0.00    -0.497 OA
ATOM     19  C   UNL     1      23.121  46.009  96.659  1.00  0.00     0.278 C 
ENDBRANCH  13  18
ENDBRANCH   1  12
BRANCH   8  20
ATOM     20  O   UNL     1      20.333  39.889  89.962  1.00  0.00    -0.490 OA
ATOM     21  C   UNL     1      21.689  39.457  89.909  1.00  0.00     0.278 C 
ENDBRANCH   8  20
BRANCH  11  22
ATOM     22  O   UNL     1      16.100  37.740  93.026  1.00  0.00    -0.492 OA
ATOM     23  C   UNL     1      14.707  37.981  92.841  1.00  0.00     0.278 C 
ENDBRANCH  11  22
BRANCH   9  24
ATOM     24  O   UNL     1      18.892  37.579  88.993  1.00  0.00    -0.490 OA
ATOM     25  C   UNL     1      19.711  36.414  88.976  1.00  0.00     0.279 C 
ENDBRANCH   9  24
BRANCH  10  26
ATOM     26  O   UNL     1      16.583  36.736  90.373  1.00  0.00    -0.490 OA
ATOM     27  C   UNL     1      15.628  37.001  89.349  1.00  0.00     0.278 C 
ENDBRANCH  10  26
TORSDOF 6
ENDMDL
MODEL 3
REMARK VINA RESULT:    -5.104      2.116      3.678
REMARK INTER + INTRA:          -7.521
REMARK INTER:                  -6.795
REMARK INTRA:                  -0.726
REMARK UNBOUND:                -0.627
REMARK SMILES COc1ccc(-c2cc(=O)c3c(OC)c(OC)c(OC)c(OC)c3o2)cc1
REMARK SMILES IDX 7 1 8 2 9 3 10 4 11 5 24 6 25 7 21 8 18 9 15 10 12 11 6 12
REMARK SMILES IDX 3 13 4 14 27 15 5 16 26 17 2 18 1 19 22 20 23 21 13 22 14 23
REMARK SMILES IDX 19 24 20 25 16 26 17 27
REMARK H PARENT
REMARK Flexibility Score: inf
ROOT
ATOM      1  C   UNL     1      20.064  41.248  92.481  1.00  0.00     0.138 A 
ATOM      2  C   UNL     1      20.437  40.928  91.168  1.00  0.00     0.100 A 
ATOM      3  C   UNL     1      19.761  39.915  90.489  1.00  0.00     0.197 A 
ATOM      4  O   UNL     1      20.112  39.641  89.311  1.00  0.00    -0.289 OA
ATOM      5  C   UNL     1      18.701  39.228  91.127  1.00  0.00     0.115 A 
ATOM      6  C   UNL     1      18.369  39.627  92.441  1.00  0.00     0.188 A 
ATOM      7  O   UNL     1      19.053  40.596  93.046  1.00  0.00    -0.452 OA
ATOM      8  C   UNL     1      17.317  39.020  93.133  1.00  0.00     0.209 A 
ATOM      9  C   UNL     1      16.557  38.016  92.497  1.00  0.00     0.211 A 
ATOM     10  C   UNL     1      16.937  37.537  91.224  1.00  0.00     0.208 A 
ATOM     11  C   UNL     1      17.996  38.162  90.515  1.00  0.00     0.179 A 
ENDROOT
BRANCH   1  12
ATOM     12  C   UNL     1      20.753  42.310  93.260  1.00  0.00     0.018 A 
ATOM     13  C   UNL     1      22.082  44.360  94.683  1.00  0.00     0.118 A 
ATOM     14  C   UNL     1      21.210  43.481  95.350  1.00  0.00     0.047 A 
ATOM     15  C   UNL     1      22.273  44.213  93.305  1.00  0.00     0.047 A 
ATOM     16  C   UNL     1      20.547  42.472  94.644  1.00  0.00     0.016 A 
ATOM     17  C   UNL     1      21.616  43.203  92.599  1.00  0.00     0.016 A 
BRANCH  13  18
ATOM     18  O   UNL     1      22.773  45.384  95.349  1.00  0.00    -0.497 OA
ATOM     19  C   UNL     1      22.764  45.575  96.760  1.00  0.00     0.278 C 
ENDBRANCH  13  18
ENDBRANCH   1  12
BRANCH   8  20
ATOM     20  O   UNL     1      17.070  39.473  94.442  1.00  0.00    -0.490 OA
ATOM     21  C   UNL     1      17.522  38.864  95.647  1.00  0.00     0.278 C 
ENDBRANCH   8  20
BRANCH  11  22
ATOM     22  O   UNL     1      18.396  37.755  89.226  1.00  0.00    -0.492 OA
ATOM     23  C   UNL     1      19.020  36.526  88.862  1.00  0.00     0.278 C 
ENDBRANCH  11  22
BRANCH   9  24
ATOM     24  O   UNL     1      15.402  37.527  93.107  1.00  0.00    -0.490 OA
ATOM     25  C   UNL     1      14.145  38.177  92.954  1.00  0.00     0.279 C 
ENDBRANCH   9  24
BRANCH  10  26
ATOM     26  O   UNL     1      16.268  36.446  90.652  1.00  0.00    -0.490 OA
ATOM     27  C   UNL     1      15.209  36.574  89.708  1.00  0.00     0.278 C 
ENDBRANCH  10  26
TORSDOF 6
ENDMDL
MODEL 4
REMARK VINA RESULT:    -4.876      3.121      8.637
REMARK INTER + INTRA:          -7.213
REMARK INTER:                  -6.494
REMARK INTRA:                  -0.720
REMARK UNBOUND:                -0.627
REMARK SMILES COc1ccc(-c2cc(=O)c3c(OC)c(OC)c(OC)c(OC)c3o2)cc1
REMARK SMILES IDX 7 1 8 2 9 3 10 4 11 5 24 6 25 7 21 8 18 9 15 10 12 11 6 12
REMARK SMILES IDX 3 13 4 14 27 15 5 16 26 17 2 18 1 19 22 20 23 21 13 22 14 23
REMARK SMILES IDX 19 24 20 25 16 26 17 27
REMARK H PARENT
REMARK Flexibility Score: inf
ROOT
ATOM      1  C   UNL     1      16.852  38.896  92.385  1.00  0.00     0.138 A 
ATOM      2  C   UNL     1      17.142  39.518  93.608  1.00  0.00     0.100 A 
ATOM      3  C   UNL     1      18.376  40.142  93.786  1.00  0.00     0.197 A 
ATOM      4  O   UNL     1      18.618  40.693  94.892  1.00  0.00    -0.289 OA
ATOM      5  C   UNL     1      19.318  40.148  92.730  1.00  0.00     0.115 A 
ATOM      6  C   UNL     1      18.940  39.522  91.521  1.00  0.00     0.188 A 
ATOM      7  O   UNL     1      17.752  38.934  91.408  1.00  0.00    -0.452 OA
ATOM      8  C   UNL     1      19.801  39.509  90.420  1.00  0.00     0.209 A 
ATOM      9  C   UNL     1      21.050  40.157  90.508  1.00  0.00     0.211 A 
ATOM     10  C   UNL     1      21.484  40.701  91.737  1.00  0.00     0.208 A 
ATOM     11  C   UNL     1      20.606  40.727  92.852  1.00  0.00     0.179 A 
ENDROOT
BRANCH   1  12
ATOM     12  C   UNL     1      15.559  38.205  92.138  1.00  0.00     0.018 A 
ATOM     13  C   UNL     1      13.074  36.921  91.725  1.00  0.00     0.118 A 
ATOM     14  C   UNL     1      14.039  36.949  90.703  1.00  0.00     0.047 A 
ATOM     15  C   UNL     1      13.356  37.547  92.944  1.00  0.00     0.047 A 
ATOM     16  C   UNL     1      15.266  37.590  90.905  1.00  0.00     0.016 A 
ATOM     17  C   UNL     1      14.582  38.185  93.150  1.00  0.00     0.016 A 
BRANCH  13  18
ATOM     18  O   UNL     1      11.833  36.286  91.571  1.00  0.00    -0.497 OA
ATOM     19  C   UNL     1      10.680  36.569  92.358  1.00  0.00     0.278 C 
ENDBRANCH  13  18
ENDBRANCH   1  12
BRANCH   8  20
ATOM     20  O   UNL     1      19.345  38.848  89.263  1.00  0.00    -0.490 OA
ATOM     21  C   UNL     1      19.628  37.503  88.891  1.00  0.00     0.278 C 
ENDBRANCH   8  20
BRANCH  11  22
ATOM     22  O   UNL     1      20.966  41.290  94.094  1.00  0.00    -0.492 OA
ATOM     23  C   UNL     1      21.934  40.798  95.017  1.00  0.00     0.278 C 
ENDBRANCH  11  22
BRANCH   9  24
ATOM     24  O   UNL     1      21.841  40.301  89.367  1.00  0.00    -0.490 OA
ATOM     25  C   UNL     1      21.670  41.396  88.474  1.00  0.00     0.279 C 
ENDBRANCH   9  24
BRANCH  10  26
ATOM     26  O   UNL     1      22.780  41.220  91.861  1.00  0.00    -0.490 OA
ATOM     27  C   UNL     1      23.094  42.603  91.729  1.00  0.00     0.278 C 
ENDBRANCH  10  26
TORSDOF 6
ENDMDL
MODEL 5
REMARK VINA RESULT:    -4.874      3.389      5.573
REMARK INTER + INTRA:          -7.210
REMARK INTER:                  -6.716
REMARK INTRA:                  -0.494
REMARK UNBOUND:                -0.627
REMARK SMILES COc1ccc(-c2cc(=O)c3c(OC)c(OC)c(OC)c(OC)c3o2)cc1
REMARK SMILES IDX 7 1 8 2 9 3 10 4 11 5 24 6 25 7 21 8 18 9 15 10 12 11 6 12
REMARK SMILES IDX 3 13 4 14 27 15 5 16 26 17 2 18 1 19 22 20 23 21 13 22 14 23
REMARK SMILES IDX 19 24 20 25 16 26 17 27
REMARK H PARENT
REMARK Flexibility Score: inf
ROOT
ATOM      1  C   UNL     1      18.594  40.065  93.152  1.00  0.00     0.138 A 
ATOM      2  C   UNL     1      19.060  39.482  91.964  1.00  0.00     0.100 A 
ATOM      3  C   UNL     1      18.268  38.546  91.303  1.00  0.00     0.197 A 
ATOM      4  O   UNL     1      18.704  38.032  90.238  1.00  0.00    -0.289 OA
ATOM      5  C   UNL     1      17.001  38.199  91.830  1.00  0.00     0.115 A 
ATOM      6  C   UNL     1      16.593  38.849  93.016  1.00  0.00     0.188 A 
ATOM      7  O   UNL     1      17.393  39.730  93.612  1.00  0.00    -0.452 OA
ATOM      8  C   UNL     1      15.346  38.585  93.588  1.00  0.00     0.209 A 
ATOM      9  C   UNL     1      14.469  37.681  92.952  1.00  0.00     0.211 A 
ATOM     10  C   UNL     1      14.898  36.949  91.823  1.00  0.00     0.208 A 
ATOM     11  C   UNL     1      16.159  37.226  91.235  1.00  0.00     0.179 A 
ENDROOT
BRANCH   1  12
ATOM     12  C   UNL     1      19.396  41.062  93.909  1.00  0.00     0.018 A 
ATOM     13  C   UNL     1      20.912  43.004  95.297  1.00  0.00     0.118 A 
ATOM     14  C   UNL     1      20.488  41.832  95.949  1.00  0.00     0.047 A 
ATOM     15  C   UNL     1      20.562  43.200  93.957  1.00  0.00     0.047 A 
ATOM     16  C   UNL     1      19.733  40.874  95.264  1.00  0.00     0.016 A 
ATOM     17  C   UNL     1      19.812  42.244  93.269  1.00  0.00     0.016 A 
BRANCH  13  18
ATOM     18  O   UNL     1      21.675  43.989  95.941  1.00  0.00    -0.497 OA
ATOM     19  C   UNL     1      22.523  44.917  95.271  1.00  0.00     0.278 C 
ENDBRANCH  13  18
ENDBRANCH   1  12
BRANCH   8  20
ATOM     20  O   UNL     1      15.033  39.269  94.778  1.00  0.00    -0.490 OA
ATOM     21  C   UNL     1      14.068  40.305  94.929  1.00  0.00     0.278 C 
ENDBRANCH   8  20
BRANCH  11  22
ATOM     22  O   UNL     1      16.628  36.558  90.084  1.00  0.00    -0.492 OA
ATOM     23  C   UNL     1      16.167  36.717  88.745  1.00  0.00     0.278 C 
ENDBRANCH  11  22
BRANCH   9  24
ATOM     24  O   UNL     1      13.160  37.541  93.414  1.00  0.00    -0.490 OA
ATOM     25  C   UNL     1      12.828  36.618  94.446  1.00  0.00     0.279 C 
ENDBRANCH   9  24
BRANCH  10  26
ATOM     26  O   UNL     1      14.081  35.951  91.277  1.00  0.00    -0.490 OA
ATOM     27  C   UNL     1      13.016  36.211  90.367  1.00  0.00     0.278 C 
ENDBRANCH  10  26
TORSDOF 6
ENDMDL
MODEL 6
REMARK VINA RESULT:    -4.825      3.451      8.622
REMARK INTER + INTRA:          -7.145
REMARK INTER:                  -6.524
REMARK INTRA:                  -0.621
REMARK UNBOUND:                -0.627
REMARK SMILES COc1ccc(-c2cc(=O)c3c(OC)c(OC)c(OC)c(OC)c3o2)cc1
REMARK SMILES IDX 7 1 8 2 9 3 10 4 11 5 24 6 25 7 21 8 18 9 15 10 12 11 6 12
REMARK SMILES IDX 3 13 4 14 27 15 5 16 26 17 2 18 1 19 22 20 23 21 13 22 14 23
REMARK SMILES IDX 19 24 20 25 16 26 17 27
REMARK H PARENT
REMARK Flexibility Score: inf
ROOT
ATOM      1  C   UNL     1      16.569  37.828  90.873  1.00  0.00     0.138 A 
ATOM      2  C   UNL     1      17.331  37.450  89.759  1.00  0.00     0.100 A 
ATOM      3  C   UNL     1      18.618  37.963  89.602  1.00  0.00     0.197 A 
ATOM      4  O   UNL     1      19.288  37.613  88.594  1.00  0.00    -0.289 OA
ATOM      5  C   UNL     1      19.143  38.851  90.571  1.00  0.00     0.115 A 
ATOM      6  C   UNL     1      18.322  39.163  91.677  1.00  0.00     0.188 A 
ATOM      7  O   UNL     1      17.097  38.651  91.773  1.00  0.00    -0.452 OA
ATOM      8  C   UNL     1      18.774  40.009  92.693  1.00  0.00     0.209 A 
ATOM      9  C   UNL     1      20.082  40.533  92.627  1.00  0.00     0.211 A 
ATOM     10  C   UNL     1      20.879  40.313  91.483  1.00  0.00     0.208 A 
ATOM     11  C   UNL     1      20.426  39.443  90.457  1.00  0.00     0.179 A 
ENDROOT
BRANCH   1  12
ATOM     12  C   UNL     1      15.187  37.324  91.091  1.00  0.00     0.018 A 
ATOM     13  C   UNL     1      12.548  36.418  91.549  1.00  0.00     0.118 A 
ATOM     14  C   UNL     1      13.315  35.876  90.502  1.00  0.00     0.047 A 
ATOM     15  C   UNL     1      13.105  37.419  92.352  1.00  0.00     0.047 A 
ATOM     16  C   UNL     1      14.618  36.329  90.271  1.00  0.00     0.016 A 
ATOM     17  C   UNL     1      14.408  37.870  92.127  1.00  0.00     0.016 A 
BRANCH  13  18
ATOM     18  O   UNL     1      11.240  35.992  91.822  1.00  0.00    -0.497 OA
ATOM     19  C   UNL     1      10.302  36.724  92.605  1.00  0.00     0.278 C 
ENDBRANCH  13  18
ENDBRANCH   1  12
BRANCH   8  20
ATOM     20  O   UNL     1      17.880  40.274  93.747  1.00  0.00    -0.490 OA
ATOM     21  C   UNL     1      17.866  39.642  95.023  1.00  0.00     0.278 C 
ENDBRANCH   8  20
BRANCH  11  22
ATOM     22  O   UNL     1      21.192  39.152  89.309  1.00  0.00    -0.492 OA
ATOM     23  C   UNL     1      21.390  39.985  88.169  1.00  0.00     0.278 C 
ENDBRANCH  11  22
BRANCH   9  24
ATOM     24  O   UNL     1      20.606  41.235  93.714  1.00  0.00    -0.490 OA
ATOM     25  C   UNL     1      20.331  42.617  93.911  1.00  0.00     0.279 C 
ENDBRANCH   9  24
BRANCH  10  26
ATOM     26  O   UNL     1      22.123  40.948  91.356  1.00  0.00    -0.490 OA
ATOM     27  C   UNL     1      22.293  42.246  90.792  1.00  0.00     0.278 C 
ENDBRANCH  10  26
TORSDOF 6
ENDMDL
MODEL 7
REMARK VINA RESULT:    -4.547      2.552      7.640
REMARK INTER + INTRA:          -6.769
REMARK INTER:                  -6.201
REMARK INTRA:                  -0.569
REMARK UNBOUND:                -0.627
REMARK SMILES COc1ccc(-c2cc(=O)c3c(OC)c(OC)c(OC)c(OC)c3o2)cc1
REMARK SMILES IDX 7 1 8 2 9 3 10 4 11 5 24 6 25 7 21 8 18 9 15 10 12 11 6 12
REMARK SMILES IDX 3 13 4 14 27 15 5 16 26 17 2 18 1 19 22 20 23 21 13 22 14 23
REMARK SMILES IDX 19 24 20 25 16 26 17 27
REMARK H PARENT
REMARK Flexibility Score: inf
ROOT
ATOM      1  C   UNL     1      18.093  39.780  93.269  1.00  0.00     0.138 A 
ATOM      2  C   UNL     1      18.599  40.699  94.198  1.00  0.00     0.100 A 
ATOM      3  C   UNL     1      19.697  41.487  93.857  1.00  0.00     0.197 A 
ATOM      4  O   UNL     1      20.139  42.306  94.706  1.00  0.00    -0.289 OA
ATOM      5  C   UNL     1      20.284  41.357  92.576  1.00  0.00     0.115 A 
ATOM      6  C   UNL     1      19.699  40.427  91.687  1.00  0.00     0.188 A 
ATOM      7  O   UNL     1      18.656  39.694  92.068  1.00  0.00    -0.452 OA
ATOM      8  C   UNL     1      20.200  40.257  90.393  1.00  0.00     0.209 A 
ATOM      9  C   UNL     1      21.283  41.050  89.959  1.00  0.00     0.211 A 
ATOM     10  C   UNL     1      21.940  41.912  90.864  1.00  0.00     0.208 A 
ATOM     11  C   UNL     1      21.425  42.095  92.173  1.00  0.00     0.179 A 
ENDROOT
BRANCH   1  12
ATOM     12  C   UNL     1      16.932  38.904  93.576  1.00  0.00     0.018 A 
ATOM     13  C   UNL     1      14.689  37.294  94.190  1.00  0.00     0.118 A 
ATOM     14  C   UNL     1      15.699  36.813  93.336  1.00  0.00     0.047 A 
ATOM     15  C   UNL     1      14.805  38.583  94.721  1.00  0.00     0.047 A 
ATOM     16  C   UNL     1      16.804  37.613  93.027  1.00  0.00     0.016 A 
ATOM     17  C   UNL     1      15.910  39.382  94.418  1.00  0.00     0.016 A 
BRANCH  13  18
ATOM     18  O   UNL     1      13.565  36.528  94.532  1.00  0.00    -0.497 OA
ATOM     19  C   UNL     1      12.534  36.961  95.414  1.00  0.00     0.278 C 
ENDBRANCH  13  18
ENDBRANCH   1  12
BRANCH   8  20
ATOM     20  O   UNL     1      19.563  39.296  89.585  1.00  0.00    -0.490 OA
ATOM     21  C   UNL     1      19.995  37.958  89.363  1.00  0.00     0.278 C 
ENDBRANCH   8  20
BRANCH  11  22
ATOM     22  O   UNL     1      22.014  42.970  93.109  1.00  0.00    -0.492 OA
ATOM     23  C   UNL     1      21.993  44.396  93.090  1.00  0.00     0.278 C 
ENDBRANCH  11  22
BRANCH   9  24
ATOM     24  O   UNL     1      21.677  41.014  88.621  1.00  0.00    -0.490 OA
ATOM     25  C   UNL     1      22.692  40.126  88.167  1.00  0.00     0.279 C 
ENDBRANCH   9  24
BRANCH  10  26
ATOM     26  O   UNL     1      23.101  42.593  90.472  1.00  0.00    -0.490 OA
ATOM     27  C   UNL     1      23.094  43.774  89.675  1.00  0.00     0.278 C 
ENDBRANCH  10  26
TORSDOF 6
ENDMDL
