MODEL 1
REMARK VINA RESULT:    -5.552      0.000      0.000
REMARK INTER + INTRA:          -6.262
REMARK INTER:                  -6.201
REMARK INTRA:                  -0.061
REMARK UNBOUND:                -0.061
REMARK SMILES COc1cc2ccc(=O)oc2c(O)c1O
REMARK SMILES IDX 3 1 14 2 12 3 11 4 5 5 4 6 6 7 7 8 8 9 9 10 10 11 2 12 1 13
REMARK SMILES IDX 15 14 13 16
REMARK H PARENT 15 15 13 17
REMARK Flexibility Score: inf
ROOT
ATOM      1  C   UNL     1       6.560  27.365  14.250  1.00  0.00     0.165 A 
ATOM      2  C   UNL     1       5.845  27.698  13.089  1.00  0.00     0.204 A 
ATOM      3  C   UNL     1       4.985  26.761  12.487  1.00  0.00     0.205 A 
ATOM      4  C   UNL     1       4.840  25.482  13.051  1.00  0.00     0.184 A 
ATOM      5  C   UNL     1       5.559  25.146  14.220  1.00  0.00     0.025 A 
ATOM      6  C   UNL     1       6.412  26.084  14.814  1.00  0.00     0.062 A 
ATOM      7  C   UNL     1       5.394  23.867  14.759  1.00  0.00     0.020 A 
ATOM      8  C   UNL     1       4.534  22.964  14.136  1.00  0.00     0.094 A 
ATOM      9  C   UNL     1       3.855  23.365  12.982  1.00  0.00     0.336 A 
ATOM     10  O   UNL     1       3.073  22.566  12.403  1.00  0.00    -0.246 OA
ATOM     11  O   UNL     1       4.029  24.588  12.489  1.00  0.00    -0.419 OA
ENDROOT
BRANCH   1  12
ATOM     12  O   UNL     1       7.405  28.334  14.813  1.00  0.00    -0.493 OA
ATOM     13  C   UNL     1       8.769  28.115  15.159  1.00  0.00     0.278 C 
ENDBRANCH   1  12
BRANCH   2  14
ATOM     14  O   UNL     1       6.002  28.973  12.542  1.00  0.00    -0.502 OA
ATOM     15  H   UNL     1       6.911  29.410  12.441  1.00  0.00     0.293 HD
ENDBRANCH   2  14
BRANCH   3  16
ATOM     16  O   UNL     1       4.284  27.112  11.332  1.00  0.00    -0.502 OA
ATOM     17  H   UNL     1       4.335  28.041  10.931  1.00  0.00     0.293 HD
ENDBRANCH   3  16
TORSDOF 3
ENDMDL
MODEL 2
REMARK VINA RESULT:    -5.415      2.511      3.797
REMARK INTER + INTRA:          -6.109
REMARK INTER:                  -6.048
REMARK INTRA:                  -0.061
REMARK UNBOUND:                -0.061
REMARK SMILES COc1cc2ccc(=O)oc2c(O)c1O
REMARK SMILES IDX 3 1 14 2 12 3 11 4 5 5 4 6 6 7 7 8 8 9 9 10 10 11 2 12 1 13
REMARK SMILES IDX 15 14 13 16
REMARK H PARENT 15 15 13 17
REMARK Flexibility Score: inf
ROOT
ATOM      1  C   UNL     1       9.212  28.089  15.492  1.00  0.00     0.165 A 
ATOM      2  C   UNL     1       8.116  28.913  15.790  1.00  0.00     0.204 A 
ATOM      3  C   UNL     1       6.916  28.794  15.063  1.00  0.00     0.205 A 
ATOM      4  C   UNL     1       6.815  27.843  14.033  1.00  0.00     0.184 A 
ATOM      5  C   UNL     1       7.918  27.013  13.734  1.00  0.00     0.025 A 
ATOM      6  C   UNL     1       9.107  27.137  14.461  1.00  0.00     0.062 A 
ATOM      7  C   UNL     1       7.787  26.076  12.704  1.00  0.00     0.020 A 
ATOM      8  C   UNL     1       6.584  25.986  12.006  1.00  0.00     0.094 A 
ATOM      9  C   UNL     1       5.535  26.840  12.356  1.00  0.00     0.336 A 
ATOM     10  O   UNL     1       4.439  26.776  11.738  1.00  0.00    -0.246 OA
ATOM     11  O   UNL     1       5.685  27.722  13.339  1.00  0.00    -0.419 OA
ENDROOT
BRANCH   1  12
ATOM     12  O   UNL     1      10.387  28.245  16.246  1.00  0.00    -0.493 OA
ATOM     13  C   UNL     1      11.079  27.182  16.893  1.00  0.00     0.278 C 
ENDBRANCH   1  12
BRANCH   2  14
ATOM     14  O   UNL     1       8.235  29.852  16.815  1.00  0.00    -0.502 OA
ATOM     15  H   UNL     1       7.539  29.948  17.545  1.00  0.00     0.293 HD
ENDBRANCH   2  14
BRANCH   3  16
ATOM     16  O   UNL     1       5.838  29.624  15.373  1.00  0.00    -0.502 OA
ATOM     17  H   UNL     1       5.151  29.377  16.076  1.00  0.00     0.293 HD
ENDBRANCH   3  16
TORSDOF 3
ENDMDL
MODEL 3
REMARK VINA RESULT:    -5.346      3.559      4.696
REMARK INTER + INTRA:          -6.032
REMARK INTER:                  -5.966
REMARK INTRA:                  -0.067
REMARK UNBOUND:                -0.061
REMARK SMILES COc1cc2ccc(=O)oc2c(O)c1O
REMARK SMILES IDX 3 1 14 2 12 3 11 4 5 5 4 6 6 7 7 8 8 9 9 10 10 11 2 12 1 13
REMARK SMILES IDX 15 14 13 16
REMARK H PARENT 15 15 13 17
REMARK Flexibility Score: inf
ROOT
ATOM      1  C   UNL     1       6.645  29.510  15.560  1.00  0.00     0.165 A 
ATOM      2  C   UNL     1       7.993  29.403  15.936  1.00  0.00     0.204 A 
ATOM      3  C   UNL     1       8.817  28.417  15.362  1.00  0.00     0.205 A 
ATOM      4  C   UNL     1       8.288  27.534  14.406  1.00  0.00     0.184 A 
ATOM      5  C   UNL     1       6.932  27.641  14.027  1.00  0.00     0.025 A 
ATOM      6  C   UNL     1       6.118  28.624  14.602  1.00  0.00     0.062 A 
ATOM      7  C   UNL     1       6.433  26.749  13.072  1.00  0.00     0.020 A 
ATOM      8  C   UNL     1       7.278  25.786  12.525  1.00  0.00     0.094 A 
ATOM      9  C   UNL     1       8.610  25.737  12.947  1.00  0.00     0.336 A 
ATOM     10  O   UNL     1       9.390  24.874  12.466  1.00  0.00    -0.246 OA
ATOM     11  O   UNL     1       9.059  26.597  13.856  1.00  0.00    -0.419 OA
ENDROOT
BRANCH   1  12
ATOM     12  O   UNL     1       5.864  30.509  16.161  1.00  0.00    -0.493 OA
ATOM     13  C   UNL     1       4.730  30.262  16.987  1.00  0.00     0.278 C 
ENDBRANCH   1  12
BRANCH   2  14
ATOM     14  O   UNL     1       8.501  30.288  16.888  1.00  0.00    -0.502 OA
ATOM     15  H   UNL     1       8.757  31.241  16.658  1.00  0.00     0.293 HD
ENDBRANCH   2  14
BRANCH   3  16
ATOM     16  O   UNL     1      10.155  28.326  15.750  1.00  0.00    -0.502 OA
ATOM     17  H   UNL     1      10.853  27.863  15.179  1.00  0.00     0.293 HD
ENDBRANCH   3  16
TORSDOF 3
ENDMDL
MODEL 4
REMARK VINA RESULT:    -5.211      1.186      4.868
REMARK INTER + INTRA:          -5.881
REMARK INTER:                  -5.814
REMARK INTRA:                  -0.067
REMARK UNBOUND:                -0.061
REMARK SMILES COc1cc2ccc(=O)oc2c(O)c1O
REMARK SMILES IDX 3 1 14 2 12 3 11 4 5 5 4 6 6 7 7 8 8 9 9 10 10 11 2 12 1 13
REMARK SMILES IDX 15 14 13 16
REMARK H PARENT 15 15 13 17
REMARK Flexibility Score: inf
ROOT
ATOM      1  C   UNL     1       5.590  25.392  12.665  1.00  0.00     0.165 A 
ATOM      2  C   UNL     1       5.369  26.756  12.421  1.00  0.00     0.204 A 
ATOM      3  C   UNL     1       6.175  27.731  13.038  1.00  0.00     0.205 A 
ATOM      4  C   UNL     1       7.209  27.336  13.904  1.00  0.00     0.184 A 
ATOM      5  C   UNL     1       7.432  25.964  14.149  1.00  0.00     0.025 A 
ATOM      6  C   UNL     1       6.627  24.999  13.532  1.00  0.00     0.062 A 
ATOM      7  C   UNL     1       8.469  25.601  15.015  1.00  0.00     0.020 A 
ATOM      8  C   UNL     1       9.248  26.594  15.608  1.00  0.00     0.094 A 
ATOM      9  C   UNL     1       8.969  27.933  15.319  1.00  0.00     0.336 A 
ATOM     10  O   UNL     1       9.660  28.845  15.845  1.00  0.00    -0.246 OA
ATOM     11  O   UNL     1       7.978  28.251  14.492  1.00  0.00    -0.419 OA
ENDROOT
BRANCH   1  12
ATOM     12  O   UNL     1       4.760  24.457  12.026  1.00  0.00    -0.493 OA
ATOM     13  C   UNL     1       3.646  23.814  12.638  1.00  0.00     0.278 C 
ENDBRANCH   1  12
BRANCH   2  14
ATOM     14  O   UNL     1       4.336  27.129  11.558  1.00  0.00    -0.502 OA
ATOM     15  H   UNL     1       3.369  27.167  11.858  1.00  0.00     0.293 HD
ENDBRANCH   2  14
BRANCH   3  16
ATOM     16  O   UNL     1       5.938  29.082  12.783  1.00  0.00    -0.502 OA
ATOM     17  H   UNL     1       6.376  29.571  12.010  1.00  0.00     0.293 HD
ENDBRANCH   3  16
TORSDOF 3
ENDMDL
MODEL 5
REMARK VINA RESULT:    -4.965     19.121     20.966
REMARK INTER + INTRA:          -5.607
REMARK INTER:                  -5.541
REMARK INTRA:                  -0.066
REMARK UNBOUND:                -0.061
REMARK SMILES COc1cc2ccc(=O)oc2c(O)c1O
REMARK SMILES IDX 3 1 14 2 12 3 11 4 5 5 4 6 6 7 7 8 8 9 9 10 10 11 2 12 1 13
REMARK SMILES IDX 15 14 13 16
REMARK H PARENT 15 15 13 17
REMARK Flexibility Score: inf
ROOT
ATOM      1  C   UNL     1      -3.337  39.244   2.570  1.00  0.00     0.165 A 
ATOM      2  C   UNL     1      -4.032  39.085   1.361  1.00  0.00     0.204 A 
ATOM      3  C   UNL     1      -3.497  39.588   0.160  1.00  0.00     0.205 A 
ATOM      4  C   UNL     1      -2.260  40.253   0.171  1.00  0.00     0.184 A 
ATOM      5  C   UNL     1      -1.560  40.413   1.387  1.00  0.00     0.025 A 
ATOM      6  C   UNL     1      -2.097  39.910   2.578  1.00  0.00     0.062 A 
ATOM      7  C   UNL     1      -0.330  41.079   1.367  1.00  0.00     0.020 A 
ATOM      8  C   UNL     1       0.169  41.563   0.159  1.00  0.00     0.094 A 
ATOM      9  C   UNL     1      -0.578  41.369  -1.006  1.00  0.00     0.336 A 
ATOM     10  O   UNL     1      -0.147  41.799  -2.108  1.00  0.00    -0.246 OA
ATOM     11  O   UNL     1      -1.745  40.733  -0.960  1.00  0.00    -0.419 OA
ENDROOT
BRANCH   1  12
ATOM     12  O   UNL     1      -3.912  38.724   3.741  1.00  0.00    -0.493 OA
ATOM     13  C   UNL     1      -4.649  39.491   4.688  1.00  0.00     0.278 C 
ENDBRANCH   1  12
BRANCH   2  14
ATOM     14  O   UNL     1      -5.260  38.422   1.370  1.00  0.00    -0.502 OA
ATOM     15  H   UNL     1      -5.903  38.465   0.588  1.00  0.00     0.293 HD
ENDBRANCH   2  14
BRANCH   3  16
ATOM     16  O   UNL     1      -4.204  39.420  -1.032  1.00  0.00    -0.502 OA
ATOM     17  H   UNL     1      -5.095  39.873  -1.200  1.00  0.00     0.293 HD
ENDBRANCH   3  16
TORSDOF 3
ENDMDL
MODEL 6
REMARK VINA RESULT:    -4.947     19.375     21.441
REMARK INTER + INTRA:          -5.586
REMARK INTER:                  -5.517
REMARK INTRA:                  -0.069
REMARK UNBOUND:                -0.061
REMARK SMILES COc1cc2ccc(=O)oc2c(O)c1O
REMARK SMILES IDX 3 1 14 2 12 3 11 4 5 5 4 6 6 7 7 8 8 9 9 10 10 11 2 12 1 13
REMARK SMILES IDX 15 14 13 16
REMARK H PARENT 15 15 13 17
REMARK Flexibility Score: inf
ROOT
ATOM      1  C   UNL     1      -2.994  39.433   1.684  1.00  0.00     0.165 A 
ATOM      2  C   UNL     1      -1.763  39.963   2.101  1.00  0.00     0.204 A 
ATOM      3  C   UNL     1      -0.917  40.609   1.180  1.00  0.00     0.205 A 
ATOM      4  C   UNL     1      -1.307  40.726  -0.164  1.00  0.00     0.184 A 
ATOM      5  C   UNL     1      -2.545  40.194  -0.584  1.00  0.00     0.025 A 
ATOM      6  C   UNL     1      -3.382  39.553   0.336  1.00  0.00     0.062 A 
ATOM      7  C   UNL     1      -2.907  40.326  -1.929  1.00  0.00     0.020 A 
ATOM      8  C   UNL     1      -2.044  40.973  -2.812  1.00  0.00     0.094 A 
ATOM      9  C   UNL     1      -0.833  41.475  -2.326  1.00  0.00     0.336 A 
ATOM     10  O   UNL     1      -0.039  42.062  -3.107  1.00  0.00    -0.246 OA
ATOM     11  O   UNL     1      -0.513  41.337  -1.043  1.00  0.00    -0.419 OA
ENDROOT
BRANCH   1  12
ATOM     12  O   UNL     1      -3.803  38.798   2.639  1.00  0.00    -0.493 OA
ATOM     13  C   UNL     1      -4.939  39.392   3.259  1.00  0.00     0.278 C 
ENDBRANCH   1  12
BRANCH   2  14
ATOM     14  O   UNL     1      -1.392  39.836   3.440  1.00  0.00    -0.502 OA
ATOM     15  H   UNL     1      -0.433  39.674   3.723  1.00  0.00     0.293 HD
ENDBRANCH   2  14
BRANCH   3  16
ATOM     16  O   UNL     1       0.304  41.128   1.615  1.00  0.00    -0.502 OA
ATOM     17  H   UNL     1       1.043  41.383   0.970  1.00  0.00     0.293 HD
ENDBRANCH   3  16
TORSDOF 3
ENDMDL
MODEL 7
REMARK VINA RESULT:    -4.939      1.954      4.703
REMARK INTER + INTRA:          -5.578
REMARK INTER:                  -5.516
REMARK INTRA:                  -0.061
REMARK UNBOUND:                -0.061
REMARK SMILES COc1cc2ccc(=O)oc2c(O)c1O
REMARK SMILES IDX 3 1 14 2 12 3 11 4 5 5 4 6 6 7 7 8 8 9 9 10 10 11 2 12 1 13
REMARK SMILES IDX 15 14 13 16
REMARK H PARENT 15 15 13 17
REMARK Flexibility Score: inf
ROOT
ATOM      1  C   UNL     1       6.226  24.128  11.989  1.00  0.00     0.165 A 
ATOM      2  C   UNL     1       5.152  24.944  11.602  1.00  0.00     0.204 A 
ATOM      3  C   UNL     1       5.025  26.247  12.119  1.00  0.00     0.205 A 
ATOM      4  C   UNL     1       5.979  26.734  13.028  1.00  0.00     0.184 A 
ATOM      5  C   UNL     1       7.060  25.913  13.418  1.00  0.00     0.025 A 
ATOM      6  C   UNL     1       7.181  24.619  12.899  1.00  0.00     0.062 A 
ATOM      7  C   UNL     1       7.994  26.425  14.324  1.00  0.00     0.020 A 
ATOM      8  C   UNL     1       7.836  27.720  14.815  1.00  0.00     0.094 A 
ATOM      9  C   UNL     1       6.741  28.476  14.386  1.00  0.00     0.336 A 
ATOM     10  O   UNL     1       6.579  29.648  14.818  1.00  0.00    -0.246 OA
ATOM     11  O   UNL     1       5.867  27.965  13.524  1.00  0.00    -0.419 OA
ENDROOT
BRANCH   1  12
ATOM     12  O   UNL     1       6.310  22.836  11.445  1.00  0.00    -0.493 OA
ATOM     13  C   UNL     1       7.465  22.302  10.807  1.00  0.00     0.278 C 
ENDBRANCH   1  12
BRANCH   2  14
ATOM     14  O   UNL     1       4.214  24.443  10.698  1.00  0.00    -0.502 OA
ATOM     15  H   UNL     1       3.555  23.716  10.951  1.00  0.00     0.293 HD
ENDBRANCH   2  14
BRANCH   3  16
ATOM     16  O   UNL     1       3.949  27.043  11.723  1.00  0.00    -0.502 OA
ATOM     17  H   UNL     1       4.054  27.803  11.061  1.00  0.00     0.293 HD
ENDBRANCH   3  16
TORSDOF 3
ENDMDL
MODEL 8
REMARK VINA RESULT:    -4.836      1.876      3.141
REMARK INTER + INTRA:          -5.462
REMARK INTER:                  -5.392
REMARK INTRA:                  -0.070
REMARK UNBOUND:                -0.061
REMARK SMILES COc1cc2ccc(=O)oc2c(O)c1O
REMARK SMILES IDX 3 1 14 2 12 3 11 4 5 5 4 6 6 7 7 8 8 9 9 10 10 11 2 12 1 13
REMARK SMILES IDX 15 14 13 16
REMARK H PARENT 15 15 13 17
REMARK Flexibility Score: inf
ROOT
ATOM      1  C   UNL     1       7.957  27.511  14.664  1.00  0.00     0.165 A 
ATOM      2  C   UNL     1       7.959  26.216  15.206  1.00  0.00     0.204 A 
ATOM      3  C   UNL     1       7.058  25.244  14.733  1.00  0.00     0.205 A 
ATOM      4  C   UNL     1       6.150  25.571  13.712  1.00  0.00     0.184 A 
ATOM      5  C   UNL     1       6.148  26.874  13.166  1.00  0.00     0.025 A 
ATOM      6  C   UNL     1       7.047  27.836  13.641  1.00  0.00     0.062 A 
ATOM      7  C   UNL     1       5.233  27.171  12.151  1.00  0.00     0.020 A 
ATOM      8  C   UNL     1       4.356  26.183  11.707  1.00  0.00     0.094 A 
ATOM      9  C   UNL     1       4.414  24.915  12.293  1.00  0.00     0.336 A 
ATOM     10  O   UNL     1       3.630  24.008  11.907  1.00  0.00    -0.246 OA
ATOM     11  O   UNL     1       5.293  24.659  13.257  1.00  0.00    -0.419 OA
ENDROOT
BRANCH   1  12
ATOM     12  O   UNL     1       8.876  28.445  15.169  1.00  0.00    -0.493 OA
ATOM     13  C   UNL     1       8.546  29.495  16.073  1.00  0.00     0.278 C 
ENDBRANCH   1  12
BRANCH   2  14
ATOM     14  O   UNL     1       8.868  25.909  16.220  1.00  0.00    -0.502 OA
ATOM     15  H   UNL     1       8.692  25.180  16.901  1.00  0.00     0.293 HD
ENDBRANCH   2  14
BRANCH   3  16
ATOM     16  O   UNL     1       7.075  23.962  15.285  1.00  0.00    -0.502 OA
ATOM     17  H   UNL     1       6.232  23.411  15.397  1.00  0.00     0.293 HD
ENDBRANCH   3  16
TORSDOF 3
ENDMDL
MODEL 9
REMARK VINA RESULT:    -4.767     19.563     20.980
REMARK INTER + INTRA:          -5.385
REMARK INTER:                  -5.334
REMARK INTRA:                  -0.051
REMARK UNBOUND:                -0.061
REMARK SMILES COc1cc2ccc(=O)oc2c(O)c1O
REMARK SMILES IDX 3 1 14 2 12 3 11 4 5 5 4 6 6 7 7 8 8 9 9 10 10 11 2 12 1 13
REMARK SMILES IDX 15 14 13 16
REMARK H PARENT 15 15 13 17
REMARK Flexibility Score: inf
ROOT
ATOM      1  C   UNL     1      -1.077  40.985  -0.296  1.00  0.00     0.165 A 
ATOM      2  C   UNL     1      -0.781  40.698   1.045  1.00  0.00     0.204 A 
ATOM      3  C   UNL     1      -1.744  40.091   1.874  1.00  0.00     0.205 A 
ATOM      4  C   UNL     1      -3.009  39.770   1.355  1.00  0.00     0.184 A 
ATOM      5  C   UNL     1      -3.307  40.058   0.005  1.00  0.00     0.025 A 
ATOM      6  C   UNL     1      -2.345  40.661  -0.813  1.00  0.00     0.062 A 
ATOM      7  C   UNL     1      -4.575  39.726  -0.484  1.00  0.00     0.020 A 
ATOM      8  C   UNL     1      -5.503  39.126   0.365  1.00  0.00     0.094 A 
ATOM      9  C   UNL     1      -5.139  38.870   1.691  1.00  0.00     0.336 A 
ATOM     10  O   UNL     1      -5.962  38.329   2.475  1.00  0.00    -0.246 OA
ATOM     11  O   UNL     1      -3.927  39.196   2.131  1.00  0.00    -0.419 OA
ENDROOT
BRANCH   1  12
ATOM     12  O   UNL     1      -0.084  41.590  -1.082  1.00  0.00    -0.493 OA
ATOM     13  C   UNL     1      -0.149  41.732  -2.498  1.00  0.00     0.278 C 
ENDBRANCH   1  12
BRANCH   2  14
ATOM     14  O   UNL     1       0.481  41.026   1.544  1.00  0.00    -0.502 OA
ATOM     15  H   UNL     1       1.300  41.080   0.949  1.00  0.00     0.293 HD
ENDBRANCH   2  14
BRANCH   3  16
ATOM     16  O   UNL     1      -1.430  39.815   3.206  1.00  0.00    -0.502 OA
ATOM     17  H   UNL     1      -0.679  39.186   3.464  1.00  0.00     0.293 HD
ENDBRANCH   3  16
TORSDOF 3
ENDMDL
