MODEL 1
REMARK VINA RESULT:    -4.113      0.000      0.000
REMARK INTER + INTRA:          -7.946
REMARK INTER:                  -6.277
REMARK INTRA:                  -1.669
REMARK UNBOUND:                -1.669
REMARK SMILES C=CCCCCCCCCCC
REMARK SMILES IDX 7 1 8 2 9 3 10 4 11 5 12 6 6 7 5 8 4 9 3 10 2 11 1 12
REMARK H PARENT
REMARK Flexibility Score: inf
ROOT
ATOM      1  C   UNL     1     143.877 147.298 132.696  1.00  0.00     0.000 C 
ENDROOT
BRANCH   1   2
ATOM      2  C   UNL     1     145.263 147.466 133.348  1.00  0.00    -0.000 C 
BRANCH   2   3
ATOM      3  C   UNL     1     146.428 147.650 132.358  1.00  0.00    -0.000 C 
BRANCH   3   4
ATOM      4  C   UNL     1     146.118 147.245 130.902  1.00  0.00    -0.000 C 
BRANCH   4   5
ATOM      5  C   UNL     1     146.245 145.740 130.606  1.00  0.00    -0.003 C 
ATOM      6  C   UNL     1     145.018 145.163 129.903  1.00  0.00     0.004 C 
ENDBRANCH   4   5
ENDBRANCH   3   4
ENDBRANCH   2   3
ENDBRANCH   1   2
BRANCH   1   7
ATOM      7  C   UNL     1     143.101 146.059 133.195  1.00  0.00     0.000 C 
BRANCH   7   8
ATOM      8  C   UNL     1     144.000 145.070 133.959  1.00  0.00     0.000 C 
BRANCH   8   9
ATOM      9  C   UNL     1     144.207 143.752 133.196  1.00  0.00     0.004 C 
BRANCH   9  10
ATOM     10  C   UNL     1     145.681 143.318 133.159  1.00  0.00     0.027 C 
BRANCH  10  11
ATOM     11  C   UNL     1     146.529 144.204 134.029  1.00  0.00    -0.035 C 
ATOM     12  C   UNL     1     147.723 144.650 133.627  1.00  0.00     0.004 C 
ENDBRANCH  10  11
ENDBRANCH   9  10
ENDBRANCH   8   9
ENDBRANCH   7   8
ENDBRANCH   1   7
TORSDOF 9
ENDMDL
MODEL 2
REMARK VINA RESULT:    -4.105      1.167      4.134
REMARK INTER + INTRA:          -7.934
REMARK INTER:                  -6.549
REMARK INTRA:                  -1.386
REMARK UNBOUND:                -1.669
REMARK SMILES C=CCCCCCCCCCC
REMARK SMILES IDX 7 1 8 2 9 3 10 4 11 5 12 6 6 7 5 8 4 9 3 10 2 11 1 12
REMARK H PARENT
REMARK Flexibility Score: inf
ROOT
ATOM      1  C   UNL     1     147.242 144.529 131.876  1.00  0.00     0.000 C 
ENDROOT
BRANCH   1   2
ATOM      2  C   UNL     1     146.479 144.991 130.619  1.00  0.00    -0.000 C 
BRANCH   2   3
ATOM      3  C   UNL     1     144.979 144.645 130.606  1.00  0.00    -0.000 C 
BRANCH   3   4
ATOM      4  C   UNL     1     144.624 143.256 131.175  1.00  0.00    -0.000 C 
BRANCH   4   5
ATOM      5  C   UNL     1     143.920 143.275 132.543  1.00  0.00    -0.003 C 
ATOM      6  C   UNL     1     144.860 142.955 133.703  1.00  0.00     0.004 C 
ENDBRANCH   4   5
ENDBRANCH   3   4
ENDBRANCH   2   3
ENDBRANCH   1   2
BRANCH   1   7
ATOM      7  C   UNL     1     147.319 145.601 132.985  1.00  0.00     0.000 C 
BRANCH   7   8
ATOM      8  C   UNL     1     146.898 146.995 132.487  1.00  0.00     0.000 C 
BRANCH   8   9
ATOM      9  C   UNL     1     145.801 147.626 133.359  1.00  0.00     0.004 C 
BRANCH   9  10
ATOM     10  C   UNL     1     144.980 146.576 134.125  1.00  0.00     0.027 C 
BRANCH  10  11
ATOM     11  C   UNL     1     143.553 146.553 133.652  1.00  0.00    -0.035 C 
ATOM     12  C   UNL     1     143.215 146.926 132.414  1.00  0.00     0.004 C 
ENDBRANCH  10  11
ENDBRANCH   9  10
ENDBRANCH   8   9
ENDBRANCH   7   8
ENDBRANCH   1   7
TORSDOF 9
ENDMDL
MODEL 3
REMARK VINA RESULT:    -4.103      1.098      3.932
REMARK INTER + INTRA:          -7.930
REMARK INTER:                  -6.234
REMARK INTRA:                  -1.696
REMARK UNBOUND:                -1.669
REMARK SMILES C=CCCCCCCCCCC
REMARK SMILES IDX 7 1 8 2 9 3 10 4 11 5 12 6 6 7 5 8 4 9 3 10 2 11 1 12
REMARK H PARENT
REMARK Flexibility Score: inf
ROOT
ATOM      1  C   UNL     1     146.966 143.554 132.671  1.00  0.00     0.000 C 
ENDROOT
BRANCH   1   2
ATOM      2  C   UNL     1     145.597 143.396 133.360  1.00  0.00    -0.000 C 
BRANCH   2   3
ATOM      3  C   UNL     1     144.415 143.148 132.405  1.00  0.00    -0.000 C 
BRANCH   3   4
ATOM      4  C   UNL     1     144.653 143.583 130.944  1.00  0.00    -0.000 C 
BRANCH   4   5
ATOM      5  C   UNL     1     144.470 145.087 130.676  1.00  0.00    -0.003 C 
ATOM      6  C   UNL     1     145.644 145.707 129.920  1.00  0.00     0.004 C 
ENDBRANCH   4   5
ENDBRANCH   3   4
ENDBRANCH   2   3
ENDBRANCH   1   2
BRANCH   1   7
ATOM      7  C   UNL     1     147.697 144.864 133.035  1.00  0.00     0.000 C 
BRANCH   7   8
ATOM      8  C   UNL     1     146.812 145.827 133.846  1.00  0.00     0.000 C 
BRANCH   8   9
ATOM      9  C   UNL     1     146.504 147.127 133.086  1.00  0.00     0.004 C 
BRANCH   9  10
ATOM     10  C   UNL     1     145.054 147.595 133.282  1.00  0.00     0.027 C 
BRANCH  10  11
ATOM     11  C   UNL     1     144.278 146.618 134.121  1.00  0.00    -0.035 C 
ATOM     12  C   UNL     1     143.084 146.154 133.739  1.00  0.00     0.004 C 
ENDBRANCH  10  11
ENDBRANCH   9  10
ENDBRANCH   8   9
ENDBRANCH   7   8
ENDBRANCH   1   7
TORSDOF 9
ENDMDL
MODEL 4
REMARK VINA RESULT:    -4.086      0.986      3.269
REMARK INTER + INTRA:          -7.905
REMARK INTER:                  -6.315
REMARK INTRA:                  -1.589
REMARK UNBOUND:                -1.669
REMARK SMILES C=CCCCCCCCCCC
REMARK SMILES IDX 7 1 8 2 9 3 10 4 11 5 12 6 6 7 5 8 4 9 3 10 2 11 1 12
REMARK H PARENT
REMARK Flexibility Score: inf
ROOT
ATOM      1  C   UNL     1     146.427 147.310 131.361  1.00  0.00     0.000 C 
ENDROOT
BRANCH   1   2
ATOM      2  C   UNL     1     145.612 146.353 130.470  1.00  0.00    -0.000 C 
BRANCH   2   3
ATOM      3  C   UNL     1     146.068 144.882 130.511  1.00  0.00    -0.000 C 
BRANCH   3   4
ATOM      4  C   UNL     1     147.392 144.629 131.261  1.00  0.00    -0.000 C 
BRANCH   4   5
ATOM      5  C   UNL     1     147.245 143.893 132.604  1.00  0.00    -0.003 C 
ATOM      6  C   UNL     1     147.601 144.765 133.806  1.00  0.00     0.004 C 
ENDBRANCH   4   5
ENDBRANCH   3   4
ENDBRANCH   2   3
ENDBRANCH   1   2
BRANCH   1   7
ATOM      7  C   UNL     1     145.739 147.649 132.702  1.00  0.00     0.000 C 
BRANCH   7   8
ATOM      8  C   UNL     1     144.293 147.125 132.770  1.00  0.00     0.000 C 
BRANCH   8   9
ATOM      9  C   UNL     1     143.964 146.479 134.125  1.00  0.00     0.004 C 
BRANCH   9  10
ATOM     10  C   UNL     1     144.066 144.946 134.086  1.00  0.00     0.027 C 
BRANCH  10  11
ATOM     11  C   UNL     1     143.508 144.398 132.802  1.00  0.00    -0.035 C 
ATOM     12  C   UNL     1     143.759 143.147 132.402  1.00  0.00     0.004 C 
ENDBRANCH  10  11
ENDBRANCH   9  10
ENDBRANCH   8   9
ENDBRANCH   7   8
ENDBRANCH   1   7
TORSDOF 9
ENDMDL
MODEL 5
REMARK VINA RESULT:    -4.046      0.875      2.668
REMARK INTER + INTRA:          -7.843
REMARK INTER:                  -6.555
REMARK INTRA:                  -1.288
REMARK UNBOUND:                -1.669
REMARK SMILES C=CCCCCCCCCCC
REMARK SMILES IDX 7 1 8 2 9 3 10 4 11 5 12 6 6 7 5 8 4 9 3 10 2 11 1 12
REMARK H PARENT
REMARK Flexibility Score: inf
ROOT
ATOM      1  C   UNL     1     145.954 146.018 130.306  1.00  0.00     0.000 C 
ENDROOT
BRANCH   1   2
ATOM      2  C   UNL     1     146.123 147.378 131.012  1.00  0.00    -0.000 C 
BRANCH   2   3
ATOM      3  C   UNL     1     146.508 147.293 132.500  1.00  0.00    -0.000 C 
BRANCH   3   4
ATOM      4  C   UNL     1     145.397 147.707 133.487  1.00  0.00    -0.000 C 
BRANCH   4   5
ATOM      5  C   UNL     1     144.625 146.539 134.123  1.00  0.00    -0.003 C 
ATOM      6  C   UNL     1     143.208 146.388 133.573  1.00  0.00     0.004 C 
ENDBRANCH   4   5
ENDBRANCH   3   4
ENDBRANCH   2   3
ENDBRANCH   1   2
BRANCH   1   7
ATOM      7  C   UNL     1     144.596 145.338 130.584  1.00  0.00     0.000 C 
BRANCH   7   8
ATOM      8  C   UNL     1     144.729 143.819 130.789  1.00  0.00     0.000 C 
BRANCH   8   9
ATOM      9  C   UNL     1     144.113 143.347 132.116  1.00  0.00     0.004 C 
BRANCH   9  10
ATOM     10  C   UNL     1     145.171 143.111 133.205  1.00  0.00     0.027 C 
BRANCH  10  11
ATOM     11  C   UNL     1     146.551 143.427 132.699  1.00  0.00    -0.035 C 
ATOM     12  C   UNL     1     147.376 144.240 133.365  1.00  0.00     0.004 C 
ENDBRANCH  10  11
ENDBRANCH   9  10
ENDBRANCH   8   9
ENDBRANCH   7   8
ENDBRANCH   1   7
TORSDOF 9
ENDMDL
MODEL 6
REMARK VINA RESULT:    -4.033      1.151      3.341
REMARK INTER + INTRA:          -7.824
REMARK INTER:                  -6.232
REMARK INTRA:                  -1.592
REMARK UNBOUND:                -1.669
REMARK SMILES C=CCCCCCCCCCC
REMARK SMILES IDX 7 1 8 2 9 3 10 4 11 5 12 6 6 7 5 8 4 9 3 10 2 11 1 12
REMARK H PARENT
REMARK Flexibility Score: inf
ROOT
ATOM      1  C   UNL     1     147.547 144.358 132.961  1.00  0.00     0.000 C 
ENDROOT
BRANCH   1   2
ATOM      2  C   UNL     1     146.936 145.549 133.724  1.00  0.00    -0.000 C 
BRANCH   2   3
ATOM      3  C   UNL     1     146.848 146.859 132.920  1.00  0.00    -0.000 C 
BRANCH   3   4
ATOM      4  C   UNL     1     145.536 147.651 133.099  1.00  0.00    -0.000 C 
BRANCH   4   5
ATOM      5  C   UNL     1     144.444 146.922 133.901  1.00  0.00    -0.003 C 
ATOM      6  C   UNL     1     143.172 146.676 133.091  1.00  0.00     0.004 C 
ENDBRANCH   4   5
ENDBRANCH   3   4
ENDBRANCH   2   3
ENDBRANCH   1   2
BRANCH   1   7
ATOM      7  C   UNL     1     146.580 143.166 132.792  1.00  0.00     0.000 C 
BRANCH   7   8
ATOM      8  C   UNL     1     145.220 143.411 133.469  1.00  0.00     0.000 C 
BRANCH   8   9
ATOM      9  C   UNL     1     144.047 143.344 132.477  1.00  0.00     0.004 C 
BRANCH   9  10
ATOM     10  C   UNL     1     144.506 143.454 131.015  1.00  0.00     0.027 C 
BRANCH  10  11
ATOM     11  C   UNL     1     144.500 144.884 130.550  1.00  0.00    -0.035 C 
ATOM     12  C   UNL     1     145.559 145.433 129.946  1.00  0.00     0.004 C 
ENDBRANCH  10  11
ENDBRANCH   9  10
ENDBRANCH   8   9
ENDBRANCH   7   8
ENDBRANCH   1   7
TORSDOF 9
ENDMDL
MODEL 7
REMARK VINA RESULT:    -4.020      0.486      3.762
REMARK INTER + INTRA:          -7.803
REMARK INTER:                  -6.235
REMARK INTRA:                  -1.568
REMARK UNBOUND:                -1.669
REMARK SMILES C=CCCCCCCCCCC
REMARK SMILES IDX 7 1 8 2 9 3 10 4 11 5 12 6 6 7 5 8 4 9 3 10 2 11 1 12
REMARK H PARENT
REMARK Flexibility Score: inf
ROOT
ATOM      1  C   UNL     1     143.124 146.344 133.253  1.00  0.00     0.000 C 
ENDROOT
BRANCH   1   2
ATOM      2  C   UNL     1     143.864 145.141 133.869  1.00  0.00    -0.000 C 
BRANCH   2   3
ATOM      3  C   UNL     1     143.883 143.874 132.994  1.00  0.00    -0.000 C 
BRANCH   3   4
ATOM      4  C   UNL     1     145.206 143.080 133.021  1.00  0.00    -0.000 C 
BRANCH   4   5
ATOM      5  C   UNL     1     146.411 143.847 133.591  1.00  0.00    -0.003 C 
ATOM      6  C   UNL     1     147.625 143.829 132.664  1.00  0.00     0.004 C 
ENDBRANCH   4   5
ENDBRANCH   3   4
ENDBRANCH   2   3
ENDBRANCH   1   2
BRANCH   1   7
ATOM      7  C   UNL     1     144.065 147.427 132.681  1.00  0.00     0.000 C 
BRANCH   7   8
ATOM      8  C   UNL     1     145.437 147.443 133.378  1.00  0.00     0.000 C 
BRANCH   8   9
ATOM      9  C   UNL     1     146.602 147.297 132.388  1.00  0.00     0.004 C 
BRANCH   9  10
ATOM     10  C   UNL     1     146.131 147.250 130.926  1.00  0.00     0.027 C 
BRANCH  10  11
ATOM     11  C   UNL     1     146.139 145.842 130.398  1.00  0.00    -0.035 C 
ATOM     12  C   UNL     1     145.027 145.253 129.947  1.00  0.00     0.004 C 
ENDBRANCH  10  11
ENDBRANCH   9  10
ENDBRANCH   8   9
ENDBRANCH   7   8
ENDBRANCH   1   7
TORSDOF 9
ENDMDL
MODEL 8
REMARK VINA RESULT:    -4.017      1.058      2.613
REMARK INTER + INTRA:          -7.799
REMARK INTER:                  -6.058
REMARK INTRA:                  -1.741
REMARK UNBOUND:                -1.669
REMARK SMILES C=CCCCCCCCCCC
REMARK SMILES IDX 7 1 8 2 9 3 10 4 11 5 12 6 6 7 5 8 4 9 3 10 2 11 1 12
REMARK H PARENT
REMARK Flexibility Score: inf
ROOT
ATOM      1  C   UNL     1     145.269 147.763 133.115  1.00  0.00     0.000 C 
ENDROOT
BRANCH   1   2
ATOM      2  C   UNL     1     144.257 146.783 133.740  1.00  0.00    -0.000 C 
BRANCH   2   3
ATOM      3  C   UNL     1     143.230 146.196 132.754  1.00  0.00    -0.000 C 
BRANCH   3   4
ATOM      4  C   UNL     1     143.561 146.405 131.262  1.00  0.00    -0.000 C 
BRANCH   4   5
ATOM      5  C   UNL     1     144.306 145.237 130.593  1.00  0.00    -0.003 C 
ATOM      6  C   UNL     1     145.650 145.648 129.995  1.00  0.00     0.004 C 
ENDBRANCH   4   5
ENDBRANCH   3   4
ENDBRANCH   2   3
ENDBRANCH   1   2
BRANCH   1   7
ATOM      7  C   UNL     1     146.700 147.195 133.008  1.00  0.00     0.000 C 
BRANCH   7   8
ATOM      8  C   UNL     1     146.885 145.906 133.828  1.00  0.00     0.000 C 
BRANCH   8   9
ATOM      9  C   UNL     1     147.748 144.863 133.101  1.00  0.00     0.004 C 
BRANCH   9  10
ATOM     10  C   UNL     1     146.958 143.599 132.730  1.00  0.00     0.027 C 
BRANCH  10  11
ATOM     11  C   UNL     1     145.721 143.465 133.575  1.00  0.00    -0.035 C 
ATOM     12  C   UNL     1     144.611 142.883 133.112  1.00  0.00     0.004 C 
ENDBRANCH  10  11
ENDBRANCH   9  10
ENDBRANCH   8   9
ENDBRANCH   7   8
ENDBRANCH   1   7
TORSDOF 9
ENDMDL
MODEL 9
REMARK VINA RESULT:    -3.974      0.685      3.600
REMARK INTER + INTRA:          -7.734
REMARK INTER:                  -6.196
REMARK INTRA:                  -1.538
REMARK UNBOUND:                -1.669
REMARK SMILES C=CCCCCCCCCCC
REMARK SMILES IDX 7 1 8 2 9 3 10 4 11 5 12 6 6 7 5 8 4 9 3 10 2 11 1 12
REMARK H PARENT
REMARK Flexibility Score: inf
ROOT
ATOM      1  C   UNL     1     144.208 143.473 133.011  1.00  0.00     0.000 C 
ENDROOT
BRANCH   1   2
ATOM      2  C   UNL     1     143.865 144.763 133.782  1.00  0.00    -0.000 C 
BRANCH   2   3
ATOM      3  C   UNL     1     143.080 145.812 132.974  1.00  0.00    -0.000 C 
BRANCH   3   4
ATOM      4  C   UNL     1     143.783 147.176 132.816  1.00  0.00    -0.000 C 
BRANCH   4   5
ATOM      5  C   UNL     1     145.056 147.352 133.662  1.00  0.00    -0.003 C 
ATOM      6  C   UNL     1     146.247 147.860 132.852  1.00  0.00     0.004 C 
ENDBRANCH   4   5
ENDBRANCH   3   4
ENDBRANCH   2   3
ENDBRANCH   1   2
BRANCH   1   7
ATOM      7  C   UNL     1     145.669 143.008 133.197  1.00  0.00     0.000 C 
BRANCH   7   8
ATOM      8  C   UNL     1     146.586 144.136 133.702  1.00  0.00     0.000 C 
BRANCH   8   9
ATOM      9  C   UNL     1     147.579 144.612 132.629  1.00  0.00     0.004 C 
BRANCH   9  10
ATOM     10  C   UNL     1     147.105 144.289 131.204  1.00  0.00     0.027 C 
BRANCH  10  11
ATOM     11  C   UNL     1     146.340 145.440 130.613  1.00  0.00    -0.035 C 
ATOM     12  C   UNL     1     145.193 145.258 129.951  1.00  0.00     0.004 C 
ENDBRANCH  10  11
ENDBRANCH   9  10
ENDBRANCH   8   9
ENDBRANCH   7   8
ENDBRANCH   1   7
TORSDOF 9
ENDMDL
