MODEL 1
REMARK VINA RESULT:    -4.622      0.000      0.000
REMARK INTER + INTRA:         -16.427
REMARK INTER:                 -11.648
REMARK INTRA:                  -4.778
REMARK UNBOUND:                -4.778
REMARK SMILES CCCCCCCCCCCCCCCCCCCCCCCCCCCC(=O)[O-]
REMARK SMILES IDX 15 1 16 2 17 3 18 4 19 5 20 6 21 7 22 8 23 9 24 10 25 11
REMARK SMILES IDX 26 12 27 13 28 14 29 15 30 16 14 17 13 18 12 19 11 20 10 21
REMARK SMILES IDX 9 22 8 23 7 24 6 25 5 26 4 27 3 28 2 29 1 30
REMARK H PARENT
REMARK Flexibility Score: inf
ROOT
ATOM      1  C   UNL     1      19.443   9.200  35.855  1.00  0.00     0.000 C 
ENDROOT
BRANCH   1   2
ATOM      2  C   UNL     1      20.933   9.070  35.498  1.00  0.00     0.000 C 
BRANCH   2   3
ATOM      3  C   UNL     1      21.681  10.416  35.634  1.00  0.00     0.000 C 
BRANCH   3   4
ATOM      4  C   UNL     1      22.047  11.064  34.284  1.00  0.00     0.000 C 
BRANCH   4   5
ATOM      5  C   UNL     1      23.054  12.225  34.371  1.00  0.00     0.000 C 
BRANCH   5   6
ATOM      6  C   UNL     1      23.500  12.615  35.794  1.00  0.00     0.000 C 
BRANCH   6   7
ATOM      7  C   UNL     1      24.996  12.370  36.092  1.00  0.00     0.000 C 
BRANCH   7   8
ATOM      8  C   UNL     1      25.502  11.014  35.557  1.00  0.00     0.000 C 
BRANCH   8   9
ATOM      9  C   UNL     1      26.684  11.165  34.587  1.00  0.00     0.000 C 
BRANCH   9  10
ATOM     10  C   UNL     1      27.463  12.472  34.791  1.00  0.00     0.000 C 
BRANCH  10  11
ATOM     11  C   UNL     1      27.536  13.269  33.482  1.00  0.00     0.000 C 
BRANCH  11  12
ATOM     12  C   UNL     1      26.320  12.987  32.589  1.00  0.00     0.006 C 
BRANCH  12  13
ATOM     13  C   UNL     1      26.716  12.990  31.109  1.00  0.00     0.053 C 
BRANCH  13  14
ATOM     14  C   UNL     1      27.923  12.131  30.890  1.00  0.00     0.041 C 
ATOM     15  O   UNL     1      29.025  12.656  30.569  1.00  0.00    -0.550 OA
ATOM     16  O   UNL     1      27.816  10.749  30.981  1.00  0.00    -0.550 OA
ENDBRANCH  13  14
ENDBRANCH  12  13
ENDBRANCH  11  12
ENDBRANCH  10  11
ENDBRANCH   9  10
ENDBRANCH   8   9
ENDBRANCH   7   8
ENDBRANCH   6   7
ENDBRANCH   5   6
ENDBRANCH   4   5
ENDBRANCH   3   4
ENDBRANCH   2   3
ENDBRANCH   1   2
BRANCH   1  17
ATOM     17  C   UNL     1      18.604   9.587  34.628  1.00  0.00     0.000 C 
BRANCH  17  18
ATOM     18  C   UNL     1      18.295   8.384  33.720  1.00  0.00     0.000 C 
BRANCH  18  19
ATOM     19  C   UNL     1      18.532   8.614  32.213  1.00  0.00     0.000 C 
BRANCH  19  20
ATOM     20  C   UNL     1      19.790   9.448  31.897  1.00  0.00     0.000 C 
BRANCH  20  21
ATOM     21  C   UNL     1      20.096   9.519  30.391  1.00  0.00     0.000 C 
BRANCH  21  22
ATOM     22  C   UNL     1      20.611  10.911  30.008  1.00  0.00    -0.000 C 
BRANCH  22  23
ATOM     23  C   UNL     1      22.027  11.150  30.556  1.00  0.00    -0.000 C 
BRANCH  23  24
ATOM     24  C   UNL     1      22.309  12.634  30.856  1.00  0.00    -0.000 C 
BRANCH  24  25
ATOM     25  C   UNL     1      21.114  13.585  30.652  1.00  0.00    -0.000 C 
BRANCH  25  26
ATOM     26  C   UNL     1      20.479  14.052  31.976  1.00  0.00    -0.000 C 
BRANCH  26  27
ATOM     27  C   UNL     1      19.062  13.495  32.182  1.00  0.00    -0.000 C 
BRANCH  27  28
ATOM     28  C   UNL     1      18.882  12.817  33.550  1.00  0.00    -0.000 C 
BRANCH  28  29
ATOM     29  C   UNL     1      19.217  13.786  34.688  1.00  0.00    -0.003 C 
ATOM     30  C   UNL     1      19.326  13.057  36.025  1.00  0.00     0.004 C 
ENDBRANCH  28  29
ENDBRANCH  27  28
ENDBRANCH  26  27
ENDBRANCH  25  26
ENDBRANCH  24  25
ENDBRANCH  23  24
ENDBRANCH  22  23
ENDBRANCH  21  22
ENDBRANCH  20  21
ENDBRANCH  19  20
ENDBRANCH  18  19
ENDBRANCH  17  18
ENDBRANCH   1  17
TORSDOF 26
ENDMDL
MODEL 2
REMARK VINA RESULT:    -4.421      2.873      6.757
REMARK INTER + INTRA:         -15.920
REMARK INTER:                 -11.478
REMARK INTRA:                  -4.441
REMARK UNBOUND:                -4.778
REMARK SMILES CCCCCCCCCCCCCCCCCCCCCCCCCCCC(=O)[O-]
REMARK SMILES IDX 15 1 16 2 17 3 18 4 19 5 20 6 21 7 22 8 23 9 24 10 25 11
REMARK SMILES IDX 26 12 27 13 28 14 29 15 30 16 14 17 13 18 12 19 11 20 10 21
REMARK SMILES IDX 9 22 8 23 7 24 6 25 5 26 4 27 3 28 2 29 1 30
REMARK H PARENT
REMARK Flexibility Score: inf
ROOT
ATOM      1  C   UNL     1      22.430  10.360  35.876  1.00  0.00     0.000 C 
ENDROOT
BRANCH   1   2
ATOM      2  C   UNL     1      21.309   9.574  35.177  1.00  0.00     0.000 C 
BRANCH   2   3
ATOM      3  C   UNL     1      19.944   9.769  35.873  1.00  0.00     0.000 C 
BRANCH   3   4
ATOM      4  C   UNL     1      19.142  10.975  35.347  1.00  0.00     0.000 C 
BRANCH   4   5
ATOM      5  C   UNL     1      19.227  12.244  36.214  1.00  0.00     0.000 C 
BRANCH   5   6
ATOM      6  C   UNL     1      19.107  13.580  35.455  1.00  0.00     0.000 C 
BRANCH   6   7
ATOM      7  C   UNL     1      20.445  14.144  34.927  1.00  0.00     0.000 C 
BRANCH   7   8
ATOM      8  C   UNL     1      20.402  14.482  33.421  1.00  0.00     0.000 C 
BRANCH   8   9
ATOM      9  C   UNL     1      19.254  13.771  32.688  1.00  0.00     0.000 C 
BRANCH   9  10
ATOM     10  C   UNL     1      19.642  13.303  31.278  1.00  0.00     0.000 C 
BRANCH  10  11
ATOM     11  C   UNL     1      18.570  12.368  30.703  1.00  0.00     0.000 C 
BRANCH  11  12
ATOM     12  C   UNL     1      19.156  10.993  30.358  1.00  0.00     0.006 C 
BRANCH  12  13
ATOM     13  C   UNL     1      19.707  10.302  31.609  1.00  0.00     0.053 C 
BRANCH  13  14
ATOM     14  C   UNL     1      19.174   8.906  31.710  1.00  0.00     0.041 C 
ATOM     15  O   UNL     1      18.841   8.434  32.832  1.00  0.00    -0.550 OA
ATOM     16  O   UNL     1      19.104   8.106  30.576  1.00  0.00    -0.550 OA
ENDBRANCH  13  14
ENDBRANCH  12  13
ENDBRANCH  11  12
ENDBRANCH  10  11
ENDBRANCH   9  10
ENDBRANCH   8   9
ENDBRANCH   7   8
ENDBRANCH   6   7
ENDBRANCH   5   6
ENDBRANCH   4   5
ENDBRANCH   3   4
ENDBRANCH   2   3
ENDBRANCH   1   2
BRANCH   1  17
ATOM     17  C   UNL     1      22.844  11.593  35.059  1.00  0.00     0.000 C 
BRANCH  17  18
ATOM     18  C   UNL     1      22.506  11.453  33.565  1.00  0.00     0.000 C 
BRANCH  18  19
ATOM     19  C   UNL     1      23.294  12.380  32.618  1.00  0.00     0.000 C 
BRANCH  19  20
ATOM     20  C   UNL     1      22.928  12.212  31.129  1.00  0.00     0.000 C 
BRANCH  20  21
ATOM     21  C   UNL     1      24.082  12.589  30.184  1.00  0.00     0.000 C 
BRANCH  21  22
ATOM     22  C   UNL     1      25.313  13.033  30.982  1.00  0.00    -0.000 C 
BRANCH  22  23
ATOM     23  C   UNL     1      26.613  12.638  30.262  1.00  0.00    -0.000 C 
BRANCH  23  24
ATOM     24  C   UNL     1      27.471  11.652  31.078  1.00  0.00    -0.000 C 
BRANCH  24  25
ATOM     25  C   UNL     1      28.371  12.296  32.151  1.00  0.00    -0.000 C 
BRANCH  25  26
ATOM     26  C   UNL     1      28.297  11.578  33.513  1.00  0.00    -0.000 C 
BRANCH  26  27
ATOM     27  C   UNL     1      26.853  11.284  33.950  1.00  0.00    -0.000 C 
BRANCH  27  28
ATOM     28  C   UNL     1      26.334  12.281  34.998  1.00  0.00    -0.000 C 
BRANCH  28  29
ATOM     29  C   UNL     1      27.472  13.159  35.528  1.00  0.00    -0.003 C 
ATOM     30  C   UNL     1      27.277  14.620  35.133  1.00  0.00     0.004 C 
ENDBRANCH  28  29
ENDBRANCH  27  28
ENDBRANCH  26  27
ENDBRANCH  25  26
ENDBRANCH  24  25
ENDBRANCH  23  24
ENDBRANCH  22  23
ENDBRANCH  21  22
ENDBRANCH  20  21
ENDBRANCH  19  20
ENDBRANCH  18  19
ENDBRANCH  17  18
ENDBRANCH   1  17
TORSDOF 26
ENDMDL
MODEL 3
REMARK VINA RESULT:    -4.344      2.056      4.005
REMARK INTER + INTRA:         -15.725
REMARK INTER:                 -11.276
REMARK INTRA:                  -4.449
REMARK UNBOUND:                -4.778
REMARK SMILES CCCCCCCCCCCCCCCCCCCCCCCCCCCC(=O)[O-]
REMARK SMILES IDX 15 1 16 2 17 3 18 4 19 5 20 6 21 7 22 8 23 9 24 10 25 11
REMARK SMILES IDX 26 12 27 13 28 14 29 15 30 16 14 17 13 18 12 19 11 20 10 21
REMARK SMILES IDX 9 22 8 23 7 24 6 25 5 26 4 27 3 28 2 29 1 30
REMARK H PARENT
REMARK Flexibility Score: inf
ROOT
ATOM      1  C   UNL     1      21.948  12.891  33.877  1.00  0.00     0.000 C 
ENDROOT
BRANCH   1   2
ATOM      2  C   UNL     1      22.327  11.880  32.783  1.00  0.00     0.000 C 
BRANCH   2   3
ATOM      3  C   UNL     1      22.538  12.561  31.412  1.00  0.00     0.000 C 
BRANCH   3   4
ATOM      4  C   UNL     1      23.819  12.111  30.683  1.00  0.00     0.000 C 
BRANCH   4   5
ATOM      5  C   UNL     1      24.652  13.249  30.065  1.00  0.00     0.000 C 
BRANCH   5   6
ATOM      6  C   UNL     1      25.969  13.581  30.793  1.00  0.00     0.000 C 
BRANCH   6   7
ATOM      7  C   UNL     1      27.218  12.873  30.224  1.00  0.00     0.000 C 
BRANCH   7   8
ATOM      8  C   UNL     1      28.329  12.673  31.277  1.00  0.00     0.000 C 
BRANCH   8   9
ATOM      9  C   UNL     1      27.998  11.555  32.280  1.00  0.00     0.000 C 
BRANCH   9  10
ATOM     10  C   UNL     1      28.380  11.912  33.723  1.00  0.00     0.000 C 
BRANCH  10  11
ATOM     11  C   UNL     1      27.591  11.054  34.720  1.00  0.00     0.000 C 
BRANCH  11  12
ATOM     12  C   UNL     1      26.081  11.141  34.458  1.00  0.00     0.006 C 
BRANCH  12  13
ATOM     13  C   UNL     1      25.642  12.595  34.263  1.00  0.00     0.053 C 
BRANCH  13  14
ATOM     14  C   UNL     1      25.752  13.350  35.552  1.00  0.00     0.041 C 
ATOM     15  O   UNL     1      26.513  14.353  35.636  1.00  0.00    -0.550 OA
ATOM     16  O   UNL     1      25.062  12.909  36.674  1.00  0.00    -0.550 OA
ENDBRANCH  13  14
ENDBRANCH  12  13
ENDBRANCH  11  12
ENDBRANCH  10  11
ENDBRANCH   9  10
ENDBRANCH   8   9
ENDBRANCH   7   8
ENDBRANCH   6   7
ENDBRANCH   5   6
ENDBRANCH   4   5
ENDBRANCH   3   4
ENDBRANCH   2   3
ENDBRANCH   1   2
BRANCH   1  17
ATOM     17  C   UNL     1      22.113  12.288  35.279  1.00  0.00     0.000 C 
BRANCH  17  18
ATOM     18  C   UNL     1      22.354  10.769  35.245  1.00  0.00     0.000 C 
BRANCH  18  19
ATOM     19  C   UNL     1      21.229   9.906  35.852  1.00  0.00     0.000 C 
BRANCH  19  20
ATOM     20  C   UNL     1      19.954   9.842  34.988  1.00  0.00     0.000 C 
BRANCH  20  21
ATOM     21  C   UNL     1      20.210   9.260  33.587  1.00  0.00     0.000 C 
BRANCH  21  22
ATOM     22  C   UNL     1      19.175   9.784  32.585  1.00  0.00    -0.000 C 
BRANCH  22  23
ATOM     23  C   UNL     1      19.734   9.773  31.153  1.00  0.00    -0.000 C 
BRANCH  23  24
ATOM     24  C   UNL     1      19.354  11.035  30.354  1.00  0.00    -0.000 C 
BRANCH  24  25
ATOM     25  C   UNL     1      18.292  11.936  31.014  1.00  0.00    -0.000 C 
BRANCH  25  26
ATOM     26  C   UNL     1      18.852  13.296  31.471  1.00  0.00    -0.000 C 
BRANCH  26  27
ATOM     27  C   UNL     1      18.064  13.898  32.645  1.00  0.00    -0.000 C 
BRANCH  27  28
ATOM     28  C   UNL     1      18.822  13.812  33.978  1.00  0.00    -0.000 C 
BRANCH  28  29
ATOM     29  C   UNL     1      18.027  13.005  35.009  1.00  0.00    -0.003 C 
ATOM     30  C   UNL     1      18.663  13.092  36.394  1.00  0.00     0.004 C 
ENDBRANCH  28  29
ENDBRANCH  27  28
ENDBRANCH  26  27
ENDBRANCH  25  26
ENDBRANCH  24  25
ENDBRANCH  23  24
ENDBRANCH  22  23
ENDBRANCH  21  22
ENDBRANCH  20  21
ENDBRANCH  19  20
ENDBRANCH  18  19
ENDBRANCH  17  18
ENDBRANCH   1  17
TORSDOF 26
ENDMDL
MODEL 4
REMARK VINA RESULT:    -4.327      2.011      4.408
REMARK INTER + INTRA:         -15.683
REMARK INTER:                 -11.025
REMARK INTRA:                  -4.659
REMARK UNBOUND:                -4.778
REMARK SMILES CCCCCCCCCCCCCCCCCCCCCCCCCCCC(=O)[O-]
REMARK SMILES IDX 15 1 16 2 17 3 18 4 19 5 20 6 21 7 22 8 23 9 24 10 25 11
REMARK SMILES IDX 26 12 27 13 28 14 29 15 30 16 14 17 13 18 12 19 11 20 10 21
REMARK SMILES IDX 9 22 8 23 7 24 6 25 5 26 4 27 3 28 2 29 1 30
REMARK H PARENT
REMARK Flexibility Score: inf
ROOT
ATOM      1  C   UNL     1      21.416  12.466  35.658  1.00  0.00     0.000 C 
ENDROOT
BRANCH   1   2
ATOM      2  C   UNL     1      21.971  12.962  34.314  1.00  0.00     0.000 C 
BRANCH   2   3
ATOM      3  C   UNL     1      22.371  11.794  33.385  1.00  0.00     0.000 C 
BRANCH   3   4
ATOM      4  C   UNL     1      22.757  12.236  31.960  1.00  0.00     0.000 C 
BRANCH   4   5
ATOM      5  C   UNL     1      24.244  12.584  31.765  1.00  0.00     0.000 C 
BRANCH   5   6
ATOM      6  C   UNL     1      24.660  12.946  30.326  1.00  0.00     0.000 C 
BRANCH   6   7
ATOM      7  C   UNL     1      26.159  13.278  30.152  1.00  0.00     0.000 C 
BRANCH   7   8
ATOM      8  C   UNL     1      27.082  12.085  30.483  1.00  0.00     0.000 C 
BRANCH   8   9
ATOM      9  C   UNL     1      28.351  12.511  31.238  1.00  0.00     0.000 C 
BRANCH   9  10
ATOM     10  C   UNL     1      28.165  12.528  32.762  1.00  0.00     0.000 C 
BRANCH  10  11
ATOM     11  C   UNL     1      27.245  11.385  33.207  1.00  0.00     0.000 C 
BRANCH  11  12
ATOM     12  C   UNL     1      27.274  11.206  34.730  1.00  0.00     0.006 C 
BRANCH  12  13
ATOM     13  C   UNL     1      26.692  12.434  35.438  1.00  0.00     0.053 C 
BRANCH  13  14
ATOM     14  C   UNL     1      25.313  12.141  35.941  1.00  0.00     0.041 C 
ATOM     15  O   UNL     1      24.673  13.018  36.585  1.00  0.00    -0.550 OA
ATOM     16  O   UNL     1      24.759  10.880  35.753  1.00  0.00    -0.550 OA
ENDBRANCH  13  14
ENDBRANCH  12  13
ENDBRANCH  11  12
ENDBRANCH  10  11
ENDBRANCH   9  10
ENDBRANCH   8   9
ENDBRANCH   7   8
ENDBRANCH   6   7
ENDBRANCH   5   6
ENDBRANCH   4   5
ENDBRANCH   3   4
ENDBRANCH   2   3
ENDBRANCH   1   2
BRANCH   1  17
ATOM     17  C   UNL     1      19.947  12.874  35.844  1.00  0.00     0.000 C 
BRANCH  17  18
ATOM     18  C   UNL     1      19.435  13.771  34.705  1.00  0.00     0.000 C 
BRANCH  18  19
ATOM     19  C   UNL     1      18.127  13.306  34.032  1.00  0.00     0.000 C 
BRANCH  19  20
ATOM     20  C   UNL     1      18.007  13.712  32.549  1.00  0.00     0.000 C 
BRANCH  20  21
ATOM     21  C   UNL     1      19.369  14.004  31.897  1.00  0.00     0.000 C 
BRANCH  21  22
ATOM     22  C   UNL     1      19.478  13.311  30.534  1.00  0.00    -0.000 C 
BRANCH  22  23
ATOM     23  C   UNL     1      18.863  11.903  30.576  1.00  0.00    -0.000 C 
BRANCH  23  24
ATOM     24  C   UNL     1      19.925  10.787  30.552  1.00  0.00    -0.000 C 
BRANCH  24  25
ATOM     25  C   UNL     1      19.645   9.591  31.483  1.00  0.00    -0.000 C 
BRANCH  25  26
ATOM     26  C   UNL     1      18.532   9.874  32.512  1.00  0.00    -0.000 C 
BRANCH  26  27
ATOM     27  C   UNL     1      19.027   9.771  33.963  1.00  0.00    -0.000 C 
BRANCH  27  28
ATOM     28  C   UNL     1      20.470   9.251  34.065  1.00  0.00    -0.000 C 
BRANCH  28  29
ATOM     29  C   UNL     1      20.855   8.988  35.524  1.00  0.00    -0.003 C 
ATOM     30  C   UNL     1      19.648   9.117  36.450  1.00  0.00     0.004 C 
ENDBRANCH  28  29
ENDBRANCH  27  28
ENDBRANCH  26  27
ENDBRANCH  25  26
ENDBRANCH  24  25
ENDBRANCH  23  24
ENDBRANCH  22  23
ENDBRANCH  21  22
ENDBRANCH  20  21
ENDBRANCH  19  20
ENDBRANCH  18  19
ENDBRANCH  17  18
ENDBRANCH   1  17
TORSDOF 26
ENDMDL
MODEL 5
REMARK VINA RESULT:    -4.324      3.202      7.501
REMARK INTER + INTRA:         -15.675
REMARK INTER:                 -11.053
REMARK INTRA:                  -4.622
REMARK UNBOUND:                -4.778
REMARK SMILES CCCCCCCCCCCCCCCCCCCCCCCCCCCC(=O)[O-]
REMARK SMILES IDX 15 1 16 2 17 3 18 4 19 5 20 6 21 7 22 8 23 9 24 10 25 11
REMARK SMILES IDX 26 12 27 13 28 14 29 15 30 16 14 17 13 18 12 19 11 20 10 21
REMARK SMILES IDX 9 22 8 23 7 24 6 25 5 26 4 27 3 28 2 29 1 30
REMARK H PARENT
REMARK Flexibility Score: inf
ROOT
ATOM      1  C   UNL     1      17.876  13.561  34.103  1.00  0.00     0.000 C 
ENDROOT
BRANCH   1   2
ATOM      2  C   UNL     1      17.957  14.005  32.634  1.00  0.00     0.000 C 
BRANCH   2   3
ATOM      3  C   UNL     1      19.411  14.021  32.112  1.00  0.00     0.000 C 
BRANCH   3   4
ATOM      4  C   UNL     1      19.522  14.025  30.575  1.00  0.00     0.000 C 
BRANCH   4   5
ATOM      5  C   UNL     1      20.775  13.331  30.010  1.00  0.00     0.000 C 
BRANCH   5   6
ATOM      6  C   UNL     1      21.864  12.980  31.042  1.00  0.00     0.000 C 
BRANCH   6   7
ATOM      7  C   UNL     1      22.125  11.467  31.216  1.00  0.00     0.000 C 
BRANCH   7   8
ATOM      8  C   UNL     1      21.157  10.591  30.392  1.00  0.00     0.000 C 
BRANCH   8   9
ATOM      9  C   UNL     1      20.175   9.804  31.274  1.00  0.00     0.000 C 
BRANCH   9  10
ATOM     10  C   UNL     1      20.234  10.218  32.752  1.00  0.00     0.000 C 
BRANCH  10  11
ATOM     11  C   UNL     1      18.822  10.302  33.346  1.00  0.00     0.000 C 
BRANCH  11  12
ATOM     12  C   UNL     1      18.528   9.102  34.257  1.00  0.00     0.006 C 
BRANCH  12  13
ATOM     13  C   UNL     1      19.593   8.970  35.350  1.00  0.00     0.053 C 
BRANCH  13  14
ATOM     14  C   UNL     1      19.084   8.121  36.473  1.00  0.00     0.041 C 
ATOM     15  O   UNL     1      18.207   7.239  36.254  1.00  0.00    -0.550 OA
ATOM     16  O   UNL     1      19.531   8.344  37.770  1.00  0.00    -0.550 OA
ENDBRANCH  13  14
ENDBRANCH  12  13
ENDBRANCH  11  12
ENDBRANCH  10  11
ENDBRANCH   9  10
ENDBRANCH   8   9
ENDBRANCH   7   8
ENDBRANCH   6   7
ENDBRANCH   5   6
ENDBRANCH   4   5
ENDBRANCH   3   4
ENDBRANCH   2   3
ENDBRANCH   1   2
BRANCH   1  17
ATOM     17  C   UNL     1      19.186  13.852  34.850  1.00  0.00     0.000 C 
BRANCH  17  18
ATOM     18  C   UNL     1      19.518  12.778  35.901  1.00  0.00     0.000 C 
BRANCH  18  19
ATOM     19  C   UNL     1      20.951  12.211  35.838  1.00  0.00     0.000 C 
BRANCH  19  20
ATOM     20  C   UNL     1      21.859  12.915  34.810  1.00  0.00     0.000 C 
BRANCH  20  21
ATOM     21  C   UNL     1      23.105  12.088  34.448  1.00  0.00     0.000 C 
BRANCH  21  22
ATOM     22  C   UNL     1      23.157  10.797  35.273  1.00  0.00    -0.000 C 
BRANCH  22  23
ATOM     23  C   UNL     1      24.433  10.734  36.127  1.00  0.00    -0.000 C 
BRANCH  23  24
ATOM     24  C   UNL     1      25.366  11.938  35.897  1.00  0.00    -0.000 C 
BRANCH  24  25
ATOM     25  C   UNL     1      26.617  11.648  35.045  1.00  0.00    -0.000 C 
BRANCH  25  26
ATOM     26  C   UNL     1      27.541  12.872  34.892  1.00  0.00    -0.000 C 
BRANCH  26  27
ATOM     27  C   UNL     1      27.483  13.485  33.484  1.00  0.00    -0.000 C 
BRANCH  27  28
ATOM     28  C   UNL     1      28.040  12.547  32.402  1.00  0.00    -0.000 C 
BRANCH  28  29
ATOM     29  C   UNL     1      27.027  12.355  31.270  1.00  0.00    -0.003 C 
ATOM     30  C   UNL     1      25.619  12.750  31.710  1.00  0.00     0.004 C 
ENDBRANCH  28  29
ENDBRANCH  27  28
ENDBRANCH  26  27
ENDBRANCH  25  26
ENDBRANCH  24  25
ENDBRANCH  23  24
ENDBRANCH  22  23
ENDBRANCH  21  22
ENDBRANCH  20  21
ENDBRANCH  19  20
ENDBRANCH  18  19
ENDBRANCH  17  18
ENDBRANCH   1  17
TORSDOF 26
ENDMDL
MODEL 6
REMARK VINA RESULT:    -4.244      2.786      7.642
REMARK INTER + INTRA:         -15.473
REMARK INTER:                 -10.853
REMARK INTRA:                  -4.620
REMARK UNBOUND:                -4.778
REMARK SMILES CCCCCCCCCCCCCCCCCCCCCCCCCCCC(=O)[O-]
REMARK SMILES IDX 15 1 16 2 17 3 18 4 19 5 20 6 21 7 22 8 23 9 24 10 25 11
REMARK SMILES IDX 26 12 27 13 28 14 29 15 30 16 14 17 13 18 12 19 11 20 10 21
REMARK SMILES IDX 9 22 8 23 7 24 6 25 5 26 4 27 3 28 2 29 1 30
REMARK H PARENT
REMARK Flexibility Score: inf
ROOT
ATOM      1  C   UNL     1      24.849  12.625  31.592  1.00  0.00     0.000 C 
ENDROOT
BRANCH   1   2
ATOM      2  C   UNL     1      23.896  12.637  30.387  1.00  0.00     0.000 C 
BRANCH   2   3
ATOM      3  C   UNL     1      22.530  11.998  30.721  1.00  0.00     0.000 C 
BRANCH   3   4
ATOM      4  C   UNL     1      21.321  12.850  30.286  1.00  0.00     0.000 C 
BRANCH   4   5
ATOM      5  C   UNL     1      20.592  13.579  31.430  1.00  0.00     0.000 C 
BRANCH   5   6
ATOM      6  C   UNL     1      19.362  14.409  31.013  1.00  0.00     0.000 C 
BRANCH   6   7
ATOM      7  C   UNL     1      18.012  13.668  31.133  1.00  0.00     0.000 C 
BRANCH   7   8
ATOM      8  C   UNL     1      18.058  12.490  32.130  1.00  0.00     0.000 C 
BRANCH   8   9
ATOM      9  C   UNL     1      17.883  11.127  31.442  1.00  0.00     0.000 C 
BRANCH   9  10
ATOM     10  C   UNL     1      18.392   9.956  32.294  1.00  0.00     0.000 C 
BRANCH  10  11
ATOM     11  C   UNL     1      19.924   9.897  32.273  1.00  0.00     0.000 C 
BRANCH  11  12
ATOM     12  C   UNL     1      20.484   9.416  33.618  1.00  0.00     0.006 C 
BRANCH  12  13
ATOM     13  C   UNL     1      19.375   9.323  34.671  1.00  0.00     0.053 C 
BRANCH  13  14
ATOM     14  C   UNL     1      19.959   9.024  36.017  1.00  0.00     0.041 C 
ATOM     15  O   UNL     1      19.243   8.504  36.917  1.00  0.00    -0.550 OA
ATOM     16  O   UNL     1      21.273   9.376  36.297  1.00  0.00    -0.550 OA
ENDBRANCH  13  14
ENDBRANCH  12  13
ENDBRANCH  11  12
ENDBRANCH  10  11
ENDBRANCH   9  10
ENDBRANCH   8   9
ENDBRANCH   7   8
ENDBRANCH   6   7
ENDBRANCH   5   6
ENDBRANCH   4   5
ENDBRANCH   3   4
ENDBRANCH   2   3
ENDBRANCH   1   2
BRANCH   1  17
ATOM     17  C   UNL     1      26.163  13.355  31.277  1.00  0.00     0.000 C 
BRANCH  17  18
ATOM     18  C   UNL     1      27.312  12.388  30.944  1.00  0.00     0.000 C 
BRANCH  18  19
ATOM     19  C   UNL     1      27.654  11.362  32.043  1.00  0.00     0.000 C 
BRANCH  19  20
ATOM     20  C   UNL     1      28.396  11.963  33.253  1.00  0.00     0.000 C 
BRANCH  20  21
ATOM     21  C   UNL     1      27.867  11.440  34.599  1.00  0.00     0.000 C 
BRANCH  21  22
ATOM     22  C   UNL     1      27.393  12.599  35.483  1.00  0.00    -0.000 C 
BRANCH  22  23
ATOM     23  C   UNL     1      25.965  13.030  35.114  1.00  0.00    -0.000 C 
BRANCH  23  24
ATOM     24  C   UNL     1      24.929  12.651  36.191  1.00  0.00    -0.000 C 
BRANCH  24  25
ATOM     25  C   UNL     1      24.089  11.398  35.882  1.00  0.00    -0.000 C 
BRANCH  25  26
ATOM     26  C   UNL     1      23.371  11.471  34.520  1.00  0.00    -0.000 C 
BRANCH  26  27
ATOM     27  C   UNL     1      22.408  12.664  34.421  1.00  0.00    -0.000 C 
BRANCH  27  28
ATOM     28  C   UNL     1      21.387  12.702  35.569  1.00  0.00    -0.000 C 
BRANCH  28  29
ATOM     29  C   UNL     1      20.012  13.151  35.064  1.00  0.00    -0.003 C 
ATOM     30  C   UNL     1      18.903  12.742  36.031  1.00  0.00     0.004 C 
ENDBRANCH  28  29
ENDBRANCH  27  28
ENDBRANCH  26  27
ENDBRANCH  25  26
ENDBRANCH  24  25
ENDBRANCH  23  24
ENDBRANCH  22  23
ENDBRANCH  21  22
ENDBRANCH  20  21
ENDBRANCH  19  20
ENDBRANCH  18  19
ENDBRANCH  17  18
ENDBRANCH   1  17
TORSDOF 26
ENDMDL
MODEL 7
REMARK VINA RESULT:    -4.208      2.703      7.103
REMARK INTER + INTRA:         -15.382
REMARK INTER:                 -11.021
REMARK INTRA:                  -4.361
REMARK UNBOUND:                -4.778
REMARK SMILES CCCCCCCCCCCCCCCCCCCCCCCCCCCC(=O)[O-]
REMARK SMILES IDX 15 1 16 2 17 3 18 4 19 5 20 6 21 7 22 8 23 9 24 10 25 11
REMARK SMILES IDX 26 12 27 13 28 14 29 15 30 16 14 17 13 18 12 19 11 20 10 21
REMARK SMILES IDX 9 22 8 23 7 24 6 25 5 26 4 27 3 28 2 29 1 30
REMARK H PARENT
REMARK Flexibility Score: inf
ROOT
ATOM      1  C   UNL     1      21.237   9.307  35.680  1.00  0.00     0.000 C 
ENDROOT
BRANCH   1   2
ATOM      2  C   UNL     1      19.758   9.113  36.053  1.00  0.00     0.000 C 
BRANCH   2   3
ATOM      3  C   UNL     1      18.809   9.659  34.963  1.00  0.00     0.000 C 
BRANCH   3   4
ATOM      4  C   UNL     1      18.672   8.736  33.736  1.00  0.00     0.000 C 
BRANCH   4   5
ATOM      5  C   UNL     1      19.441   9.196  32.484  1.00  0.00     0.000 C 
BRANCH   5   6
ATOM      6  C   UNL     1      18.598   9.911  31.410  1.00  0.00     0.000 C 
BRANCH   6   7
ATOM      7  C   UNL     1      19.408  10.463  30.216  1.00  0.00     0.000 C 
BRANCH   7   8
ATOM      8  C   UNL     1      20.843  10.882  30.603  1.00  0.00     0.000 C 
BRANCH   8   9
ATOM      9  C   UNL     1      21.140  12.353  30.270  1.00  0.00     0.000 C 
BRANCH   9  10
ATOM     10  C   UNL     1      20.845  13.303  31.439  1.00  0.00     0.000 C 
BRANCH  10  11
ATOM     11  C   UNL     1      19.511  14.028  31.224  1.00  0.00     0.000 C 
BRANCH  11  12
ATOM     12  C   UNL     1      18.691  14.086  32.520  1.00  0.00     0.006 C 
BRANCH  12  13
ATOM     13  C   UNL     1      19.116  12.976  33.486  1.00  0.00     0.053 C 
BRANCH  13  14
ATOM     14  C   UNL     1      19.445  13.553  34.829  1.00  0.00     0.041 C 
ATOM     15  O   UNL     1      20.530  14.173  35.004  1.00  0.00    -0.550 OA
ATOM     16  O   UNL     1      18.583  13.352  35.900  1.00  0.00    -0.550 OA
ENDBRANCH  13  14
ENDBRANCH  12  13
ENDBRANCH  11  12
ENDBRANCH  10  11
ENDBRANCH   9  10
ENDBRANCH   8   9
ENDBRANCH   7   8
ENDBRANCH   6   7
ENDBRANCH   5   6
ENDBRANCH   4   5
ENDBRANCH   3   4
ENDBRANCH   2   3
ENDBRANCH   1   2
BRANCH   1  17
ATOM     17  C   UNL     1      21.581  10.793  35.506  1.00  0.00     0.000 C 
BRANCH  17  18
ATOM     18  C   UNL     1      22.225  11.095  34.142  1.00  0.00     0.000 C 
BRANCH  18  19
ATOM     19  C   UNL     1      23.410  12.081  34.171  1.00  0.00     0.000 C 
BRANCH  19  20
ATOM     20  C   UNL     1      23.757  12.601  35.581  1.00  0.00     0.000 C 
BRANCH  20  21
ATOM     21  C   UNL     1      25.075  12.024  36.123  1.00  0.00     0.000 C 
BRANCH  21  22
ATOM     22  C   UNL     1      25.638  10.966  35.167  1.00  0.00    -0.000 C 
BRANCH  22  23
ATOM     23  C   UNL     1      27.164  11.091  35.037  1.00  0.00    -0.000 C 
BRANCH  23  24
ATOM     24  C   UNL     1      27.653  12.550  35.112  1.00  0.00    -0.000 C 
BRANCH  24  25
ATOM     25  C   UNL     1      27.302  13.425  33.892  1.00  0.00    -0.000 C 
BRANCH  25  26
ATOM     26  C   UNL     1      28.002  12.967  32.598  1.00  0.00    -0.000 C 
BRANCH  26  27
ATOM     27  C   UNL     1      27.072  12.168  31.672  1.00  0.00    -0.000 C 
BRANCH  27  28
ATOM     28  C   UNL     1      27.015  12.742  30.247  1.00  0.00    -0.000 C 
BRANCH  28  29
ATOM     29  C   UNL     1      25.652  13.385  29.971  1.00  0.00    -0.003 C 
ATOM     30  C   UNL     1      24.539  12.684  30.745  1.00  0.00     0.004 C 
ENDBRANCH  28  29
ENDBRANCH  27  28
ENDBRANCH  26  27
ENDBRANCH  25  26
ENDBRANCH  24  25
ENDBRANCH  23  24
ENDBRANCH  22  23
ENDBRANCH  21  22
ENDBRANCH  20  21
ENDBRANCH  19  20
ENDBRANCH  18  19
ENDBRANCH  17  18
ENDBRANCH   1  17
TORSDOF 26
ENDMDL
MODEL 8
REMARK VINA RESULT:    -4.071      2.867      7.092
REMARK INTER + INTRA:         -15.038
REMARK INTER:                 -11.103
REMARK INTRA:                  -3.935
REMARK UNBOUND:                -4.778
REMARK SMILES CCCCCCCCCCCCCCCCCCCCCCCCCCCC(=O)[O-]
REMARK SMILES IDX 15 1 16 2 17 3 18 4 19 5 20 6 21 7 22 8 23 9 24 10 25 11
REMARK SMILES IDX 26 12 27 13 28 14 29 15 30 16 14 17 13 18 12 19 11 20 10 21
REMARK SMILES IDX 9 22 8 23 7 24 6 25 5 26 4 27 3 28 2 29 1 30
REMARK H PARENT
REMARK Flexibility Score: inf
ROOT
ATOM      1  C   UNL     1      23.498  11.594  35.003  1.00  0.00     0.000 C 
ENDROOT
BRANCH   1   2
ATOM      2  C   UNL     1      22.775  10.550  35.867  1.00  0.00     0.000 C 
BRANCH   2   3
ATOM      3  C   UNL     1      21.264  10.480  35.551  1.00  0.00     0.000 C 
BRANCH   3   4
ATOM      4  C   UNL     1      20.694   9.048  35.543  1.00  0.00     0.000 C 
BRANCH   4   5
ATOM      5  C   UNL     1      19.162   8.957  35.429  1.00  0.00     0.000 C 
BRANCH   5   6
ATOM      6  C   UNL     1      18.563   9.449  34.097  1.00  0.00     0.000 C 
BRANCH   6   7
ATOM      7  C   UNL     1      19.264   8.903  32.833  1.00  0.00     0.000 C 
BRANCH   7   8
ATOM      8  C   UNL     1      20.046   9.989  32.063  1.00  0.00     0.000 C 
BRANCH   8   9
ATOM      9  C   UNL     1      19.210  10.645  30.953  1.00  0.00     0.000 C 
BRANCH   9  10
ATOM     10  C   UNL     1      18.757  12.069  31.307  1.00  0.00     0.000 C 
BRANCH  10  11
ATOM     11  C   UNL     1      19.717  12.706  32.319  1.00  0.00     0.000 C 
BRANCH  11  12
ATOM     12  C   UNL     1      19.074  13.914  33.014  1.00  0.00     0.006 C 
BRANCH  12  13
ATOM     13  C   UNL     1      18.300  13.480  34.262  1.00  0.00     0.053 C 
BRANCH  13  14
ATOM     14  C   UNL     1      19.215  13.414  35.446  1.00  0.00     0.041 C 
ATOM     15  O   UNL     1      20.320  14.024  35.428  1.00  0.00    -0.550 OA
ATOM     16  O   UNL     1      18.876  12.630  36.542  1.00  0.00    -0.550 OA
ENDBRANCH  13  14
ENDBRANCH  12  13
ENDBRANCH  11  12
ENDBRANCH  10  11
ENDBRANCH   9  10
ENDBRANCH   8   9
ENDBRANCH   7   8
ENDBRANCH   6   7
ENDBRANCH   5   6
ENDBRANCH   4   5
ENDBRANCH   3   4
ENDBRANCH   2   3
ENDBRANCH   1   2
BRANCH   1  17
ATOM     17  C   UNL     1      22.675  11.960  33.759  1.00  0.00     0.000 C 
BRANCH  17  18
ATOM     18  C   UNL     1      23.556  12.372  32.567  1.00  0.00     0.000 C 
BRANCH  18  19
ATOM     19  C   UNL     1      22.989  12.032  31.174  1.00  0.00     0.000 C 
BRANCH  19  20
ATOM     20  C   UNL     1      24.015  12.166  30.031  1.00  0.00     0.000 C 
BRANCH  20  21
ATOM     21  C   UNL     1      24.554  13.599  29.877  1.00  0.00     0.000 C 
BRANCH  21  22
ATOM     22  C   UNL     1      26.087  13.604  29.875  1.00  0.00    -0.000 C 
BRANCH  22  23
ATOM     23  C   UNL     1      26.648  12.293  30.447  1.00  0.00    -0.000 C 
BRANCH  23  24
ATOM     24  C   UNL     1      28.065  12.453  31.028  1.00  0.00    -0.000 C 
BRANCH  24  25
ATOM     25  C   UNL     1      28.325  11.699  32.347  1.00  0.00    -0.000 C 
BRANCH  25  26
ATOM     26  C   UNL     1      27.046  11.475  33.177  1.00  0.00    -0.000 C 
BRANCH  26  27
ATOM     27  C   UNL     1      27.343  11.196  34.659  1.00  0.00    -0.000 C 
BRANCH  27  28
ATOM     28  C   UNL     1      26.784  12.282  35.592  1.00  0.00    -0.000 C 
BRANCH  28  29
ATOM     29  C   UNL     1      26.575  13.598  34.837  1.00  0.00    -0.003 C 
ATOM     30  C   UNL     1      27.588  14.654  35.269  1.00  0.00     0.004 C 
ENDBRANCH  28  29
ENDBRANCH  27  28
ENDBRANCH  26  27
ENDBRANCH  25  26
ENDBRANCH  24  25
ENDBRANCH  23  24
ENDBRANCH  22  23
ENDBRANCH  21  22
ENDBRANCH  20  21
ENDBRANCH  19  20
ENDBRANCH  18  19
ENDBRANCH  17  18
ENDBRANCH   1  17
TORSDOF 26
ENDMDL
MODEL 9
REMARK VINA RESULT:    -3.997      3.201      7.524
REMARK INTER + INTRA:         -14.852
REMARK INTER:                 -10.548
REMARK INTRA:                  -4.303
REMARK UNBOUND:                -4.778
REMARK SMILES CCCCCCCCCCCCCCCCCCCCCCCCCCCC(=O)[O-]
REMARK SMILES IDX 15 1 16 2 17 3 18 4 19 5 20 6 21 7 22 8 23 9 24 10 25 11
REMARK SMILES IDX 26 12 27 13 28 14 29 15 30 16 14 17 13 18 12 19 11 20 10 21
REMARK SMILES IDX 9 22 8 23 7 24 6 25 5 26 4 27 3 28 2 29 1 30
REMARK H PARENT
REMARK Flexibility Score: inf
ROOT
ATOM      1  C   UNL     1      22.283  11.880  35.584  1.00  0.00     0.000 C 
ENDROOT
BRANCH   1   2
ATOM      2  C   UNL     1      20.774  11.591  35.617  1.00  0.00     0.000 C 
BRANCH   2   3
ATOM      3  C   UNL     1      19.944  12.869  35.876  1.00  0.00     0.000 C 
BRANCH   3   4
ATOM      4  C   UNL     1      18.482  12.770  35.399  1.00  0.00     0.000 C 
BRANCH   4   5
ATOM      5  C   UNL     1      18.047  13.857  34.399  1.00  0.00     0.000 C 
BRANCH   5   6
ATOM      6  C   UNL     1      18.246  13.510  32.911  1.00  0.00     0.000 C 
BRANCH   6   7
ATOM      7  C   UNL     1      19.687  13.706  32.389  1.00  0.00     0.000 C 
BRANCH   7   8
ATOM      8  C   UNL     1      20.103  12.637  31.356  1.00  0.00     0.000 C 
BRANCH   8   9
ATOM      9  C   UNL     1      19.208  11.389  31.403  1.00  0.00     0.000 C 
BRANCH   9  10
ATOM     10  C   UNL     1      19.866  10.207  32.129  1.00  0.00     0.000 C 
BRANCH  10  11
ATOM     11  C   UNL     1      18.812   9.173  32.545  1.00  0.00     0.000 C 
BRANCH  11  12
ATOM     12  C   UNL     1      18.422   9.336  34.020  1.00  0.00     0.006 C 
BRANCH  12  13
ATOM     13  C   UNL     1      17.894   8.019  34.596  1.00  0.00     0.053 C 
BRANCH  13  14
ATOM     14  C   UNL     1      18.492   7.763  35.945  1.00  0.00     0.041 C 
ATOM     15  O   UNL     1      19.323   8.578  36.435  1.00  0.00    -0.550 OA
ATOM     16  O   UNL     1      18.179   6.597  36.633  1.00  0.00    -0.550 OA
ENDBRANCH  13  14
ENDBRANCH  12  13
ENDBRANCH  11  12
ENDBRANCH  10  11
ENDBRANCH   9  10
ENDBRANCH   8   9
ENDBRANCH   7   8
ENDBRANCH   6   7
ENDBRANCH   5   6
ENDBRANCH   4   5
ENDBRANCH   3   4
ENDBRANCH   2   3
ENDBRANCH   1   2
BRANCH   1  17
ATOM     17  C   UNL     1      22.670  12.703  34.347  1.00  0.00     0.000 C 
BRANCH  17  18
ATOM     18  C   UNL     1      22.949  11.824  33.116  1.00  0.00     0.000 C 
BRANCH  18  19
ATOM     19  C   UNL     1      24.153  12.254  32.254  1.00  0.00     0.000 C 
BRANCH  19  20
ATOM     20  C   UNL     1      23.830  12.395  30.752  1.00  0.00     0.000 C 
BRANCH  20  21
ATOM     21  C   UNL     1      24.904  13.183  29.982  1.00  0.00     0.000 C 
BRANCH  21  22
ATOM     22  C   UNL     1      26.036  13.617  30.920  1.00  0.00    -0.000 C 
BRANCH  22  23
ATOM     23  C   UNL     1      27.412  13.312  30.308  1.00  0.00    -0.000 C 
BRANCH  23  24
ATOM     24  C   UNL     1      28.364  12.612  31.296  1.00  0.00    -0.000 C 
BRANCH  24  25
ATOM     25  C   UNL     1      27.753  11.430  32.073  1.00  0.00    -0.000 C 
BRANCH  25  26
ATOM     26  C   UNL     1      28.069  11.468  33.581  1.00  0.00    -0.000 C 
BRANCH  26  27
ATOM     27  C   UNL     1      26.856  11.102  34.450  1.00  0.00    -0.000 C 
BRANCH  27  28
ATOM     28  C   UNL     1      26.527  12.178  35.497  1.00  0.00    -0.000 C 
BRANCH  28  29
ATOM     29  C   UNL     1      26.393  13.556  34.841  1.00  0.00    -0.003 C 
ATOM     30  C   UNL     1      27.558  14.467  35.218  1.00  0.00     0.004 C 
ENDBRANCH  28  29
ENDBRANCH  27  28
ENDBRANCH  26  27
ENDBRANCH  25  26
ENDBRANCH  24  25
ENDBRANCH  23  24
ENDBRANCH  22  23
ENDBRANCH  21  22
ENDBRANCH  20  21
ENDBRANCH  19  20
ENDBRANCH  18  19
ENDBRANCH  17  18
ENDBRANCH   1  17
TORSDOF 26
ENDMDL
