MODEL 1
REMARK VINA RESULT:    -5.169      0.000      0.000
REMARK INTER + INTRA:          -8.160
REMARK INTER:                  -7.889
REMARK INTRA:                  -0.271
REMARK UNBOUND:                -0.271
REMARK SMILES O=C([O-])CCCCCCCCC(=O)[O-]
REMARK SMILES IDX 7 1 6 2 5 3 4 4 2 5 1 6 3 7 8 8 9 9 10 10 11 11 12 12 13 13
REMARK SMILES IDX 14 14
REMARK H PARENT
REMARK Flexibility Score: inf
ROOT
ATOM      1  C   UNL     1       1.279 -27.729   0.625  1.00  0.00     0.000 C 
ENDROOT
BRANCH   1   2
ATOM      2  C   UNL     1       0.783 -26.395   0.039  1.00  0.00     0.000 C 
BRANCH   2   3
ATOM      3  C   UNL     1      -0.741 -26.356  -0.152  1.00  0.00     0.006 C 
BRANCH   3   4
ATOM      4  C   UNL     1      -1.149 -25.195  -1.062  1.00  0.00     0.053 C 
BRANCH   4   5
ATOM      5  C   UNL     1      -1.881 -24.150  -0.281  1.00  0.00     0.041 C 
ATOM      6  O   UNL     1      -1.253 -23.184   0.229  1.00  0.00    -0.550 OA
ATOM      7  O   UNL     1      -3.263 -24.215  -0.156  1.00  0.00    -0.550 OA
ENDBRANCH   4   5
ENDBRANCH   3   4
ENDBRANCH   2   3
ENDBRANCH   1   2
BRANCH   1   8
ATOM      8  C   UNL     1       2.627 -28.226   0.065  1.00  0.00     0.000 C 
BRANCH   8   9
ATOM      9  C   UNL     1       3.507 -28.997   1.066  1.00  0.00     0.000 C 
BRANCH   9  10
ATOM     10  C   UNL     1       3.066 -28.890   2.541  1.00  0.00     0.006 C 
BRANCH  10  11
ATOM     11  C   UNL     1       3.941 -29.681   3.524  1.00  0.00     0.053 C 
BRANCH  11  12
ATOM     12  C   UNL     1       3.187 -30.071   4.758  1.00  0.00     0.041 C 
ATOM     13  O   UNL     1       2.697 -31.227   4.862  1.00  0.00    -0.550 OA
ATOM     14  O   UNL     1       2.996 -29.149   5.778  1.00  0.00    -0.550 OA
ENDBRANCH  11  12
ENDBRANCH  10  11
ENDBRANCH   9  10
ENDBRANCH   8   9
ENDBRANCH   1   8
TORSDOF 9
ENDMDL
MODEL 2
REMARK VINA RESULT:    -5.136      0.324      7.647
REMARK INTER + INTRA:          -8.109
REMARK INTER:                  -7.895
REMARK INTRA:                  -0.214
REMARK UNBOUND:                -0.271
REMARK SMILES O=C([O-])CCCCCCCCC(=O)[O-]
REMARK SMILES IDX 7 1 6 2 5 3 4 4 2 5 1 6 3 7 8 8 9 9 10 10 11 11 12 12 13 13
REMARK SMILES IDX 14 14
REMARK H PARENT
REMARK Flexibility Score: inf
ROOT
ATOM      1  C   UNL     1       2.525 -28.415   0.070  1.00  0.00     0.000 C 
ENDROOT
BRANCH   1   2
ATOM      2  C   UNL     1       3.511 -28.833   1.175  1.00  0.00     0.000 C 
BRANCH   2   3
ATOM      3  C   UNL     1       2.829 -29.044   2.535  1.00  0.00     0.006 C 
BRANCH   3   4
ATOM      4  C   UNL     1       3.827 -29.563   3.574  1.00  0.00     0.053 C 
BRANCH   4   5
ATOM      5  C   UNL     1       3.110 -30.029   4.801  1.00  0.00     0.041 C 
ATOM      6  O   UNL     1       2.671 -31.208   4.869  1.00  0.00    -0.550 OA
ATOM      7  O   UNL     1       2.970 -29.178   5.890  1.00  0.00    -0.550 OA
ENDBRANCH   4   5
ENDBRANCH   3   4
ENDBRANCH   2   3
ENDBRANCH   1   2
BRANCH   1   8
ATOM      8  C   UNL     1       1.421 -27.436   0.517  1.00  0.00     0.000 C 
BRANCH   8   9
ATOM      9  C   UNL     1       0.669 -26.730  -0.627  1.00  0.00     0.000 C 
BRANCH   9  10
ATOM     10  C   UNL     1      -0.712 -26.159  -0.245  1.00  0.00     0.006 C 
BRANCH  10  11
ATOM     11  C   UNL     1      -1.238 -25.078  -1.202  1.00  0.00     0.053 C 
BRANCH  11  12
ATOM     12  C   UNL     1      -2.130 -24.097  -0.505  1.00  0.00     0.041 C 
ATOM     13  O   UNL     1      -1.633 -23.130   0.130  1.00  0.00    -0.550 OA
ATOM     14  O   UNL     1      -3.508 -24.269  -0.528  1.00  0.00    -0.550 OA
ENDBRANCH  11  12
ENDBRANCH  10  11
ENDBRANCH   9  10
ENDBRANCH   8   9
ENDBRANCH   1   8
TORSDOF 9
ENDMDL
MODEL 3
REMARK VINA RESULT:    -5.098      1.063      1.807
REMARK INTER + INTRA:          -8.051
REMARK INTER:                  -7.771
REMARK INTRA:                  -0.280
REMARK UNBOUND:                -0.271
REMARK SMILES O=C([O-])CCCCCCCCC(=O)[O-]
REMARK SMILES IDX 7 1 6 2 5 3 4 4 2 5 1 6 3 7 8 8 9 9 10 10 11 11 12 12 13 13
REMARK SMILES IDX 14 14
REMARK H PARENT
REMARK Flexibility Score: inf
ROOT
ATOM      1  C   UNL     1       2.559 -28.353   0.125  1.00  0.00     0.000 C 
ENDROOT
BRANCH   1   2
ATOM      2  C   UNL     1       1.330 -27.625   0.695  1.00  0.00     0.000 C 
BRANCH   2   3
ATOM      3  C   UNL     1       0.597 -26.778  -0.356  1.00  0.00     0.006 C 
BRANCH   3   4
ATOM      4  C   UNL     1      -0.872 -26.579   0.027  1.00  0.00     0.053 C 
BRANCH   4   5
ATOM      5  C   UNL     1      -1.444 -25.397  -0.688  1.00  0.00     0.041 C 
ATOM      6  O   UNL     1      -1.043 -25.100  -1.844  1.00  0.00    -0.550 OA
ATOM      7  O   UNL     1      -2.457 -24.650  -0.098  1.00  0.00    -0.550 OA
ENDBRANCH   4   5
ENDBRANCH   3   4
ENDBRANCH   2   3
ENDBRANCH   1   2
BRANCH   1   8
ATOM      8  C   UNL     1       3.505 -28.961   1.182  1.00  0.00     0.000 C 
BRANCH   8   9
ATOM      9  C   UNL     1       3.019 -28.843   2.639  1.00  0.00     0.000 C 
BRANCH   9  10
ATOM     10  C   UNL     1       3.263 -30.092   3.511  1.00  0.00     0.006 C 
BRANCH  10  11
ATOM     11  C   UNL     1       3.748 -29.786   4.936  1.00  0.00     0.053 C 
BRANCH  11  12
ATOM     12  C   UNL     1       2.635 -29.862   5.936  1.00  0.00     0.041 C 
ATOM     13  O   UNL     1       2.434 -28.908   6.732  1.00  0.00    -0.550 OA
ATOM     14  O   UNL     1       1.842 -31.000   6.011  1.00  0.00    -0.550 OA
ENDBRANCH  11  12
ENDBRANCH  10  11
ENDBRANCH   9  10
ENDBRANCH   8   9
ENDBRANCH   1   8
TORSDOF 9
ENDMDL
MODEL 4
REMARK VINA RESULT:    -5.092      1.595      2.323
REMARK INTER + INTRA:          -8.042
REMARK INTER:                  -7.710
REMARK INTRA:                  -0.333
REMARK UNBOUND:                -0.271
REMARK SMILES O=C([O-])CCCCCCCCC(=O)[O-]
REMARK SMILES IDX 7 1 6 2 5 3 4 4 2 5 1 6 3 7 8 8 9 9 10 10 11 11 12 12 13 13
REMARK SMILES IDX 14 14
REMARK H PARENT
REMARK Flexibility Score: inf
ROOT
ATOM      1  C   UNL     1       2.119 -28.740   0.666  1.00  0.00     0.000 C 
ENDROOT
BRANCH   1   2
ATOM      2  C   UNL     1       2.625 -28.039  -0.606  1.00  0.00     0.000 C 
BRANCH   2   3
ATOM      3  C   UNL     1       1.634 -26.998  -1.149  1.00  0.00     0.006 C 
BRANCH   3   4
ATOM      4  C   UNL     1       0.821 -26.371  -0.014  1.00  0.00     0.053 C 
BRANCH   4   5
ATOM      5  C   UNL     1      -0.622 -26.277  -0.393  1.00  0.00     0.041 C 
ATOM      6  O   UNL     1      -1.495 -26.891   0.277  1.00  0.00    -0.550 OA
ATOM      7  O   UNL     1      -1.012 -25.472  -1.457  1.00  0.00    -0.550 OA
ENDBRANCH   4   5
ENDBRANCH   3   4
ENDBRANCH   2   3
ENDBRANCH   1   2
BRANCH   1   8
ATOM      8  C   UNL     1       3.084 -28.686   1.868  1.00  0.00     0.000 C 
BRANCH   8   9
ATOM      9  C   UNL     1       2.847 -29.760   2.947  1.00  0.00     0.000 C 
BRANCH   9  10
ATOM     10  C   UNL     1       3.716 -29.615   4.214  1.00  0.00     0.006 C 
BRANCH  10  11
ATOM     11  C   UNL     1       3.369 -30.603   5.337  1.00  0.00     0.053 C 
BRANCH  11  12
ATOM     12  C   UNL     1       2.258 -30.098   6.206  1.00  0.00     0.041 C 
ATOM     13  O   UNL     1       1.217 -30.788   6.368  1.00  0.00    -0.550 OA
ATOM     14  O   UNL     1       2.357 -28.851   6.808  1.00  0.00    -0.550 OA
ENDBRANCH  11  12
ENDBRANCH  10  11
ENDBRANCH   9  10
ENDBRANCH   8   9
ENDBRANCH   1   8
TORSDOF 9
ENDMDL
MODEL 5
REMARK VINA RESULT:    -5.092      1.308      7.579
REMARK INTER + INTRA:          -8.041
REMARK INTER:                  -7.783
REMARK INTRA:                  -0.259
REMARK UNBOUND:                -0.271
REMARK SMILES O=C([O-])CCCCCCCCC(=O)[O-]
REMARK SMILES IDX 7 1 6 2 5 3 4 4 2 5 1 6 3 7 8 8 9 9 10 10 11 11 12 12 13 13
REMARK SMILES IDX 14 14
REMARK H PARENT
REMARK Flexibility Score: inf
ROOT
ATOM      1  C   UNL     1       3.700 -29.150   1.531  1.00  0.00     0.000 C 
ENDROOT
BRANCH   1   2
ATOM      2  C   UNL     1       3.144 -28.924   2.947  1.00  0.00     0.000 C 
BRANCH   2   3
ATOM      3  C   UNL     1       3.625 -29.980   3.954  1.00  0.00     0.006 C 
BRANCH   3   4
ATOM      4  C   UNL     1       3.144 -29.647   5.369  1.00  0.00     0.053 C 
BRANCH   4   5
ATOM      5  C   UNL     1       2.445 -30.822   5.974  1.00  0.00     0.041 C 
ATOM      6  O   UNL     1       1.257 -30.714   6.377  1.00  0.00    -0.550 OA
ATOM      7  O   UNL     1       3.088 -32.052   6.049  1.00  0.00    -0.550 OA
ENDBRANCH   4   5
ENDBRANCH   3   4
ENDBRANCH   2   3
ENDBRANCH   1   2
BRANCH   1   8
ATOM      8  C   UNL     1       2.881 -28.499   0.397  1.00  0.00     0.000 C 
BRANCH   8   9
ATOM      9  C   UNL     1       1.587 -27.795   0.847  1.00  0.00     0.000 C 
BRANCH   9  10
ATOM     10  C   UNL     1       0.722 -27.228  -0.299  1.00  0.00     0.006 C 
BRANCH  10  11
ATOM     11  C   UNL     1      -0.720 -26.886   0.106  1.00  0.00     0.053 C 
BRANCH  11  12
ATOM     12  C   UNL     1      -1.206 -25.631  -0.554  1.00  0.00     0.041 C 
ATOM     13  O   UNL     1      -2.015 -24.875   0.043  1.00  0.00    -0.550 OA
ATOM     14  O   UNL     1      -0.792 -25.317  -1.842  1.00  0.00    -0.550 OA
ENDBRANCH  11  12
ENDBRANCH  10  11
ENDBRANCH   9  10
ENDBRANCH   8   9
ENDBRANCH   1   8
TORSDOF 9
ENDMDL
MODEL 6
REMARK VINA RESULT:    -5.023      3.088      3.778
REMARK INTER + INTRA:          -7.937
REMARK INTER:                  -7.549
REMARK INTRA:                  -0.388
REMARK UNBOUND:                -0.271
REMARK SMILES O=C([O-])CCCCCCCCC(=O)[O-]
REMARK SMILES IDX 7 1 6 2 5 3 4 4 2 5 1 6 3 7 8 8 9 9 10 10 11 11 12 12 13 13
REMARK SMILES IDX 14 14
REMARK H PARENT
REMARK Flexibility Score: inf
ROOT
ATOM      1  C   UNL     1       1.682 -27.786   1.129  1.00  0.00     0.000 C 
ENDROOT
BRANCH   1   2
ATOM      2  C   UNL     1       0.832 -27.737  -0.153  1.00  0.00     0.000 C 
BRANCH   2   3
ATOM      3  C   UNL     1       1.419 -26.804  -1.223  1.00  0.00     0.006 C 
BRANCH   3   4
ATOM      4  C   UNL     1       2.865 -27.185  -1.549  1.00  0.00     0.053 C 
BRANCH   4   5
ATOM      5  C   UNL     1       3.130 -27.029  -3.013  1.00  0.00     0.041 C 
ATOM      6  O   UNL     1       2.172 -26.903  -3.820  1.00  0.00    -0.550 OA
ATOM      7  O   UNL     1       4.437 -26.972  -3.481  1.00  0.00    -0.550 OA
ENDBRANCH   4   5
ENDBRANCH   3   4
ENDBRANCH   2   3
ENDBRANCH   1   2
BRANCH   1   8
ATOM      8  C   UNL     1       2.273 -29.170   1.467  1.00  0.00     0.000 C 
BRANCH   8   9
ATOM      9  C   UNL     1       3.744 -29.159   1.926  1.00  0.00     0.000 C 
BRANCH   9  10
ATOM     10  C   UNL     1       3.970 -29.547   3.402  1.00  0.00     0.006 C 
BRANCH  10  11
ATOM     11  C   UNL     1       2.838 -30.383   4.018  1.00  0.00     0.053 C 
BRANCH  11  12
ATOM     12  C   UNL     1       2.842 -30.318   5.514  1.00  0.00     0.041 C 
ATOM     13  O   UNL     1       2.799 -31.377   6.194  1.00  0.00    -0.550 OA
ATOM     14  O   UNL     1       2.857 -29.087   6.158  1.00  0.00    -0.550 OA
ENDBRANCH  11  12
ENDBRANCH  10  11
ENDBRANCH   9  10
ENDBRANCH   8   9
ENDBRANCH   1   8
TORSDOF 9
ENDMDL
MODEL 7
REMARK VINA RESULT:    -5.011      3.422      4.158
REMARK INTER + INTRA:          -7.918
REMARK INTER:                  -7.598
REMARK INTRA:                  -0.320
REMARK UNBOUND:                -0.271
REMARK SMILES O=C([O-])CCCCCCCCC(=O)[O-]
REMARK SMILES IDX 7 1 6 2 5 3 4 4 2 5 1 6 3 7 8 8 9 9 10 10 11 11 12 12 13 13
REMARK SMILES IDX 14 14
REMARK H PARENT
REMARK Flexibility Score: inf
ROOT
ATOM      1  C   UNL     1       2.852 -29.062   1.217  1.00  0.00     0.000 C 
ENDROOT
BRANCH   1   2
ATOM      2  C   UNL     1       1.827 -28.020   0.736  1.00  0.00     0.000 C 
BRANCH   2   3
ATOM      3  C   UNL     1       1.950 -27.712  -0.764  1.00  0.00     0.006 C 
BRANCH   3   4
ATOM      4  C   UNL     1       3.367 -27.998  -1.269  1.00  0.00     0.053 C 
BRANCH   4   5
ATOM      5  C   UNL     1       3.630 -27.252  -2.538  1.00  0.00     0.041 C 
ATOM      6  O   UNL     1       4.802 -26.896  -2.833  1.00  0.00    -0.550 OA
ATOM      7  O   UNL     1       2.590 -26.994  -3.422  1.00  0.00    -0.550 OA
ENDBRANCH   4   5
ENDBRANCH   3   4
ENDBRANCH   2   3
ENDBRANCH   1   2
BRANCH   1   8
ATOM      8  C   UNL     1       3.086 -29.089   2.742  1.00  0.00     0.000 C 
BRANCH   8   9
ATOM      9  C   UNL     1       4.438 -29.680   3.185  1.00  0.00     0.000 C 
BRANCH   9  10
ATOM     10  C   UNL     1       4.483 -30.182   4.644  1.00  0.00     0.006 C 
BRANCH  10  11
ATOM     11  C   UNL     1       3.318 -29.695   5.518  1.00  0.00     0.053 C 
BRANCH  11  12
ATOM     12  C   UNL     1       2.528 -30.834   6.087  1.00  0.00     0.041 C 
ATOM     13  O   UNL     1       3.082 -31.945   6.297  1.00  0.00    -0.550 OA
ATOM     14  O   UNL     1       1.174 -30.679   6.352  1.00  0.00    -0.550 OA
ENDBRANCH  11  12
ENDBRANCH  10  11
ENDBRANCH   9  10
ENDBRANCH   8   9
ENDBRANCH   1   8
TORSDOF 9
ENDMDL
MODEL 8
REMARK VINA RESULT:    -4.992      1.649      7.649
REMARK INTER + INTRA:          -7.890
REMARK INTER:                  -7.658
REMARK INTRA:                  -0.232
REMARK UNBOUND:                -0.271
REMARK SMILES O=C([O-])CCCCCCCCC(=O)[O-]
REMARK SMILES IDX 7 1 6 2 5 3 4 4 2 5 1 6 3 7 8 8 9 9 10 10 11 11 12 12 13 13
REMARK SMILES IDX 14 14
REMARK H PARENT
REMARK Flexibility Score: inf
ROOT
ATOM      1  C   UNL     1       1.490 -26.959  -0.689  1.00  0.00     0.000 C 
ENDROOT
BRANCH   1   2
ATOM      2  C   UNL     1       2.346 -28.107  -0.129  1.00  0.00     0.000 C 
BRANCH   2   3
ATOM      3  C   UNL     1       2.254 -28.229   1.400  1.00  0.00     0.006 C 
BRANCH   3   4
ATOM      4  C   UNL     1       2.684 -29.623   1.865  1.00  0.00     0.053 C 
BRANCH   4   5
ATOM      5  C   UNL     1       3.722 -29.521   2.937  1.00  0.00     0.041 C 
ATOM      6  O   UNL     1       4.944 -29.617   2.648  1.00  0.00    -0.550 OA
ATOM      7  O   UNL     1       3.343 -29.268   4.250  1.00  0.00    -0.550 OA
ENDBRANCH   4   5
ENDBRANCH   3   4
ENDBRANCH   2   3
ENDBRANCH   1   2
BRANCH   1   8
ATOM      8  C   UNL     1       0.112 -26.784  -0.017  1.00  0.00     0.000 C 
BRANCH   8   9
ATOM      9  C   UNL     1      -0.837 -25.793  -0.717  1.00  0.00     0.000 C 
BRANCH   9  10
ATOM     10  C   UNL     1      -2.176 -25.548   0.010  1.00  0.00     0.006 C 
BRANCH  10  11
ATOM     11  C   UNL     1      -2.664 -24.092  -0.035  1.00  0.00     0.053 C 
BRANCH  11  12
ATOM     12  C   UNL     1      -3.984 -23.921   0.653  1.00  0.00     0.041 C 
ATOM     13  O   UNL     1      -4.953 -24.668   0.356  1.00  0.00    -0.550 OA
ATOM     14  O   UNL     1      -4.153 -22.916   1.596  1.00  0.00    -0.550 OA
ENDBRANCH  11  12
ENDBRANCH  10  11
ENDBRANCH   9  10
ENDBRANCH   8   9
ENDBRANCH   1   8
TORSDOF 9
ENDMDL
MODEL 9
REMARK VINA RESULT:    -4.924      2.970      7.535
REMARK INTER + INTRA:          -7.786
REMARK INTER:                  -7.320
REMARK INTRA:                  -0.466
REMARK UNBOUND:                -0.271
REMARK SMILES O=C([O-])CCCCCCCCC(=O)[O-]
REMARK SMILES IDX 7 1 6 2 5 3 4 4 2 5 1 6 3 7 8 8 9 9 10 10 11 11 12 12 13 13
REMARK SMILES IDX 14 14
REMARK H PARENT
REMARK Flexibility Score: inf
ROOT
ATOM      1  C   UNL     1      -1.264 -24.982  -1.466  1.00  0.00     0.000 C 
ENDROOT
BRANCH   1   2
ATOM      2  C   UNL     1      -0.468 -25.559  -0.283  1.00  0.00     0.000 C 
BRANCH   2   3
ATOM      3  C   UNL     1       0.569 -26.607  -0.715  1.00  0.00     0.006 C 
BRANCH   3   4
ATOM      4  C   UNL     1       1.196 -27.291   0.503  1.00  0.00     0.053 C 
BRANCH   4   5
ATOM      5  C   UNL     1       2.468 -27.978   0.119  1.00  0.00     0.041 C 
ATOM      6  O   UNL     1       2.811 -28.048  -1.091  1.00  0.00    -0.550 OA
ATOM      7  O   UNL     1       3.302 -28.498   1.102  1.00  0.00    -0.550 OA
ENDBRANCH   4   5
ENDBRANCH   3   4
ENDBRANCH   2   3
ENDBRANCH   1   2
BRANCH   1   8
ATOM      8  C   UNL     1      -2.793 -25.166  -1.374  1.00  0.00     0.000 C 
BRANCH   8   9
ATOM      9  C   UNL     1      -3.261 -26.286  -0.424  1.00  0.00     0.000 C 
BRANCH   9  10
ATOM     10  C   UNL     1      -3.840 -25.800   0.921  1.00  0.00     0.006 C 
BRANCH  10  11
ATOM     11  C   UNL     1      -4.940 -24.735   0.790  1.00  0.00     0.053 C 
BRANCH  11  12
ATOM     12  C   UNL     1      -4.644 -23.519   1.612  1.00  0.00     0.041 C 
ATOM     13  O   UNL     1      -3.578 -22.875   1.430  1.00  0.00    -0.550 OA
ATOM     14  O   UNL     1      -5.530 -23.116   2.604  1.00  0.00    -0.550 OA
ENDBRANCH  11  12
ENDBRANCH  10  11
ENDBRANCH   9  10
ENDBRANCH   8   9
ENDBRANCH   1   8
TORSDOF 9
ENDMDL
