MODEL 1
REMARK VINA RESULT:    -5.964      0.000      0.000
REMARK INTER + INTRA:          -6.841
REMARK INTER:                  -6.487
REMARK INTRA:                  -0.354
REMARK UNBOUND:                -0.354
REMARK SMILES C=C1C[C@]2(O)O[C@@]3(C[C@@H]2C(C)C)[C@@H]1CC[C@@H]3C
REMARK SMILES IDX 17 1 16 2 15 3 14 4 13 5 7 6 8 7 9 8 4 9 6 10 3 11 2 12 1 13
REMARK SMILES IDX 10 14 11 15 12 16 5 17
REMARK H PARENT 5 18
REMARK Flexibility Score: inf
ROOT
ATOM      1  C   UNL     1      -4.839  -4.383  -5.219  1.00  0.00     0.011 C 
ATOM      2  C   UNL     1      -4.361  -3.202  -4.349  1.00  0.00     0.019 C 
ATOM      3  C   UNL     1      -2.842  -3.031  -4.473  1.00  0.00     0.007 C 
ATOM      4  C   UNL     1      -2.598  -1.962  -5.544  1.00  0.00     0.011 C 
ATOM      5  C   UNL     1      -3.969  -1.391  -5.927  1.00  0.00     0.047 C 
ATOM      6  C   UNL     1      -4.919  -1.837  -4.794  1.00  0.00     0.081 C 
ATOM      7  C   UNL     1      -6.393  -1.821  -5.217  1.00  0.00     0.046 C 
ATOM      8  C   UNL     1      -6.837  -0.418  -4.817  1.00  0.00     0.054 C 
ATOM      9  C   UNL     1      -5.569   0.196  -4.163  1.00  0.00     0.173 C 
ATOM     10  O   UNL     1      -4.821  -0.917  -3.724  1.00  0.00    -0.342 OA
ATOM     11  C   UNL     1      -4.642   1.015  -5.091  1.00  0.00     0.096 C 
ATOM     12  C   UNL     1      -3.945   0.123  -6.097  1.00  0.00    -0.066 C 
ATOM     13  C   UNL     1      -3.283   0.672  -7.125  1.00  0.00     0.008 C 
ENDROOT
BRANCH   8  14
ATOM     14  C   UNL     1      -7.653   0.357  -5.904  1.00  0.00    -0.009 C 
ATOM     15  C   UNL     1      -8.924   1.098  -5.437  1.00  0.00     0.008 C 
ATOM     16  C   UNL     1      -7.954  -0.528  -7.122  1.00  0.00     0.008 C 
ENDBRANCH   8  14
BRANCH   9  17
ATOM     17  O   UNL     1      -5.950   0.983  -3.062  1.00  0.00    -0.365 OA
ATOM     18  H   UNL     1      -5.352   0.749  -2.306  1.00  0.00     0.214 HD
ENDBRANCH   9  17
TORSDOF 2
ENDMDL
MODEL 2
REMARK VINA RESULT:    -5.803      1.329      4.847
REMARK INTER + INTRA:          -6.665
REMARK INTER:                  -6.355
REMARK INTRA:                  -0.311
REMARK UNBOUND:                -0.354
REMARK SMILES C=C1C[C@]2(O)O[C@@]3(C[C@@H]2C(C)C)[C@@H]1CC[C@@H]3C
REMARK SMILES IDX 17 1 16 2 15 3 14 4 13 5 7 6 8 7 9 8 4 9 6 10 3 11 2 12 1 13
REMARK SMILES IDX 10 14 11 15 12 16 5 17
REMARK H PARENT 5 18
REMARK Flexibility Score: inf
ROOT
ATOM      1  C   UNL     1      -6.643   3.178  -5.303  1.00  0.00     0.011 C 
ATOM      2  C   UNL     1      -7.031   1.990  -4.399  1.00  0.00     0.019 C 
ATOM      3  C   UNL     1      -8.537   1.716  -4.497  1.00  0.00     0.007 C 
ATOM      4  C   UNL     1      -8.723   0.607  -5.538  1.00  0.00     0.011 C 
ATOM      5  C   UNL     1      -7.322   0.118  -5.927  1.00  0.00     0.047 C 
ATOM      6  C   UNL     1      -6.389   0.654  -4.818  1.00  0.00     0.081 C 
ATOM      7  C   UNL     1      -4.923   0.725  -5.262  1.00  0.00     0.046 C 
ATOM      8  C   UNL     1      -4.381  -0.635  -4.836  1.00  0.00     0.054 C 
ATOM      9  C   UNL     1      -5.598  -1.315  -4.149  1.00  0.00     0.173 C 
ATOM     10  O   UNL     1      -6.412  -0.243  -3.726  1.00  0.00    -0.342 OA
ATOM     11  C   UNL     1      -6.480  -2.216  -5.044  1.00  0.00     0.096 C 
ATOM     12  C   UNL     1      -7.247  -1.397  -6.060  1.00  0.00    -0.066 C 
ATOM     13  C   UNL     1      -7.885  -2.014  -7.065  1.00  0.00     0.008 C 
ENDROOT
BRANCH   8  14
ATOM     14  C   UNL     1      -3.530  -1.381  -5.915  1.00  0.00    -0.009 C 
ATOM     15  C   UNL     1      -2.400  -2.303  -5.409  1.00  0.00     0.008 C 
ATOM     16  C   UNL     1      -3.006  -0.415  -6.988  1.00  0.00     0.008 C 
ENDBRANCH   8  14
BRANCH   9  17
ATOM     17  O   UNL     1      -5.151  -2.048  -3.035  1.00  0.00    -0.365 OA
ATOM     18  H   UNL     1      -5.515  -2.968  -3.117  1.00  0.00     0.214 HD
ENDBRANCH   9  17
TORSDOF 2
ENDMDL
MODEL 3
REMARK VINA RESULT:    -5.617      1.378      4.542
REMARK INTER + INTRA:          -6.463
REMARK INTER:                  -6.065
REMARK INTRA:                  -0.398
REMARK UNBOUND:                -0.354
REMARK SMILES C=C1C[C@]2(O)O[C@@]3(C[C@@H]2C(C)C)[C@@H]1CC[C@@H]3C
REMARK SMILES IDX 17 1 16 2 15 3 14 4 13 5 7 6 8 7 9 8 4 9 6 10 3 11 2 12 1 13
REMARK SMILES IDX 10 14 11 15 12 16 5 17
REMARK H PARENT 5 18
REMARK Flexibility Score: inf
ROOT
ATOM      1  C   UNL     1      -3.544   1.786  -7.124  1.00  0.00     0.011 C 
ATOM      2  C   UNL     1      -4.538   1.566  -5.966  1.00  0.00     0.019 C 
ATOM      3  C   UNL     1      -5.892   2.204  -6.299  1.00  0.00     0.007 C 
ATOM      4  C   UNL     1      -6.778   1.097  -6.883  1.00  0.00     0.011 C 
ATOM      5  C   UNL     1      -6.001  -0.218  -6.738  1.00  0.00     0.047 C 
ATOM      6  C   UNL     1      -4.884   0.086  -5.716  1.00  0.00     0.081 C 
ATOM      7  C   UNL     1      -3.714  -0.900  -5.809  1.00  0.00     0.046 C 
ATOM      8  C   UNL     1      -4.110  -1.980  -4.808  1.00  0.00     0.054 C 
ATOM      9  C   UNL     1      -5.451  -1.459  -4.219  1.00  0.00     0.173 C 
ATOM     10  O   UNL     1      -5.403  -0.063  -4.410  1.00  0.00    -0.342 OA
ATOM     11  C   UNL     1      -6.745  -1.957  -4.904  1.00  0.00     0.096 C 
ATOM     12  C   UNL     1      -6.889  -1.374  -6.294  1.00  0.00    -0.066 C 
ATOM     13  C   UNL     1      -7.820  -1.862  -7.125  1.00  0.00     0.008 C 
ENDROOT
BRANCH   8  14
ATOM     14  C   UNL     1      -3.959  -3.450  -5.321  1.00  0.00    -0.009 C 
ATOM     15  C   UNL     1      -2.901  -4.334  -4.627  1.00  0.00     0.008 C 
ATOM     16  C   UNL     1      -3.799  -3.503  -6.847  1.00  0.00     0.008 C 
ENDBRANCH   8  14
BRANCH   9  17
ATOM     17  O   UNL     1      -5.499  -1.756  -2.845  1.00  0.00    -0.365 OA
ATOM     18  H   UNL     1      -5.909  -2.655  -2.748  1.00  0.00     0.214 HD
ENDBRANCH   9  17
TORSDOF 2
ENDMDL
MODEL 4
REMARK VINA RESULT:    -5.267      5.045      8.648
REMARK INTER + INTRA:          -6.083
REMARK INTER:                  -5.762
REMARK INTRA:                  -0.320
REMARK UNBOUND:                -0.354
REMARK SMILES C=C1C[C@]2(O)O[C@@]3(C[C@@H]2C(C)C)[C@@H]1CC[C@@H]3C
REMARK SMILES IDX 17 1 16 2 15 3 14 4 13 5 7 6 8 7 9 8 4 9 6 10 3 11 2 12 1 13
REMARK SMILES IDX 10 14 11 15 12 16 5 17
REMARK H PARENT 5 18
REMARK Flexibility Score: inf
ROOT
ATOM      1  C   UNL     1      -1.821  -3.567  -5.774  1.00  0.00     0.011 C 
ATOM      2  C   UNL     1      -2.175  -4.262  -4.443  1.00  0.00     0.019 C 
ATOM      3  C   UNL     1      -3.610  -4.802  -4.490  1.00  0.00     0.007 C 
ATOM      4  C   UNL     1      -3.521  -6.276  -4.900  1.00  0.00     0.011 C 
ATOM      5  C   UNL     1      -2.031  -6.642  -4.931  1.00  0.00     0.047 C 
ATOM      6  C   UNL     1      -1.325  -5.512  -4.150  1.00  0.00     0.081 C 
ATOM      7  C   UNL     1       0.167  -5.403  -4.488  1.00  0.00     0.046 C 
ATOM      8  C   UNL     1       0.811  -6.308  -3.443  1.00  0.00     0.054 C 
ATOM      9  C   UNL     1      -0.392  -6.798  -2.591  1.00  0.00     0.173 C 
ATOM     10  O   UNL     1      -1.380  -5.806  -2.768  1.00  0.00    -0.342 OA
ATOM     11  C   UNL     1      -1.033  -8.141  -3.010  1.00  0.00     0.096 C 
ATOM     12  C   UNL     1      -1.755  -8.016  -4.335  1.00  0.00    -0.066 C 
ATOM     13  C   UNL     1      -2.174  -9.119  -4.969  1.00  0.00     0.008 C 
ENDROOT
BRANCH   8  14
ATOM     14  C   UNL     1       1.881  -7.305  -3.996  1.00  0.00    -0.009 C 
ATOM     15  C   UNL     1       3.079  -7.633  -3.079  1.00  0.00     0.008 C 
ATOM     16  C   UNL     1       2.361  -6.901  -5.397  1.00  0.00     0.008 C 
ENDBRANCH   8  14
BRANCH   9  17
ATOM     17  O   UNL     1      -0.008  -6.858  -1.239  1.00  0.00    -0.365 OA
ATOM     18  H   UNL     1      -0.354  -6.041  -0.794  1.00  0.00     0.214 HD
ENDBRANCH   9  17
TORSDOF 2
ENDMDL
MODEL 5
REMARK VINA RESULT:    -5.252      1.753      4.525
REMARK INTER + INTRA:          -6.066
REMARK INTER:                  -5.707
REMARK INTRA:                  -0.359
REMARK UNBOUND:                -0.354
REMARK SMILES C=C1C[C@]2(O)O[C@@]3(C[C@@H]2C(C)C)[C@@H]1CC[C@@H]3C
REMARK SMILES IDX 17 1 16 2 15 3 14 4 13 5 7 6 8 7 9 8 4 9 6 10 3 11 2 12 1 13
REMARK SMILES IDX 10 14 11 15 12 16 5 17
REMARK H PARENT 5 18
REMARK Flexibility Score: inf
ROOT
ATOM      1  C   UNL     1      -5.047   2.326  -7.117  1.00  0.00     0.011 C 
ATOM      2  C   UNL     1      -5.129   1.956  -5.622  1.00  0.00     0.019 C 
ATOM      3  C   UNL     1      -6.054   2.930  -4.883  1.00  0.00     0.007 C 
ATOM      4  C   UNL     1      -7.438   2.274  -4.822  1.00  0.00     0.011 C 
ATOM      5  C   UNL     1      -7.282   0.852  -5.375  1.00  0.00     0.047 C 
ATOM      6  C   UNL     1      -5.763   0.578  -5.356  1.00  0.00     0.081 C 
ATOM      7  C   UNL     1      -5.352  -0.545  -6.316  1.00  0.00     0.046 C 
ATOM      8  C   UNL     1      -5.421  -1.782  -5.428  1.00  0.00     0.054 C 
ATOM      9  C   UNL     1      -5.821  -1.214  -4.038  1.00  0.00     0.173 C 
ATOM     10  O   UNL     1      -5.392   0.130  -4.068  1.00  0.00    -0.342 OA
ATOM     11  C   UNL     1      -7.333  -1.190  -3.712  1.00  0.00     0.096 C 
ATOM     12  C   UNL     1      -8.064  -0.178  -4.568  1.00  0.00    -0.066 C 
ATOM     13  C   UNL     1      -9.403  -0.173  -4.593  1.00  0.00     0.008 C 
ENDROOT
BRANCH   8  14
ATOM     14  C   UNL     1      -6.162  -3.009  -6.053  1.00  0.00    -0.009 C 
ATOM     15  C   UNL     1      -5.289  -4.176  -6.563  1.00  0.00     0.008 C 
ATOM     16  C   UNL     1      -7.172  -2.575  -7.125  1.00  0.00     0.008 C 
ENDBRANCH   8  14
BRANCH   9  17
ATOM     17  O   UNL     1      -5.132  -1.917  -3.034  1.00  0.00    -0.365 OA
ATOM     18  H   UNL     1      -5.207  -2.885  -3.242  1.00  0.00     0.214 HD
ENDBRANCH   9  17
TORSDOF 2
ENDMDL
MODEL 6
REMARK VINA RESULT:    -5.156      7.036      9.312
REMARK INTER + INTRA:          -5.962
REMARK INTER:                  -5.949
REMARK INTRA:                  -0.013
REMARK UNBOUND:                -0.354
REMARK SMILES C=C1C[C@]2(O)O[C@@]3(C[C@@H]2C(C)C)[C@@H]1CC[C@@H]3C
REMARK SMILES IDX 17 1 16 2 15 3 14 4 13 5 7 6 8 7 9 8 4 9 6 10 3 11 2 12 1 13
REMARK SMILES IDX 10 14 11 15 12 16 5 17
REMARK H PARENT 5 18
REMARK Flexibility Score: inf
ROOT
ATOM      1  C   UNL     1       1.667  -9.116   0.225  1.00  0.00     0.011 C 
ATOM      2  C   UNL     1       1.739  -7.662  -0.288  1.00  0.00     0.019 C 
ATOM      3  C   UNL     1       3.194  -7.271  -0.573  1.00  0.00     0.007 C 
ATOM      4  C   UNL     1       3.435  -7.503  -2.069  1.00  0.00     0.011 C 
ATOM      5  C   UNL     1       2.081  -7.870  -2.688  1.00  0.00     0.047 C 
ATOM      6  C   UNL     1       1.031  -7.444  -1.638  1.00  0.00     0.081 C 
ATOM      7  C   UNL     1      -0.310  -8.164  -1.816  1.00  0.00     0.046 C 
ATOM      8  C   UNL     1      -1.078  -7.216  -2.731  1.00  0.00     0.054 C 
ATOM      9  C   UNL     1      -0.096  -6.029  -2.934  1.00  0.00     0.173 C 
ATOM     10  O   UNL     1       0.748  -6.069  -1.804  1.00  0.00    -0.342 OA
ATOM     11  C   UNL     1       0.822  -6.098  -4.176  1.00  0.00     0.096 C 
ATOM     12  C   UNL     1       1.853  -7.198  -4.036  1.00  0.00    -0.066 C 
ATOM     13  C   UNL     1       2.586  -7.560  -5.098  1.00  0.00     0.008 C 
ENDROOT
BRANCH   8  14
ATOM     14  C   UNL     1      -1.799  -7.896  -3.940  1.00  0.00    -0.009 C 
ATOM     15  C   UNL     1      -1.054  -9.045  -4.652  1.00  0.00     0.008 C 
ATOM     16  C   UNL     1      -2.299  -6.859  -4.956  1.00  0.00     0.008 C 
ENDBRANCH   8  14
BRANCH   9  17
ATOM     17  O   UNL     1      -0.823  -4.825  -2.949  1.00  0.00    -0.365 OA
ATOM     18  H   UNL     1      -0.568  -4.312  -2.139  1.00  0.00     0.214 HD
ENDBRANCH   9  17
TORSDOF 2
ENDMDL
MODEL 7
REMARK VINA RESULT:    -5.149      4.293      5.854
REMARK INTER + INTRA:          -5.954
REMARK INTER:                  -5.556
REMARK INTRA:                  -0.398
REMARK UNBOUND:                -0.354
REMARK SMILES C=C1C[C@]2(O)O[C@@]3(C[C@@H]2C(C)C)[C@@H]1CC[C@@H]3C
REMARK SMILES IDX 17 1 16 2 15 3 14 4 13 5 7 6 8 7 9 8 4 9 6 10 3 11 2 12 1 13
REMARK SMILES IDX 10 14 11 15 12 16 5 17
REMARK H PARENT 5 18
REMARK Flexibility Score: inf
ROOT
ATOM      1  C   UNL     1      -0.949  -8.372  -2.812  1.00  0.00     0.011 C 
ATOM      2  C   UNL     1      -0.729  -6.850  -2.698  1.00  0.00     0.019 C 
ATOM      3  C   UNL     1       0.747  -6.507  -2.937  1.00  0.00     0.007 C 
ATOM      4  C   UNL     1       0.883  -6.122  -4.415  1.00  0.00     0.011 C 
ATOM      5  C   UNL     1      -0.535  -6.080  -4.998  1.00  0.00     0.047 C 
ATOM      6  C   UNL     1      -1.472  -6.033  -3.771  1.00  0.00     0.081 C 
ATOM      7  C   UNL     1      -2.897  -6.493  -4.097  1.00  0.00     0.046 C 
ATOM      8  C   UNL     1      -3.590  -5.189  -4.473  1.00  0.00     0.054 C 
ATOM      9  C   UNL     1      -2.485  -4.115  -4.272  1.00  0.00     0.173 C 
ATOM     10  O   UNL     1      -1.596  -4.692  -3.340  1.00  0.00    -0.342 OA
ATOM     11  C   UNL     1      -1.645  -3.748  -5.517  1.00  0.00     0.096 C 
ATOM     12  C   UNL     1      -0.747  -4.895  -5.932  1.00  0.00    -0.066 C 
ATOM     13  C   UNL     1      -0.118  -4.851  -7.114  1.00  0.00     0.008 C 
ENDROOT
BRANCH   8  14
ATOM     14  C   UNL     1      -4.448  -5.243  -5.780  1.00  0.00    -0.009 C 
ATOM     15  C   UNL     1      -5.980  -5.139  -5.623  1.00  0.00     0.008 C 
ATOM     16  C   UNL     1      -4.070  -6.447  -6.655  1.00  0.00     0.008 C 
ENDBRANCH   8  14
BRANCH   9  17
ATOM     17  O   UNL     1      -3.062  -2.952  -3.731  1.00  0.00    -0.365 OA
ATOM     18  H   UNL     1      -2.568  -2.734  -2.898  1.00  0.00     0.214 HD
ENDBRANCH   9  17
TORSDOF 2
ENDMDL
MODEL 8
REMARK VINA RESULT:    -5.143     11.412     13.768
REMARK INTER + INTRA:          -5.948
REMARK INTER:                  -5.780
REMARK INTRA:                  -0.167
REMARK UNBOUND:                -0.354
REMARK SMILES C=C1C[C@]2(O)O[C@@]3(C[C@@H]2C(C)C)[C@@H]1CC[C@@H]3C
REMARK SMILES IDX 17 1 16 2 15 3 14 4 13 5 7 6 8 7 9 8 4 9 6 10 3 11 2 12 1 13
REMARK SMILES IDX 10 14 11 15 12 16 5 17
REMARK H PARENT 5 18
REMARK Flexibility Score: inf
ROOT
ATOM      1  C   UNL     1      -0.299   9.440  -3.371  1.00  0.00     0.011 C 
ATOM      2  C   UNL     1       0.525   8.479  -4.252  1.00  0.00     0.019 C 
ATOM      3  C   UNL     1       0.016   8.515  -5.698  1.00  0.00     0.007 C 
ATOM      4  C   UNL     1       0.902   9.507  -6.460  1.00  0.00     0.011 C 
ATOM      5  C   UNL     1       2.027   9.925  -5.506  1.00  0.00     0.047 C 
ATOM      6  C   UNL     1       2.009   8.871  -4.378  1.00  0.00     0.081 C 
ATOM      7  C   UNL     1       2.683   9.367  -3.093  1.00  0.00     0.046 C 
ATOM      8  C   UNL     1       4.126   8.910  -3.277  1.00  0.00     0.054 C 
ATOM      9  C   UNL     1       4.101   8.156  -4.636  1.00  0.00     0.173 C 
ATOM     10  O   UNL     1       2.760   7.746  -4.789  1.00  0.00    -0.342 OA
ATOM     11  C   UNL     1       4.458   8.986  -5.891  1.00  0.00     0.096 C 
ATOM     12  C   UNL     1       3.382  10.005  -6.200  1.00  0.00    -0.066 C 
ATOM     13  C   UNL     1       3.615  10.963  -7.107  1.00  0.00     0.008 C 
ENDROOT
BRANCH   8  14
ATOM     14  C   UNL     1       5.212   9.989  -2.961  1.00  0.00    -0.009 C 
ATOM     15  C   UNL     1       6.687   9.595  -3.190  1.00  0.00     0.008 C 
ATOM     16  C   UNL     1       5.021  10.592  -1.562  1.00  0.00     0.008 C 
ENDBRANCH   8  14
BRANCH   9  17
ATOM     17  O   UNL     1       4.942   7.032  -4.557  1.00  0.00    -0.365 OA
ATOM     18  H   UNL     1       4.387   6.263  -4.266  1.00  0.00     0.214 HD
ENDBRANCH   9  17
TORSDOF 2
ENDMDL
MODEL 9
REMARK VINA RESULT:    -5.053     12.718     14.743
REMARK INTER + INTRA:          -5.849
REMARK INTER:                  -5.573
REMARK INTRA:                  -0.276
REMARK UNBOUND:                -0.354
REMARK SMILES C=C1C[C@]2(O)O[C@@]3(C[C@@H]2C(C)C)[C@@H]1CC[C@@H]3C
REMARK SMILES IDX 17 1 16 2 15 3 14 4 13 5 7 6 8 7 9 8 4 9 6 10 3 11 2 12 1 13
REMARK SMILES IDX 10 14 11 15 12 16 5 17
REMARK H PARENT 5 18
REMARK Flexibility Score: inf
ROOT
ATOM      1  C   UNL     1       2.968  10.498  -1.127  1.00  0.00     0.011 C 
ATOM      2  C   UNL     1       2.809   9.243  -2.011  1.00  0.00     0.019 C 
ATOM      3  C   UNL     1       1.416   9.218  -2.652  1.00  0.00     0.007 C 
ATOM      4  C   UNL     1       1.556   9.828  -4.051  1.00  0.00     0.011 C 
ATOM      5  C   UNL     1       3.054  10.058  -4.290  1.00  0.00     0.047 C 
ATOM      6  C   UNL     1       3.766   9.207  -3.216  1.00  0.00     0.081 C 
ATOM      7  C   UNL     1       5.201   9.675  -2.947  1.00  0.00     0.046 C 
ATOM      8  C   UNL     1       6.015   8.831  -3.922  1.00  0.00     0.054 C 
ATOM      9  C   UNL     1       4.947   7.936  -4.610  1.00  0.00     0.173 C 
ATOM     10  O   UNL     1       3.883   7.878  -3.686  1.00  0.00    -0.342 OA
ATOM     11  C   UNL     1       4.354   8.465  -5.937  1.00  0.00     0.096 C 
ATOM     12  C   UNL     1       3.484   9.682  -5.703  1.00  0.00    -0.066 C 
ATOM     13  C   UNL     1       3.071  10.413  -6.747  1.00  0.00     0.008 C 
ENDROOT
BRANCH   8  14
ATOM     14  C   UNL     1       7.081   9.617  -4.754  1.00  0.00    -0.009 C 
ATOM     15  C   UNL     1       8.209   8.794  -5.412  1.00  0.00     0.008 C 
ATOM     16  C   UNL     1       7.659  10.797  -3.960  1.00  0.00     0.008 C 
ENDBRANCH   8  14
BRANCH   9  17
ATOM     17  O   UNL     1       5.481   6.650  -4.810  1.00  0.00    -0.365 OA
ATOM     18  H   UNL     1       6.114   6.471  -4.068  1.00  0.00     0.214 HD
ENDBRANCH   9  17
TORSDOF 2
ENDMDL
