MODEL 1
REMARK VINA RESULT:    -5.327      0.000      0.000
REMARK INTER + INTRA:          -5.855
REMARK INTER:                  -5.794
REMARK INTRA:                  -0.061
REMARK UNBOUND:                -0.061
REMARK SMILES CCc1cccc(O)c1
REMARK SMILES IDX 3 1 9 2 7 3 6 4 5 5 4 6 2 7 1 8 8 9
REMARK H PARENT 8 10
REMARK Flexibility Score: inf
ROOT
ATOM      1  C   UNL     1      -5.470   8.805 -15.643  1.00  0.00    -0.045 A 
ATOM      2  C   UNL     1      -4.585   9.438 -14.755  1.00  0.00     0.049 A 
ATOM      3  C   UNL     1      -4.902   9.545 -13.396  1.00  0.00     0.115 A 
ATOM      4  C   UNL     1      -6.105   9.009 -12.918  1.00  0.00     0.046 A 
ATOM      5  C   UNL     1      -6.984   8.366 -13.794  1.00  0.00     0.004 A 
ATOM      6  C   UNL     1      -6.667   8.260 -15.152  1.00  0.00     0.004 A 
ENDROOT
BRANCH   1   7
ATOM      7  C   UNL     1      -5.113   8.661 -17.098  1.00  0.00     0.032 C 
ATOM      8  C   UNL     1      -6.154   9.346 -17.980  1.00  0.00     0.009 C 
ENDBRANCH   1   7
BRANCH   3   9
ATOM      9  O   UNL     1      -4.014  10.182 -12.531  1.00  0.00    -0.508 OA
ATOM     10  H   UNL     1      -3.041  10.318 -12.777  1.00  0.00     0.293 HD
ENDBRANCH   3   9
TORSDOF 2
ENDMDL
MODEL 2
REMARK VINA RESULT:    -5.140      1.595      1.606
REMARK INTER + INTRA:          -5.651
REMARK INTER:                  -5.605
REMARK INTRA:                  -0.046
REMARK UNBOUND:                -0.061
REMARK SMILES CCc1cccc(O)c1
REMARK SMILES IDX 3 1 9 2 7 3 6 4 5 5 4 6 2 7 1 8 8 9
REMARK H PARENT 8 10
REMARK Flexibility Score: inf
ROOT
ATOM      1  C   UNL     1      -5.786   9.315 -15.773  1.00  0.00    -0.045 A 
ATOM      2  C   UNL     1      -5.710  10.694 -15.513  1.00  0.00     0.049 A 
ATOM      3  C   UNL     1      -6.006  11.192 -14.240  1.00  0.00     0.115 A 
ATOM      4  C   UNL     1      -6.371  10.308 -13.214  1.00  0.00     0.046 A 
ATOM      5  C   UNL     1      -6.435   8.934 -13.462  1.00  0.00     0.004 A 
ATOM      6  C   UNL     1      -6.139   8.437 -14.735  1.00  0.00     0.004 A 
ENDROOT
BRANCH   1   7
ATOM      7  C   UNL     1      -5.435   8.777 -17.134  1.00  0.00     0.032 C 
ATOM      8  C   UNL     1      -6.274   9.454 -18.215  1.00  0.00     0.009 C 
ENDBRANCH   1   7
BRANCH   3   9
ATOM      9  O   UNL     1      -5.932  12.562 -14.003  1.00  0.00    -0.508 OA
ATOM     10  H   UNL     1      -5.723  13.218 -14.746  1.00  0.00     0.293 HD
ENDBRANCH   3   9
TORSDOF 2
ENDMDL
MODEL 3
REMARK VINA RESULT:    -5.099      1.988      3.162
REMARK INTER + INTRA:          -5.607
REMARK INTER:                  -5.557
REMARK INTRA:                  -0.050
REMARK UNBOUND:                -0.061
REMARK SMILES CCc1cccc(O)c1
REMARK SMILES IDX 3 1 9 2 7 3 6 4 5 5 4 6 2 7 1 8 8 9
REMARK H PARENT 8 10
REMARK Flexibility Score: inf
ROOT
ATOM      1  C   UNL     1      -6.924   8.422 -14.991  1.00  0.00    -0.045 A 
ATOM      2  C   UNL     1      -7.078   9.793 -14.726  1.00  0.00     0.049 A 
ATOM      3  C   UNL     1      -6.113  10.709 -15.158  1.00  0.00     0.115 A 
ATOM      4  C   UNL     1      -4.992  10.258 -15.868  1.00  0.00     0.046 A 
ATOM      5  C   UNL     1      -4.840   8.897 -16.147  1.00  0.00     0.004 A 
ATOM      6  C   UNL     1      -5.804   7.981 -15.714  1.00  0.00     0.004 A 
ENDROOT
BRANCH   1   7
ATOM      7  C   UNL     1      -7.978   7.440 -14.554  1.00  0.00     0.032 C 
ATOM      8  C   UNL     1      -9.370   7.937 -14.935  1.00  0.00     0.009 C 
ENDBRANCH   1   7
BRANCH   3   9
ATOM      9  O   UNL     1      -6.279  12.065 -14.881  1.00  0.00    -0.508 OA
ATOM     10  H   UNL     1      -5.854  12.495 -14.068  1.00  0.00     0.293 HD
ENDBRANCH   3   9
TORSDOF 2
ENDMDL
MODEL 4
REMARK VINA RESULT:    -5.011      1.294      1.422
REMARK INTER + INTRA:          -5.511
REMARK INTER:                  -5.459
REMARK INTRA:                  -0.052
REMARK UNBOUND:                -0.061
REMARK SMILES CCc1cccc(O)c1
REMARK SMILES IDX 3 1 9 2 7 3 6 4 5 5 4 6 2 7 1 8 8 9
REMARK H PARENT 8 10
REMARK Flexibility Score: inf
ROOT
ATOM      1  C   UNL     1      -6.119   8.647 -15.377  1.00  0.00    -0.045 A 
ATOM      2  C   UNL     1      -5.986   9.679 -14.434  1.00  0.00     0.049 A 
ATOM      3  C   UNL     1      -6.771   9.685 -13.276  1.00  0.00     0.115 A 
ATOM      4  C   UNL     1      -7.690   8.650 -13.052  1.00  0.00     0.046 A 
ATOM      5  C   UNL     1      -7.816   7.612 -13.980  1.00  0.00     0.004 A 
ATOM      6  C   UNL     1      -7.032   7.607 -15.137  1.00  0.00     0.004 A 
ENDROOT
BRANCH   1   7
ATOM      7  C   UNL     1      -5.250   8.624 -16.606  1.00  0.00     0.032 C 
ATOM      8  C   UNL     1      -5.999   9.192 -17.808  1.00  0.00     0.009 C 
ENDBRANCH   1   7
BRANCH   3   9
ATOM      9  O   UNL     1      -6.631  10.721 -12.354  1.00  0.00    -0.508 OA
ATOM     10  H   UNL     1      -7.397  11.004 -11.756  1.00  0.00     0.293 HD
ENDBRANCH   3   9
TORSDOF 2
ENDMDL
MODEL 5
REMARK VINA RESULT:    -5.006      1.448      2.163
REMARK INTER + INTRA:          -5.506
REMARK INTER:                  -5.456
REMARK INTRA:                  -0.050
REMARK UNBOUND:                -0.061
REMARK SMILES CCc1cccc(O)c1
REMARK SMILES IDX 3 1 9 2 7 3 6 4 5 5 4 6 2 7 1 8 8 9
REMARK H PARENT 8 10
REMARK Flexibility Score: inf
ROOT
ATOM      1  C   UNL     1      -5.127   8.909 -15.666  1.00  0.00    -0.045 A 
ATOM      2  C   UNL     1      -6.311   8.527 -15.013  1.00  0.00     0.049 A 
ATOM      3  C   UNL     1      -6.456   8.730 -13.636  1.00  0.00     0.115 A 
ATOM      4  C   UNL     1      -5.418   9.326 -12.906  1.00  0.00     0.046 A 
ATOM      5  C   UNL     1      -4.243   9.721 -13.553  1.00  0.00     0.004 A 
ATOM      6  C   UNL     1      -4.098   9.517 -14.929  1.00  0.00     0.004 A 
ENDROOT
BRANCH   1   7
ATOM      7  C   UNL     1      -4.985   8.720 -17.153  1.00  0.00     0.032 C 
ATOM      8  C   UNL     1      -6.169   9.336 -17.891  1.00  0.00     0.009 C 
ENDBRANCH   1   7
BRANCH   3   9
ATOM      9  O   UNL     1      -7.634   8.340 -13.004  1.00  0.00    -0.508 OA
ATOM     10  H   UNL     1      -8.401   7.927 -13.521  1.00  0.00     0.293 HD
ENDBRANCH   3   9
TORSDOF 2
ENDMDL
MODEL 6
REMARK VINA RESULT:    -4.994      2.225      3.381
REMARK INTER + INTRA:          -5.492
REMARK INTER:                  -5.430
REMARK INTRA:                  -0.062
REMARK UNBOUND:                -0.061
REMARK SMILES CCc1cccc(O)c1
REMARK SMILES IDX 3 1 9 2 7 3 6 4 5 5 4 6 2 7 1 8 8 9
REMARK H PARENT 8 10
REMARK Flexibility Score: inf
ROOT
ATOM      1  C   UNL     1      -6.947   8.473 -15.009  1.00  0.00    -0.045 A 
ATOM      2  C   UNL     1      -5.911   7.951 -15.801  1.00  0.00     0.049 A 
ATOM      3  C   UNL     1      -4.905   8.789 -16.292  1.00  0.00     0.115 A 
ATOM      4  C   UNL     1      -4.926  10.157 -15.986  1.00  0.00     0.046 A 
ATOM      5  C   UNL     1      -5.946  10.680 -15.187  1.00  0.00     0.004 A 
ATOM      6  C   UNL     1      -6.952   9.842 -14.695  1.00  0.00     0.004 A 
ENDROOT
BRANCH   1   7
ATOM      7  C   UNL     1      -8.011   7.565 -14.453  1.00  0.00     0.032 C 
ATOM      8  C   UNL     1      -9.399   8.035 -14.879  1.00  0.00     0.009 C 
ENDBRANCH   1   7
BRANCH   3   9
ATOM      9  O   UNL     1      -3.889   8.254 -17.082  1.00  0.00    -0.508 OA
ATOM     10  H   UNL     1      -4.082   7.846 -17.988  1.00  0.00     0.293 HD
ENDBRANCH   3   9
TORSDOF 2
ENDMDL
MODEL 7
REMARK VINA RESULT:    -4.904      1.999      2.577
REMARK INTER + INTRA:          -5.394
REMARK INTER:                  -5.345
REMARK INTRA:                  -0.050
REMARK UNBOUND:                -0.061
REMARK SMILES CCc1cccc(O)c1
REMARK SMILES IDX 3 1 9 2 7 3 6 4 5 5 4 6 2 7 1 8 8 9
REMARK H PARENT 8 10
REMARK Flexibility Score: inf
ROOT
ATOM      1  C   UNL     1      -5.759   8.471 -15.346  1.00  0.00    -0.045 A 
ATOM      2  C   UNL     1      -7.013   7.877 -15.127  1.00  0.00     0.049 A 
ATOM      3  C   UNL     1      -7.611   7.932 -13.864  1.00  0.00     0.115 A 
ATOM      4  C   UNL     1      -6.960   8.591 -12.813  1.00  0.00     0.046 A 
ATOM      5  C   UNL     1      -5.718   9.197 -13.027  1.00  0.00     0.004 A 
ATOM      6  C   UNL     1      -5.120   9.142 -14.290  1.00  0.00     0.004 A 
ENDROOT
BRANCH   1   7
ATOM      7  C   UNL     1      -5.131   8.440 -16.713  1.00  0.00     0.032 C 
ATOM      8  C   UNL     1      -5.983   9.211 -17.717  1.00  0.00     0.009 C 
ENDBRANCH   1   7
BRANCH   3   9
ATOM      9  O   UNL     1      -8.852   7.331 -13.664  1.00  0.00    -0.508 OA
ATOM     10  H   UNL     1      -8.935   6.343 -13.457  1.00  0.00     0.293 HD
ENDBRANCH   3   9
TORSDOF 2
ENDMDL
