MODEL 1
REMARK VINA RESULT:    12.616      0.000      0.000
REMARK INTER + INTRA:          18.830
REMARK INTER:                  19.254
REMARK INTRA:                  -0.424
REMARK UNBOUND:                -0.424
REMARK SMILES O=C([O-])CCCCCCCCC(=O)[O-]
REMARK SMILES IDX 7 1 6 2 5 3 4 4 2 5 1 6 3 7 8 8 9 9 10 10 11 11 12 12 13 13
REMARK SMILES IDX 14 14
REMARK H PARENT
REMARK Flexibility Score: inf
ROOT
ATOM      1  C   UNL     1      -2.070   8.061 -23.131  1.00  0.00     0.000 C 
ENDROOT
BRANCH   1   2
ATOM      2  C   UNL     1      -2.329   8.995 -24.323  1.00  0.00     0.000 C 
BRANCH   2   3
ATOM      3  C   UNL     1      -1.032   9.517 -24.965  1.00  0.00     0.006 C 
BRANCH   3   4
ATOM      4  C   UNL     1       0.115   8.495 -24.994  1.00  0.00     0.053 C 
BRANCH   4   5
ATOM      5  C   UNL     1       0.692   8.338 -26.367  1.00  0.00     0.041 C 
ATOM      6  O   UNL     1       0.898   7.189 -26.841  1.00  0.00    -0.550 OA
ATOM      7  O   UNL     1       1.033   9.460 -27.111  1.00  0.00    -0.550 OA
ENDBRANCH   4   5
ENDBRANCH   3   4
ENDBRANCH   2   3
ENDBRANCH   1   2
BRANCH   1   8
ATOM      8  C   UNL     1      -3.190   7.021 -22.994  1.00  0.00     0.000 C 
BRANCH   8   9
ATOM      9  C   UNL     1      -3.869   7.120 -21.624  1.00  0.00     0.000 C 
BRANCH   9  10
ATOM     10  C   UNL     1      -2.862   6.879 -20.491  1.00  0.00     0.006 C 
BRANCH  10  11
ATOM     11  C   UNL     1      -3.228   7.647 -19.213  1.00  0.00     0.053 C 
BRANCH  11  12
ATOM     12  C   UNL     1      -2.331   8.828 -19.000  1.00  0.00     0.041 C 
ATOM     13  O   UNL     1      -2.653   9.728 -18.180  1.00  0.00    -0.550 OA
ATOM     14  O   UNL     1      -1.156   8.954 -19.731  1.00  0.00    -0.550 OA
ENDBRANCH  11  12
ENDBRANCH  10  11
ENDBRANCH   9  10
ENDBRANCH   8   9
ENDBRANCH   1   8
TORSDOF 9
ENDMDL
MODEL 2
REMARK VINA RESULT:    12.801      1.105      6.599
REMARK INTER + INTRA:          19.112
REMARK INTER:                  19.652
REMARK INTRA:                  -0.540
REMARK UNBOUND:                -0.424
REMARK SMILES O=C([O-])CCCCCCCCC(=O)[O-]
REMARK SMILES IDX 7 1 6 2 5 3 4 4 2 5 1 6 3 7 8 8 9 9 10 10 11 11 12 12 13 13
REMARK SMILES IDX 14 14
REMARK H PARENT
REMARK Flexibility Score: inf
ROOT
ATOM      1  C   UNL     1      -4.060   8.098 -24.079  1.00  0.00     0.000 C 
ENDROOT
BRANCH   1   2
ATOM      2  C   UNL     1      -3.114   7.167 -23.307  1.00  0.00     0.000 C 
BRANCH   2   3
ATOM      3  C   UNL     1      -3.554   6.944 -21.849  1.00  0.00     0.006 C 
BRANCH   3   4
ATOM      4  C   UNL     1      -2.471   7.262 -20.806  1.00  0.00     0.053 C 
BRANCH   4   5
ATOM      5  C   UNL     1      -3.061   7.692 -19.498  1.00  0.00     0.041 C 
ATOM      6  O   UNL     1      -4.310   7.782 -19.365  1.00  0.00    -0.550 OA
ATOM      7  O   UNL     1      -2.229   8.025 -18.437  1.00  0.00    -0.550 OA
ENDBRANCH   4   5
ENDBRANCH   3   4
ENDBRANCH   2   3
ENDBRANCH   1   2
BRANCH   1   8
ATOM      8  C   UNL     1      -3.351   9.401 -24.470  1.00  0.00     0.000 C 
BRANCH   8   9
ATOM      9  C   UNL     1      -1.917   9.432 -23.929  1.00  0.00     0.000 C 
BRANCH   9  10
ATOM     10  C   UNL     1      -0.897   9.491 -25.075  1.00  0.00     0.006 C 
BRANCH  10  11
ATOM     11  C   UNL     1       0.020   8.261 -25.102  1.00  0.00     0.053 C 
BRANCH  11  12
ATOM     12  C   UNL     1       0.738   8.133 -26.411  1.00  0.00     0.041 C 
ATOM     13  O   UNL     1       1.055   9.162 -27.064  1.00  0.00    -0.550 OA
ATOM     14  O   UNL     1       1.029   6.876 -26.927  1.00  0.00    -0.550 OA
ENDBRANCH  11  12
ENDBRANCH  10  11
ENDBRANCH   9  10
ENDBRANCH   8   9
ENDBRANCH   1   8
TORSDOF 9
ENDMDL
MODEL 3
REMARK VINA RESULT:    13.120      3.687      4.541
REMARK INTER + INTRA:          19.599
REMARK INTER:                  19.450
REMARK INTRA:                   0.150
REMARK UNBOUND:                -0.424
REMARK SMILES O=C([O-])CCCCCCCCC(=O)[O-]
REMARK SMILES IDX 7 1 6 2 5 3 4 4 2 5 1 6 3 7 8 8 9 9 10 10 11 11 12 12 13 13
REMARK SMILES IDX 14 14
REMARK H PARENT
REMARK Flexibility Score: inf
ROOT
ATOM      1  C   UNL     1      -2.787   8.119 -23.834  1.00  0.00     0.000 C 
ENDROOT
BRANCH   1   2
ATOM      2  C   UNL     1      -1.289   8.398 -23.645  1.00  0.00     0.000 C 
BRANCH   2   3
ATOM      3  C   UNL     1      -0.803   9.620 -24.445  1.00  0.00     0.006 C 
BRANCH   3   4
ATOM      4  C   UNL     1      -0.735   9.394 -25.963  1.00  0.00     0.053 C 
BRANCH   4   5
ATOM      5  C   UNL     1       0.598   8.860 -26.392  1.00  0.00     0.041 C 
ATOM      6  O   UNL     1       1.352   9.552 -27.125  1.00  0.00    -0.550 OA
ATOM      7  O   UNL     1       0.990   7.584 -26.009  1.00  0.00    -0.550 OA
ENDBRANCH   4   5
ENDBRANCH   3   4
ENDBRANCH   2   3
ENDBRANCH   1   2
BRANCH   1   8
ATOM      8  C   UNL     1      -3.436   9.188 -24.723  1.00  0.00     0.000 C 
BRANCH   8   9
ATOM      9  C   UNL     1      -4.898   8.839 -25.027  1.00  0.00     0.000 C 
BRANCH   9  10
ATOM     10  C   UNL     1      -5.771  10.102 -25.057  1.00  0.00     0.006 C 
BRANCH  10  11
ATOM     11  C   UNL     1      -5.758  10.849 -23.716  1.00  0.00     0.053 C 
BRANCH  11  12
ATOM     12  C   UNL     1      -6.463  12.168 -23.810  1.00  0.00     0.041 C 
ATOM     13  O   UNL     1      -7.159  12.584 -22.847  1.00  0.00    -0.550 OA
ATOM     14  O   UNL     1      -6.377  12.924 -24.973  1.00  0.00    -0.550 OA
ENDBRANCH  11  12
ENDBRANCH  10  11
ENDBRANCH   9  10
ENDBRANCH   8   9
ENDBRANCH   1   8
TORSDOF 9
ENDMDL
MODEL 4
REMARK VINA RESULT:    13.211      3.722      6.703
REMARK INTER + INTRA:          19.738
REMARK INTER:                  19.508
REMARK INTRA:                   0.230
REMARK UNBOUND:                -0.424
REMARK SMILES O=C([O-])CCCCCCCCC(=O)[O-]
REMARK SMILES IDX 7 1 6 2 5 3 4 4 2 5 1 6 3 7 8 8 9 9 10 10 11 11 12 12 13 13
REMARK SMILES IDX 14 14
REMARK H PARENT
REMARK Flexibility Score: inf
ROOT
ATOM      1  C   UNL     1      -3.444   9.212 -24.642  1.00  0.00     0.000 C 
ENDROOT
BRANCH   1   2
ATOM      2  C   UNL     1      -4.878   8.857 -25.062  1.00  0.00     0.000 C 
BRANCH   2   3
ATOM      3  C   UNL     1      -5.826  10.070 -25.034  1.00  0.00     0.006 C 
BRANCH   3   4
ATOM      4  C   UNL     1      -5.704  10.937 -23.772  1.00  0.00     0.053 C 
BRANCH   4   5
ATOM      5  C   UNL     1      -6.520  12.190 -23.872  1.00  0.00     0.041 C 
ATOM      6  O   UNL     1      -7.153  12.616 -22.869  1.00  0.00    -0.550 OA
ATOM      7  O   UNL     1      -6.607  12.868 -25.080  1.00  0.00    -0.550 OA
ENDBRANCH   4   5
ENDBRANCH   3   4
ENDBRANCH   2   3
ENDBRANCH   1   2
BRANCH   1   8
ATOM      8  C   UNL     1      -2.827   8.092 -23.796  1.00  0.00     0.000 C 
BRANCH   8   9
ATOM      9  C   UNL     1      -1.339   8.354 -23.534  1.00  0.00     0.000 C 
BRANCH   9  10
ATOM     10  C   UNL     1      -0.834   9.540 -24.369  1.00  0.00     0.006 C 
BRANCH  10  11
ATOM     11  C   UNL     1      -0.821   9.229 -25.872  1.00  0.00     0.053 C 
BRANCH  11  12
ATOM     12  C   UNL     1       0.541   8.818 -26.342  1.00  0.00     0.041 C 
ATOM     13  O   UNL     1       1.012   7.697 -26.015  1.00  0.00    -0.550 OA
ATOM     14  O   UNL     1       1.304   9.685 -27.114  1.00  0.00    -0.550 OA
ENDBRANCH  11  12
ENDBRANCH  10  11
ENDBRANCH   9  10
ENDBRANCH   8   9
ENDBRANCH   1   8
TORSDOF 9
ENDMDL
MODEL 5
REMARK VINA RESULT:    13.432     12.227     14.146
REMARK INTER + INTRA:          20.076
REMARK INTER:                  20.197
REMARK INTRA:                  -0.121
REMARK UNBOUND:                -0.424
REMARK SMILES O=C([O-])CCCCCCCCC(=O)[O-]
REMARK SMILES IDX 7 1 6 2 5 3 4 4 2 5 1 6 3 7 8 8 9 9 10 10 11 11 12 12 13 13
REMARK SMILES IDX 14 14
REMARK H PARENT
REMARK Flexibility Score: inf
ROOT
ATOM      1  C   UNL     1       5.035  17.328 -14.252  1.00  0.00     0.000 C 
ENDROOT
BRANCH   1   2
ATOM      2  C   UNL     1       4.710  18.311 -15.386  1.00  0.00     0.000 C 
BRANCH   2   3
ATOM      3  C   UNL     1       4.941  17.707 -16.783  1.00  0.00     0.006 C 
BRANCH   3   4
ATOM      4  C   UNL     1       3.884  16.676 -17.208  1.00  0.00     0.053 C 
BRANCH   4   5
ATOM      5  C   UNL     1       3.879  16.456 -18.690  1.00  0.00     0.041 C 
ATOM      6  O   UNL     1       3.229  17.229 -19.443  1.00  0.00    -0.550 OA
ATOM      7  O   UNL     1       4.565  15.379 -19.235  1.00  0.00    -0.550 OA
ENDBRANCH   4   5
ENDBRANCH   3   4
ENDBRANCH   2   3
ENDBRANCH   1   2
BRANCH   1   8
ATOM      8  C   UNL     1       4.373  17.766 -12.939  1.00  0.00     0.000 C 
BRANCH   8   9
ATOM      9  C   UNL     1       4.686  19.234 -12.626  1.00  0.00     0.000 C 
BRANCH   9  10
ATOM     10  C   UNL     1       3.508  20.142 -13.007  1.00  0.00     0.006 C 
BRANCH  10  11
ATOM     11  C   UNL     1       2.735  20.639 -11.778  1.00  0.00     0.053 C 
BRANCH  11  12
ATOM     12  C   UNL     1       1.268  20.357 -11.893  1.00  0.00     0.041 C 
ATOM     13  O   UNL     1       0.451  21.304 -12.037  1.00  0.00    -0.550 OA
ATOM     14  O   UNL     1       0.800  19.052 -11.807  1.00  0.00    -0.550 OA
ENDBRANCH  11  12
ENDBRANCH  10  11
ENDBRANCH   9  10
ENDBRANCH   8   9
ENDBRANCH   1   8
TORSDOF 9
ENDMDL
MODEL 6
REMARK VINA RESULT:    13.517      1.317      2.110
REMARK INTER + INTRA:          20.205
REMARK INTER:                  19.938
REMARK INTRA:                   0.267
REMARK UNBOUND:                -0.424
REMARK SMILES O=C([O-])CCCCCCCCC(=O)[O-]
REMARK SMILES IDX 7 1 6 2 5 3 4 4 2 5 1 6 3 7 8 8 9 9 10 10 11 11 12 12 13 13
REMARK SMILES IDX 14 14
REMARK H PARENT
REMARK Flexibility Score: inf
ROOT
ATOM      1  C   UNL     1      -0.469   8.428 -23.854  1.00  0.00     0.000 C 
ENDROOT
BRANCH   1   2
ATOM      2  C   UNL     1      -0.037   7.060 -24.401  1.00  0.00     0.000 C 
BRANCH   2   3
ATOM      3  C   UNL     1       1.095   7.164 -25.439  1.00  0.00     0.006 C 
BRANCH   3   4
ATOM      4  C   UNL     1       0.661   7.750 -26.791  1.00  0.00     0.053 C 
BRANCH   4   5
ATOM      5  C   UNL     1       0.686   9.248 -26.786  1.00  0.00     0.041 C 
ATOM      6  O   UNL     1      -0.356   9.898 -26.506  1.00  0.00    -0.550 OA
ATOM      7  O   UNL     1       1.850   9.925 -27.124  1.00  0.00    -0.550 OA
ENDBRANCH   4   5
ENDBRANCH   3   4
ENDBRANCH   2   3
ENDBRANCH   1   2
BRANCH   1   8
ATOM      8  C   UNL     1      -1.983   8.627 -24.006  1.00  0.00     0.000 C 
BRANCH   8   9
ATOM      9  C   UNL     1      -2.760   7.536 -23.261  1.00  0.00     0.000 C 
BRANCH   9  10
ATOM     10  C   UNL     1      -2.249   7.382 -21.821  1.00  0.00     0.006 C 
BRANCH  10  11
ATOM     11  C   UNL     1      -3.369   7.003 -20.843  1.00  0.00     0.053 C 
BRANCH  11  12
ATOM     12  C   UNL     1      -3.252   7.748 -19.549  1.00  0.00     0.041 C 
ATOM     13  O   UNL     1      -4.253   7.870 -18.795  1.00  0.00    -0.550 OA
ATOM     14  O   UNL     1      -2.046   8.338 -19.190  1.00  0.00    -0.550 OA
ENDBRANCH  11  12
ENDBRANCH  10  11
ENDBRANCH   9  10
ENDBRANCH   8   9
ENDBRANCH   1   8
TORSDOF 9
ENDMDL
MODEL 7
REMARK VINA RESULT:    13.786     12.361     15.527
REMARK INTER + INTRA:          20.615
REMARK INTER:                  20.866
REMARK INTRA:                  -0.252
REMARK UNBOUND:                -0.424
REMARK SMILES O=C([O-])CCCCCCCCC(=O)[O-]
REMARK SMILES IDX 7 1 6 2 5 3 4 4 2 5 1 6 3 7 8 8 9 9 10 10 11 11 12 12 13 13
REMARK SMILES IDX 14 14
REMARK H PARENT
REMARK Flexibility Score: inf
ROOT
ATOM      1  C   UNL     1       4.129  17.865 -12.962  1.00  0.00     0.000 C 
ENDROOT
BRANCH   1   2
ATOM      2  C   UNL     1       4.558  19.259 -12.480  1.00  0.00     0.000 C 
BRANCH   2   3
ATOM      3  C   UNL     1       3.571  20.364 -12.897  1.00  0.00     0.006 C 
BRANCH   3   4
ATOM      4  C   UNL     1       2.697  20.896 -11.751  1.00  0.00     0.053 C 
BRANCH   4   5
ATOM      5  C   UNL     1       1.318  20.310 -11.779  1.00  0.00     0.041 C 
ATOM      6  O   UNL     1       0.314  21.043 -11.575  1.00  0.00    -0.550 OA
ATOM      7  O   UNL     1       1.145  18.950 -11.997  1.00  0.00    -0.550 OA
ENDBRANCH   4   5
ENDBRANCH   3   4
ENDBRANCH   2   3
ENDBRANCH   1   2
BRANCH   1   8
ATOM      8  C   UNL     1       5.081  17.341 -14.045  1.00  0.00     0.000 C 
BRANCH   8   9
ATOM      9  C   UNL     1       5.015  18.212 -15.305  1.00  0.00     0.000 C 
BRANCH   9  10
ATOM     10  C   UNL     1       5.124  17.353 -16.574  1.00  0.00     0.006 C 
BRANCH  10  11
ATOM     11  C   UNL     1       4.390  17.981 -17.766  1.00  0.00     0.053 C 
BRANCH  11  12
ATOM     12  C   UNL     1       3.777  16.940 -18.651  1.00  0.00     0.041 C 
ATOM     13  O   UNL     1       4.091  15.728 -18.516  1.00  0.00    -0.550 OA
ATOM     14  O   UNL     1       2.883  17.310 -19.649  1.00  0.00    -0.550 OA
ENDBRANCH  11  12
ENDBRANCH  10  11
ENDBRANCH   9  10
ENDBRANCH   8   9
ENDBRANCH   1   8
TORSDOF 9
ENDMDL
MODEL 8
REMARK VINA RESULT:    14.579      7.206      8.662
REMARK INTER + INTRA:          21.826
REMARK INTER:                  22.149
REMARK INTRA:                  -0.323
REMARK UNBOUND:                -0.424
REMARK SMILES O=C([O-])CCCCCCCCC(=O)[O-]
REMARK SMILES IDX 7 1 6 2 5 3 4 4 2 5 1 6 3 7 8 8 9 9 10 10 11 11 12 12 13 13
REMARK SMILES IDX 14 14
REMARK H PARENT
REMARK Flexibility Score: inf
ROOT
ATOM      1  C   UNL     1      -5.250  13.991 -25.287  1.00  0.00     0.000 C 
ENDROOT
BRANCH   1   2
ATOM      2  C   UNL     1      -5.344  15.088 -26.358  1.00  0.00     0.000 C 
BRANCH   2   3
ATOM      3  C   UNL     1      -4.571  16.363 -25.975  1.00  0.00     0.006 C 
BRANCH   3   4
ATOM      4  C   UNL     1      -5.441  17.626 -25.884  1.00  0.00     0.053 C 
BRANCH   4   5
ATOM      5  C   UNL     1      -5.447  18.205 -24.502  1.00  0.00     0.041 C 
ATOM      6  O   UNL     1      -6.112  19.245 -24.253  1.00  0.00    -0.550 OA
ATOM      7  O   UNL     1      -4.692  17.614 -23.498  1.00  0.00    -0.550 OA
ENDBRANCH   4   5
ENDBRANCH   3   4
ENDBRANCH   2   3
ENDBRANCH   1   2
BRANCH   1   8
ATOM      8  C   UNL     1      -6.467  13.058 -25.348  1.00  0.00     0.000 C 
BRANCH   8   9
ATOM      9  C   UNL     1      -6.646  12.298 -24.029  1.00  0.00     0.000 C 
BRANCH   9  10
ATOM     10  C   UNL     1      -5.548  11.241 -23.849  1.00  0.00     0.006 C 
BRANCH  10  11
ATOM     11  C   UNL     1      -5.955   9.876 -24.422  1.00  0.00     0.053 C 
BRANCH  11  12
ATOM     12  C   UNL     1      -4.873   9.287 -25.274  1.00  0.00     0.041 C 
ATOM     13  O   UNL     1      -5.084   9.052 -26.493  1.00  0.00    -0.550 OA
ATOM     14  O   UNL     1      -3.642   8.966 -24.716  1.00  0.00    -0.550 OA
ENDBRANCH  11  12
ENDBRANCH  10  11
ENDBRANCH   9  10
ENDBRANCH   8   9
ENDBRANCH   1   8
TORSDOF 9
ENDMDL
MODEL 9
REMARK VINA RESULT:    14.613      7.228      8.618
REMARK INTER + INTRA:          21.877
REMARK INTER:                  22.196
REMARK INTRA:                  -0.319
REMARK UNBOUND:                -0.424
REMARK SMILES O=C([O-])CCCCCCCCC(=O)[O-]
REMARK SMILES IDX 7 1 6 2 5 3 4 4 2 5 1 6 3 7 8 8 9 9 10 10 11 11 12 12 13 13
REMARK SMILES IDX 14 14
REMARK H PARENT
REMARK Flexibility Score: inf
ROOT
ATOM      1  C   UNL     1      -6.371  13.058 -25.514  1.00  0.00     0.000 C 
ENDROOT
BRANCH   1   2
ATOM      2  C   UNL     1      -6.566  12.442 -24.121  1.00  0.00     0.000 C 
BRANCH   2   3
ATOM      3  C   UNL     1      -5.604  11.272 -23.847  1.00  0.00     0.006 C 
BRANCH   3   4
ATOM      4  C   UNL     1      -6.028   9.941 -24.487  1.00  0.00     0.053 C 
BRANCH   4   5
ATOM      5  C   UNL     1      -4.917   9.319 -25.276  1.00  0.00     0.041 C 
ATOM      6  O   UNL     1      -5.085   9.037 -26.492  1.00  0.00    -0.550 OA
ATOM      7  O   UNL     1      -3.709   9.021 -24.660  1.00  0.00    -0.550 OA
ENDBRANCH   4   5
ENDBRANCH   3   4
ENDBRANCH   2   3
ENDBRANCH   1   2
BRANCH   1   8
ATOM      8  C   UNL     1      -5.131  13.960 -25.548  1.00  0.00     0.000 C 
BRANCH   8   9
ATOM      9  C   UNL     1      -5.368  15.191 -26.430  1.00  0.00     0.000 C 
BRANCH   9  10
ATOM     10  C   UNL     1      -4.582  16.402 -25.908  1.00  0.00     0.006 C 
BRANCH  10  11
ATOM     11  C   UNL     1      -5.458  17.656 -25.786  1.00  0.00     0.053 C 
BRANCH  11  12
ATOM     12  C   UNL     1      -5.467  18.193 -24.387  1.00  0.00     0.041 C 
ATOM     13  O   UNL     1      -4.759  17.652 -23.497  1.00  0.00    -0.550 OA
ATOM     14  O   UNL     1      -6.281  19.270 -24.058  1.00  0.00    -0.550 OA
ENDBRANCH  11  12
ENDBRANCH  10  11
ENDBRANCH   9  10
ENDBRANCH   8   9
ENDBRANCH   1   8
TORSDOF 9
ENDMDL
