MODEL 1
REMARK VINA RESULT:    -4.397      0.000      0.000
REMARK INTER + INTRA:          -7.247
REMARK INTER:                  -6.711
REMARK INTRA:                  -0.536
REMARK UNBOUND:                -0.536
REMARK SMILES O=C([O-])CCCCCCCCC(=O)[O-]
REMARK SMILES IDX 7 1 6 2 5 3 4 4 2 5 1 6 3 7 8 8 9 9 10 10 11 11 12 12 13 13
REMARK SMILES IDX 14 14
REMARK H PARENT
REMARK Flexibility Score: inf
ROOT
ATOM      1  C   UNL     1     191.454 195.444 191.455  1.00  0.00     0.000 C 
ENDROOT
BRANCH   1   2
ATOM      2  C   UNL     1     190.950 196.072 192.770  1.00  0.00     0.000 C 
BRANCH   2   3
ATOM      3  C   UNL     1     191.457 197.502 193.051  1.00  0.00     0.006 C 
BRANCH   3   4
ATOM      4  C   UNL     1     191.534 198.401 191.807  1.00  0.00     0.053 C 
BRANCH   4   5
ATOM      5  C   UNL     1     192.636 199.411 191.913  1.00  0.00     0.041 C 
ATOM      6  O   UNL     1     193.307 199.506 192.973  1.00  0.00    -0.550 OA
ATOM      7  O   UNL     1     192.942 200.224 190.829  1.00  0.00    -0.550 OA
ENDBRANCH   4   5
ENDBRANCH   3   4
ENDBRANCH   2   3
ENDBRANCH   1   2
BRANCH   1   8
ATOM      8  C   UNL     1     192.838 194.773 191.534  1.00  0.00     0.000 C 
BRANCH   8   9
ATOM      9  C   UNL     1     192.910 193.459 190.738  1.00  0.00     0.000 C 
BRANCH   9  10
ATOM     10  C   UNL     1     191.617 192.628 190.842  1.00  0.00     0.006 C 
BRANCH  10  11
ATOM     11  C   UNL     1     191.640 191.552 191.939  1.00  0.00     0.053 C 
BRANCH  11  12
ATOM     12  C   UNL     1     190.394 191.572 192.771  1.00  0.00     0.041 C 
ATOM     13  O   UNL     1     189.553 190.639 192.673  1.00  0.00    -0.550 OA
ATOM     14  O   UNL     1     190.178 192.602 193.676  1.00  0.00    -0.550 OA
ENDBRANCH  11  12
ENDBRANCH  10  11
ENDBRANCH   9  10
ENDBRANCH   8   9
ENDBRANCH   1   8
TORSDOF 9
ENDMDL
MODEL 2
REMARK VINA RESULT:    -4.309      1.104      7.262
REMARK INTER + INTRA:          -7.112
REMARK INTER:                  -6.779
REMARK INTRA:                  -0.333
REMARK UNBOUND:                -0.536
REMARK SMILES O=C([O-])CCCCCCCCC(=O)[O-]
REMARK SMILES IDX 7 1 6 2 5 3 4 4 2 5 1 6 3 7 8 8 9 9 10 10 11 11 12 12 13 13
REMARK SMILES IDX 14 14
REMARK H PARENT
REMARK Flexibility Score: inf
ROOT
ATOM      1  C   UNL     1     191.707 195.295 191.281  1.00  0.00     0.000 C 
ENDROOT
BRANCH   1   2
ATOM      2  C   UNL     1     192.757 194.178 191.114  1.00  0.00     0.000 C 
BRANCH   2   3
ATOM      3  C   UNL     1     192.253 192.752 191.416  1.00  0.00     0.006 C 
BRANCH   3   4
ATOM      4  C   UNL     1     190.723 192.609 191.414  1.00  0.00     0.053 C 
BRANCH   4   5
ATOM      5  C   UNL     1     190.271 191.407 192.186  1.00  0.00     0.041 C 
ATOM      6  O   UNL     1     191.072 190.809 192.951  1.00  0.00    -0.550 OA
ATOM      7  O   UNL     1     188.957 190.969 192.086  1.00  0.00    -0.550 OA
ENDBRANCH   4   5
ENDBRANCH   3   4
ENDBRANCH   2   3
ENDBRANCH   1   2
BRANCH   1   8
ATOM      8  C   UNL     1     191.745 196.037 192.630  1.00  0.00     0.000 C 
BRANCH   8   9
ATOM      9  C   UNL     1     190.995 197.379 192.594  1.00  0.00     0.000 C 
BRANCH   9  10
ATOM     10  C   UNL     1     191.847 198.521 192.010  1.00  0.00     0.006 C 
BRANCH  10  11
ATOM     11  C   UNL     1     193.005 198.974 192.912  1.00  0.00     0.053 C 
BRANCH  11  12
ATOM     12  C   UNL     1     193.385 200.402 192.664  1.00  0.00     0.041 C 
ATOM     13  O   UNL     1     193.346 200.874 191.497  1.00  0.00    -0.550 OA
ATOM     14  O   UNL     1     193.752 201.219 193.726  1.00  0.00    -0.550 OA
ENDBRANCH  11  12
ENDBRANCH  10  11
ENDBRANCH   9  10
ENDBRANCH   8   9
ENDBRANCH   1   8
TORSDOF 9
ENDMDL
MODEL 3
REMARK VINA RESULT:    -4.290      3.282      6.608
REMARK INTER + INTRA:          -7.083
REMARK INTER:                  -6.437
REMARK INTRA:                  -0.646
REMARK UNBOUND:                -0.536
REMARK SMILES O=C([O-])CCCCCCCCC(=O)[O-]
REMARK SMILES IDX 7 1 6 2 5 3 4 4 2 5 1 6 3 7 8 8 9 9 10 10 11 11 12 12 13 13
REMARK SMILES IDX 14 14
REMARK H PARENT
REMARK Flexibility Score: inf
ROOT
ATOM      1  C   UNL     1     189.079 191.587 192.424  1.00  0.00     0.000 C 
ENDROOT
BRANCH   1   2
ATOM      2  C   UNL     1     187.876 190.623 192.370  1.00  0.00     0.000 C 
BRANCH   2   3
ATOM      3  C   UNL     1     186.705 191.083 191.479  1.00  0.00     0.006 C 
BRANCH   3   4
ATOM      4  C   UNL     1     186.799 190.614 190.018  1.00  0.00     0.053 C 
BRANCH   4   5
ATOM      5  C   UNL     1     187.040 191.754 189.077  1.00  0.00     0.041 C 
ATOM      6  O   UNL     1     188.095 192.435 189.164  1.00  0.00    -0.550 OA
ATOM      7  O   UNL     1     186.115 192.043 188.081  1.00  0.00    -0.550 OA
ENDBRANCH   4   5
ENDBRANCH   3   4
ENDBRANCH   2   3
ENDBRANCH   1   2
BRANCH   1   8
ATOM      8  C   UNL     1     190.387 190.978 192.962  1.00  0.00     0.000 C 
BRANCH   8   9
ATOM      9  C   UNL     1     191.578 191.188 192.012  1.00  0.00     0.000 C 
BRANCH   9  10
ATOM     10  C   UNL     1     191.323 192.295 190.973  1.00  0.00     0.006 C 
BRANCH  10  11
ATOM     11  C   UNL     1     192.260 193.507 191.094  1.00  0.00     0.053 C 
BRANCH  11  12
ATOM     12  C   UNL     1     191.546 194.720 191.605  1.00  0.00     0.041 C 
ATOM     13  O   UNL     1     190.864 194.655 192.662  1.00  0.00    -0.550 OA
ATOM     14  O   UNL     1     191.660 195.930 190.932  1.00  0.00    -0.550 OA
ENDBRANCH  11  12
ENDBRANCH  10  11
ENDBRANCH   9  10
ENDBRANCH   8   9
ENDBRANCH   1   8
TORSDOF 9
ENDMDL
MODEL 4
REMARK VINA RESULT:    -4.286      2.036      3.133
REMARK INTER + INTRA:          -7.078
REMARK INTER:                  -6.227
REMARK INTRA:                  -0.851
REMARK UNBOUND:                -0.536
REMARK SMILES O=C([O-])CCCCCCCCC(=O)[O-]
REMARK SMILES IDX 7 1 6 2 5 3 4 4 2 5 1 6 3 7 8 8 9 9 10 10 11 11 12 12 13 13
REMARK SMILES IDX 14 14
REMARK H PARENT
REMARK Flexibility Score: inf
ROOT
ATOM      1  C   UNL     1     192.713 193.398 190.689  1.00  0.00     0.000 C 
ENDROOT
BRANCH   1   2
ATOM      2  C   UNL     1     192.711 194.589 191.669  1.00  0.00     0.000 C 
BRANCH   2   3
ATOM      3  C   UNL     1     191.409 195.414 191.695  1.00  0.00     0.006 C 
BRANCH   3   4
ATOM      4  C   UNL     1     190.762 195.532 193.084  1.00  0.00     0.053 C 
BRANCH   4   5
ATOM      5  C   UNL     1     190.573 196.960 193.496  1.00  0.00     0.041 C 
ATOM      6  O   UNL     1     190.739 197.886 192.661  1.00  0.00    -0.550 OA
ATOM      7  O   UNL     1     190.180 197.264 194.793  1.00  0.00    -0.550 OA
ENDBRANCH   4   5
ENDBRANCH   3   4
ENDBRANCH   2   3
ENDBRANCH   1   2
BRANCH   1   8
ATOM      8  C   UNL     1     191.534 192.419 190.839  1.00  0.00     0.000 C 
BRANCH   8   9
ATOM      9  C   UNL     1     191.699 191.466 192.034  1.00  0.00     0.000 C 
BRANCH   9  10
ATOM     10  C   UNL     1     190.511 191.527 193.012  1.00  0.00     0.006 C 
BRANCH  10  11
ATOM     11  C   UNL     1     189.210 192.068 192.398  1.00  0.00     0.053 C 
BRANCH  11  12
ATOM     12  C   UNL     1     188.148 191.014 192.315  1.00  0.00     0.041 C 
ATOM     13  O   UNL     1     187.022 191.288 191.823  1.00  0.00    -0.550 OA
ATOM     14  O   UNL     1     188.413 189.723 192.753  1.00  0.00    -0.550 OA
ENDBRANCH  11  12
ENDBRANCH  10  11
ENDBRANCH   9  10
ENDBRANCH   8   9
ENDBRANCH   1   8
TORSDOF 9
ENDMDL
MODEL 5
REMARK VINA RESULT:    -4.273      2.734      4.291
REMARK INTER + INTRA:          -7.057
REMARK INTER:                  -6.379
REMARK INTRA:                  -0.678
REMARK UNBOUND:                -0.536
REMARK SMILES O=C([O-])CCCCCCCCC(=O)[O-]
REMARK SMILES IDX 7 1 6 2 5 3 4 4 2 5 1 6 3 7 8 8 9 9 10 10 11 11 12 12 13 13
REMARK SMILES IDX 14 14
REMARK H PARENT
REMARK Flexibility Score: inf
ROOT
ATOM      1  C   UNL     1     191.529 191.441 191.796  1.00  0.00     0.000 C 
ENDROOT
BRANCH   1   2
ATOM      2  C   UNL     1     191.755 192.621 190.829  1.00  0.00     0.000 C 
BRANCH   2   3
ATOM      3  C   UNL     1     192.440 193.856 191.449  1.00  0.00     0.006 C 
BRANCH   3   4
ATOM      4  C   UNL     1     191.667 195.170 191.261  1.00  0.00     0.053 C 
BRANCH   4   5
ATOM      5  C   UNL     1     191.469 195.895 192.557  1.00  0.00     0.041 C 
ATOM      6  O   UNL     1     190.551 195.545 193.344  1.00  0.00    -0.550 OA
ATOM      7  O   UNL     1     192.319 196.935 192.910  1.00  0.00    -0.550 OA
ENDBRANCH   4   5
ENDBRANCH   3   4
ENDBRANCH   2   3
ENDBRANCH   1   2
BRANCH   1   8
ATOM      8  C   UNL     1     190.587 191.730 192.979  1.00  0.00     0.000 C 
BRANCH   8   9
ATOM      9  C   UNL     1     189.249 192.347 192.539  1.00  0.00     0.000 C 
BRANCH   9  10
ATOM     10  C   UNL     1     188.482 191.458 191.543  1.00  0.00     0.006 C 
BRANCH  10  11
ATOM     11  C   UNL     1     188.165 192.136 190.201  1.00  0.00     0.053 C 
BRANCH  11  12
ATOM     12  C   UNL     1     187.013 191.484 189.501  1.00  0.00     0.041 C 
ATOM     13  O   UNL     1     186.588 191.950 188.411  1.00  0.00    -0.550 OA
ATOM     14  O   UNL     1     186.429 190.344 190.037  1.00  0.00    -0.550 OA
ENDBRANCH  11  12
ENDBRANCH  10  11
ENDBRANCH   9  10
ENDBRANCH   8   9
ENDBRANCH   1   8
TORSDOF 9
ENDMDL
MODEL 6
REMARK VINA RESULT:    -4.246      1.601      6.623
REMARK INTER + INTRA:          -7.016
REMARK INTER:                  -6.287
REMARK INTRA:                  -0.729
REMARK UNBOUND:                -0.536
REMARK SMILES O=C([O-])CCCCCCCCC(=O)[O-]
REMARK SMILES IDX 7 1 6 2 5 3 4 4 2 5 1 6 3 7 8 8 9 9 10 10 11 11 12 12 13 13
REMARK SMILES IDX 14 14
REMARK H PARENT
REMARK Flexibility Score: inf
ROOT
ATOM      1  C   UNL     1     191.790 192.490 190.884  1.00  0.00     0.000 C 
ENDROOT
BRANCH   1   2
ATOM      2  C   UNL     1     191.510 191.339 191.873  1.00  0.00     0.000 C 
BRANCH   2   3
ATOM      3  C   UNL     1     190.460 191.648 192.959  1.00  0.00     0.006 C 
BRANCH   3   4
ATOM      4  C   UNL     1     189.070 192.007 192.412  1.00  0.00     0.053 C 
BRANCH   4   5
ATOM      5  C   UNL     1     188.257 190.788 192.101  1.00  0.00     0.041 C 
ATOM      6  O   UNL     1     188.500 189.700 192.686  1.00  0.00    -0.550 OA
ATOM      7  O   UNL     1     187.209 190.862 191.192  1.00  0.00    -0.550 OA
ENDBRANCH   4   5
ENDBRANCH   3   4
ENDBRANCH   2   3
ENDBRANCH   1   2
BRANCH   1   8
ATOM      8  C   UNL     1     192.875 193.488 191.326  1.00  0.00     0.000 C 
BRANCH   8   9
ATOM      9  C   UNL     1     192.458 194.954 191.117  1.00  0.00     0.000 C 
BRANCH   9  10
ATOM     10  C   UNL     1     191.055 195.258 191.672  1.00  0.00     0.006 C 
BRANCH  10  11
ATOM     11  C   UNL     1     191.051 196.083 192.969  1.00  0.00     0.053 C 
BRANCH  11  12
ATOM     12  C   UNL     1     191.398 197.519 192.722  1.00  0.00     0.041 C 
ATOM     13  O   UNL     1     190.735 198.198 191.894  1.00  0.00    -0.550 OA
ATOM     14  O   UNL     1     192.434 198.116 193.429  1.00  0.00    -0.550 OA
ENDBRANCH  11  12
ENDBRANCH  10  11
ENDBRANCH   9  10
ENDBRANCH   8   9
ENDBRANCH   1   8
TORSDOF 9
ENDMDL
MODEL 7
REMARK VINA RESULT:    -4.213      2.518      6.284
REMARK INTER + INTRA:          -6.965
REMARK INTER:                  -6.293
REMARK INTRA:                  -0.672
REMARK UNBOUND:                -0.536
REMARK SMILES O=C([O-])CCCCCCCCC(=O)[O-]
REMARK SMILES IDX 7 1 6 2 5 3 4 4 2 5 1 6 3 7 8 8 9 9 10 10 11 11 12 12 13 13
REMARK SMILES IDX 14 14
REMARK H PARENT
REMARK Flexibility Score: inf
ROOT
ATOM      1  C   UNL     1     191.598 191.336 192.120  1.00  0.00     0.000 C 
ENDROOT
BRANCH   1   2
ATOM      2  C   UNL     1     190.321 191.489 192.972  1.00  0.00     0.000 C 
BRANCH   2   3
ATOM      3  C   UNL     1     189.056 190.835 192.382  1.00  0.00     0.006 C 
BRANCH   3   4
ATOM      4  C   UNL     1     188.035 191.832 191.812  1.00  0.00     0.053 C 
BRANCH   4   5
ATOM      5  C   UNL     1     187.779 191.602 190.354  1.00  0.00     0.041 C 
ATOM      6  O   UNL     1     188.497 192.168 189.489  1.00  0.00    -0.550 OA
ATOM      7  O   UNL     1     186.771 190.735 189.952  1.00  0.00    -0.550 OA
ENDBRANCH   4   5
ENDBRANCH   3   4
ENDBRANCH   2   3
ENDBRANCH   1   2
BRANCH   1   8
ATOM      8  C   UNL     1     191.668 192.234 190.871  1.00  0.00     0.000 C 
BRANCH   8   9
ATOM      9  C   UNL     1     192.284 193.613 191.163  1.00  0.00     0.000 C 
BRANCH   9  10
ATOM     10  C   UNL     1     191.221 194.708 191.372  1.00  0.00     0.006 C 
BRANCH  10  11
ATOM     11  C   UNL     1     191.620 195.793 192.385  1.00  0.00     0.053 C 
BRANCH  11  12
ATOM     12  C   UNL     1     190.552 196.023 193.410  1.00  0.00     0.041 C 
ATOM     13  O   UNL     1     190.473 197.131 194.005  1.00  0.00    -0.550 OA
ATOM     14  O   UNL     1     189.625 195.026 193.685  1.00  0.00    -0.550 OA
ENDBRANCH  11  12
ENDBRANCH  10  11
ENDBRANCH   9  10
ENDBRANCH   8   9
ENDBRANCH   1   8
TORSDOF 9
ENDMDL
MODEL 8
REMARK VINA RESULT:    -4.197      1.732      6.377
REMARK INTER + INTRA:          -6.942
REMARK INTER:                  -6.247
REMARK INTRA:                  -0.695
REMARK UNBOUND:                -0.536
REMARK SMILES O=C([O-])CCCCCCCCC(=O)[O-]
REMARK SMILES IDX 7 1 6 2 5 3 4 4 2 5 1 6 3 7 8 8 9 9 10 10 11 11 12 12 13 13
REMARK SMILES IDX 14 14
REMARK H PARENT
REMARK Flexibility Score: inf
ROOT
ATOM      1  C   UNL     1     192.039 193.107 190.817  1.00  0.00     0.000 C 
ENDROOT
BRANCH   1   2
ATOM      2  C   UNL     1     191.829 191.950 191.815  1.00  0.00     0.000 C 
BRANCH   2   3
ATOM      3  C   UNL     1     190.364 191.691 192.220  1.00  0.00     0.006 C 
BRANCH   3   4
ATOM      4  C   UNL     1     189.409 192.857 191.923  1.00  0.00     0.053 C 
BRANCH   4   5
ATOM      5  C   UNL     1     188.356 192.481 190.926  1.00  0.00     0.041 C 
ATOM      6  O   UNL     1     187.139 192.658 191.195  1.00  0.00    -0.550 OA
ATOM      7  O   UNL     1     188.720 191.966 189.689  1.00  0.00    -0.550 OA
ENDBRANCH   4   5
ENDBRANCH   3   4
ENDBRANCH   2   3
ENDBRANCH   1   2
BRANCH   1   8
ATOM      8  C   UNL     1     192.741 194.352 191.390  1.00  0.00     0.000 C 
BRANCH   8   9
ATOM      9  C   UNL     1     191.850 195.605 191.359  1.00  0.00     0.000 C 
BRANCH   9  10
ATOM     10  C   UNL     1     191.306 195.983 192.749  1.00  0.00     0.006 C 
BRANCH  10  11
ATOM     11  C   UNL     1     190.980 197.475 192.919  1.00  0.00     0.053 C 
BRANCH  11  12
ATOM     12  C   UNL     1     192.178 198.342 192.680  1.00  0.00     0.041 C 
ATOM     13  O   UNL     1     193.179 198.263 193.441  1.00  0.00    -0.550 OA
ATOM     14  O   UNL     1     192.201 199.215 191.600  1.00  0.00    -0.550 OA
ENDBRANCH  11  12
ENDBRANCH  10  11
ENDBRANCH   9  10
ENDBRANCH   8   9
ENDBRANCH   1   8
TORSDOF 9
ENDMDL
MODEL 9
REMARK VINA RESULT:    -4.182      1.272      1.798
REMARK INTER + INTRA:          -6.918
REMARK INTER:                  -6.641
REMARK INTRA:                  -0.277
REMARK UNBOUND:                -0.536
REMARK SMILES O=C([O-])CCCCCCCCC(=O)[O-]
REMARK SMILES IDX 7 1 6 2 5 3 4 4 2 5 1 6 3 7 8 8 9 9 10 10 11 11 12 12 13 13
REMARK SMILES IDX 14 14
REMARK H PARENT
REMARK Flexibility Score: inf
ROOT
ATOM      1  C   UNL     1     191.465 196.026 191.273  1.00  0.00     0.000 C 
ENDROOT
BRANCH   1   2
ATOM      2  C   UNL     1     191.217 197.196 192.247  1.00  0.00     0.000 C 
BRANCH   2   3
ATOM      3  C   UNL     1     191.911 198.521 191.870  1.00  0.00     0.006 C 
BRANCH   3   4
ATOM      4  C   UNL     1     192.955 199.001 192.890  1.00  0.00     0.053 C 
BRANCH   4   5
ATOM      5  C   UNL     1     193.388 200.411 192.629  1.00  0.00     0.041 C 
ATOM      6  O   UNL     1     193.373 200.870 191.457  1.00  0.00    -0.550 OA
ATOM      7  O   UNL     1     193.774 201.229 193.683  1.00  0.00    -0.550 OA
ENDBRANCH   4   5
ENDBRANCH   3   4
ENDBRANCH   2   3
ENDBRANCH   1   2
BRANCH   1   8
ATOM      8  C   UNL     1     191.375 194.621 191.897  1.00  0.00     0.000 C 
BRANCH   8   9
ATOM      9  C   UNL     1     192.305 193.604 191.212  1.00  0.00     0.000 C 
BRANCH   9  10
ATOM     10  C   UNL     1     191.750 192.169 191.252  1.00  0.00     0.006 C 
BRANCH  10  11
ATOM     11  C   UNL     1     190.657 191.940 192.309  1.00  0.00     0.053 C 
BRANCH  11  12
ATOM     12  C   UNL     1     189.337 191.601 191.687  1.00  0.00     0.041 C 
ATOM     13  O   UNL     1     188.439 191.044 192.372  1.00  0.00    -0.550 OA
ATOM     14  O   UNL     1     189.088 191.928 190.361  1.00  0.00    -0.550 OA
ENDBRANCH  11  12
ENDBRANCH  10  11
ENDBRANCH   9  10
ENDBRANCH   8   9
ENDBRANCH   1   8
TORSDOF 9
ENDMDL
