MODEL 1
REMARK VINA RESULT:    -2.598      0.000      0.000
REMARK INTER + INTRA:          -2.937
REMARK INTER:                  -2.901
REMARK INTRA:                  -0.036
REMARK UNBOUND:                -0.036
REMARK SMILES CCCC(=O)[O-]
REMARK SMILES IDX 3 1 4 2 5 3 6 4 2 5 1 6
REMARK H PARENT
REMARK Flexibility Score: inf
ROOT
ATOM      1  C   UNL     1      24.443   8.646  27.547  1.00  0.00     0.052 C 
ENDROOT
BRANCH   1   2
ATOM      2  C   UNL     1      25.101   8.935  28.861  1.00  0.00     0.041 C 
ATOM      3  O   UNL     1      25.270  10.125  29.237  1.00  0.00    -0.550 OA
ATOM      4  O   UNL     1      25.499   7.890  29.685  1.00  0.00    -0.550 OA
ENDBRANCH   1   2
BRANCH   1   5
ATOM      5  C   UNL     1      24.457   9.870  26.622  1.00  0.00     0.003 C 
ATOM      6  C   UNL     1      25.493   9.744  25.505  1.00  0.00     0.004 C 
ENDBRANCH   1   5
TORSDOF 2
ENDMDL
MODEL 2
REMARK VINA RESULT:    -2.582      2.244      3.339
REMARK INTER + INTRA:          -2.919
REMARK INTER:                  -2.883
REMARK INTRA:                  -0.037
REMARK UNBOUND:                -0.036
REMARK SMILES CCCC(=O)[O-]
REMARK SMILES IDX 3 1 4 2 5 3 6 4 2 5 1 6
REMARK H PARENT
REMARK Flexibility Score: inf
ROOT
ATOM      1  C   UNL     1      25.234   9.100  28.214  1.00  0.00     0.052 C 
ENDROOT
BRANCH   1   2
ATOM      2  C   UNL     1      24.789   9.676  26.905  1.00  0.00     0.041 C 
ATOM      3  O   UNL     1      23.619  10.123  26.775  1.00  0.00    -0.550 OA
ATOM      4  O   UNL     1      25.676   9.749  25.839  1.00  0.00    -0.550 OA
ENDBRANCH   1   2
BRANCH   1   5
ATOM      5  C   UNL     1      25.123  10.122  29.353  1.00  0.00     0.003 C 
ATOM      6  C   UNL     1      24.125   9.690  30.427  1.00  0.00     0.004 C 
ENDBRANCH   1   5
TORSDOF 2
ENDMDL
MODEL 3
REMARK VINA RESULT:    -2.579      1.404      1.994
REMARK INTER + INTRA:          -2.917
REMARK INTER:                  -2.908
REMARK INTRA:                  -0.008
REMARK UNBOUND:                -0.036
REMARK SMILES CCCC(=O)[O-]
REMARK SMILES IDX 3 1 4 2 5 3 6 4 2 5 1 6
REMARK H PARENT
REMARK Flexibility Score: inf
ROOT
ATOM      1  C   UNL     1      25.056   9.898  29.107  1.00  0.00     0.052 C 
ENDROOT
BRANCH   1   2
ATOM      2  C   UNL     1      24.746   8.852  30.133  1.00  0.00     0.041 C 
ATOM      3  O   UNL     1      25.457   7.817  30.218  1.00  0.00    -0.550 OA
ATOM      4  O   UNL     1      23.691   9.035  31.018  1.00  0.00    -0.550 OA
ENDBRANCH   1   2
BRANCH   1   5
ATOM      5  C   UNL     1      25.078   9.315  27.688  1.00  0.00     0.003 C 
ATOM      6  C   UNL     1      24.223  10.125  26.714  1.00  0.00     0.004 C 
ENDBRANCH   1   5
TORSDOF 2
ENDMDL
MODEL 4
REMARK VINA RESULT:    -2.550      1.936      3.128
REMARK INTER + INTRA:          -2.884
REMARK INTER:                  -2.848
REMARK INTRA:                  -0.035
REMARK UNBOUND:                -0.036
REMARK SMILES CCCC(=O)[O-]
REMARK SMILES IDX 3 1 4 2 5 3 6 4 2 5 1 6
REMARK H PARENT
REMARK Flexibility Score: inf
ROOT
ATOM      1  C   UNL     1      25.489   7.678  29.288  1.00  0.00     0.052 C 
ENDROOT
BRANCH   1   2
ATOM      2  C   UNL     1      25.363   8.984  28.565  1.00  0.00     0.041 C 
ATOM      3  O   UNL     1      25.340  10.066  29.209  1.00  0.00    -0.550 OA
ATOM      4  O   UNL     1      25.303   9.008  27.177  1.00  0.00    -0.550 OA
ENDBRANCH   1   2
BRANCH   1   5
ATOM      5  C   UNL     1      24.129   7.166  29.779  1.00  0.00     0.003 C 
ATOM      6  C   UNL     1      23.553   6.081  28.870  1.00  0.00     0.004 C 
ENDBRANCH   1   5
TORSDOF 2
ENDMDL
MODEL 5
REMARK VINA RESULT:    -2.523      1.948      3.209
REMARK INTER + INTRA:          -2.854
REMARK INTER:                  -2.820
REMARK INTRA:                  -0.033
REMARK UNBOUND:                -0.036
REMARK SMILES CCCC(=O)[O-]
REMARK SMILES IDX 3 1 4 2 5 3 6 4 2 5 1 6
REMARK H PARENT
REMARK Flexibility Score: inf
ROOT
ATOM      1  C   UNL     1      25.469   7.632  29.265  1.00  0.00     0.052 C 
ENDROOT
BRANCH   1   2
ATOM      2  C   UNL     1      25.334   8.954  28.574  1.00  0.00     0.041 C 
ATOM      3  O   UNL     1      25.337   9.014  27.316  1.00  0.00    -0.550 OA
ATOM      4  O   UNL     1      25.170  10.116  29.317  1.00  0.00    -0.550 OA
ENDBRANCH   1   2
BRANCH   1   5
ATOM      5  C   UNL     1      24.112   7.098  29.742  1.00  0.00     0.003 C 
ATOM      6  C   UNL     1      23.579   5.982  28.844  1.00  0.00     0.004 C 
ENDBRANCH   1   5
TORSDOF 2
ENDMDL
MODEL 6
REMARK VINA RESULT:    -2.445      2.482      3.018
REMARK INTER + INTRA:          -2.767
REMARK INTER:                  -2.721
REMARK INTRA:                  -0.046
REMARK UNBOUND:                -0.036
REMARK SMILES CCCC(=O)[O-]
REMARK SMILES IDX 3 1 4 2 5 3 6 4 2 5 1 6
REMARK H PARENT
REMARK Flexibility Score: inf
ROOT
ATOM      1  C   UNL     1      25.465   7.604  29.409  1.00  0.00     0.052 C 
ENDROOT
BRANCH   1   2
ATOM      2  C   UNL     1      24.104   7.038  29.673  1.00  0.00     0.041 C 
ATOM      3  O   UNL     1      23.569   6.261  28.839  1.00  0.00    -0.550 OA
ATOM      4  O   UNL     1      23.441   7.340  30.855  1.00  0.00    -0.550 OA
ENDBRANCH   1   2
BRANCH   1   5
ATOM      5  C   UNL     1      25.402   8.835  28.495  1.00  0.00     0.003 C 
ATOM      6  C   UNL     1      25.125  10.122  29.270  1.00  0.00     0.004 C 
ENDBRANCH   1   5
TORSDOF 2
ENDMDL
MODEL 7
REMARK VINA RESULT:    -2.366     16.122     16.543
REMARK INTER + INTRA:          -2.678
REMARK INTER:                  -2.641
REMARK INTRA:                  -0.037
REMARK UNBOUND:                -0.036
REMARK SMILES CCCC(=O)[O-]
REMARK SMILES IDX 3 1 4 2 5 3 6 4 2 5 1 6
REMARK H PARENT
REMARK Flexibility Score: inf
ROOT
ATOM      1  C   UNL     1       8.153   7.541  31.055  1.00  0.00     0.052 C 
ENDROOT
BRANCH   1   2
ATOM      2  C   UNL     1       9.465   8.050  31.566  1.00  0.00     0.041 C 
ATOM      3  O   UNL     1       9.548   8.537  32.725  1.00  0.00    -0.550 OA
ATOM      4  O   UNL     1      10.604   7.957  30.777  1.00  0.00    -0.550 OA
ENDBRANCH   1   2
BRANCH   1   5
ATOM      5  C   UNL     1       8.171   6.020  30.853  1.00  0.00     0.003 C 
ATOM      6  C   UNL     1       8.299   5.631  29.381  1.00  0.00     0.004 C 
ENDBRANCH   1   5
TORSDOF 2
ENDMDL
MODEL 8
REMARK VINA RESULT:    -2.250     16.070     16.526
REMARK INTER + INTRA:          -2.549
REMARK INTER:                  -2.487
REMARK INTRA:                  -0.062
REMARK UNBOUND:                -0.036
REMARK SMILES CCCC(=O)[O-]
REMARK SMILES IDX 3 1 4 2 5 3 6 4 2 5 1 6
REMARK H PARENT
REMARK Flexibility Score: inf
ROOT
ATOM      1  C   UNL     1      10.098   7.548  31.175  1.00  0.00     0.052 C 
ENDROOT
BRANCH   1   2
ATOM      2  C   UNL     1       8.600   7.513  31.195  1.00  0.00     0.041 C 
ATOM      3  O   UNL     1       7.941   8.584  31.133  1.00  0.00    -0.550 OA
ATOM      4  O   UNL     1       7.932   6.297  31.249  1.00  0.00    -0.550 OA
ENDBRANCH   1   2
BRANCH   1   5
ATOM      5  C   UNL     1      10.664   8.384  32.329  1.00  0.00     0.003 C 
ATOM      6  C   UNL     1      10.567   7.662  33.673  1.00  0.00     0.004 C 
ENDBRANCH   1   5
TORSDOF 2
ENDMDL
