MODEL 1
REMARK VINA RESULT:    -6.657      0.000      0.000
REMARK INTER + INTRA:          -8.126
REMARK INTER:                  -7.825
REMARK INTRA:                  -0.301
REMARK UNBOUND:                -0.301
REMARK SMILES O=c1cc(-c2ccc(O)c(O)c2)oc2cc(O)cc(O)c12
REMARK SMILES IDX 4 1 3 2 2 3 1 4 21 5 19 6 18 7 16 8 15 9 14 10 13 11 5 12
REMARK SMILES IDX 6 13 7 14 8 15 12 16 10 17 9 18 11 20 20 22 17 24
REMARK H PARENT 9 19 11 21 20 23 17 25
REMARK Flexibility Score: inf
ROOT
ATOM      1  C   UNL     1      -6.462  53.239  30.918  1.00  0.00     0.138 A 
ATOM      2  C   UNL     1      -7.708  53.255  30.269  1.00  0.00     0.100 A 
ATOM      3  C   UNL     1      -8.710  54.110  30.728  1.00  0.00     0.197 A 
ATOM      4  O   UNL     1      -9.825  54.118  30.140  1.00  0.00    -0.289 OA
ATOM      5  C   UNL     1      -8.457  54.948  31.833  1.00  0.00     0.107 A 
ATOM      6  C   UNL     1      -9.417  55.843  32.362  1.00  0.00     0.134 A 
ATOM      7  C   UNL     1      -9.084  56.648  33.462  1.00  0.00     0.093 A 
ATOM      8  C   UNL     1      -7.815  56.575  34.040  1.00  0.00     0.123 A 
ATOM      9  C   UNL     1      -6.862  55.693  33.521  1.00  0.00     0.094 A 
ATOM     10  C   UNL     1      -7.174  54.882  32.426  1.00  0.00     0.146 A 
ATOM     11  O   UNL     1      -6.252  54.050  31.952  1.00  0.00    -0.456 OA
ENDROOT
BRANCH   1  12
ATOM     12  C   UNL     1      -5.358  52.350  30.471  1.00  0.00     0.021 A 
ATOM     13  C   UNL     1      -5.149  52.057  29.110  1.00  0.00     0.016 A 
ATOM     14  C   UNL     1      -4.110  51.209  28.719  1.00  0.00     0.051 A 
ATOM     15  C   UNL     1      -3.268  50.634  29.679  1.00  0.00     0.157 A 
ATOM     16  C   UNL     1      -4.517  51.757  31.429  1.00  0.00     0.062 A 
ATOM     17  C   UNL     1      -3.474  50.907  31.037  1.00  0.00     0.158 A 
BRANCH  15  18
ATOM     18  O   UNL     1      -2.230  49.789  29.293  1.00  0.00    -0.504 OA
ATOM     19  H   UNL     1      -2.284  49.235  28.446  1.00  0.00     0.293 HD
ENDBRANCH  15  18
BRANCH  17  20
ATOM     20  O   UNL     1      -2.637  50.331  31.991  1.00  0.00    -0.504 OA
ATOM     21  H   UNL     1      -2.787  50.471  32.983  1.00  0.00     0.293 HD
ENDBRANCH  17  20
ENDBRANCH   1  12
BRANCH   6  22
ATOM     22  O   UNL     1     -10.694  55.938  31.806  1.00  0.00    -0.507 OA
ATOM     23  H   UNL     1     -11.513  55.595  32.292  1.00  0.00     0.293 HD
ENDBRANCH   6  22
BRANCH   8  24
ATOM     24  O   UNL     1      -7.510  57.387  35.131  1.00  0.00    -0.508 OA
ATOM     25  H   UNL     1      -6.988  57.034  35.924  1.00  0.00     0.293 HD
ENDBRANCH   8  24
TORSDOF 5
ENDMDL
MODEL 2
REMARK VINA RESULT:    -6.451      3.402      4.978
REMARK INTER + INTRA:          -7.883
REMARK INTER:                  -7.599
REMARK INTRA:                  -0.284
REMARK UNBOUND:                -0.301
REMARK SMILES O=c1cc(-c2ccc(O)c(O)c2)oc2cc(O)cc(O)c12
REMARK SMILES IDX 4 1 3 2 2 3 1 4 21 5 19 6 18 7 16 8 15 9 14 10 13 11 5 12
REMARK SMILES IDX 6 13 7 14 8 15 12 16 10 17 9 18 11 20 20 22 17 24
REMARK H PARENT 9 19 11 21 20 23 17 25
REMARK Flexibility Score: inf
ROOT
ATOM      1  C   UNL     1      -6.817  52.872  28.910  1.00  0.00     0.138 A 
ATOM      2  C   UNL     1      -7.669  52.783  30.024  1.00  0.00     0.100 A 
ATOM      3  C   UNL     1      -7.301  53.400  31.221  1.00  0.00     0.197 A 
ATOM      4  O   UNL     1      -8.072  53.315  32.215  1.00  0.00    -0.289 OA
ATOM      5  C   UNL     1      -6.084  54.107  31.293  1.00  0.00     0.107 A 
ATOM      6  C   UNL     1      -5.636  54.760  32.466  1.00  0.00     0.134 A 
ATOM      7  C   UNL     1      -4.414  55.448  32.454  1.00  0.00     0.093 A 
ATOM      8  C   UNL     1      -3.634  55.495  31.297  1.00  0.00     0.123 A 
ATOM      9  C   UNL     1      -4.072  54.851  30.135  1.00  0.00     0.094 A 
ATOM     10  C   UNL     1      -5.286  54.161  30.125  1.00  0.00     0.146 A 
ATOM     11  O   UNL     1      -5.680  53.555  29.010  1.00  0.00    -0.456 OA
ENDROOT
BRANCH   1  12
ATOM     12  C   UNL     1      -7.158  52.236  27.612  1.00  0.00     0.021 A 
ATOM     13  C   UNL     1      -6.164  51.741  26.746  1.00  0.00     0.016 A 
ATOM     14  C   UNL     1      -6.513  51.158  25.525  1.00  0.00     0.051 A 
ATOM     15  C   UNL     1      -7.858  51.067  25.145  1.00  0.00     0.157 A 
ATOM     16  C   UNL     1      -8.504  52.153  27.215  1.00  0.00     0.062 A 
ATOM     17  C   UNL     1      -8.855  51.567  25.991  1.00  0.00     0.158 A 
BRANCH  15  18
ATOM     18  O   UNL     1      -8.210  50.484  23.929  1.00  0.00    -0.504 OA
ATOM     19  H   UNL     1      -8.641  51.024  23.188  1.00  0.00     0.293 HD
ENDBRANCH  15  18
BRANCH  17  20
ATOM     20  O   UNL     1     -10.193  51.477  25.608  1.00  0.00    -0.504 OA
ATOM     21  H   UNL     1     -10.518  50.751  24.982  1.00  0.00     0.293 HD
ENDBRANCH  17  20
ENDBRANCH   1  12
BRANCH   6  22
ATOM     22  O   UNL     1      -6.394  54.730  33.638  1.00  0.00    -0.507 OA
ATOM     23  H   UNL     1      -6.544  55.562  34.196  1.00  0.00     0.293 HD
ENDBRANCH   6  22
BRANCH   8  24
ATOM     24  O   UNL     1      -2.424  56.186  31.312  1.00  0.00    -0.508 OA
ATOM     25  H   UNL     1      -2.234  56.907  31.998  1.00  0.00     0.293 HD
ENDBRANCH   8  24
TORSDOF 5
ENDMDL
MODEL 3
REMARK VINA RESULT:    -6.371      3.069      4.911
REMARK INTER + INTRA:          -7.789
REMARK INTER:                  -7.511
REMARK INTRA:                  -0.278
REMARK UNBOUND:                -0.301
REMARK SMILES O=c1cc(-c2ccc(O)c(O)c2)oc2cc(O)cc(O)c12
REMARK SMILES IDX 4 1 3 2 2 3 1 4 21 5 19 6 18 7 16 8 15 9 14 10 13 11 5 12
REMARK SMILES IDX 6 13 7 14 8 15 12 16 10 17 9 18 11 20 20 22 17 24
REMARK H PARENT 9 19 11 21 20 23 17 25
REMARK Flexibility Score: inf
ROOT
ATOM      1  C   UNL     1      -8.317  53.091  29.460  1.00  0.00     0.138 A 
ATOM      2  C   UNL     1      -6.980  52.911  29.852  1.00  0.00     0.100 A 
ATOM      3  C   UNL     1      -6.487  53.613  30.953  1.00  0.00     0.197 A 
ATOM      4  O   UNL     1      -5.286  53.445  31.297  1.00  0.00    -0.289 OA
ATOM      5  C   UNL     1      -7.338  54.489  31.657  1.00  0.00     0.107 A 
ATOM      6  C   UNL     1      -6.918  55.239  32.781  1.00  0.00     0.134 A 
ATOM      7  C   UNL     1      -7.828  56.085  33.431  1.00  0.00     0.093 A 
ATOM      8  C   UNL     1      -9.145  56.196  32.979  1.00  0.00     0.123 A 
ATOM      9  C   UNL     1      -9.565  55.457  31.868  1.00  0.00     0.094 A 
ATOM     10  C   UNL     1      -8.674  54.608  31.207  1.00  0.00     0.146 A 
ATOM     11  O   UNL     1      -9.096  53.919  30.152  1.00  0.00    -0.456 OA
ENDROOT
BRANCH   1  12
ATOM     12  C   UNL     1      -8.896  52.369  28.298  1.00  0.00     0.021 A 
ATOM     13  C   UNL     1     -10.180  51.794  28.348  1.00  0.00     0.016 A 
ATOM     14  C   UNL     1     -10.694  51.111  27.243  1.00  0.00     0.051 A 
ATOM     15  C   UNL     1      -9.934  50.983  26.075  1.00  0.00     0.157 A 
ATOM     16  C   UNL     1      -8.134  52.224  27.125  1.00  0.00     0.062 A 
ATOM     17  C   UNL     1      -8.651  51.539  26.016  1.00  0.00     0.158 A 
BRANCH  15  18
ATOM     18  O   UNL     1     -10.445  50.303  24.971  1.00  0.00    -0.504 OA
ATOM     19  H   UNL     1      -9.866  49.686  24.414  1.00  0.00     0.293 HD
ENDBRANCH  15  18
BRANCH  17  20
ATOM     20  O   UNL     1      -7.895  51.408  24.852  1.00  0.00    -0.504 OA
ATOM     21  H   UNL     1      -6.906  51.625  24.835  1.00  0.00     0.293 HD
ENDBRANCH  17  20
ENDBRANCH   1  12
BRANCH   6  22
ATOM     22  O   UNL     1      -5.609  55.149  33.256  1.00  0.00    -0.507 OA
ATOM     23  H   UNL     1      -4.884  54.670  32.735  1.00  0.00     0.293 HD
ENDBRANCH   6  22
BRANCH   8  24
ATOM     24  O   UNL     1     -10.030  57.044  33.643  1.00  0.00    -0.508 OA
ATOM     25  H   UNL     1      -9.834  57.391  34.574  1.00  0.00     0.293 HD
ENDBRANCH   8  24
TORSDOF 5
ENDMDL
MODEL 4
REMARK VINA RESULT:    -6.364      1.533      7.044
REMARK INTER + INTRA:          -7.781
REMARK INTER:                  -7.514
REMARK INTRA:                  -0.267
REMARK UNBOUND:                -0.301
REMARK SMILES O=c1cc(-c2ccc(O)c(O)c2)oc2cc(O)cc(O)c12
REMARK SMILES IDX 4 1 3 2 2 3 1 4 21 5 19 6 18 7 16 8 15 9 14 10 13 11 5 12
REMARK SMILES IDX 6 13 7 14 8 15 12 16 10 17 9 18 11 20 20 22 17 24
REMARK H PARENT 9 19 11 21 20 23 17 25
REMARK Flexibility Score: inf
ROOT
ATOM      1  C   UNL     1      -6.365  53.706  32.014  1.00  0.00     0.138 A 
ATOM      2  C   UNL     1      -5.829  53.693  30.715  1.00  0.00     0.100 A 
ATOM      3  C   UNL     1      -4.881  52.727  30.373  1.00  0.00     0.197 A 
ATOM      4  O   UNL     1      -4.407  52.723  29.206  1.00  0.00    -0.289 OA
ATOM      5  C   UNL     1      -4.478  51.778  31.334  1.00  0.00     0.107 A 
ATOM      6  C   UNL     1      -3.522  50.768  31.071  1.00  0.00     0.134 A 
ATOM      7  C   UNL     1      -3.179  49.857  32.080  1.00  0.00     0.093 A 
ATOM      8  C   UNL     1      -3.770  49.937  33.343  1.00  0.00     0.123 A 
ATOM      9  C   UNL     1      -4.715  50.933  33.609  1.00  0.00     0.094 A 
ATOM     10  C   UNL     1      -5.071  51.851  32.617  1.00  0.00     0.146 A 
ATOM     11  O   UNL     1      -5.970  52.790  32.894  1.00  0.00    -0.456 OA
ENDROOT
BRANCH   1  12
ATOM     12  C   UNL     1      -7.378  54.709  32.433  1.00  0.00     0.021 A 
ATOM     13  C   UNL     1      -7.168  55.556  33.538  1.00  0.00     0.016 A 
ATOM     14  C   UNL     1      -8.144  56.483  33.915  1.00  0.00     0.051 A 
ATOM     15  C   UNL     1      -9.346  56.573  33.203  1.00  0.00     0.157 A 
ATOM     16  C   UNL     1      -8.594  54.797  31.732  1.00  0.00     0.062 A 
ATOM     17  C   UNL     1      -9.572  55.728  32.110  1.00  0.00     0.158 A 
BRANCH  15  18
ATOM     18  O   UNL     1     -10.320  57.497  33.576  1.00  0.00    -0.504 OA
ATOM     19  H   UNL     1     -10.193  58.491  33.426  1.00  0.00     0.293 HD
ENDBRANCH  15  18
BRANCH  17  20
ATOM     20  O   UNL     1     -10.771  55.818  31.404  1.00  0.00    -0.504 OA
ATOM     21  H   UNL     1     -11.504  56.459  31.683  1.00  0.00     0.293 HD
ENDBRANCH  17  20
ENDBRANCH   1  12
BRANCH   6  22
ATOM     22  O   UNL     1      -2.915  50.663  29.819  1.00  0.00    -0.507 OA
ATOM     23  H   UNL     1      -3.297  51.122  29.001  1.00  0.00     0.293 HD
ENDBRANCH   6  22
BRANCH   8  24
ATOM     24  O   UNL     1      -3.412  49.018  34.329  1.00  0.00    -0.508 OA
ATOM     25  H   UNL     1      -3.531  49.224  35.313  1.00  0.00     0.293 HD
ENDBRANCH   8  24
TORSDOF 5
ENDMDL
MODEL 5
REMARK VINA RESULT:    -6.286      3.254      4.710
REMARK INTER + INTRA:          -7.690
REMARK INTER:                  -7.399
REMARK INTRA:                  -0.291
REMARK UNBOUND:                -0.301
REMARK SMILES O=c1cc(-c2ccc(O)c(O)c2)oc2cc(O)cc(O)c12
REMARK SMILES IDX 4 1 3 2 2 3 1 4 21 5 19 6 18 7 16 8 15 9 14 10 13 11 5 12
REMARK SMILES IDX 6 13 7 14 8 15 12 16 10 17 9 18 11 20 20 22 17 24
REMARK H PARENT 9 19 11 21 20 23 17 25
REMARK Flexibility Score: inf
ROOT
ATOM      1  C   UNL     1      -8.899  53.100  29.402  1.00  0.00     0.138 A 
ATOM      2  C   UNL     1      -9.882  53.959  29.922  1.00  0.00     0.100 A 
ATOM      3  C   UNL     1      -9.574  54.775  31.011  1.00  0.00     0.197 A 
ATOM      4  O   UNL     1     -10.462  55.543  31.471  1.00  0.00    -0.289 OA
ATOM      5  C   UNL     1      -8.282  54.727  31.572  1.00  0.00     0.107 A 
ATOM      6  C   UNL     1      -7.888  55.519  32.677  1.00  0.00     0.134 A 
ATOM      7  C   UNL     1      -6.580  55.417  33.173  1.00  0.00     0.093 A 
ATOM      8  C   UNL     1      -5.662  54.542  32.588  1.00  0.00     0.123 A 
ATOM      9  C   UNL     1      -6.046  53.758  31.496  1.00  0.00     0.094 A 
ATOM     10  C   UNL     1      -7.344  53.844  30.986  1.00  0.00     0.146 A 
ATOM     11  O   UNL     1      -7.686  53.087  29.949  1.00  0.00    -0.456 OA
ENDROOT
BRANCH   1  12
ATOM     12  C   UNL     1      -9.170  52.211  28.243  1.00  0.00     0.021 A 
ATOM     13  C   UNL     1     -10.313  51.389  28.191  1.00  0.00     0.016 A 
ATOM     14  C   UNL     1     -10.536  50.555  27.092  1.00  0.00     0.051 A 
ATOM     15  C   UNL     1      -9.622  50.522  26.033  1.00  0.00     0.157 A 
ATOM     16  C   UNL     1      -8.251  52.161  27.181  1.00  0.00     0.062 A 
ATOM     17  C   UNL     1      -8.476  51.325  26.078  1.00  0.00     0.158 A 
BRANCH  15  18
ATOM     18  O   UNL     1      -9.842  49.692  24.935  1.00  0.00    -0.504 OA
ATOM     19  H   UNL     1      -9.952  50.068  24.001  1.00  0.00     0.293 HD
ENDBRANCH  15  18
BRANCH  17  20
ATOM     20  O   UNL     1      -7.565  51.287  25.023  1.00  0.00    -0.504 OA
ATOM     21  H   UNL     1      -7.760  51.737  24.137  1.00  0.00     0.293 HD
ENDBRANCH  17  20
ENDBRANCH   1  12
BRANCH   6  22
ATOM     22  O   UNL     1      -8.783  56.402  33.283  1.00  0.00    -0.507 OA
ATOM     23  H   UNL     1      -8.466  57.232  33.768  1.00  0.00     0.293 HD
ENDBRANCH   6  22
BRANCH   8  24
ATOM     24  O   UNL     1      -4.368  54.461  33.100  1.00  0.00    -0.508 OA
ATOM     25  H   UNL     1      -3.678  55.178  32.912  1.00  0.00     0.293 HD
ENDBRANCH   8  24
TORSDOF 5
ENDMDL
MODEL 6
REMARK VINA RESULT:    -6.222      3.012      6.855
REMARK INTER + INTRA:          -7.614
REMARK INTER:                  -7.340
REMARK INTRA:                  -0.274
REMARK UNBOUND:                -0.301
REMARK SMILES O=c1cc(-c2ccc(O)c(O)c2)oc2cc(O)cc(O)c12
REMARK SMILES IDX 4 1 3 2 2 3 1 4 21 5 19 6 18 7 16 8 15 9 14 10 13 11 5 12
REMARK SMILES IDX 6 13 7 14 8 15 12 16 10 17 9 18 11 20 20 22 17 24
REMARK H PARENT 9 19 11 21 20 23 17 25
REMARK Flexibility Score: inf
ROOT
ATOM      1  C   UNL     1      -8.533  53.358  30.324  1.00  0.00     0.138 A 
ATOM      2  C   UNL     1      -9.730  52.627  30.244  1.00  0.00     0.100 A 
ATOM      3  C   UNL     1      -9.978  51.837  29.121  1.00  0.00     0.197 A 
ATOM      4  O   UNL     1     -11.055  51.184  29.058  1.00  0.00    -0.289 OA
ATOM      5  C   UNL     1      -9.023  51.782  28.086  1.00  0.00     0.107 A 
ATOM      6  C   UNL     1      -9.197  51.008  26.913  1.00  0.00     0.134 A 
ATOM      7  C   UNL     1      -8.196  51.002  25.931  1.00  0.00     0.093 A 
ATOM      8  C   UNL     1      -7.029  51.752  26.097  1.00  0.00     0.123 A 
ATOM      9  C   UNL     1      -6.853  52.519  27.254  1.00  0.00     0.094 A 
ATOM     10  C   UNL     1      -7.838  52.538  28.245  1.00  0.00     0.146 A 
ATOM     11  O   UNL     1      -7.649  53.276  29.334  1.00  0.00    -0.456 OA
ENDROOT
BRANCH   1  12
ATOM     12  C   UNL     1      -8.216  54.214  31.497  1.00  0.00     0.021 A 
ATOM     13  C   UNL     1      -6.976  54.132  32.159  1.00  0.00     0.016 A 
ATOM     14  C   UNL     1      -6.709  54.941  33.267  1.00  0.00     0.051 A 
ATOM     15  C   UNL     1      -7.676  55.838  33.736  1.00  0.00     0.157 A 
ATOM     16  C   UNL     1      -9.186  55.107  31.983  1.00  0.00     0.062 A 
ATOM     17  C   UNL     1      -8.918  55.920  33.094  1.00  0.00     0.158 A 
BRANCH  15  18
ATOM     18  O   UNL     1      -7.412  56.647  34.839  1.00  0.00    -0.504 OA
ATOM     19  H   UNL     1      -6.469  56.784  35.183  1.00  0.00     0.293 HD
ENDBRANCH  15  18
BRANCH  17  20
ATOM     20  O   UNL     1      -9.880  56.812  33.565  1.00  0.00    -0.504 OA
ATOM     21  H   UNL     1     -10.205  56.783  34.524  1.00  0.00     0.293 HD
ENDBRANCH  17  20
ENDBRANCH   1  12
BRANCH   6  22
ATOM     22  O   UNL     1     -10.351  50.248  26.718  1.00  0.00    -0.507 OA
ATOM     23  H   UNL     1     -10.523  49.753  25.852  1.00  0.00     0.293 HD
ENDBRANCH   6  22
BRANCH   8  24
ATOM     24  O   UNL     1      -6.050  51.728  25.106  1.00  0.00    -0.508 OA
ATOM     25  H   UNL     1      -5.447  52.525  24.938  1.00  0.00     0.293 HD
ENDBRANCH   8  24
TORSDOF 5
ENDMDL
MODEL 7
REMARK VINA RESULT:    -6.195      3.115      4.968
REMARK INTER + INTRA:          -7.583
REMARK INTER:                  -7.265
REMARK INTRA:                  -0.318
REMARK UNBOUND:                -0.301
REMARK SMILES O=c1cc(-c2ccc(O)c(O)c2)oc2cc(O)cc(O)c12
REMARK SMILES IDX 4 1 3 2 2 3 1 4 21 5 19 6 18 7 16 8 15 9 14 10 13 11 5 12
REMARK SMILES IDX 6 13 7 14 8 15 12 16 10 17 9 18 11 20 20 22 17 24
REMARK H PARENT 9 19 11 21 20 23 17 25
REMARK Flexibility Score: inf
ROOT
ATOM      1  C   UNL     1      -6.685  52.929  28.850  1.00  0.00     0.138 A 
ATOM      2  C   UNL     1      -5.303  53.111  29.030  1.00  0.00     0.100 A 
ATOM      3  C   UNL     1      -4.836  53.694  30.209  1.00  0.00     0.197 A 
ATOM      4  O   UNL     1      -3.595  53.853  30.362  1.00  0.00    -0.289 OA
ATOM      5  C   UNL     1      -5.756  54.086  31.203  1.00  0.00     0.107 A 
ATOM      6  C   UNL     1      -5.366  54.684  32.425  1.00  0.00     0.134 A 
ATOM      7  C   UNL     1      -6.344  55.041  33.365  1.00  0.00     0.093 A 
ATOM      8  C   UNL     1      -7.697  54.813  33.108  1.00  0.00     0.123 A 
ATOM      9  C   UNL     1      -8.088  54.223  31.902  1.00  0.00     0.094 A 
ATOM     10  C   UNL     1      -7.130  53.859  30.952  1.00  0.00     0.146 A 
ATOM     11  O   UNL     1      -7.525  53.302  29.812  1.00  0.00    -0.456 OA
ENDROOT
BRANCH   1  12
ATOM     12  C   UNL     1      -7.238  52.313  27.616  1.00  0.00     0.021 A 
ATOM     13  C   UNL     1      -6.404  51.872  26.571  1.00  0.00     0.016 A 
ATOM     14  C   UNL     1      -6.953  51.307  25.417  1.00  0.00     0.051 A 
ATOM     15  C   UNL     1      -8.341  51.179  25.284  1.00  0.00     0.157 A 
ATOM     16  C   UNL     1      -8.631  52.194  27.468  1.00  0.00     0.062 A 
ATOM     17  C   UNL     1      -9.182  51.625  26.311  1.00  0.00     0.158 A 
BRANCH  15  18
ATOM     18  O   UNL     1      -8.892  50.614  24.135  1.00  0.00    -0.504 OA
ATOM     19  H   UNL     1      -8.760  49.635  23.911  1.00  0.00     0.293 HD
ENDBRANCH  15  18
BRANCH  17  20
ATOM     20  O   UNL     1     -10.564  51.500  26.175  1.00  0.00    -0.504 OA
ATOM     21  H   UNL     1     -11.098  52.129  25.588  1.00  0.00     0.293 HD
ENDBRANCH  17  20
ENDBRANCH   1  12
BRANCH   6  22
ATOM     22  O   UNL     1      -4.022  54.925  32.711  1.00  0.00    -0.507 OA
ATOM     23  H   UNL     1      -3.603  54.636  33.587  1.00  0.00     0.293 HD
ENDBRANCH   6  22
BRANCH   8  24
ATOM     24  O   UNL     1      -8.648  55.177  34.060  1.00  0.00    -0.508 OA
ATOM     25  H   UNL     1      -8.916  56.144  34.199  1.00  0.00     0.293 HD
ENDBRANCH   8  24
TORSDOF 5
ENDMDL
MODEL 8
REMARK VINA RESULT:    -6.143      1.328      7.327
REMARK INTER + INTRA:          -7.522
REMARK INTER:                  -7.222
REMARK INTRA:                  -0.300
REMARK UNBOUND:                -0.301
REMARK SMILES O=c1cc(-c2ccc(O)c(O)c2)oc2cc(O)cc(O)c12
REMARK SMILES IDX 4 1 3 2 2 3 1 4 21 5 19 6 18 7 16 8 15 9 14 10 13 11 5 12
REMARK SMILES IDX 6 13 7 14 8 15 12 16 10 17 9 18 11 20 20 22 17 24
REMARK H PARENT 9 19 11 21 20 23 17 25
REMARK Flexibility Score: inf
ROOT
ATOM      1  C   UNL     1      -6.508  53.524  32.258  1.00  0.00     0.138 A 
ATOM      2  C   UNL     1      -5.811  52.835  33.266  1.00  0.00     0.100 A 
ATOM      3  C   UNL     1      -4.899  51.839  32.913  1.00  0.00     0.197 A 
ATOM      4  O   UNL     1      -4.279  51.227  33.824  1.00  0.00    -0.289 OA
ATOM      5  C   UNL     1      -4.689  51.541  31.551  1.00  0.00     0.107 A 
ATOM      6  C   UNL     1      -3.785  50.546  31.108  1.00  0.00     0.134 A 
ATOM      7  C   UNL     1      -3.628  50.313  29.734  1.00  0.00     0.093 A 
ATOM      8  C   UNL     1      -4.354  51.053  28.798  1.00  0.00     0.123 A 
ATOM      9  C   UNL     1      -5.249  52.037  29.231  1.00  0.00     0.094 A 
ATOM     10  C   UNL     1      -5.420  52.285  30.595  1.00  0.00     0.146 A 
ATOM     11  O   UNL     1      -6.277  53.224  30.982  1.00  0.00    -0.456 OA
ENDROOT
BRANCH   1  12
ATOM     12  C   UNL     1      -7.487  54.594  32.575  1.00  0.00     0.021 A 
ATOM     13  C   UNL     1      -7.287  55.488  33.645  1.00  0.00     0.016 A 
ATOM     14  C   UNL     1      -8.232  56.478  33.927  1.00  0.00     0.051 A 
ATOM     15  C   UNL     1      -9.393  56.588  33.153  1.00  0.00     0.157 A 
ATOM     16  C   UNL     1      -8.663  54.703  31.812  1.00  0.00     0.062 A 
ATOM     17  C   UNL     1      -9.610  55.698  32.095  1.00  0.00     0.158 A 
BRANCH  15  18
ATOM     18  O   UNL     1     -10.336  57.576  33.431  1.00  0.00    -0.504 OA
ATOM     19  H   UNL     1     -10.666  57.743  34.374  1.00  0.00     0.293 HD
ENDBRANCH  15  18
BRANCH  17  20
ATOM     20  O   UNL     1     -10.769  55.808  31.327  1.00  0.00    -0.504 OA
ATOM     21  H   UNL     1     -11.687  55.658  31.728  1.00  0.00     0.293 HD
ENDBRANCH  17  20
ENDBRANCH   1  12
BRANCH   6  22
ATOM     22  O   UNL     1      -3.045  49.790  32.019  1.00  0.00    -0.507 OA
ATOM     23  H   UNL     1      -3.446  48.996  32.503  1.00  0.00     0.293 HD
ENDBRANCH   6  22
BRANCH   8  24
ATOM     24  O   UNL     1      -4.179  50.802  27.438  1.00  0.00    -0.508 OA
ATOM     25  H   UNL     1      -4.246  51.542  26.750  1.00  0.00     0.293 HD
ENDBRANCH   8  24
TORSDOF 5
ENDMDL
MODEL 9
REMARK VINA RESULT:    -6.050      1.534      2.245
REMARK INTER + INTRA:          -7.412
REMARK INTER:                  -7.114
REMARK INTRA:                  -0.297
REMARK UNBOUND:                -0.301
REMARK SMILES O=c1cc(-c2ccc(O)c(O)c2)oc2cc(O)cc(O)c12
REMARK SMILES IDX 4 1 3 2 2 3 1 4 21 5 19 6 18 7 16 8 15 9 14 10 13 11 5 12
REMARK SMILES IDX 6 13 7 14 8 15 12 16 10 17 9 18 11 20 20 22 17 24
REMARK H PARENT 9 19 11 21 20 23 17 25
REMARK Flexibility Score: inf
ROOT
ATOM      1  C   UNL     1      -4.844  51.837  30.825  1.00  0.00     0.138 A 
ATOM      2  C   UNL     1      -5.806  51.853  29.801  1.00  0.00     0.100 A 
ATOM      3  C   UNL     1      -6.917  52.689  29.915  1.00  0.00     0.197 A 
ATOM      4  O   UNL     1      -7.774  52.696  28.991  1.00  0.00    -0.289 OA
ATOM      5  C   UNL     1      -7.056  53.508  31.053  1.00  0.00     0.107 A 
ATOM      6  C   UNL     1      -8.152  54.382  31.248  1.00  0.00     0.134 A 
ATOM      7  C   UNL     1      -8.214  55.170  32.408  1.00  0.00     0.093 A 
ATOM      8  C   UNL     1      -7.207  55.099  33.372  1.00  0.00     0.123 A 
ATOM      9  C   UNL     1      -6.122  54.237  33.184  1.00  0.00     0.094 A 
ATOM     10  C   UNL     1      -6.041  53.444  32.037  1.00  0.00     0.146 A 
ATOM     11  O   UNL     1      -5.001  52.630  31.882  1.00  0.00    -0.456 OA
ENDROOT
BRANCH   1  12
ATOM     12  C   UNL     1      -3.641  50.969  30.756  1.00  0.00     0.021 A 
ATOM     13  C   UNL     1      -2.942  50.767  29.550  1.00  0.00     0.016 A 
ATOM     14  C   UNL     1      -1.819  49.936  29.512  1.00  0.00     0.051 A 
ATOM     15  C   UNL     1      -1.381  49.287  30.672  1.00  0.00     0.157 A 
ATOM     16  C   UNL     1      -3.202  50.302  31.913  1.00  0.00     0.062 A 
ATOM     17  C   UNL     1      -2.075  49.469  31.875  1.00  0.00     0.158 A 
BRANCH  15  18
ATOM     18  O   UNL     1      -0.261  48.458  30.638  1.00  0.00    -0.504 OA
ATOM     19  H   UNL     1      -0.266  47.581  30.132  1.00  0.00     0.293 HD
ENDBRANCH  15  18
BRANCH  17  20
ATOM     20  O   UNL     1      -1.638  48.819  33.028  1.00  0.00    -0.504 OA
ATOM     21  H   UNL     1      -2.205  48.116  33.488  1.00  0.00     0.293 HD
ENDBRANCH  17  20
ENDBRANCH   1  12
BRANCH   6  22
ATOM     22  O   UNL     1      -9.174  54.475  30.303  1.00  0.00    -0.507 OA
ATOM     23  H   UNL     1      -9.956  55.107  30.423  1.00  0.00     0.293 HD
ENDBRANCH   6  22
BRANCH   8  24
ATOM     24  O   UNL     1      -7.292  55.893  34.514  1.00  0.00    -0.508 OA
ATOM     25  H   UNL     1      -6.789  56.769  34.590  1.00  0.00     0.293 HD
ENDBRANCH   8  24
TORSDOF 5
ENDMDL
