MODEL 1
REMARK VINA RESULT:    -4.854      0.000      0.000
REMARK INTER + INTRA:          -9.537
REMARK INTER:                  -8.542
REMARK INTRA:                  -0.995
REMARK UNBOUND:                -0.995
REMARK SMILES CCCCCCCCCCCCCCC(=O)[O-]
REMARK SMILES IDX 9 1 10 2 11 3 12 4 13 5 14 6 15 7 16 8 17 9 8 10 7 11 6 12
REMARK SMILES IDX 5 13 4 14 3 15 2 16 1 17
REMARK H PARENT
REMARK Flexibility Score: inf
ROOT
ATOM      1  C   UNL     1      30.189   7.843  49.017  1.00  0.00     0.000 C 
ENDROOT
BRANCH   1   2
ATOM      2  C   UNL     1      30.267   6.587  48.133  1.00  0.00     0.000 C 
BRANCH   2   3
ATOM      3  C   UNL     1      31.622   6.449  47.419  1.00  0.00     0.000 C 
BRANCH   3   4
ATOM      4  C   UNL     1      32.499   5.340  48.041  1.00  0.00     0.000 C 
BRANCH   4   5
ATOM      5  C   UNL     1      33.991   5.715  48.132  1.00  0.00     0.006 C 
BRANCH   5   6
ATOM      6  C   UNL     1      34.933   4.697  47.472  1.00  0.00     0.053 C 
BRANCH   6   7
ATOM      7  C   UNL     1      34.960   4.847  45.981  1.00  0.00     0.041 C 
ATOM      8  O   UNL     1      34.536   5.905  45.444  1.00  0.00    -0.550 OA
ATOM      9  O   UNL     1      35.431   3.814  45.183  1.00  0.00    -0.550 OA
ENDBRANCH   6   7
ENDBRANCH   5   6
ENDBRANCH   4   5
ENDBRANCH   3   4
ENDBRANCH   2   3
ENDBRANCH   1   2
BRANCH   1  10
ATOM     10  C   UNL     1      31.571   8.452  49.299  1.00  0.00     0.000 C 
BRANCH  10  11
ATOM     11  C   UNL     1      31.741   9.787  48.565  1.00  0.00    -0.000 C 
BRANCH  11  12
ATOM     12  C   UNL     1      33.030  10.495  49.001  1.00  0.00    -0.000 C 
BRANCH  12  13
ATOM     13  C   UNL     1      34.238   9.979  48.209  1.00  0.00    -0.000 C 
BRANCH  13  14
ATOM     14  C   UNL     1      33.911   9.879  46.711  1.00  0.00    -0.000 C 
BRANCH  14  15
ATOM     15  C   UNL     1      34.834  10.751  45.845  1.00  0.00    -0.000 C 
BRANCH  15  16
ATOM     16  C   UNL     1      34.620  10.526  44.342  1.00  0.00    -0.003 C 
ATOM     17  C   UNL     1      34.571   9.037  44.011  1.00  0.00     0.004 C 
ENDBRANCH  15  16
ENDBRANCH  14  15
ENDBRANCH  13  14
ENDBRANCH  12  13
ENDBRANCH  11  12
ENDBRANCH  10  11
ENDBRANCH   1  10
TORSDOF 13
ENDMDL
MODEL 2
REMARK VINA RESULT:    -4.769      0.834      1.313
REMARK INTER + INTRA:          -9.388
REMARK INTER:                  -7.993
REMARK INTRA:                  -1.395
REMARK UNBOUND:                -0.995
REMARK SMILES CCCCCCCCCCCCCCC(=O)[O-]
REMARK SMILES IDX 9 1 10 2 11 3 12 4 13 5 14 6 15 7 16 8 17 9 8 10 7 11 6 12
REMARK SMILES IDX 5 13 4 14 3 15 2 16 1 17
REMARK H PARENT
REMARK Flexibility Score: inf
ROOT
ATOM      1  C   UNL     1      30.532   8.305  48.975  1.00  0.00     0.000 C 
ENDROOT
BRANCH   1   2
ATOM      2  C   UNL     1      29.687   7.035  49.169  1.00  0.00     0.000 C 
BRANCH   2   3
ATOM      3  C   UNL     1      30.181   5.858  48.311  1.00  0.00     0.000 C 
BRANCH   3   4
ATOM      4  C   UNL     1      31.440   6.221  47.491  1.00  0.00     0.000 C 
BRANCH   4   5
ATOM      5  C   UNL     1      32.720   5.522  47.988  1.00  0.00     0.006 C 
BRANCH   5   6
ATOM      6  C   UNL     1      34.018   6.234  47.582  1.00  0.00     0.053 C 
BRANCH   6   7
ATOM      7  C   UNL     1      34.531   5.750  46.260  1.00  0.00     0.041 C 
ATOM      8  O   UNL     1      35.342   4.787  46.210  1.00  0.00    -0.550 OA
ATOM      9  O   UNL     1      34.132   6.372  45.084  1.00  0.00    -0.550 OA
ENDBRANCH   6   7
ENDBRANCH   5   6
ENDBRANCH   4   5
ENDBRANCH   3   4
ENDBRANCH   2   3
ENDBRANCH   1   2
BRANCH   1  10
ATOM     10  C   UNL     1      31.526   8.534  50.125  1.00  0.00     0.000 C 
BRANCH  10  11
ATOM     11  C   UNL     1      32.420   9.746  49.842  1.00  0.00    -0.000 C 
BRANCH  11  12
ATOM     12  C   UNL     1      32.493  10.037  48.338  1.00  0.00    -0.000 C 
BRANCH  12  13
ATOM     13  C   UNL     1      33.944  10.248  47.887  1.00  0.00    -0.000 C 
BRANCH  13  14
ATOM     14  C   UNL     1      34.119   9.874  46.408  1.00  0.00    -0.000 C 
BRANCH  14  15
ATOM     15  C   UNL     1      34.935  10.917  45.627  1.00  0.00    -0.000 C 
BRANCH  15  16
ATOM     16  C   UNL     1      34.504  11.024  44.157  1.00  0.00    -0.003 C 
ATOM     17  C   UNL     1      34.145   9.654  43.589  1.00  0.00     0.004 C 
ENDBRANCH  15  16
ENDBRANCH  14  15
ENDBRANCH  13  14
ENDBRANCH  12  13
ENDBRANCH  11  12
ENDBRANCH  10  11
ENDBRANCH   1  10
TORSDOF 13
ENDMDL
MODEL 3
REMARK VINA RESULT:    -4.743      1.827      4.737
REMARK INTER + INTRA:          -9.342
REMARK INTER:                  -7.675
REMARK INTRA:                  -1.667
REMARK UNBOUND:                -0.995
REMARK SMILES CCCCCCCCCCCCCCC(=O)[O-]
REMARK SMILES IDX 9 1 10 2 11 3 12 4 13 5 14 6 15 7 16 8 17 9 8 10 7 11 6 12
REMARK SMILES IDX 5 13 4 14 3 15 2 16 1 17
REMARK H PARENT
REMARK Flexibility Score: inf
ROOT
ATOM      1  C   UNL     1      30.525   8.541  49.251  1.00  0.00     0.000 C 
ENDROOT
BRANCH   1   2
ATOM      2  C   UNL     1      31.761   8.879  50.101  1.00  0.00     0.000 C 
BRANCH   2   3
ATOM      3  C   UNL     1      32.863   9.582  49.290  1.00  0.00     0.000 C 
BRANCH   3   4
ATOM      4  C   UNL     1      32.541   9.622  47.779  1.00  0.00     0.000 C 
BRANCH   4   5
ATOM      5  C   UNL     1      33.722   9.190  46.888  1.00  0.00     0.006 C 
BRANCH   5   6
ATOM      6  C   UNL     1      34.540  10.361  46.324  1.00  0.00     0.053 C 
BRANCH   6   7
ATOM      7  C   UNL     1      34.606  10.327  44.828  1.00  0.00     0.041 C 
ATOM      8  O   UNL     1      34.865   9.248  44.230  1.00  0.00    -0.550 OA
ATOM      9  O   UNL     1      34.405  11.487  44.091  1.00  0.00    -0.550 OA
ENDBRANCH   6   7
ENDBRANCH   5   6
ENDBRANCH   4   5
ENDBRANCH   3   4
ENDBRANCH   2   3
ENDBRANCH   1   2
BRANCH   1  10
ATOM     10  C   UNL     1      29.881   7.204  49.651  1.00  0.00     0.000 C 
BRANCH  10  11
ATOM     11  C   UNL     1      29.642   6.322  48.421  1.00  0.00    -0.000 C 
BRANCH  11  12
ATOM     12  C   UNL     1      30.885   6.278  47.525  1.00  0.00    -0.000 C 
BRANCH  12  13
ATOM     13  C   UNL     1      31.901   5.252  48.040  1.00  0.00    -0.000 C 
BRANCH  13  14
ATOM     14  C   UNL     1      33.229   5.930  48.410  1.00  0.00    -0.000 C 
BRANCH  14  15
ATOM     15  C   UNL     1      34.450   5.190  47.840  1.00  0.00    -0.000 C 
BRANCH  15  16
ATOM     16  C   UNL     1      34.635   5.427  46.334  1.00  0.00    -0.003 C 
ATOM     17  C   UNL     1      35.381   4.266  45.684  1.00  0.00     0.004 C 
ENDBRANCH  15  16
ENDBRANCH  14  15
ENDBRANCH  13  14
ENDBRANCH  12  13
ENDBRANCH  11  12
ENDBRANCH  10  11
ENDBRANCH   1  10
TORSDOF 13
ENDMDL
MODEL 4
REMARK VINA RESULT:    -4.462      1.940      4.817
REMARK INTER + INTRA:          -8.847
REMARK INTER:                  -7.367
REMARK INTRA:                  -1.480
REMARK UNBOUND:                -0.995
REMARK SMILES CCCCCCCCCCCCCCC(=O)[O-]
REMARK SMILES IDX 9 1 10 2 11 3 12 4 13 5 14 6 15 7 16 8 17 9 8 10 7 11 6 12
REMARK SMILES IDX 5 13 4 14 3 15 2 16 1 17
REMARK H PARENT
REMARK Flexibility Score: inf
ROOT
ATOM      1  C   UNL     1      32.223   8.660  50.010  1.00  0.00     0.000 C 
ENDROOT
BRANCH   1   2
ATOM      2  C   UNL     1      33.582   9.247  49.597  1.00  0.00     0.000 C 
BRANCH   2   3
ATOM      3  C   UNL     1      33.443  10.464  48.665  1.00  0.00     0.000 C 
BRANCH   3   4
ATOM      4  C   UNL     1      34.803  11.140  48.382  1.00  0.00     0.000 C 
BRANCH   4   5
ATOM      5  C   UNL     1      35.187  11.149  46.889  1.00  0.00     0.006 C 
BRANCH   5   6
ATOM      6  C   UNL     1      34.412  10.131  46.039  1.00  0.00     0.053 C 
BRANCH   6   7
ATOM      7  C   UNL     1      34.661  10.322  44.574  1.00  0.00     0.041 C 
ATOM      8  O   UNL     1      34.459  11.444  44.039  1.00  0.00    -0.550 OA
ATOM      9  O   UNL     1      35.094   9.258  43.794  1.00  0.00    -0.550 OA
ENDBRANCH   6   7
ENDBRANCH   5   6
ENDBRANCH   4   5
ENDBRANCH   3   4
ENDBRANCH   2   3
ENDBRANCH   1   2
BRANCH   1  10
ATOM     10  C   UNL     1      31.166   8.781  48.901  1.00  0.00     0.000 C 
BRANCH  10  11
ATOM     11  C   UNL     1      29.840   8.149  49.337  1.00  0.00    -0.000 C 
BRANCH  11  12
ATOM     12  C   UNL     1      29.701   6.725  48.783  1.00  0.00    -0.000 C 
BRANCH  12  13
ATOM     13  C   UNL     1      30.755   6.447  47.705  1.00  0.00    -0.000 C 
BRANCH  13  14
ATOM     14  C   UNL     1      31.768   5.397  48.184  1.00  0.00    -0.000 C 
BRANCH  14  15
ATOM     15  C   UNL     1      33.154   5.575  47.543  1.00  0.00    -0.000 C 
BRANCH  15  16
ATOM     16  C   UNL     1      33.169   6.667  46.463  1.00  0.00    -0.003 C 
ATOM     17  C   UNL     1      34.196   6.353  45.379  1.00  0.00     0.004 C 
ENDBRANCH  15  16
ENDBRANCH  14  15
ENDBRANCH  13  14
ENDBRANCH  12  13
ENDBRANCH  11  12
ENDBRANCH  10  11
ENDBRANCH   1  10
TORSDOF 13
ENDMDL
MODEL 5
REMARK VINA RESULT:    -4.428     17.497     19.267
REMARK INTER + INTRA:          -8.788
REMARK INTER:                  -7.565
REMARK INTRA:                  -1.223
REMARK UNBOUND:                -0.995
REMARK SMILES CCCCCCCCCCCCCCC(=O)[O-]
REMARK SMILES IDX 9 1 10 2 11 3 12 4 13 5 14 6 15 7 16 8 17 9 8 10 7 11 6 12
REMARK SMILES IDX 5 13 4 14 3 15 2 16 1 17
REMARK H PARENT
REMARK Flexibility Score: inf
ROOT
ATOM      1  C   UNL     1      19.348  13.706  34.237  1.00  0.00     0.000 C 
ENDROOT
BRANCH   1   2
ATOM      2  C   UNL     1      20.727  14.376  34.125  1.00  0.00     0.000 C 
BRANCH   2   3
ATOM      3  C   UNL     1      21.054  14.822  32.689  1.00  0.00     0.000 C 
BRANCH   3   4
ATOM      4  C   UNL     1      21.828  13.739  31.904  1.00  0.00     0.000 C 
BRANCH   4   5
ATOM      5  C   UNL     1      22.639  14.301  30.720  1.00  0.00     0.006 C 
BRANCH   5   6
ATOM      6  C   UNL     1      22.848  15.821  30.771  1.00  0.00     0.053 C 
BRANCH   6   7
ATOM      7  C   UNL     1      24.294  16.190  30.635  1.00  0.00     0.041 C 
ATOM      8  O   UNL     1      25.144  15.315  30.319  1.00  0.00    -0.550 OA
ATOM      9  O   UNL     1      24.710  17.493  30.877  1.00  0.00    -0.550 OA
ENDBRANCH   6   7
ENDBRANCH   5   6
ENDBRANCH   4   5
ENDBRANCH   3   4
ENDBRANCH   2   3
ENDBRANCH   1   2
BRANCH   1  10
ATOM     10  C   UNL     1      19.002  13.304  35.679  1.00  0.00     0.000 C 
BRANCH  10  11
ATOM     11  C   UNL     1      20.049  12.339  36.245  1.00  0.00    -0.000 C 
BRANCH  11  12
ATOM     12  C   UNL     1      19.573  10.885  36.135  1.00  0.00    -0.000 C 
BRANCH  12  13
ATOM     13  C   UNL     1      20.717   9.962  35.694  1.00  0.00    -0.000 C 
BRANCH  13  14
ATOM     14  C   UNL     1      21.302  10.417  34.349  1.00  0.00    -0.000 C 
BRANCH  14  15
ATOM     15  C   UNL     1      22.649  11.141  34.504  1.00  0.00    -0.000 C 
BRANCH  15  16
ATOM     16  C   UNL     1      23.353  10.801  35.826  1.00  0.00    -0.003 C 
ATOM     17  C   UNL     1      24.870  10.818  35.659  1.00  0.00     0.004 C 
ENDBRANCH  15  16
ENDBRANCH  14  15
ENDBRANCH  13  14
ENDBRANCH  12  13
ENDBRANCH  11  12
ENDBRANCH  10  11
ENDBRANCH   1  10
TORSDOF 13
ENDMDL
MODEL 6
REMARK VINA RESULT:    -4.423     17.888     19.732
REMARK INTER + INTRA:          -8.779
REMARK INTER:                  -7.557
REMARK INTRA:                  -1.221
REMARK UNBOUND:                -0.995
REMARK SMILES CCCCCCCCCCCCCCC(=O)[O-]
REMARK SMILES IDX 9 1 10 2 11 3 12 4 13 5 14 6 15 7 16 8 17 9 8 10 7 11 6 12
REMARK SMILES IDX 5 13 4 14 3 15 2 16 1 17
REMARK H PARENT
REMARK Flexibility Score: inf
ROOT
ATOM      1  C   UNL     1      20.883  13.893  34.165  1.00  0.00     0.000 C 
ENDROOT
BRANCH   1   2
ATOM      2  C   UNL     1      19.751  14.130  33.151  1.00  0.00     0.000 C 
BRANCH   2   3
ATOM      3  C   UNL     1      20.267  14.651  31.799  1.00  0.00     0.000 C 
BRANCH   3   4
ATOM      4  C   UNL     1      21.797  14.866  31.801  1.00  0.00     0.000 C 
BRANCH   4   5
ATOM      5  C   UNL     1      22.280  15.863  30.730  1.00  0.00     0.006 C 
BRANCH   5   6
ATOM      6  C   UNL     1      22.643  17.248  31.285  1.00  0.00     0.053 C 
BRANCH   6   7
ATOM      7  C   UNL     1      24.049  17.637  30.941  1.00  0.00     0.041 C 
ATOM      8  O   UNL     1      24.512  18.743  31.326  1.00  0.00    -0.550 OA
ATOM      9  O   UNL     1      24.842  16.790  30.178  1.00  0.00    -0.550 OA
ENDBRANCH   6   7
ENDBRANCH   5   6
ENDBRANCH   4   5
ENDBRANCH   3   4
ENDBRANCH   2   3
ENDBRANCH   1   2
BRANCH   1  10
ATOM     10  C   UNL     1      20.363  13.724  35.601  1.00  0.00     0.000 C 
BRANCH  10  11
ATOM     11  C   UNL     1      19.139  12.802  35.635  1.00  0.00    -0.000 C 
BRANCH  11  12
ATOM     12  C   UNL     1      19.499  11.432  36.224  1.00  0.00    -0.000 C 
BRANCH  12  13
ATOM     13  C   UNL     1      19.474  10.343  35.144  1.00  0.00    -0.000 C 
BRANCH  13  14
ATOM     14  C   UNL     1      20.870   9.734  34.945  1.00  0.00    -0.000 C 
BRANCH  14  15
ATOM     15  C   UNL     1      21.919  10.339  35.891  1.00  0.00    -0.000 C 
BRANCH  15  16
ATOM     16  C   UNL     1      23.017  11.108  35.141  1.00  0.00    -0.003 C 
ATOM     17  C   UNL     1      24.389  10.842  35.752  1.00  0.00     0.004 C 
ENDBRANCH  15  16
ENDBRANCH  14  15
ENDBRANCH  13  14
ENDBRANCH  12  13
ENDBRANCH  11  12
ENDBRANCH  10  11
ENDBRANCH   1  10
TORSDOF 13
ENDMDL
MODEL 7
REMARK VINA RESULT:    -4.327      2.390      4.270
REMARK INTER + INTRA:          -8.611
REMARK INTER:                  -6.934
REMARK INTRA:                  -1.677
REMARK UNBOUND:                -0.995
REMARK SMILES CCCCCCCCCCCCCCC(=O)[O-]
REMARK SMILES IDX 9 1 10 2 11 3 12 4 13 5 14 6 15 7 16 8 17 9 8 10 7 11 6 12
REMARK SMILES IDX 5 13 4 14 3 15 2 16 1 17
REMARK H PARENT
REMARK Flexibility Score: inf
ROOT
ATOM      1  C   UNL     1      31.695   5.232  48.214  1.00  0.00     0.000 C 
ENDROOT
BRANCH   1   2
ATOM      2  C   UNL     1      33.103   5.504  47.658  1.00  0.00     0.000 C 
BRANCH   2   3
ATOM      3  C   UNL     1      33.178   6.811  46.849  1.00  0.00     0.000 C 
BRANCH   3   4
ATOM      4  C   UNL     1      33.851   6.608  45.474  1.00  0.00     0.000 C 
BRANCH   4   5
ATOM      5  C   UNL     1      34.224   7.927  44.770  1.00  0.00     0.006 C 
BRANCH   5   6
ATOM      6  C   UNL     1      34.079   9.171  45.660  1.00  0.00     0.053 C 
BRANCH   6   7
ATOM      7  C   UNL     1      34.692  10.384  45.027  1.00  0.00     0.041 C 
ATOM      8  O   UNL     1      35.427  11.148  45.707  1.00  0.00    -0.550 OA
ATOM      9  O   UNL     1      34.435  10.684  43.696  1.00  0.00    -0.550 OA
ENDBRANCH   6   7
ENDBRANCH   5   6
ENDBRANCH   4   5
ENDBRANCH   3   4
ENDBRANCH   2   3
ENDBRANCH   1   2
BRANCH   1  10
ATOM     10  C   UNL     1      30.671   6.287  47.767  1.00  0.00     0.000 C 
BRANCH  10  11
ATOM     11  C   UNL     1      29.679   6.598  48.894  1.00  0.00    -0.000 C 
BRANCH  11  12
ATOM     12  C   UNL     1      30.129   7.824  49.699  1.00  0.00    -0.000 C 
BRANCH  12  13
ATOM     13  C   UNL     1      30.832   8.848  48.800  1.00  0.00    -0.000 C 
BRANCH  13  14
ATOM     14  C   UNL     1      32.161   9.304  49.420  1.00  0.00    -0.000 C 
BRANCH  14  15
ATOM     15  C   UNL     1      32.621  10.672  48.893  1.00  0.00    -0.000 C 
BRANCH  15  16
ATOM     16  C   UNL     1      34.139  10.872  49.013  1.00  0.00    -0.003 C 
ATOM     17  C   UNL     1      34.843   9.553  49.321  1.00  0.00     0.004 C 
ENDBRANCH  15  16
ENDBRANCH  14  15
ENDBRANCH  13  14
ENDBRANCH  12  13
ENDBRANCH  11  12
ENDBRANCH  10  11
ENDBRANCH   1  10
TORSDOF 13
ENDMDL
MODEL 8
REMARK VINA RESULT:    -4.280     17.990     19.696
REMARK INTER + INTRA:          -8.528
REMARK INTER:                  -6.616
REMARK INTRA:                  -1.912
REMARK UNBOUND:                -0.995
REMARK SMILES CCCCCCCCCCCCCCC(=O)[O-]
REMARK SMILES IDX 9 1 10 2 11 3 12 4 13 5 14 6 15 7 16 8 17 9 8 10 7 11 6 12
REMARK SMILES IDX 5 13 4 14 3 15 2 16 1 17
REMARK H PARENT
REMARK Flexibility Score: inf
ROOT
ATOM      1  C   UNL     1      20.416  12.670  35.896  1.00  0.00     0.000 C 
ENDROOT
BRANCH   1   2
ATOM      2  C   UNL     1      19.766  13.650  34.906  1.00  0.00     0.000 C 
BRANCH   2   3
ATOM      3  C   UNL     1      20.797  14.544  34.195  1.00  0.00     0.000 C 
BRANCH   3   4
ATOM      4  C   UNL     1      20.727  14.407  32.658  1.00  0.00     0.000 C 
BRANCH   4   5
ATOM      5  C   UNL     1      21.593  15.439  31.909  1.00  0.00     0.006 C 
BRANCH   5   6
ATOM      6  C   UNL     1      22.625  14.815  30.957  1.00  0.00     0.053 C 
BRANCH   6   7
ATOM      7  C   UNL     1      23.772  15.741  30.692  1.00  0.00     0.041 C 
ATOM      8  O   UNL     1      24.921  15.277  30.465  1.00  0.00    -0.550 OA
ATOM      9  O   UNL     1      23.582  17.116  30.718  1.00  0.00    -0.550 OA
ENDBRANCH   6   7
ENDBRANCH   5   6
ENDBRANCH   4   5
ENDBRANCH   3   4
ENDBRANCH   2   3
ENDBRANCH   1   2
BRANCH   1  10
ATOM     10  C   UNL     1      21.883  12.369  35.552  1.00  0.00     0.000 C 
BRANCH  10  11
ATOM     11  C   UNL     1      22.216  10.897  35.819  1.00  0.00    -0.000 C 
BRANCH  11  12
ATOM     12  C   UNL     1      20.950  10.032  35.789  1.00  0.00    -0.000 C 
BRANCH  12  13
ATOM     13  C   UNL     1      20.764   9.373  34.417  1.00  0.00    -0.000 C 
BRANCH  13  14
ATOM     14  C   UNL     1      19.477   9.869  33.740  1.00  0.00    -0.000 C 
BRANCH  14  15
ATOM     15  C   UNL     1      19.755  10.688  32.469  1.00  0.00    -0.000 C 
BRANCH  15  16
ATOM     16  C   UNL     1      21.256  10.843  32.183  1.00  0.00    -0.003 C 
ATOM     17  C   UNL     1      21.498  11.261  30.735  1.00  0.00     0.004 C 
ENDBRANCH  15  16
ENDBRANCH  14  15
ENDBRANCH  13  14
ENDBRANCH  12  13
ENDBRANCH  11  12
ENDBRANCH  10  11
ENDBRANCH   1  10
TORSDOF 13
ENDMDL
MODEL 9
REMARK VINA RESULT:    -4.222      2.587      4.634
REMARK INTER + INTRA:          -8.426
REMARK INTER:                  -6.800
REMARK INTRA:                  -1.625
REMARK UNBOUND:                -0.995
REMARK SMILES CCCCCCCCCCCCCCC(=O)[O-]
REMARK SMILES IDX 9 1 10 2 11 3 12 4 13 5 14 6 15 7 16 8 17 9 8 10 7 11 6 12
REMARK SMILES IDX 5 13 4 14 3 15 2 16 1 17
REMARK H PARENT
REMARK Flexibility Score: inf
ROOT
ATOM      1  C   UNL     1      34.336   8.266  44.289  1.00  0.00     0.000 C 
ENDROOT
BRANCH   1   2
ATOM      2  C   UNL     1      33.931   7.959  45.740  1.00  0.00     0.000 C 
BRANCH   2   3
ATOM      3  C   UNL     1      33.610   6.471  45.964  1.00  0.00     0.000 C 
BRANCH   3   4
ATOM      4  C   UNL     1      33.801   6.048  47.437  1.00  0.00     0.000 C 
BRANCH   4   5
ATOM      5  C   UNL     1      32.503   6.103  48.266  1.00  0.00     0.006 C 
BRANCH   5   6
ATOM      6  C   UNL     1      31.247   6.416  47.439  1.00  0.00     0.053 C 
BRANCH   6   7
ATOM      7  C   UNL     1      30.037   6.589  48.306  1.00  0.00     0.041 C 
ATOM      8  O   UNL     1      30.112   7.256  49.372  1.00  0.00    -0.550 OA
ATOM      9  O   UNL     1      28.832   5.997  47.951  1.00  0.00    -0.550 OA
ENDBRANCH   6   7
ENDBRANCH   5   6
ENDBRANCH   4   5
ENDBRANCH   3   4
ENDBRANCH   2   3
ENDBRANCH   1   2
BRANCH   1  10
ATOM     10  C   UNL     1      34.760   9.729  44.091  1.00  0.00     0.000 C 
BRANCH  10  11
ATOM     11  C   UNL     1      34.343  10.587  45.290  1.00  0.00    -0.000 C 
BRANCH  11  12
ATOM     12  C   UNL     1      35.552  11.308  45.898  1.00  0.00    -0.000 C 
BRANCH  12  13
ATOM     13  C   UNL     1      35.281  11.709  47.354  1.00  0.00    -0.000 C 
BRANCH  13  14
ATOM     14  C   UNL     1      34.990  10.474  48.219  1.00  0.00    -0.000 C 
BRANCH  14  15
ATOM     15  C   UNL     1      34.073  10.790  49.411  1.00  0.00    -0.000 C 
BRANCH  15  16
ATOM     16  C   UNL     1      32.867   9.844  49.497  1.00  0.00    -0.003 C 
ATOM     17  C   UNL     1      31.994   9.955  48.250  1.00  0.00     0.004 C 
ENDBRANCH  15  16
ENDBRANCH  14  15
ENDBRANCH  13  14
ENDBRANCH  12  13
ENDBRANCH  11  12
ENDBRANCH  10  11
ENDBRANCH   1  10
TORSDOF 13
ENDMDL
