MODEL 1
REMARK VINA RESULT:    -5.149      0.000      0.000
REMARK INTER + INTRA:         -13.750
REMARK INTER:                 -11.168
REMARK INTRA:                  -2.582
REMARK UNBOUND:                -2.582
REMARK SMILES CCCCCCCCCCCCCCCCCCCCCC(=O)[O-]
REMARK SMILES IDX 12 1 11 2 10 3 9 4 8 5 7 6 6 7 5 8 4 9 3 10 2 11 1 12 13 13
REMARK SMILES IDX 14 14 15 15 16 16 17 17 18 18 19 19 20 20 21 21 22 22 23 23
REMARK SMILES IDX 24 24
REMARK H PARENT
REMARK Flexibility Score: inf
ROOT
ATOM      1  C   UNL     1      12.089  41.095  46.447  1.00  0.00     0.000 C 
ENDROOT
BRANCH   1   2
ATOM      2  C   UNL     1      11.779  40.157  45.268  1.00  0.00     0.000 C 
BRANCH   2   3
ATOM      3  C   UNL     1      10.270  39.932  45.072  1.00  0.00     0.000 C 
BRANCH   3   4
ATOM      4  C   UNL     1       9.943  38.555  44.469  1.00  0.00    -0.000 C 
BRANCH   4   5
ATOM      5  C   UNL     1      11.133  37.579  44.371  1.00  0.00    -0.000 C 
BRANCH   5   6
ATOM      6  C   UNL     1      11.174  36.483  45.456  1.00  0.00    -0.000 C 
BRANCH   6   7
ATOM      7  C   UNL     1      10.228  35.293  45.212  1.00  0.00    -0.000 C 
BRANCH   7   8
ATOM      8  C   UNL     1       9.930  35.064  43.722  1.00  0.00    -0.000 C 
BRANCH   8   9
ATOM      9  C   UNL     1       9.988  33.568  43.377  1.00  0.00    -0.000 C 
BRANCH   9  10
ATOM     10  C   UNL     1      10.820  33.286  42.115  1.00  0.00    -0.000 C 
BRANCH  10  11
ATOM     11  C   UNL     1       9.968  33.279  40.838  1.00  0.00    -0.003 C 
ATOM     12  C   UNL     1       8.723  32.413  41.014  1.00  0.00     0.004 C 
ENDBRANCH  10  11
ENDBRANCH   9  10
ENDBRANCH   8   9
ENDBRANCH   7   8
ENDBRANCH   6   7
ENDBRANCH   5   6
ENDBRANCH   4   5
ENDBRANCH   3   4
ENDBRANCH   2   3
ENDBRANCH   1   2
BRANCH   1  13
ATOM     13  C   UNL     1      12.716  40.376  47.662  1.00  0.00     0.000 C 
BRANCH  13  14
ATOM     14  C   UNL     1      11.664  40.014  48.727  1.00  0.00     0.000 C 
BRANCH  14  15
ATOM     15  C   UNL     1      11.181  38.553  48.602  1.00  0.00     0.000 C 
BRANCH  15  16
ATOM     16  C   UNL     1       9.675  38.418  48.296  1.00  0.00     0.000 C 
BRANCH  16  17
ATOM     17  C   UNL     1       8.844  39.686  48.552  1.00  0.00     0.000 C 
BRANCH  17  18
ATOM     18  C   UNL     1       7.537  39.718  47.745  1.00  0.00     0.000 C 
BRANCH  18  19
ATOM     19  C   UNL     1       6.716  40.966  48.085  1.00  0.00     0.000 C 
BRANCH  19  20
ATOM     20  C   UNL     1       6.023  41.531  46.841  1.00  0.00     0.006 C 
BRANCH  20  21
ATOM     21  C   UNL     1       6.286  40.647  45.617  1.00  0.00     0.053 C 
BRANCH  21  22
ATOM     22  C   UNL     1       6.366  41.471  44.370  1.00  0.00     0.041 C 
ATOM     23  O   UNL     1       7.375  41.389  43.622  1.00  0.00    -0.550 OA
ATOM     24  O   UNL     1       5.328  42.334  44.037  1.00  0.00    -0.550 OA
ENDBRANCH  21  22
ENDBRANCH  20  21
ENDBRANCH  19  20
ENDBRANCH  18  19
ENDBRANCH  17  18
ENDBRANCH  16  17
ENDBRANCH  15  16
ENDBRANCH  14  15
ENDBRANCH  13  14
ENDBRANCH   1  13
TORSDOF 20
ENDMDL
MODEL 2
REMARK VINA RESULT:    -5.099      2.972      7.628
REMARK INTER + INTRA:         -13.642
REMARK INTER:                 -11.713
REMARK INTRA:                  -1.929
REMARK UNBOUND:                -2.582
REMARK SMILES CCCCCCCCCCCCCCCCCCCCCC(=O)[O-]
REMARK SMILES IDX 12 1 11 2 10 3 9 4 8 5 7 6 6 7 5 8 4 9 3 10 2 11 1 12 13 13
REMARK SMILES IDX 14 14 15 15 16 16 17 17 18 18 19 19 20 20 21 21 22 22 23 23
REMARK SMILES IDX 24 24
REMARK H PARENT
REMARK Flexibility Score: inf
ROOT
ATOM      1  C   UNL     1      13.805  39.640  47.378  1.00  0.00     0.000 C 
ENDROOT
BRANCH   1   2
ATOM      2  C   UNL     1      13.501  38.193  47.801  1.00  0.00     0.000 C 
BRANCH   2   3
ATOM      3  C   UNL     1      12.519  38.116  48.981  1.00  0.00     0.000 C 
BRANCH   3   4
ATOM      4  C   UNL     1      11.083  37.774  48.545  1.00  0.00    -0.000 C 
BRANCH   4   5
ATOM      5  C   UNL     1      10.327  38.909  47.825  1.00  0.00    -0.000 C 
BRANCH   5   6
ATOM      6  C   UNL     1      10.020  40.147  48.693  1.00  0.00    -0.000 C 
BRANCH   6   7
ATOM      7  C   UNL     1       8.526  40.492  48.824  1.00  0.00    -0.000 C 
BRANCH   7   8
ATOM      8  C   UNL     1       7.723  40.162  47.557  1.00  0.00    -0.000 C 
BRANCH   8   9
ATOM      9  C   UNL     1       6.252  39.879  47.898  1.00  0.00    -0.000 C 
BRANCH   9  10
ATOM     10  C   UNL     1       5.281  40.761  47.097  1.00  0.00    -0.000 C 
BRANCH  10  11
ATOM     11  C   UNL     1       5.257  42.213  47.595  1.00  0.00    -0.003 C 
ATOM     12  C   UNL     1       5.275  42.271  49.120  1.00  0.00     0.004 C 
ENDBRANCH  10  11
ENDBRANCH   9  10
ENDBRANCH   8   9
ENDBRANCH   7   8
ENDBRANCH   6   7
ENDBRANCH   5   6
ENDBRANCH   4   5
ENDBRANCH   3   4
ENDBRANCH   2   3
ENDBRANCH   1   2
BRANCH   1  13
ATOM     13  C   UNL     1      13.425  39.950  45.913  1.00  0.00     0.000 C 
BRANCH  13  14
ATOM     14  C   UNL     1      13.148  38.670  45.103  1.00  0.00     0.000 C 
BRANCH  14  15
ATOM     15  C   UNL     1      11.683  38.582  44.623  1.00  0.00     0.000 C 
BRANCH  15  16
ATOM     16  C   UNL     1      11.291  37.199  44.066  1.00  0.00     0.000 C 
BRANCH  16  17
ATOM     17  C   UNL     1      10.473  36.319  45.028  1.00  0.00     0.000 C 
BRANCH  17  18
ATOM     18  C   UNL     1      10.146  34.937  44.443  1.00  0.00     0.000 C 
BRANCH  18  19
ATOM     19  C   UNL     1      10.675  34.813  43.009  1.00  0.00     0.000 C 
BRANCH  19  20
ATOM     20  C   UNL     1      10.695  33.351  42.550  1.00  0.00     0.006 C 
BRANCH  20  21
ATOM     21  C   UNL     1      10.187  33.222  41.110  1.00  0.00     0.053 C 
BRANCH  21  22
ATOM     22  C   UNL     1       8.810  32.636  41.081  1.00  0.00     0.041 C 
ATOM     23  O   UNL     1       8.655  31.387  41.044  1.00  0.00    -0.550 OA
ATOM     24  O   UNL     1       7.697  33.469  41.087  1.00  0.00    -0.550 OA
ENDBRANCH  21  22
ENDBRANCH  20  21
ENDBRANCH  19  20
ENDBRANCH  18  19
ENDBRANCH  17  18
ENDBRANCH  16  17
ENDBRANCH  15  16
ENDBRANCH  14  15
ENDBRANCH  13  14
ENDBRANCH   1  13
TORSDOF 20
ENDMDL
MODEL 3
REMARK VINA RESULT:    -5.026      3.617      5.822
REMARK INTER + INTRA:         -13.483
REMARK INTER:                 -10.655
REMARK INTRA:                  -2.828
REMARK UNBOUND:                -2.582
REMARK SMILES CCCCCCCCCCCCCCCCCCCCCC(=O)[O-]
REMARK SMILES IDX 12 1 11 2 10 3 9 4 8 5 7 6 6 7 5 8 4 9 3 10 2 11 1 12 13 13
REMARK SMILES IDX 14 14 15 15 16 16 17 17 18 18 19 19 20 20 21 21 22 22 23 23
REMARK SMILES IDX 24 24
REMARK H PARENT
REMARK Flexibility Score: inf
ROOT
ATOM      1  C   UNL     1       8.713  40.291  48.572  1.00  0.00     0.000 C 
ENDROOT
BRANCH   1   2
ATOM      2  C   UNL     1      10.087  40.052  47.922  1.00  0.00     0.000 C 
BRANCH   2   3
ATOM      3  C   UNL     1      10.065  38.905  46.898  1.00  0.00     0.000 C 
BRANCH   3   4
ATOM      4  C   UNL     1      10.393  39.371  45.468  1.00  0.00    -0.000 C 
BRANCH   4   5
ATOM      5  C   UNL     1       9.178  39.803  44.622  1.00  0.00    -0.000 C 
BRANCH   5   6
ATOM      6  C   UNL     1       9.510  40.679  43.397  1.00  0.00    -0.000 C 
BRANCH   6   7
ATOM      7  C   UNL     1      10.893  40.423  42.772  1.00  0.00    -0.000 C 
BRANCH   7   8
ATOM      8  C   UNL     1      11.690  41.714  42.535  1.00  0.00    -0.000 C 
BRANCH   8   9
ATOM      9  C   UNL     1      11.844  42.509  43.841  1.00  0.00    -0.000 C 
BRANCH   9  10
ATOM     10  C   UNL     1      13.293  42.529  44.352  1.00  0.00    -0.000 C 
BRANCH  10  11
ATOM     11  C   UNL     1      13.612  41.334  45.263  1.00  0.00    -0.003 C 
ATOM     12  C   UNL     1      13.220  41.627  46.709  1.00  0.00     0.004 C 
ENDBRANCH  10  11
ENDBRANCH   9  10
ENDBRANCH   8   9
ENDBRANCH   7   8
ENDBRANCH   6   7
ENDBRANCH   5   6
ENDBRANCH   4   5
ENDBRANCH   3   4
ENDBRANCH   2   3
ENDBRANCH   1   2
BRANCH   1  13
ATOM     13  C   UNL     1       7.604  39.358  48.038  1.00  0.00     0.000 C 
BRANCH  13  14
ATOM     14  C   UNL     1       6.196  39.935  48.277  1.00  0.00     0.000 C 
BRANCH  14  15
ATOM     15  C   UNL     1       6.237  41.342  48.913  1.00  0.00     0.000 C 
BRANCH  15  16
ATOM     16  C   UNL     1       5.237  42.337  48.291  1.00  0.00     0.000 C 
BRANCH  16  17
ATOM     17  C   UNL     1       4.692  41.933  46.910  1.00  0.00     0.000 C 
BRANCH  17  18
ATOM     18  C   UNL     1       5.340  42.719  45.759  1.00  0.00     0.000 C 
BRANCH  18  19
ATOM     19  C   UNL     1       5.930  41.767  44.713  1.00  0.00     0.000 C 
BRANCH  19  20
ATOM     20  C   UNL     1       6.383  42.528  43.463  1.00  0.00     0.006 C 
BRANCH  20  21
ATOM     21  C   UNL     1       6.669  43.997  43.789  1.00  0.00     0.053 C 
BRANCH  21  22
ATOM     22  C   UNL     1       7.559  44.611  42.753  1.00  0.00     0.041 C 
ATOM     23  O   UNL     1       8.700  44.126  42.532  1.00  0.00    -0.550 OA
ATOM     24  O   UNL     1       7.131  45.722  42.035  1.00  0.00    -0.550 OA
ENDBRANCH  21  22
ENDBRANCH  20  21
ENDBRANCH  19  20
ENDBRANCH  18  19
ENDBRANCH  17  18
ENDBRANCH  16  17
ENDBRANCH  15  16
ENDBRANCH  14  15
ENDBRANCH  13  14
ENDBRANCH   1  13
TORSDOF 20
ENDMDL
MODEL 4
REMARK VINA RESULT:    -4.991      3.051      6.107
REMARK INTER + INTRA:         -13.408
REMARK INTER:                 -10.407
REMARK INTRA:                  -3.001
REMARK UNBOUND:                -2.582
REMARK SMILES CCCCCCCCCCCCCCCCCCCCCC(=O)[O-]
REMARK SMILES IDX 12 1 11 2 10 3 9 4 8 5 7 6 6 7 5 8 4 9 3 10 2 11 1 12 13 13
REMARK SMILES IDX 14 14 15 15 16 16 17 17 18 18 19 19 20 20 21 21 22 22 23 23
REMARK SMILES IDX 24 24
REMARK H PARENT
REMARK Flexibility Score: inf
ROOT
ATOM      1  C   UNL     1       9.025  39.647  43.999  1.00  0.00     0.000 C 
ENDROOT
BRANCH   1   2
ATOM      2  C   UNL     1       9.936  39.231  45.167  1.00  0.00     0.000 C 
BRANCH   2   3
ATOM      3  C   UNL     1      11.195  38.484  44.697  1.00  0.00     0.000 C 
BRANCH   3   4
ATOM      4  C   UNL     1      11.480  37.213  45.517  1.00  0.00    -0.000 C 
BRANCH   4   5
ATOM      5  C   UNL     1      10.338  36.762  46.450  1.00  0.00    -0.000 C 
BRANCH   5   6
ATOM      6  C   UNL     1      10.725  36.609  47.935  1.00  0.00    -0.000 C 
BRANCH   6   7
ATOM      7  C   UNL     1      12.205  36.890  48.251  1.00  0.00    -0.000 C 
BRANCH   7   8
ATOM      8  C   UNL     1      12.404  38.143  49.116  1.00  0.00    -0.000 C 
BRANCH   8   9
ATOM      9  C   UNL     1      12.739  39.363  48.245  1.00  0.00    -0.000 C 
BRANCH   9  10
ATOM     10  C   UNL     1      11.641  40.438  48.289  1.00  0.00    -0.000 C 
BRANCH  10  11
ATOM     11  C   UNL     1      10.527  40.101  49.290  1.00  0.00    -0.003 C 
ATOM     12  C   UNL     1       9.148  40.329  48.675  1.00  0.00     0.004 C 
ENDBRANCH  10  11
ENDBRANCH   9  10
ENDBRANCH   8   9
ENDBRANCH   7   8
ENDBRANCH   6   7
ENDBRANCH   5   6
ENDBRANCH   4   5
ENDBRANCH   3   4
ENDBRANCH   2   3
ENDBRANCH   1   2
BRANCH   1  13
ATOM     13  C   UNL     1       9.586  40.817  43.162  1.00  0.00     0.000 C 
BRANCH  13  14
ATOM     14  C   UNL     1       8.743  41.084  41.900  1.00  0.00     0.000 C 
BRANCH  14  15
ATOM     15  C   UNL     1       8.771  42.569  41.478  1.00  0.00     0.000 C 
BRANCH  15  16
ATOM     16  C   UNL     1       7.505  43.354  41.874  1.00  0.00     0.000 C 
BRANCH  16  17
ATOM     17  C   UNL     1       7.578  44.061  43.238  1.00  0.00     0.000 C 
BRANCH  17  18
ATOM     18  C   UNL     1       6.404  43.703  44.161  1.00  0.00     0.000 C 
BRANCH  18  19
ATOM     19  C   UNL     1       6.098  42.203  44.097  1.00  0.00     0.000 C 
BRANCH  19  20
ATOM     20  C   UNL     1       6.217  41.552  45.480  1.00  0.00     0.006 C 
BRANCH  20  21
ATOM     21  C   UNL     1       5.215  42.165  46.463  1.00  0.00     0.053 C 
BRANCH  21  22
ATOM     22  C   UNL     1       5.439  41.646  47.848  1.00  0.00     0.041 C 
ATOM     23  O   UNL     1       5.405  42.433  48.831  1.00  0.00    -0.550 OA
ATOM     24  O   UNL     1       5.693  40.295  48.055  1.00  0.00    -0.550 OA
ENDBRANCH  21  22
ENDBRANCH  20  21
ENDBRANCH  19  20
ENDBRANCH  18  19
ENDBRANCH  17  18
ENDBRANCH  16  17
ENDBRANCH  15  16
ENDBRANCH  14  15
ENDBRANCH  13  14
ENDBRANCH   1  13
TORSDOF 20
ENDMDL
MODEL 5
REMARK VINA RESULT:    -4.991      3.692      6.824
REMARK INTER + INTRA:         -13.407
REMARK INTER:                 -10.825
REMARK INTRA:                  -2.582
REMARK UNBOUND:                -2.582
REMARK SMILES CCCCCCCCCCCCCCCCCCCCCC(=O)[O-]
REMARK SMILES IDX 12 1 11 2 10 3 9 4 8 5 7 6 6 7 5 8 4 9 3 10 2 11 1 12 13 13
REMARK SMILES IDX 14 14 15 15 16 16 17 17 18 18 19 19 20 20 21 21 22 22 23 23
REMARK SMILES IDX 24 24
REMARK H PARENT
REMARK Flexibility Score: inf
ROOT
ATOM      1  C   UNL     1       6.045  41.782  44.840  1.00  0.00     0.000 C 
ENDROOT
BRANCH   1   2
ATOM      2  C   UNL     1       6.400  42.671  43.635  1.00  0.00     0.000 C 
BRANCH   2   3
ATOM      3  C   UNL     1       6.732  44.115  44.044  1.00  0.00     0.000 C 
BRANCH   3   4
ATOM      4  C   UNL     1       7.235  44.971  42.867  1.00  0.00    -0.000 C 
BRANCH   4   5
ATOM      5  C   UNL     1       7.551  44.191  41.575  1.00  0.00    -0.000 C 
BRANCH   5   6
ATOM      6  C   UNL     1       8.975  44.393  41.018  1.00  0.00    -0.000 C 
BRANCH   6   7
ATOM      7  C   UNL     1       9.802  43.102  40.870  1.00  0.00    -0.000 C 
BRANCH   7   8
ATOM      8  C   UNL     1       9.912  42.310  42.181  1.00  0.00    -0.000 C 
BRANCH   8   9
ATOM      9  C   UNL     1       9.373  40.882  42.004  1.00  0.00    -0.000 C 
BRANCH   9  10
ATOM     10  C   UNL     1       9.029  40.212  43.345  1.00  0.00    -0.000 C 
BRANCH  10  11
ATOM     11  C   UNL     1      10.197  40.252  44.340  1.00  0.00    -0.003 C 
ATOM     12  C   UNL     1      11.043  38.985  44.244  1.00  0.00     0.004 C 
ENDBRANCH  10  11
ENDBRANCH   9  10
ENDBRANCH   8   9
ENDBRANCH   7   8
ENDBRANCH   6   7
ENDBRANCH   5   6
ENDBRANCH   4   5
ENDBRANCH   3   4
ENDBRANCH   2   3
ENDBRANCH   1   2
BRANCH   1  13
ATOM     13  C   UNL     1       5.368  42.549  45.997  1.00  0.00     0.000 C 
BRANCH  13  14
ATOM     14  C   UNL     1       4.919  41.608  47.131  1.00  0.00     0.000 C 
BRANCH  14  15
ATOM     15  C   UNL     1       6.025  41.390  48.187  1.00  0.00     0.000 C 
BRANCH  15  16
ATOM     16  C   UNL     1       6.679  39.995  48.127  1.00  0.00     0.000 C 
BRANCH  16  17
ATOM     17  C   UNL     1       8.076  39.960  47.484  1.00  0.00     0.000 C 
BRANCH  17  18
ATOM     18  C   UNL     1       9.204  40.239  48.490  1.00  0.00     0.000 C 
BRANCH  18  19
ATOM     19  C   UNL     1      10.554  39.765  47.941  1.00  0.00     0.000 C 
BRANCH  19  20
ATOM     20  C   UNL     1      11.717  40.489  48.627  1.00  0.00     0.006 C 
BRANCH  20  21
ATOM     21  C   UNL     1      12.986  40.424  47.770  1.00  0.00     0.053 C 
BRANCH  21  22
ATOM     22  C   UNL     1      13.227  41.726  47.074  1.00  0.00     0.041 C 
ATOM     23  O   UNL     1      12.828  41.894  45.891  1.00  0.00    -0.550 OA
ATOM     24  O   UNL     1      13.898  42.753  47.727  1.00  0.00    -0.550 OA
ENDBRANCH  21  22
ENDBRANCH  20  21
ENDBRANCH  19  20
ENDBRANCH  18  19
ENDBRANCH  17  18
ENDBRANCH  16  17
ENDBRANCH  15  16
ENDBRANCH  14  15
ENDBRANCH  13  14
ENDBRANCH   1  13
TORSDOF 20
ENDMDL
MODEL 6
REMARK VINA RESULT:    -4.979      4.162      6.627
REMARK INTER + INTRA:         -13.382
REMARK INTER:                 -10.638
REMARK INTRA:                  -2.744
REMARK UNBOUND:                -2.582
REMARK SMILES CCCCCCCCCCCCCCCCCCCCCC(=O)[O-]
REMARK SMILES IDX 12 1 11 2 10 3 9 4 8 5 7 6 6 7 5 8 4 9 3 10 2 11 1 12 13 13
REMARK SMILES IDX 14 14 15 15 16 16 17 17 18 18 19 19 20 20 21 21 22 22 23 23
REMARK SMILES IDX 24 24
REMARK H PARENT
REMARK Flexibility Score: inf
ROOT
ATOM      1  C   UNL     1       5.992  42.910  43.742  1.00  0.00     0.000 C 
ENDROOT
BRANCH   1   2
ATOM      2  C   UNL     1       6.793  44.202  43.978  1.00  0.00     0.000 C 
BRANCH   2   3
ATOM      3  C   UNL     1       7.434  44.744  42.690  1.00  0.00     0.000 C 
BRANCH   3   4
ATOM      4  C   UNL     1       7.629  43.660  41.615  1.00  0.00    -0.000 C 
BRANCH   4   5
ATOM      5  C   UNL     1       9.087  43.430  41.170  1.00  0.00    -0.000 C 
BRANCH   5   6
ATOM      6  C   UNL     1       9.564  41.964  41.217  1.00  0.00    -0.000 C 
BRANCH   6   7
ATOM      7  C   UNL     1       8.546  40.970  41.804  1.00  0.00    -0.000 C 
BRANCH   7   8
ATOM      8  C   UNL     1       8.914  40.505  43.221  1.00  0.00    -0.000 C 
BRANCH   8   9
ATOM      9  C   UNL     1      10.375  40.849  43.548  1.00  0.00    -0.000 C 
BRANCH   9  10
ATOM     10  C   UNL     1      11.258  39.598  43.689  1.00  0.00    -0.000 C 
BRANCH  10  11
ATOM     11  C   UNL     1      12.738  39.886  43.399  1.00  0.00    -0.003 C 
ATOM     12  C   UNL     1      13.480  40.278  44.674  1.00  0.00     0.004 C 
ENDBRANCH  10  11
ENDBRANCH   9  10
ENDBRANCH   8   9
ENDBRANCH   7   8
ENDBRANCH   6   7
ENDBRANCH   5   6
ENDBRANCH   4   5
ENDBRANCH   3   4
ENDBRANCH   2   3
ENDBRANCH   1   2
BRANCH   1  13
ATOM     13  C   UNL     1       6.006  41.943  44.946  1.00  0.00     0.000 C 
BRANCH  13  14
ATOM     14  C   UNL     1       5.242  42.512  46.156  1.00  0.00     0.000 C 
BRANCH  14  15
ATOM     15  C   UNL     1       5.591  41.778  47.469  1.00  0.00     0.000 C 
BRANCH  15  16
ATOM     16  C   UNL     1       5.616  40.242  47.338  1.00  0.00     0.000 C 
BRANCH  16  17
ATOM     17  C   UNL     1       6.798  39.549  48.037  1.00  0.00     0.000 C 
BRANCH  17  18
ATOM     18  C   UNL     1       8.104  40.354  47.941  1.00  0.00     0.000 C 
BRANCH  18  19
ATOM     19  C   UNL     1       9.130  39.625  47.067  1.00  0.00     0.000 C 
BRANCH  19  20
ATOM     20  C   UNL     1      10.559  40.064  47.405  1.00  0.00     0.006 C 
BRANCH  20  21
ATOM     21  C   UNL     1      11.045  39.403  48.699  1.00  0.00     0.053 C 
BRANCH  21  22
ATOM     22  C   UNL     1      12.168  38.453  48.424  1.00  0.00     0.041 C 
ATOM     23  O   UNL     1      12.433  38.112  47.241  1.00  0.00    -0.550 OA
ATOM     24  O   UNL     1      12.921  37.938  49.474  1.00  0.00    -0.550 OA
ENDBRANCH  21  22
ENDBRANCH  20  21
ENDBRANCH  19  20
ENDBRANCH  18  19
ENDBRANCH  17  18
ENDBRANCH  16  17
ENDBRANCH  15  16
ENDBRANCH  14  15
ENDBRANCH  13  14
ENDBRANCH   1  13
TORSDOF 20
ENDMDL
MODEL 7
REMARK VINA RESULT:    -4.968      2.718      4.503
REMARK INTER + INTRA:         -13.358
REMARK INTER:                 -10.110
REMARK INTRA:                  -3.249
REMARK UNBOUND:                -2.582
REMARK SMILES CCCCCCCCCCCCCCCCCCCCCC(=O)[O-]
REMARK SMILES IDX 12 1 11 2 10 3 9 4 8 5 7 6 6 7 5 8 4 9 3 10 2 11 1 12 13 13
REMARK SMILES IDX 14 14 15 15 16 16 17 17 18 18 19 19 20 20 21 21 22 22 23 23
REMARK SMILES IDX 24 24
REMARK H PARENT
REMARK Flexibility Score: inf
ROOT
ATOM      1  C   UNL     1       9.605  39.662  43.892  1.00  0.00     0.000 C 
ENDROOT
BRANCH   1   2
ATOM      2  C   UNL     1      10.202  40.987  43.387  1.00  0.00     0.000 C 
BRANCH   2   3
ATOM      3  C   UNL     1      11.728  40.920  43.212  1.00  0.00     0.000 C 
BRANCH   3   4
ATOM      4  C   UNL     1      12.469  40.610  44.525  1.00  0.00    -0.000 C 
BRANCH   4   5
ATOM      5  C   UNL     1      12.355  41.693  45.617  1.00  0.00    -0.000 C 
BRANCH   5   6
ATOM      6  C   UNL     1      13.107  41.385  46.928  1.00  0.00    -0.000 C 
BRANCH   6   7
ATOM      7  C   UNL     1      12.279  40.641  47.991  1.00  0.00    -0.000 C 
BRANCH   7   8
ATOM      8  C   UNL     1      12.847  39.255  48.329  1.00  0.00    -0.000 C 
BRANCH   8   9
ATOM      9  C   UNL     1      11.804  38.399  49.063  1.00  0.00    -0.000 C 
BRANCH   9  10
ATOM     10  C   UNL     1      11.243  37.271  48.182  1.00  0.00    -0.000 C 
BRANCH  10  11
ATOM     11  C   UNL     1      12.184  36.904  47.026  1.00  0.00    -0.003 C 
ATOM     12  C   UNL     1      11.450  36.944  45.688  1.00  0.00     0.004 C 
ENDBRANCH  10  11
ENDBRANCH   9  10
ENDBRANCH   8   9
ENDBRANCH   7   8
ENDBRANCH   6   7
ENDBRANCH   5   6
ENDBRANCH   4   5
ENDBRANCH   3   4
ENDBRANCH   2   3
ENDBRANCH   1   2
BRANCH   1  13
ATOM     13  C   UNL     1       8.555  39.842  45.009  1.00  0.00     0.000 C 
BRANCH  13  14
ATOM     14  C   UNL     1       9.176  39.722  46.414  1.00  0.00     0.000 C 
BRANCH  14  15
ATOM     15  C   UNL     1       8.111  39.494  47.509  1.00  0.00     0.000 C 
BRANCH  15  16
ATOM     16  C   UNL     1       8.100  40.581  48.603  1.00  0.00     0.000 C 
BRANCH  16  17
ATOM     17  C   UNL     1       6.743  41.275  48.816  1.00  0.00     0.000 C 
BRANCH  17  18
ATOM     18  C   UNL     1       5.604  40.613  48.027  1.00  0.00     0.000 C 
BRANCH  18  19
ATOM     19  C   UNL     1       4.923  41.625  47.098  1.00  0.00     0.000 C 
BRANCH  19  20
ATOM     20  C   UNL     1       5.936  42.278  46.152  1.00  0.00     0.006 C 
BRANCH  20  21
ATOM     21  C   UNL     1       5.307  42.555  44.782  1.00  0.00     0.053 C 
BRANCH  21  22
ATOM     22  C   UNL     1       6.343  43.008  43.801  1.00  0.00     0.041 C 
ATOM     23  O   UNL     1       6.792  44.184  43.854  1.00  0.00    -0.550 OA
ATOM     24  O   UNL     1       6.807  42.136  42.824  1.00  0.00    -0.550 OA
ENDBRANCH  21  22
ENDBRANCH  20  21
ENDBRANCH  19  20
ENDBRANCH  18  19
ENDBRANCH  17  18
ENDBRANCH  16  17
ENDBRANCH  15  16
ENDBRANCH  14  15
ENDBRANCH  13  14
ENDBRANCH   1  13
TORSDOF 20
ENDMDL
MODEL 8
REMARK VINA RESULT:    -4.966      2.886      5.221
REMARK INTER + INTRA:         -13.354
REMARK INTER:                 -10.796
REMARK INTRA:                  -2.558
REMARK UNBOUND:                -2.582
REMARK SMILES CCCCCCCCCCCCCCCCCCCCCC(=O)[O-]
REMARK SMILES IDX 12 1 11 2 10 3 9 4 8 5 7 6 6 7 5 8 4 9 3 10 2 11 1 12 13 13
REMARK SMILES IDX 14 14 15 15 16 16 17 17 18 18 19 19 20 20 21 21 22 22 23 23
REMARK SMILES IDX 24 24
REMARK H PARENT
REMARK Flexibility Score: inf
ROOT
ATOM      1  C   UNL     1       8.226  40.137  47.629  1.00  0.00     0.000 C 
ENDROOT
BRANCH   1   2
ATOM      2  C   UNL     1       9.366  39.958  48.647  1.00  0.00     0.000 C 
BRANCH   2   3
ATOM      3  C   UNL     1      10.285  38.775  48.304  1.00  0.00     0.000 C 
BRANCH   3   4
ATOM      4  C   UNL     1      11.733  38.981  48.783  1.00  0.00    -0.000 C 
BRANCH   4   5
ATOM      5  C   UNL     1      12.401  40.290  48.316  1.00  0.00    -0.000 C 
BRANCH   5   6
ATOM      6  C   UNL     1      12.181  40.646  46.832  1.00  0.00    -0.000 C 
BRANCH   6   7
ATOM      7  C   UNL     1      13.163  39.978  45.852  1.00  0.00    -0.000 C 
BRANCH   7   8
ATOM      8  C   UNL     1      12.471  39.419  44.601  1.00  0.00    -0.000 C 
BRANCH   8   9
ATOM      9  C   UNL     1      11.672  38.150  44.937  1.00  0.00    -0.000 C 
BRANCH   9  10
ATOM     10  C   UNL     1      10.250  38.177  44.353  1.00  0.00    -0.000 C 
BRANCH  10  11
ATOM     11  C   UNL     1       9.563  39.538  44.538  1.00  0.00    -0.003 C 
ATOM     12  C   UNL     1       9.310  40.212  43.191  1.00  0.00     0.004 C 
ENDBRANCH  10  11
ENDBRANCH   9  10
ENDBRANCH   8   9
ENDBRANCH   7   8
ENDBRANCH   6   7
ENDBRANCH   5   6
ENDBRANCH   4   5
ENDBRANCH   3   4
ENDBRANCH   2   3
ENDBRANCH   1   2
BRANCH   1  13
ATOM     13  C   UNL     1       6.819  40.116  48.265  1.00  0.00     0.000 C 
BRANCH  13  14
ATOM     14  C   UNL     1       6.485  41.438  48.980  1.00  0.00     0.000 C 
BRANCH  14  15
ATOM     15  C   UNL     1       5.241  42.132  48.383  1.00  0.00     0.000 C 
BRANCH  15  16
ATOM     16  C   UNL     1       4.858  41.624  46.978  1.00  0.00     0.000 C 
BRANCH  16  17
ATOM     17  C   UNL     1       5.211  42.579  45.824  1.00  0.00     0.000 C 
BRANCH  17  18
ATOM     18  C   UNL     1       6.267  41.999  44.870  1.00  0.00     0.000 C 
BRANCH  18  19
ATOM     19  C   UNL     1       6.297  42.779  43.551  1.00  0.00     0.000 C 
BRANCH  19  20
ATOM     20  C   UNL     1       6.744  44.228  43.773  1.00  0.00     0.006 C 
BRANCH  20  21
ATOM     21  C   UNL     1       7.497  44.763  42.551  1.00  0.00     0.053 C 
BRANCH  21  22
ATOM     22  C   UNL     1       8.708  43.932  42.263  1.00  0.00     0.041 C 
ATOM     23  O   UNL     1       9.735  44.041  42.984  1.00  0.00    -0.550 OA
ATOM     24  O   UNL     1       8.706  43.041  41.196  1.00  0.00    -0.550 OA
ENDBRANCH  21  22
ENDBRANCH  20  21
ENDBRANCH  19  20
ENDBRANCH  18  19
ENDBRANCH  17  18
ENDBRANCH  16  17
ENDBRANCH  15  16
ENDBRANCH  14  15
ENDBRANCH  13  14
ENDBRANCH   1  13
TORSDOF 20
ENDMDL
MODEL 9
REMARK VINA RESULT:    -4.856      3.109      6.656
REMARK INTER + INTRA:         -13.116
REMARK INTER:                 -10.457
REMARK INTRA:                  -2.659
REMARK UNBOUND:                -2.582
REMARK SMILES CCCCCCCCCCCCCCCCCCCCCC(=O)[O-]
REMARK SMILES IDX 12 1 11 2 10 3 9 4 8 5 7 6 6 7 5 8 4 9 3 10 2 11 1 12 13 13
REMARK SMILES IDX 14 14 15 15 16 16 17 17 18 18 19 19 20 20 21 21 22 22 23 23
REMARK SMILES IDX 24 24
REMARK H PARENT
REMARK Flexibility Score: inf
ROOT
ATOM      1  C   UNL     1      10.577  39.443  48.485  1.00  0.00     0.000 C 
ENDROOT
BRANCH   1   2
ATOM      2  C   UNL     1       9.373  40.248  49.003  1.00  0.00     0.000 C 
BRANCH   2   3
ATOM      3  C   UNL     1       8.192  40.245  48.019  1.00  0.00     0.000 C 
BRANCH   3   4
ATOM      4  C   UNL     1       6.964  41.003  48.553  1.00  0.00    -0.000 C 
BRANCH   4   5
ATOM      5  C   UNL     1       5.628  40.660  47.864  1.00  0.00    -0.000 C 
BRANCH   5   6
ATOM      6  C   UNL     1       4.895  41.856  47.222  1.00  0.00    -0.000 C 
BRANCH   6   7
ATOM      7  C   UNL     1       5.625  42.500  46.030  1.00  0.00    -0.000 C 
BRANCH   7   8
ATOM      8  C   UNL     1       5.998  41.485  44.939  1.00  0.00    -0.000 C 
BRANCH   8   9
ATOM      9  C   UNL     1       6.097  42.168  43.566  1.00  0.00    -0.000 C 
BRANCH   9  10
ATOM     10  C   UNL     1       6.599  43.618  43.664  1.00  0.00    -0.000 C 
BRANCH  10  11
ATOM     11  C   UNL     1       7.529  43.998  42.503  1.00  0.00    -0.003 C 
ATOM     12  C   UNL     1       7.500  45.503  42.248  1.00  0.00     0.004 C 
ENDBRANCH  10  11
ENDBRANCH   9  10
ENDBRANCH   8   9
ENDBRANCH   7   8
ENDBRANCH   6   7
ENDBRANCH   5   6
ENDBRANCH   4   5
ENDBRANCH   3   4
ENDBRANCH   2   3
ENDBRANCH   1   2
BRANCH   1  13
ATOM     13  C   UNL     1      11.893  40.251  48.447  1.00  0.00     0.000 C 
BRANCH  13  14
ATOM     14  C   UNL     1      12.304  40.621  47.010  1.00  0.00     0.000 C 
BRANCH  14  15
ATOM     15  C   UNL     1      13.399  39.686  46.452  1.00  0.00     0.000 C 
BRANCH  15  16
ATOM     16  C   UNL     1      12.852  38.387  45.827  1.00  0.00     0.000 C 
BRANCH  16  17
ATOM     17  C   UNL     1      11.833  38.591  44.693  1.00  0.00     0.000 C 
BRANCH  17  18
ATOM     18  C   UNL     1      10.423  38.103  45.060  1.00  0.00     0.000 C 
BRANCH  18  19
ATOM     19  C   UNL     1       9.373  38.720  44.130  1.00  0.00     0.000 C 
BRANCH  19  20
ATOM     20  C   UNL     1       9.460  40.250  44.131  1.00  0.00     0.006 C 
BRANCH  20  21
ATOM     21  C   UNL     1       9.498  40.798  42.701  1.00  0.00     0.053 C 
BRANCH  21  22
ATOM     22  C   UNL     1      10.761  41.562  42.455  1.00  0.00     0.041 C 
ATOM     23  O   UNL     1      11.738  41.005  41.889  1.00  0.00    -0.550 OA
ATOM     24  O   UNL     1      10.863  42.889  42.857  1.00  0.00    -0.550 OA
ENDBRANCH  21  22
ENDBRANCH  20  21
ENDBRANCH  19  20
ENDBRANCH  18  19
ENDBRANCH  17  18
ENDBRANCH  16  17
ENDBRANCH  15  16
ENDBRANCH  14  15
ENDBRANCH  13  14
ENDBRANCH   1  13
TORSDOF 20
ENDMDL
