MODEL 1
REMARK VINA RESULT:    -3.863      0.000      0.000
REMARK INTER + INTRA:          -4.996
REMARK INTER:                  -4.880
REMARK INTRA:                  -0.116
REMARK UNBOUND:                -0.116
REMARK SMILES CCCCCCO
REMARK SMILES IDX 4 1 3 2 2 3 1 4 5 5 6 6 7 7
REMARK H PARENT 7 8
REMARK Flexibility Score: inf
ROOT
ATOM      1  C   UNL     1      18.178  12.916  23.224  1.00  0.00     0.002 C 
ENDROOT
BRANCH   1   2
ATOM      2  C   UNL     1      19.617  12.451  23.496  1.00  0.00    -0.000 C 
BRANCH   2   3
ATOM      3  C   UNL     1      20.052  12.822  24.918  1.00  0.00    -0.003 C 
ATOM      4  C   UNL     1      20.067  14.335  25.113  1.00  0.00     0.004 C 
ENDBRANCH   2   3
ENDBRANCH   1   2
BRANCH   1   5
ATOM      5  C   UNL     1      18.020  13.569  21.841  1.00  0.00     0.028 C 
BRANCH   5   6
ATOM      6  C   UNL     1      16.991  12.853  20.961  1.00  0.00     0.156 C 
BRANCH   6   7
ATOM      7  O   UNL     1      16.550  11.695  21.613  1.00  0.00    -0.396 OA
ATOM      8  H   UNL     1      16.155  11.997  22.473  1.00  0.00     0.210 HD
ENDBRANCH   6   7
ENDBRANCH   5   6
ENDBRANCH   1   5
TORSDOF 5
ENDMDL
MODEL 2
REMARK VINA RESULT:    -3.726      1.046      1.557
REMARK INTER + INTRA:          -4.823
REMARK INTER:                  -4.800
REMARK INTRA:                  -0.023
REMARK UNBOUND:                -0.116
REMARK SMILES CCCCCCO
REMARK SMILES IDX 4 1 3 2 2 3 1 4 5 5 6 6 7 7
REMARK H PARENT 7 8
REMARK Flexibility Score: inf
ROOT
ATOM      1  C   UNL     1      18.001  13.702  21.775  1.00  0.00     0.002 C 
ENDROOT
BRANCH   1   2
ATOM      2  C   UNL     1      19.287  12.863  21.736  1.00  0.00    -0.000 C 
BRANCH   2   3
ATOM      3  C   UNL     1      19.529  12.171  23.082  1.00  0.00    -0.003 C 
ATOM      4  C   UNL     1      19.233  13.111  24.247  1.00  0.00     0.004 C 
ENDBRANCH   2   3
ENDBRANCH   1   2
BRANCH   1   5
ATOM      5  C   UNL     1      17.214  13.640  20.455  1.00  0.00     0.028 C 
BRANCH   5   6
ATOM      6  C   UNL     1      16.018  12.686  20.522  1.00  0.00     0.156 C 
BRANCH   6   7
ATOM      7  O   UNL     1      16.244  11.728  21.519  1.00  0.00    -0.396 OA
ATOM      8  H   UNL     1      16.411  10.872  21.045  1.00  0.00     0.210 HD
ENDBRANCH   6   7
ENDBRANCH   5   6
ENDBRANCH   1   5
TORSDOF 5
ENDMDL
MODEL 3
REMARK VINA RESULT:    -3.687      9.105      9.903
REMARK INTER + INTRA:          -4.774
REMARK INTER:                  -4.552
REMARK INTRA:                  -0.221
REMARK UNBOUND:                -0.116
REMARK SMILES CCCCCCO
REMARK SMILES IDX 4 1 3 2 2 3 1 4 5 5 6 6 7 7
REMARK H PARENT 7 8
REMARK Flexibility Score: inf
ROOT
ATOM      1  C   UNL     1      13.644  14.230  31.705  1.00  0.00     0.002 C 
ENDROOT
BRANCH   1   2
ATOM      2  C   UNL     1      12.867  13.641  30.518  1.00  0.00    -0.000 C 
BRANCH   2   3
ATOM      3  C   UNL     1      13.810  13.319  29.353  1.00  0.00    -0.003 C 
ATOM      4  C   UNL     1      13.703  14.368  28.250  1.00  0.00     0.004 C 
ENDBRANCH   2   3
ENDBRANCH   1   2
BRANCH   1   5
ATOM      5  C   UNL     1      13.027  15.540  32.224  1.00  0.00     0.028 C 
BRANCH   5   6
ATOM      6  C   UNL     1      12.925  16.618  31.141  1.00  0.00     0.156 C 
BRANCH   6   7
ATOM      7  O   UNL     1      14.211  16.955  30.702  1.00  0.00    -0.396 OA
ATOM      8  H   UNL     1      14.564  16.151  30.240  1.00  0.00     0.210 HD
ENDBRANCH   6   7
ENDBRANCH   5   6
ENDBRANCH   1   5
TORSDOF 5
ENDMDL
MODEL 4
REMARK VINA RESULT:    -3.510      8.421      8.807
REMARK INTER + INTRA:          -4.550
REMARK INTER:                  -4.368
REMARK INTRA:                  -0.183
REMARK UNBOUND:                -0.116
REMARK SMILES CCCCCCO
REMARK SMILES IDX 4 1 3 2 2 3 1 4 5 5 6 6 7 7
REMARK H PARENT 7 8
REMARK Flexibility Score: inf
ROOT
ATOM      1  C   UNL     1      13.994  13.515  28.988  1.00  0.00     0.002 C 
ENDROOT
BRANCH   1   2
ATOM      2  C   UNL     1      13.181  13.163  30.243  1.00  0.00    -0.000 C 
BRANCH   2   3
ATOM      3  C   UNL     1      13.716  13.910  31.469  1.00  0.00    -0.003 C 
ATOM      4  C   UNL     1      12.610  14.705  32.158  1.00  0.00     0.004 C 
ENDBRANCH   2   3
ENDBRANCH   1   2
BRANCH   1   5
ATOM      5  C   UNL     1      13.190  14.347  27.976  1.00  0.00     0.028 C 
BRANCH   5   6
ATOM      6  C   UNL     1      13.116  15.830  28.351  1.00  0.00     0.156 C 
BRANCH   6   7
ATOM      7  O   UNL     1      14.408  16.307  28.607  1.00  0.00    -0.396 OA
ATOM      8  H   UNL     1      15.002  15.513  28.598  1.00  0.00     0.210 HD
ENDBRANCH   6   7
ENDBRANCH   5   6
ENDBRANCH   1   5
TORSDOF 5
ENDMDL
MODEL 5
REMARK VINA RESULT:    -3.468      8.105      8.399
REMARK INTER + INTRA:          -4.496
REMARK INTER:                  -4.292
REMARK INTRA:                  -0.205
REMARK UNBOUND:                -0.116
REMARK SMILES CCCCCCO
REMARK SMILES IDX 4 1 3 2 2 3 1 4 5 5 6 6 7 7
REMARK H PARENT 7 8
REMARK Flexibility Score: inf
ROOT
ATOM      1  C   UNL     1      14.005  14.374  28.433  1.00  0.00     0.002 C 
ENDROOT
BRANCH   1   2
ATOM      2  C   UNL     1      14.008  13.020  29.159  1.00  0.00    -0.000 C 
BRANCH   2   3
ATOM      3  C   UNL     1      13.135  13.072  30.417  1.00  0.00    -0.003 C 
ATOM      4  C   UNL     1      13.627  14.144  31.386  1.00  0.00     0.004 C 
ENDBRANCH   2   3
ENDBRANCH   1   2
BRANCH   1   5
ATOM      5  C   UNL     1      12.923  14.459  27.344  1.00  0.00     0.028 C 
BRANCH   5   6
ATOM      6  C   UNL     1      11.969  15.639  27.548  1.00  0.00     0.156 C 
BRANCH   6   7
ATOM      7  O   UNL     1      12.227  16.235  28.788  1.00  0.00    -0.396 OA
ATOM      8  H   UNL     1      12.088  15.526  29.469  1.00  0.00     0.210 HD
ENDBRANCH   6   7
ENDBRANCH   5   6
ENDBRANCH   1   5
TORSDOF 5
ENDMDL
MODEL 6
REMARK VINA RESULT:    -3.435     10.601     11.783
REMARK INTER + INTRA:          -4.455
REMARK INTER:                  -4.392
REMARK INTRA:                  -0.062
REMARK UNBOUND:                -0.116
REMARK SMILES CCCCCCO
REMARK SMILES IDX 4 1 3 2 2 3 1 4 5 5 6 6 7 7
REMARK H PARENT 7 8
REMARK Flexibility Score: inf
ROOT
ATOM      1  C   UNL     1      14.344  15.608  32.584  1.00  0.00     0.002 C 
ENDROOT
BRANCH   1   2
ATOM      2  C   UNL     1      13.425  14.380  32.487  1.00  0.00    -0.000 C 
BRANCH   2   3
ATOM      3  C   UNL     1      12.790  14.282  31.095  1.00  0.00    -0.003 C 
ATOM      4  C   UNL     1      13.452  13.186  30.264  1.00  0.00     0.004 C 
ENDBRANCH   2   3
ENDBRANCH   1   2
BRANCH   1   5
ATOM      5  C   UNL     1      15.523  15.390  33.547  1.00  0.00     0.028 C 
BRANCH   5   6
ATOM      6  C   UNL     1      15.088  15.341  35.015  1.00  0.00     0.156 C 
BRANCH   6   7
ATOM      7  O   UNL     1      15.193  16.622  35.571  1.00  0.00    -0.396 OA
ATOM      8  H   UNL     1      15.973  16.593  36.184  1.00  0.00     0.210 HD
ENDBRANCH   6   7
ENDBRANCH   5   6
ENDBRANCH   1   5
TORSDOF 5
ENDMDL
MODEL 7
REMARK VINA RESULT:    -3.431      8.895      9.741
REMARK INTER + INTRA:          -4.450
REMARK INTER:                  -4.233
REMARK INTRA:                  -0.217
REMARK UNBOUND:                -0.116
REMARK SMILES CCCCCCO
REMARK SMILES IDX 4 1 3 2 2 3 1 4 5 5 6 6 7 7
REMARK H PARENT 7 8
REMARK Flexibility Score: inf
ROOT
ATOM      1  C   UNL     1      12.715  13.988  30.707  1.00  0.00     0.002 C 
ENDROOT
BRANCH   1   2
ATOM      2  C   UNL     1      13.642  13.222  29.751  1.00  0.00    -0.000 C 
BRANCH   2   3
ATOM      3  C   UNL     1      13.967  14.064  28.512  1.00  0.00    -0.003 C 
ATOM      4  C   UNL     1      12.720  14.762  27.977  1.00  0.00     0.004 C 
ENDBRANCH   2   3
ENDBRANCH   1   2
BRANCH   1   5
ATOM      5  C   UNL     1      13.436  14.455  31.982  1.00  0.00     0.028 C 
BRANCH   5   6
ATOM      6  C   UNL     1      14.002  15.872  31.858  1.00  0.00     0.156 C 
BRANCH   6   7
ATOM      7  O   UNL     1      13.122  16.659  31.106  1.00  0.00    -0.396 OA
ATOM      8  H   UNL     1      13.521  16.729  30.199  1.00  0.00     0.210 HD
ENDBRANCH   6   7
ENDBRANCH   5   6
ENDBRANCH   1   5
TORSDOF 5
ENDMDL
MODEL 8
REMARK VINA RESULT:    -3.405      8.570      9.087
REMARK INTER + INTRA:          -4.417
REMARK INTER:                  -4.182
REMARK INTRA:                  -0.235
REMARK UNBOUND:                -0.116
REMARK SMILES CCCCCCO
REMARK SMILES IDX 4 1 3 2 2 3 1 4 5 5 6 6 7 7
REMARK H PARENT 7 8
REMARK Flexibility Score: inf
ROOT
ATOM      1  C   UNL     1      13.103  13.259  30.384  1.00  0.00     0.002 C 
ENDROOT
BRANCH   1   2
ATOM      2  C   UNL     1      13.696  14.173  31.468  1.00  0.00    -0.000 C 
BRANCH   2   3
ATOM      3  C   UNL     1      12.761  15.351  31.762  1.00  0.00    -0.003 C 
ATOM      4  C   UNL     1      13.284  16.641  31.137  1.00  0.00     0.004 C 
ENDBRANCH   2   3
ENDBRANCH   1   2
BRANCH   1   5
ATOM      5  C   UNL     1      13.954  13.230  29.104  1.00  0.00     0.028 C 
BRANCH   5   6
ATOM      6  C   UNL     1      13.699  14.434  28.194  1.00  0.00     0.156 C 
BRANCH   6   7
ATOM      7  O   UNL     1      12.329  14.725  28.184  1.00  0.00    -0.396 OA
ATOM      8  H   UNL     1      12.134  15.100  27.285  1.00  0.00     0.210 HD
ENDBRANCH   6   7
ENDBRANCH   5   6
ENDBRANCH   1   5
TORSDOF 5
ENDMDL
MODEL 9
REMARK VINA RESULT:    -3.276      8.339      9.128
REMARK INTER + INTRA:          -4.254
REMARK INTER:                  -4.101
REMARK INTRA:                  -0.153
REMARK UNBOUND:                -0.116
REMARK SMILES CCCCCCO
REMARK SMILES IDX 4 1 3 2 2 3 1 4 5 5 6 6 7 7
REMARK H PARENT 7 8
REMARK Flexibility Score: inf
ROOT
ATOM      1  C   UNL     1      13.903  13.934  28.680  1.00  0.00     0.002 C 
ENDROOT
BRANCH   1   2
ATOM      2  C   UNL     1      13.483  15.412  28.693  1.00  0.00    -0.000 C 
BRANCH   2   3
ATOM      3  C   UNL     1      12.517  15.716  27.543  1.00  0.00    -0.003 C 
ATOM      4  C   UNL     1      12.519  14.594  26.509  1.00  0.00     0.004 C 
ENDBRANCH   2   3
ENDBRANCH   1   2
BRANCH   1   5
ATOM      5  C   UNL     1      13.570  13.212  29.996  1.00  0.00     0.028 C 
BRANCH   5   6
ATOM      6  C   UNL     1      12.997  14.153  31.059  1.00  0.00     0.156 C 
BRANCH   6   7
ATOM      7  O   UNL     1      13.922  14.292  32.101  1.00  0.00    -0.396 OA
ATOM      8  H   UNL     1      13.963  15.263  32.305  1.00  0.00     0.210 HD
ENDBRANCH   6   7
ENDBRANCH   5   6
ENDBRANCH   1   5
TORSDOF 5
ENDMDL
