MODEL 1
REMARK VINA RESULT:    -5.298      0.000      0.000
REMARK INTER + INTRA:          -6.644
REMARK INTER:                  -6.382
REMARK INTRA:                  -0.262
REMARK UNBOUND:                -0.262
REMARK SMILES O=c1c(O)c(-c2ccc(O)c(O)c2)oc2cc(O)cc(O)c12
REMARK SMILES IDX 5 1 3 2 2 3 1 4 22 5 20 6 19 7 17 8 16 9 15 10 14 11 6 12
REMARK SMILES IDX 7 13 8 14 9 15 13 16 11 17 10 18 12 20 4 22 21 24 18 26
REMARK H PARENT 10 19 12 21 4 23 21 25 18 27
REMARK Flexibility Score: inf
ROOT
ATOM      1  C   UNL     1      24.158  29.563   6.123  1.00  0.00     0.180 A 
ATOM      2  C   UNL     1      25.498  29.727   6.512  1.00  0.00     0.208 A 
ATOM      3  C   UNL     1      26.319  28.595   6.619  1.00  0.00     0.238 A 
ATOM      4  O   UNL     1      27.504  28.742   7.020  1.00  0.00    -0.285 OA
ATOM      5  C   UNL     1      25.796  27.313   6.320  1.00  0.00     0.111 A 
ATOM      6  C   UNL     1      26.550  26.102   6.356  1.00  0.00     0.134 A 
ATOM      7  C   UNL     1      25.898  24.877   6.168  1.00  0.00     0.093 A 
ATOM      8  C   UNL     1      24.531  24.826   5.881  1.00  0.00     0.123 A 
ATOM      9  C   UNL     1      23.799  26.006   5.786  1.00  0.00     0.094 A 
ATOM     10  C   UNL     1      24.415  27.242   6.004  1.00  0.00     0.146 A 
ATOM     11  O   UNL     1      23.678  28.342   5.913  1.00  0.00    -0.452 OA
ENDROOT
BRANCH   1  12
ATOM     12  C   UNL     1      23.237  30.711   5.964  1.00  0.00     0.025 A 
ATOM     13  C   UNL     1      22.938  31.184   4.676  1.00  0.00     0.016 A 
ATOM     14  C   UNL     1      22.088  32.280   4.503  1.00  0.00     0.051 A 
ATOM     15  C   UNL     1      21.537  32.928   5.615  1.00  0.00     0.157 A 
ATOM     16  C   UNL     1      22.698  31.379   7.078  1.00  0.00     0.062 A 
ATOM     17  C   UNL     1      21.845  32.480   6.906  1.00  0.00     0.158 A 
BRANCH  15  18
ATOM     18  O   UNL     1      20.688  34.020   5.448  1.00  0.00    -0.504 OA
ATOM     19  H   UNL     1      19.798  34.078   5.931  1.00  0.00     0.293 HD
ENDBRANCH  15  18
BRANCH  17  20
ATOM     20  O   UNL     1      21.307  33.135   8.012  1.00  0.00    -0.504 OA
ATOM     21  H   UNL     1      20.744  33.972   7.909  1.00  0.00     0.293 HD
ENDBRANCH  17  20
ENDBRANCH   1  12
BRANCH   2  22
ATOM     22  O   UNL     1      25.988  30.999   6.824  1.00  0.00    -0.502 OA
ATOM     23  H   UNL     1      26.042  31.342   7.776  1.00  0.00     0.293 HD
ENDBRANCH   2  22
BRANCH   6  24
ATOM     24  O   UNL     1      27.935  26.049   6.543  1.00  0.00    -0.507 OA
ATOM     25  H   UNL     1      28.618  26.196   5.816  1.00  0.00     0.293 HD
ENDBRANCH   6  24
BRANCH   8  26
ATOM     26  O   UNL     1      23.892  23.603   5.681  1.00  0.00    -0.508 OA
ATOM     27  H   UNL     1      22.955  23.433   6.025  1.00  0.00     0.293 HD
ENDBRANCH   8  26
TORSDOF 6
ENDMDL
MODEL 2
REMARK VINA RESULT:    -5.021      0.962      1.098
REMARK INTER + INTRA:          -6.311
REMARK INTER:                  -5.998
REMARK INTRA:                  -0.312
REMARK UNBOUND:                -0.262
REMARK SMILES O=c1c(O)c(-c2ccc(O)c(O)c2)oc2cc(O)cc(O)c12
REMARK SMILES IDX 5 1 3 2 2 3 1 4 22 5 20 6 19 7 17 8 16 9 15 10 14 11 6 12
REMARK SMILES IDX 7 13 8 14 9 15 13 16 11 17 10 18 12 20 4 22 21 24 18 26
REMARK H PARENT 10 19 12 21 4 23 21 25 18 27
REMARK Flexibility Score: inf
ROOT
ATOM      1  C   UNL     1      23.560  29.328   5.628  1.00  0.00     0.180 A 
ATOM      2  C   UNL     1      24.936  29.246   5.903  1.00  0.00     0.208 A 
ATOM      3  C   UNL     1      25.544  27.982   5.962  1.00  0.00     0.238 A 
ATOM      4  O   UNL     1      26.765  27.912   6.262  1.00  0.00    -0.285 OA
ATOM      5  C   UNL     1      24.773  26.817   5.729  1.00  0.00     0.111 A 
ATOM      6  C   UNL     1      25.295  25.489   5.724  1.00  0.00     0.134 A 
ATOM      7  C   UNL     1      24.417  24.404   5.612  1.00  0.00     0.093 A 
ATOM      8  C   UNL     1      23.045  24.602   5.440  1.00  0.00     0.123 A 
ATOM      9  C   UNL     1      22.535  25.896   5.384  1.00  0.00     0.094 A 
ATOM     10  C   UNL     1      23.381  26.999   5.529  1.00  0.00     0.146 A 
ATOM     11  O   UNL     1      22.851  28.215   5.480  1.00  0.00    -0.452 OA
ENDROOT
BRANCH   1  12
ATOM     12  C   UNL     1      22.853  30.625   5.525  1.00  0.00     0.025 A 
ATOM     13  C   UNL     1      22.708  31.235   4.268  1.00  0.00     0.016 A 
ATOM     14  C   UNL     1      22.063  32.469   4.150  1.00  0.00     0.051 A 
ATOM     15  C   UNL     1      21.568  33.118   5.288  1.00  0.00     0.157 A 
ATOM     16  C   UNL     1      22.373  31.291   6.667  1.00  0.00     0.062 A 
ATOM     17  C   UNL     1      21.726  32.530   6.550  1.00  0.00     0.158 A 
BRANCH  15  18
ATOM     18  O   UNL     1      20.922  34.347   5.175  1.00  0.00    -0.504 OA
ATOM     19  H   UNL     1      21.392  35.159   4.789  1.00  0.00     0.293 HD
ENDBRANCH  15  18
BRANCH  17  20
ATOM     20  O   UNL     1      21.245  33.185   7.681  1.00  0.00    -0.504 OA
ATOM     21  H   UNL     1      21.700  34.014   8.048  1.00  0.00     0.293 HD
ENDBRANCH  17  20
ENDBRANCH   1  12
BRANCH   2  22
ATOM     22  O   UNL     1      25.673  30.407   6.151  1.00  0.00    -0.502 OA
ATOM     23  H   UNL     1      26.065  30.972   5.406  1.00  0.00     0.293 HD
ENDBRANCH   2  22
BRANCH   6  24
ATOM     24  O   UNL     1      26.658  25.184   5.798  1.00  0.00    -0.507 OA
ATOM     25  H   UNL     1      27.204  24.813   5.036  1.00  0.00     0.293 HD
ENDBRANCH   6  24
BRANCH   8  26
ATOM     26  O   UNL     1      22.180  23.516   5.314  1.00  0.00    -0.508 OA
ATOM     27  H   UNL     1      21.289  23.600   4.839  1.00  0.00     0.293 HD
ENDBRANCH   8  26
TORSDOF 6
ENDMDL
MODEL 3
REMARK VINA RESULT:    -4.918      2.317      5.849
REMARK INTER + INTRA:          -6.187
REMARK INTER:                  -5.880
REMARK INTRA:                  -0.307
REMARK UNBOUND:                -0.262
REMARK SMILES O=c1c(O)c(-c2ccc(O)c(O)c2)oc2cc(O)cc(O)c12
REMARK SMILES IDX 5 1 3 2 2 3 1 4 22 5 20 6 19 7 17 8 16 9 15 10 14 11 6 12
REMARK SMILES IDX 7 13 8 14 9 15 13 16 11 17 10 18 12 20 4 22 21 24 18 26
REMARK H PARENT 10 19 12 21 4 23 21 25 18 27
REMARK Flexibility Score: inf
ROOT
ATOM      1  C   UNL     1      24.331  27.491   5.891  1.00  0.00     0.180 A 
ATOM      2  C   UNL     1      25.712  27.236   5.936  1.00  0.00     0.208 A 
ATOM      3  C   UNL     1      26.556  28.170   6.557  1.00  0.00     0.238 A 
ATOM      4  O   UNL     1      27.798  27.962   6.547  1.00  0.00    -0.285 OA
ATOM      5  C   UNL     1      26.008  29.338   7.141  1.00  0.00     0.111 A 
ATOM      6  C   UNL     1      26.765  30.331   7.831  1.00  0.00     0.134 A 
ATOM      7  C   UNL     1      26.137  31.509   8.253  1.00  0.00     0.093 A 
ATOM      8  C   UNL     1      24.765  31.699   8.067  1.00  0.00     0.123 A 
ATOM      9  C   UNL     1      24.007  30.710   7.447  1.00  0.00     0.094 A 
ATOM     10  C   UNL     1      24.612  29.539   6.983  1.00  0.00     0.146 A 
ATOM     11  O   UNL     1      23.855  28.626   6.388  1.00  0.00    -0.452 OA
ENDROOT
BRANCH   1  12
ATOM     12  C   UNL     1      23.375  26.542   5.276  1.00  0.00     0.025 A 
ATOM     13  C   UNL     1      23.156  26.583   3.889  1.00  0.00     0.016 A 
ATOM     14  C   UNL     1      22.242  25.712   3.290  1.00  0.00     0.051 A 
ATOM     15  C   UNL     1      21.524  24.797   4.070  1.00  0.00     0.157 A 
ATOM     16  C   UNL     1      22.635  25.636   6.057  1.00  0.00     0.062 A 
ATOM     17  C   UNL     1      21.717  24.762   5.457  1.00  0.00     0.158 A 
BRANCH  15  18
ATOM     18  O   UNL     1      20.613  23.925   3.477  1.00  0.00    -0.504 OA
ATOM     19  H   UNL     1      20.249  23.121   3.975  1.00  0.00     0.293 HD
ENDBRANCH  15  18
BRANCH  17  20
ATOM     20  O   UNL     1      20.991  23.860   6.232  1.00  0.00    -0.504 OA
ATOM     21  H   UNL     1      20.074  24.094   6.598  1.00  0.00     0.293 HD
ENDBRANCH  17  20
ENDBRANCH   1  12
BRANCH   2  22
ATOM     22  O   UNL     1      26.235  26.088   5.335  1.00  0.00    -0.502 OA
ATOM     23  H   UNL     1      25.691  25.241   5.215  1.00  0.00     0.293 HD
ENDBRANCH   2  22
BRANCH   6  24
ATOM     24  O   UNL     1      28.121  30.198   8.150  1.00  0.00    -0.507 OA
ATOM     25  H   UNL     1      28.775  30.964   8.200  1.00  0.00     0.293 HD
ENDBRANCH   6  24
BRANCH   8  26
ATOM     26  O   UNL     1      24.145  32.869   8.504  1.00  0.00    -0.508 OA
ATOM     27  H   UNL     1      24.520  33.413   9.271  1.00  0.00     0.293 HD
ENDBRANCH   8  26
TORSDOF 6
ENDMDL
MODEL 4
REMARK VINA RESULT:    -4.784      1.522      2.056
REMARK INTER + INTRA:          -6.025
REMARK INTER:                  -5.691
REMARK INTRA:                  -0.334
REMARK UNBOUND:                -0.262
REMARK SMILES O=c1c(O)c(-c2ccc(O)c(O)c2)oc2cc(O)cc(O)c12
REMARK SMILES IDX 5 1 3 2 2 3 1 4 22 5 20 6 19 7 17 8 16 9 15 10 14 11 6 12
REMARK SMILES IDX 7 13 8 14 9 15 13 16 11 17 10 18 12 20 4 22 21 24 18 26
REMARK H PARENT 10 19 12 21 4 23 21 25 18 27
REMARK Flexibility Score: inf
ROOT
ATOM      1  C   UNL     1      24.806  29.462   6.006  1.00  0.00     0.180 A 
ATOM      2  C   UNL     1      25.933  29.781   5.229  1.00  0.00     0.208 A 
ATOM      3  C   UNL     1      26.726  28.740   4.723  1.00  0.00     0.238 A 
ATOM      4  O   UNL     1      27.765  29.032   4.074  1.00  0.00    -0.285 OA
ATOM      5  C   UNL     1      26.374  27.393   4.985  1.00  0.00     0.111 A 
ATOM      6  C   UNL     1      27.084  26.259   4.488  1.00  0.00     0.134 A 
ATOM      7  C   UNL     1      26.723  24.976   4.917  1.00  0.00     0.093 A 
ATOM      8  C   UNL     1      25.637  24.784   5.775  1.00  0.00     0.123 A 
ATOM      9  C   UNL     1      24.902  25.880   6.218  1.00  0.00     0.094 A 
ATOM     10  C   UNL     1      25.260  27.175   5.835  1.00  0.00     0.146 A 
ATOM     11  O   UNL     1      24.539  28.193   6.289  1.00  0.00    -0.452 OA
ENDROOT
BRANCH   1  12
ATOM     12  C   UNL     1      23.907  30.504   6.553  1.00  0.00     0.025 A 
ATOM     13  C   UNL     1      24.115  30.981   7.857  1.00  0.00     0.016 A 
ATOM     14  C   UNL     1      23.266  31.948   8.402  1.00  0.00     0.051 A 
ATOM     15  C   UNL     1      22.188  32.441   7.656  1.00  0.00     0.157 A 
ATOM     16  C   UNL     1      22.810  30.986   5.817  1.00  0.00     0.062 A 
ATOM     17  C   UNL     1      21.956  31.956   6.362  1.00  0.00     0.158 A 
BRANCH  15  18
ATOM     18  O   UNL     1      21.340  33.407   8.194  1.00  0.00    -0.504 OA
ATOM     19  H   UNL     1      20.548  33.766   7.673  1.00  0.00     0.293 HD
ENDBRANCH  15  18
BRANCH  17  20
ATOM     20  O   UNL     1      20.874  32.438   5.628  1.00  0.00    -0.504 OA
ATOM     21  H   UNL     1      20.954  32.641   4.638  1.00  0.00     0.293 HD
ENDBRANCH  17  20
ENDBRANCH   1  12
BRANCH   2  22
ATOM     22  O   UNL     1      26.275  31.117   5.002  1.00  0.00    -0.502 OA
ATOM     23  H   UNL     1      25.832  31.676   4.282  1.00  0.00     0.293 HD
ENDBRANCH   2  22
BRANCH   6  24
ATOM     24  O   UNL     1      28.125  26.335   3.556  1.00  0.00    -0.507 OA
ATOM     25  H   UNL     1      28.533  27.194   3.221  1.00  0.00     0.293 HD
ENDBRANCH   6  24
BRANCH   8  26
ATOM     26  O   UNL     1      25.275  23.502   6.186  1.00  0.00    -0.508 OA
ATOM     27  H   UNL     1      25.330  22.708   5.559  1.00  0.00     0.293 HD
ENDBRANCH   8  26
TORSDOF 6
ENDMDL
MODEL 5
REMARK VINA RESULT:    -4.753      1.445      2.935
REMARK INTER + INTRA:          -5.987
REMARK INTER:                  -5.814
REMARK INTRA:                  -0.173
REMARK UNBOUND:                -0.262
REMARK SMILES O=c1c(O)c(-c2ccc(O)c(O)c2)oc2cc(O)cc(O)c12
REMARK SMILES IDX 5 1 3 2 2 3 1 4 22 5 20 6 19 7 17 8 16 9 15 10 14 11 6 12
REMARK SMILES IDX 7 13 8 14 9 15 13 16 11 17 10 18 12 20 4 22 21 24 18 26
REMARK H PARENT 10 19 12 21 4 23 21 25 18 27
REMARK Flexibility Score: inf
ROOT
ATOM      1  C   UNL     1      23.254  29.481   5.102  1.00  0.00     0.180 A 
ATOM      2  C   UNL     1      22.691  28.405   4.396  1.00  0.00     0.208 A 
ATOM      3  C   UNL     1      23.314  27.149   4.459  1.00  0.00     0.238 A 
ATOM      4  O   UNL     1      22.836  26.201   3.781  1.00  0.00    -0.285 OA
ATOM      5  C   UNL     1      24.483  26.980   5.241  1.00  0.00     0.111 A 
ATOM      6  C   UNL     1      25.174  25.743   5.409  1.00  0.00     0.134 A 
ATOM      7  C   UNL     1      26.392  25.721   6.099  1.00  0.00     0.093 A 
ATOM      8  C   UNL     1      26.911  26.880   6.681  1.00  0.00     0.123 A 
ATOM      9  C   UNL     1      26.214  28.080   6.573  1.00  0.00     0.094 A 
ATOM     10  C   UNL     1      25.013  28.142   5.860  1.00  0.00     0.146 A 
ATOM     11  O   UNL     1      24.387  29.308   5.773  1.00  0.00    -0.452 OA
ENDROOT
BRANCH   1  12
ATOM     12  C   UNL     1      22.640  30.829   5.104  1.00  0.00     0.025 A 
ATOM     13  C   UNL     1      22.630  31.586   3.921  1.00  0.00     0.016 A 
ATOM     14  C   UNL     1      22.075  32.869   3.905  1.00  0.00     0.051 A 
ATOM     15  C   UNL     1      21.537  33.419   5.075  1.00  0.00     0.157 A 
ATOM     16  C   UNL     1      22.117  31.395   6.281  1.00  0.00     0.062 A 
ATOM     17  C   UNL     1      21.561  32.682   6.266  1.00  0.00     0.158 A 
BRANCH  15  18
ATOM     18  O   UNL     1      20.981  34.696   5.064  1.00  0.00    -0.504 OA
ATOM     19  H   UNL     1      21.562  35.527   5.080  1.00  0.00     0.293 HD
ENDBRANCH  15  18
BRANCH  17  20
ATOM     20  O   UNL     1      21.037  33.238   7.432  1.00  0.00    -0.504 OA
ATOM     21  H   UNL     1      20.294  33.927   7.403  1.00  0.00     0.293 HD
ENDBRANCH  17  20
ENDBRANCH   1  12
BRANCH   2  22
ATOM     22  O   UNL     1      21.549  28.598   3.613  1.00  0.00    -0.502 OA
ATOM     23  H   UNL     1      20.959  27.831   3.312  1.00  0.00     0.293 HD
ENDBRANCH   2  22
BRANCH   6  24
ATOM     24  O   UNL     1      24.696  24.513   4.947  1.00  0.00    -0.507 OA
ATOM     25  H   UNL     1      24.524  24.291   3.978  1.00  0.00     0.293 HD
ENDBRANCH   6  24
BRANCH   8  26
ATOM     26  O   UNL     1      28.118  26.846   7.379  1.00  0.00    -0.508 OA
ATOM     27  H   UNL     1      29.004  26.747   6.899  1.00  0.00     0.293 HD
ENDBRANCH   8  26
TORSDOF 6
ENDMDL
MODEL 6
REMARK VINA RESULT:    -4.681      1.610      6.399
REMARK INTER + INTRA:          -5.901
REMARK INTER:                  -5.614
REMARK INTRA:                  -0.288
REMARK UNBOUND:                -0.262
REMARK SMILES O=c1c(O)c(-c2ccc(O)c(O)c2)oc2cc(O)cc(O)c12
REMARK SMILES IDX 5 1 3 2 2 3 1 4 22 5 20 6 19 7 17 8 16 9 15 10 14 11 6 12
REMARK SMILES IDX 7 13 8 14 9 15 13 16 11 17 10 18 12 20 4 22 21 24 18 26
REMARK H PARENT 10 19 12 21 4 23 21 25 18 27
REMARK Flexibility Score: inf
ROOT
ATOM      1  C   UNL     1      25.031  28.122   5.890  1.00  0.00     0.180 A 
ATOM      2  C   UNL     1      26.265  28.470   6.466  1.00  0.00     0.208 A 
ATOM      3  C   UNL     1      26.360  29.660   7.204  1.00  0.00     0.238 A 
ATOM      4  O   UNL     1      27.481  29.993   7.672  1.00  0.00    -0.285 OA
ATOM      5  C   UNL     1      25.217  30.480   7.371  1.00  0.00     0.111 A 
ATOM      6  C   UNL     1      25.190  31.686   8.132  1.00  0.00     0.134 A 
ATOM      7  C   UNL     1      24.039  32.484   8.120  1.00  0.00     0.093 A 
ATOM      8  C   UNL     1      22.894  32.085   7.427  1.00  0.00     0.123 A 
ATOM      9  C   UNL     1      22.891  30.880   6.730  1.00  0.00     0.094 A 
ATOM     10  C   UNL     1      24.037  30.080   6.693  1.00  0.00     0.146 A 
ATOM     11  O   UNL     1      23.995  28.944   6.008  1.00  0.00    -0.452 OA
ENDROOT
BRANCH   1  12
ATOM     12  C   UNL     1      24.846  26.871   5.120  1.00  0.00     0.025 A 
ATOM     13  C   UNL     1      24.727  26.931   3.722  1.00  0.00     0.016 A 
ATOM     14  C   UNL     1      24.530  25.766   2.976  1.00  0.00     0.051 A 
ATOM     15  C   UNL     1      24.436  24.525   3.619  1.00  0.00     0.157 A 
ATOM     16  C   UNL     1      24.729  25.626   5.762  1.00  0.00     0.062 A 
ATOM     17  C   UNL     1      24.531  24.455   5.015  1.00  0.00     0.158 A 
BRANCH  15  18
ATOM     18  O   UNL     1      24.242  23.360   2.880  1.00  0.00    -0.504 OA
ATOM     19  H   UNL     1      23.860  23.385   1.942  1.00  0.00     0.293 HD
ENDBRANCH  15  18
BRANCH  17  20
ATOM     20  O   UNL     1      24.423  23.220   5.653  1.00  0.00    -0.504 OA
ATOM     21  H   UNL     1      25.168  22.534   5.609  1.00  0.00     0.293 HD
ENDBRANCH  17  20
ENDBRANCH   1  12
BRANCH   2  22
ATOM     22  O   UNL     1      27.385  27.658   6.271  1.00  0.00    -0.502 OA
ATOM     23  H   UNL     1      28.299  28.035   6.045  1.00  0.00     0.293 HD
ENDBRANCH   2  22
BRANCH   6  24
ATOM     24  O   UNL     1      26.248  32.129   8.933  1.00  0.00    -0.507 OA
ATOM     25  H   UNL     1      26.660  33.048   8.882  1.00  0.00     0.293 HD
ENDBRANCH   6  24
BRANCH   8  26
ATOM     26  O   UNL     1      21.747  32.878   7.433  1.00  0.00    -0.508 OA
ATOM     27  H   UNL     1      20.965  32.683   6.820  1.00  0.00     0.293 HD
ENDBRANCH   8  26
TORSDOF 6
ENDMDL
MODEL 7
REMARK VINA RESULT:    -4.603      2.479      6.541
REMARK INTER + INTRA:          -5.806
REMARK INTER:                  -5.622
REMARK INTRA:                  -0.184
REMARK UNBOUND:                -0.262
REMARK SMILES O=c1c(O)c(-c2ccc(O)c(O)c2)oc2cc(O)cc(O)c12
REMARK SMILES IDX 5 1 3 2 2 3 1 4 22 5 20 6 19 7 17 8 16 9 15 10 14 11 6 12
REMARK SMILES IDX 7 13 8 14 9 15 13 16 11 17 10 18 12 20 4 22 21 24 18 26
REMARK H PARENT 10 19 12 21 4 23 21 25 18 27
REMARK Flexibility Score: inf
ROOT
ATOM      1  C   UNL     1      23.687  27.088   5.490  1.00  0.00     0.180 A 
ATOM      2  C   UNL     1      22.919  28.210   5.133  1.00  0.00     0.208 A 
ATOM      3  C   UNL     1      23.377  29.488   5.486  1.00  0.00     0.238 A 
ATOM      4  O   UNL     1      22.658  30.485   5.212  1.00  0.00    -0.285 OA
ATOM      5  C   UNL     1      24.606  29.632   6.176  1.00  0.00     0.111 A 
ATOM      6  C   UNL     1      25.185  30.882   6.547  1.00  0.00     0.134 A 
ATOM      7  C   UNL     1      26.338  30.900   7.341  1.00  0.00     0.093 A 
ATOM      8  C   UNL     1      26.968  29.713   7.721  1.00  0.00     0.123 A 
ATOM      9  C   UNL     1      26.443  28.489   7.314  1.00  0.00     0.094 A 
ATOM     10  C   UNL     1      25.273  28.438   6.552  1.00  0.00     0.146 A 
ATOM     11  O   UNL     1      24.801  27.251   6.194  1.00  0.00    -0.452 OA
ENDROOT
BRANCH   1  12
ATOM     12  C   UNL     1      23.282  25.710   5.131  1.00  0.00     0.025 A 
ATOM     13  C   UNL     1      24.023  24.999   4.173  1.00  0.00     0.016 A 
ATOM     14  C   UNL     1      23.646  23.705   3.803  1.00  0.00     0.051 A 
ATOM     15  C   UNL     1      22.516  23.108   4.376  1.00  0.00     0.157 A 
ATOM     16  C   UNL     1      22.136  25.114   5.688  1.00  0.00     0.062 A 
ATOM     17  C   UNL     1      21.757  23.815   5.317  1.00  0.00     0.158 A 
BRANCH  15  18
ATOM     18  O   UNL     1      22.138  21.818   4.012  1.00  0.00    -0.504 OA
ATOM     19  H   UNL     1      22.360  21.017   4.594  1.00  0.00     0.293 HD
ENDBRANCH  15  18
BRANCH  17  20
ATOM     20  O   UNL     1      20.625  23.224   5.875  1.00  0.00    -0.504 OA
ATOM     21  H   UNL     1      20.059  22.565   5.352  1.00  0.00     0.293 HD
ENDBRANCH  17  20
ENDBRANCH   1  12
BRANCH   2  22
ATOM     22  O   UNL     1      21.699  28.044   4.472  1.00  0.00    -0.502 OA
ATOM     23  H   UNL     1      21.109  27.232   4.614  1.00  0.00     0.293 HD
ENDBRANCH   2  22
BRANCH   6  24
ATOM     24  O   UNL     1      24.687  32.125   6.142  1.00  0.00    -0.507 OA
ATOM     25  H   UNL     1      24.496  32.382   5.186  1.00  0.00     0.293 HD
ENDBRANCH   6  24
BRANCH   8  26
ATOM     26  O   UNL     1      28.124  29.740   8.500  1.00  0.00    -0.508 OA
ATOM     27  H   UNL     1      28.104  30.034   9.469  1.00  0.00     0.293 HD
ENDBRANCH   8  26
TORSDOF 6
ENDMDL
MODEL 8
REMARK VINA RESULT:    -4.586      1.465      7.081
REMARK INTER + INTRA:          -5.787
REMARK INTER:                  -5.508
REMARK INTRA:                  -0.279
REMARK UNBOUND:                -0.262
REMARK SMILES O=c1c(O)c(-c2ccc(O)c(O)c2)oc2cc(O)cc(O)c12
REMARK SMILES IDX 5 1 3 2 2 3 1 4 22 5 20 6 19 7 17 8 16 9 15 10 14 11 6 12
REMARK SMILES IDX 7 13 8 14 9 15 13 16 11 17 10 18 12 20 4 22 21 24 18 26
REMARK H PARENT 10 19 12 21 4 23 21 25 18 27
REMARK Flexibility Score: inf
ROOT
ATOM      1  C   UNL     1      24.494  28.901   5.646  1.00  0.00     0.180 A 
ATOM      2  C   UNL     1      24.087  29.137   4.322  1.00  0.00     0.208 A 
ATOM      3  C   UNL     1      23.230  30.215   4.055  1.00  0.00     0.238 A 
ATOM      4  O   UNL     1      22.825  30.389   2.875  1.00  0.00    -0.285 OA
ATOM      5  C   UNL     1      22.804  31.056   5.112  1.00  0.00     0.111 A 
ATOM      6  C   UNL     1      21.968  32.201   4.950  1.00  0.00     0.134 A 
ATOM      7  C   UNL     1      21.503  32.882   6.082  1.00  0.00     0.093 A 
ATOM      8  C   UNL     1      21.898  32.498   7.366  1.00  0.00     0.123 A 
ATOM      9  C   UNL     1      22.760  31.417   7.530  1.00  0.00     0.094 A 
ATOM     10  C   UNL     1      23.212  30.696   6.422  1.00  0.00     0.146 A 
ATOM     11  O   UNL     1      24.025  29.666   6.625  1.00  0.00    -0.452 OA
ENDROOT
BRANCH   1  12
ATOM     12  C   UNL     1      25.416  27.799   6.002  1.00  0.00     0.025 A 
ATOM     13  C   UNL     1      26.777  28.076   6.210  1.00  0.00     0.016 A 
ATOM     14  C   UNL     1      27.669  27.047   6.526  1.00  0.00     0.051 A 
ATOM     15  C   UNL     1      27.216  25.726   6.625  1.00  0.00     0.157 A 
ATOM     16  C   UNL     1      24.970  26.467   6.082  1.00  0.00     0.062 A 
ATOM     17  C   UNL     1      25.865  25.434   6.399  1.00  0.00     0.158 A 
BRANCH  15  18
ATOM     18  O   UNL     1      28.101  24.698   6.942  1.00  0.00    -0.504 OA
ATOM     19  H   UNL     1      28.356  24.495   7.903  1.00  0.00     0.293 HD
ENDBRANCH  15  18
BRANCH  17  20
ATOM     20  O   UNL     1      25.420  24.116   6.484  1.00  0.00    -0.504 OA
ATOM     21  H   UNL     1      25.660  23.526   7.274  1.00  0.00     0.293 HD
ENDBRANCH  17  20
ENDBRANCH   1  12
BRANCH   2  22
ATOM     22  O   UNL     1      24.502  28.282   3.297  1.00  0.00    -0.502 OA
ATOM     23  H   UNL     1      25.453  28.272   2.948  1.00  0.00     0.293 HD
ENDBRANCH   2  22
BRANCH   6  24
ATOM     24  O   UNL     1      21.591  32.724   3.709  1.00  0.00    -0.507 OA
ATOM     25  H   UNL     1      22.234  32.995   2.981  1.00  0.00     0.293 HD
ENDBRANCH   6  24
BRANCH   8  26
ATOM     26  O   UNL     1      21.442  33.190   8.486  1.00  0.00    -0.508 OA
ATOM     27  H   UNL     1      21.835  34.085   8.753  1.00  0.00     0.293 HD
ENDBRANCH   8  26
TORSDOF 6
ENDMDL
MODEL 9
REMARK VINA RESULT:    -4.237      2.432      4.068
REMARK INTER + INTRA:          -5.366
REMARK INTER:                  -5.316
REMARK INTRA:                  -0.049
REMARK UNBOUND:                -0.262
REMARK SMILES O=c1c(O)c(-c2ccc(O)c(O)c2)oc2cc(O)cc(O)c12
REMARK SMILES IDX 5 1 3 2 2 3 1 4 22 5 20 6 19 7 17 8 16 9 15 10 14 11 6 12
REMARK SMILES IDX 7 13 8 14 9 15 13 16 11 17 10 18 12 20 4 22 21 24 18 26
REMARK H PARENT 10 19 12 21 4 23 21 25 18 27
REMARK Flexibility Score: inf
ROOT
ATOM      1  C   UNL     1      24.995  27.407   5.948  1.00  0.00     0.180 A 
ATOM      2  C   UNL     1      25.846  26.850   4.979  1.00  0.00     0.208 A 
ATOM      3  C   UNL     1      25.449  25.677   4.318  1.00  0.00     0.238 A 
ATOM      4  O   UNL     1      26.240  25.153   3.489  1.00  0.00    -0.285 OA
ATOM      5  C   UNL     1      24.200  25.085   4.622  1.00  0.00     0.111 A 
ATOM      6  C   UNL     1      23.680  23.919   3.984  1.00  0.00     0.134 A 
ATOM      7  C   UNL     1      22.493  23.345   4.456  1.00  0.00     0.093 A 
ATOM      8  C   UNL     1      21.774  23.935   5.499  1.00  0.00     0.123 A 
ATOM      9  C   UNL     1      22.243  25.106   6.088  1.00  0.00     0.094 A 
ATOM     10  C   UNL     1      23.443  25.681   5.663  1.00  0.00     0.146 A 
ATOM     11  O   UNL     1      23.859  26.792   6.258  1.00  0.00    -0.452 OA
ENDROOT
BRANCH   1  12
ATOM     12  C   UNL     1      25.332  28.655   6.669  1.00  0.00     0.025 A 
ATOM     13  C   UNL     1      26.521  28.724   7.413  1.00  0.00     0.016 A 
ATOM     14  C   UNL     1      26.849  29.885   8.120  1.00  0.00     0.051 A 
ATOM     15  C   UNL     1      25.986  30.988   8.103  1.00  0.00     0.157 A 
ATOM     16  C   UNL     1      24.459  29.758   6.673  1.00  0.00     0.062 A 
ATOM     17  C   UNL     1      24.787  30.924   7.382  1.00  0.00     0.158 A 
BRANCH  15  18
ATOM     18  O   UNL     1      26.310  32.148   8.803  1.00  0.00    -0.504 OA
ATOM     19  H   UNL     1      25.594  32.730   9.224  1.00  0.00     0.293 HD
ENDBRANCH  15  18
BRANCH  17  20
ATOM     20  O   UNL     1      23.924  32.018   7.379  1.00  0.00    -0.504 OA
ATOM     21  H   UNL     1      23.905  32.676   6.608  1.00  0.00     0.293 HD
ENDBRANCH  17  20
ENDBRANCH   1  12
BRANCH   2  22
ATOM     22  O   UNL     1      27.085  27.439   4.710  1.00  0.00    -0.502 OA
ATOM     23  H   UNL     1      27.906  27.262   5.277  1.00  0.00     0.293 HD
ENDBRANCH   2  22
BRANCH   6  24
ATOM     24  O   UNL     1      24.271  23.305   2.875  1.00  0.00    -0.507 OA
ATOM     25  H   UNL     1      25.040  22.654   2.922  1.00  0.00     0.293 HD
ENDBRANCH   6  24
BRANCH   8  26
ATOM     26  O   UNL     1      20.585  23.365   5.953  1.00  0.00    -0.508 OA
ATOM     27  H   UNL     1      20.179  22.555   5.501  1.00  0.00     0.293 HD
ENDBRANCH   8  26
TORSDOF 6
ENDMDL
