MODEL 1
REMARK VINA RESULT:    -3.927      0.000      0.000
REMARK INTER + INTRA:          -9.085
REMARK INTER:                  -7.370
REMARK INTRA:                  -1.714
REMARK UNBOUND:                -1.714
REMARK SMILES O=C([O-])CCCCCCCCCCCCCCC(=O)[O-]
REMARK SMILES IDX 10 1 9 2 8 3 7 4 6 5 5 6 4 7 2 8 1 9 3 10 11 11 12 12 13 13
REMARK SMILES IDX 14 14 15 15 16 16 17 17 18 18 19 19 20 20
REMARK H PARENT
REMARK Flexibility Score: inf
ROOT
ATOM      1  C   UNL     1      -4.169 -67.090  -4.347  1.00  0.00     0.000 C 
ENDROOT
BRANCH   1   2
ATOM      2  C   UNL     1      -3.744 -66.909  -5.812  1.00  0.00     0.000 C 
BRANCH   2   3
ATOM      3  C   UNL     1      -4.939 -66.853  -6.779  1.00  0.00     0.000 C 
BRANCH   3   4
ATOM      4  C   UNL     1      -5.554 -65.453  -6.981  1.00  0.00     0.000 C 
BRANCH   4   5
ATOM      5  C   UNL     1      -4.550 -64.287  -6.950  1.00  0.00     0.000 C 
BRANCH   5   6
ATOM      6  C   UNL     1      -4.896 -63.230  -5.886  1.00  0.00     0.006 C 
BRANCH   6   7
ATOM      7  C   UNL     1      -6.308 -63.423  -5.316  1.00  0.00     0.053 C 
BRANCH   7   8
ATOM      8  C   UNL     1      -7.174 -62.223  -5.551  1.00  0.00     0.041 C 
ATOM      9  O   UNL     1      -7.381 -61.812  -6.723  1.00  0.00    -0.550 OA
ATOM     10  O   UNL     1      -7.727 -61.542  -4.475  1.00  0.00    -0.550 OA
ENDBRANCH   7   8
ENDBRANCH   6   7
ENDBRANCH   5   6
ENDBRANCH   4   5
ENDBRANCH   3   4
ENDBRANCH   2   3
ENDBRANCH   1   2
BRANCH   1  11
ATOM     11  C   UNL     1      -4.012 -65.780  -3.565  1.00  0.00     0.000 C 
BRANCH  11  12
ATOM     12  C   UNL     1      -5.015 -65.708  -2.403  1.00  0.00     0.000 C 
BRANCH  12  13
ATOM     13  C   UNL     1      -4.710 -64.541  -1.441  1.00  0.00     0.000 C 
BRANCH  13  14
ATOM     14  C   UNL     1      -5.898 -64.153  -0.546  1.00  0.00     0.000 C 
BRANCH  14  15
ATOM     15  C   UNL     1      -7.010 -63.422  -1.311  1.00  0.00     0.000 C 
BRANCH  15  16
ATOM     16  C   UNL     1      -8.327 -64.204  -1.249  1.00  0.00     0.006 C 
BRANCH  16  17
ATOM     17  C   UNL     1      -8.502 -64.878   0.114  1.00  0.00     0.053 C 
BRANCH  17  18
ATOM     18  C   UNL     1      -9.478 -64.116   0.953  1.00  0.00     0.041 C 
ATOM     19  O   UNL     1      -9.959 -63.029   0.537  1.00  0.00    -0.550 OA
ATOM     20  O   UNL     1      -9.894 -64.629   2.176  1.00  0.00    -0.550 OA
ENDBRANCH  17  18
ENDBRANCH  16  17
ENDBRANCH  15  16
ENDBRANCH  14  15
ENDBRANCH  13  14
ENDBRANCH  12  13
ENDBRANCH  11  12
ENDBRANCH   1  11
TORSDOF 15
ENDMDL
MODEL 2
REMARK VINA RESULT:    -3.853      3.538      6.453
REMARK INTER + INTRA:          -8.946
REMARK INTER:                  -6.488
REMARK INTRA:                  -2.458
REMARK UNBOUND:                -1.714
REMARK SMILES O=C([O-])CCCCCCCCCCCCCCC(=O)[O-]
REMARK SMILES IDX 10 1 9 2 8 3 7 4 6 5 5 6 4 7 2 8 1 9 3 10 11 11 12 12 13 13
REMARK SMILES IDX 14 14 15 15 16 16 17 17 18 18 19 19 20 20
REMARK H PARENT
REMARK Flexibility Score: inf
ROOT
ATOM      1  C   UNL     1      -4.186 -65.447  -3.029  1.00  0.00     0.000 C 
ENDROOT
BRANCH   1   2
ATOM      2  C   UNL     1      -4.555 -66.860  -3.507  1.00  0.00     0.000 C 
BRANCH   2   3
ATOM      3  C   UNL     1      -4.233 -67.090  -4.994  1.00  0.00     0.000 C 
BRANCH   3   4
ATOM      4  C   UNL     1      -3.399 -65.978  -5.663  1.00  0.00     0.000 C 
BRANCH   4   5
ATOM      5  C   UNL     1      -4.077 -65.280  -6.855  1.00  0.00     0.000 C 
BRANCH   5   6
ATOM      6  C   UNL     1      -5.512 -64.821  -6.540  1.00  0.00     0.006 C 
BRANCH   6   7
ATOM      7  C   UNL     1      -5.682 -63.304  -6.695  1.00  0.00     0.053 C 
BRANCH   7   8
ATOM      8  C   UNL     1      -6.987 -62.828  -6.135  1.00  0.00     0.041 C 
ATOM      9  O   UNL     1      -7.073 -61.685  -5.613  1.00  0.00    -0.550 OA
ATOM     10  O   UNL     1      -8.101 -63.657  -6.162  1.00  0.00    -0.550 OA
ENDBRANCH   7   8
ENDBRANCH   6   7
ENDBRANCH   5   6
ENDBRANCH   4   5
ENDBRANCH   3   4
ENDBRANCH   2   3
ENDBRANCH   1   2
BRANCH   1  11
ATOM     11  C   UNL     1      -5.442 -64.589  -2.833  1.00  0.00     0.000 C 
BRANCH  11  12
ATOM     12  C   UNL     1      -5.116 -63.094  -2.976  1.00  0.00     0.000 C 
BRANCH  12  13
ATOM     13  C   UNL     1      -3.596 -62.828  -2.983  1.00  0.00     0.000 C 
BRANCH  13  14
ATOM     14  C   UNL     1      -3.076 -62.257  -4.313  1.00  0.00     0.000 C 
BRANCH  14  15
ATOM     15  C   UNL     1      -1.705 -62.821  -4.710  1.00  0.00     0.000 C 
BRANCH  15  16
ATOM     16  C   UNL     1      -1.449 -62.644  -6.211  1.00  0.00     0.006 C 
BRANCH  16  17
ATOM     17  C   UNL     1       0.040 -62.794  -6.535  1.00  0.00     0.053 C 
BRANCH  17  18
ATOM     18  C   UNL     1       0.405 -64.239  -6.662  1.00  0.00     0.041 C 
ATOM     19  O   UNL     1       1.077 -64.805  -5.759  1.00  0.00    -0.550 OA
ATOM     20  O   UNL     1      -0.036 -64.975  -7.755  1.00  0.00    -0.550 OA
ENDBRANCH  17  18
ENDBRANCH  16  17
ENDBRANCH  15  16
ENDBRANCH  14  15
ENDBRANCH  13  14
ENDBRANCH  12  13
ENDBRANCH  11  12
ENDBRANCH   1  11
TORSDOF 15
ENDMDL
MODEL 3
REMARK VINA RESULT:    -3.817     12.151     14.342
REMARK INTER + INTRA:          -8.878
REMARK INTER:                  -7.187
REMARK INTRA:                  -1.691
REMARK UNBOUND:                -1.714
REMARK SMILES O=C([O-])CCCCCCCCCCCCCCC(=O)[O-]
REMARK SMILES IDX 10 1 9 2 8 3 7 4 6 5 5 6 4 7 2 8 1 9 3 10 11 11 12 12 13 13
REMARK SMILES IDX 14 14 15 15 16 16 17 17 18 18 19 19 20 20
REMARK H PARENT
REMARK Flexibility Score: inf
ROOT
ATOM      1  C   UNL     1     -13.331 -75.663  -8.651  1.00  0.00     0.000 C 
ENDROOT
BRANCH   1   2
ATOM      2  C   UNL     1     -14.080 -76.990  -8.457  1.00  0.00     0.000 C 
BRANCH   2   3
ATOM      3  C   UNL     1     -14.692 -77.131  -7.052  1.00  0.00     0.000 C 
BRANCH   3   4
ATOM      4  C   UNL     1     -15.925 -76.245  -6.783  1.00  0.00     0.000 C 
BRANCH   4   5
ATOM      5  C   UNL     1     -16.937 -76.163  -7.939  1.00  0.00     0.000 C 
BRANCH   5   6
ATOM      6  C   UNL     1     -17.391 -74.722  -8.233  1.00  0.00     0.006 C 
BRANCH   6   7
ATOM      7  C   UNL     1     -17.281 -73.818  -6.998  1.00  0.00     0.053 C 
BRANCH   7   8
ATOM      8  C   UNL     1     -17.403 -72.367  -7.355  1.00  0.00     0.041 C 
ATOM      9  O   UNL     1     -17.315 -71.486  -6.460  1.00  0.00    -0.550 OA
ATOM     10  O   UNL     1     -17.644 -71.991  -8.670  1.00  0.00    -0.550 OA
ENDBRANCH   7   8
ENDBRANCH   6   7
ENDBRANCH   5   6
ENDBRANCH   4   5
ENDBRANCH   3   4
ENDBRANCH   2   3
ENDBRANCH   1   2
BRANCH   1  11
ATOM     11  C   UNL     1     -13.928 -74.861  -9.814  1.00  0.00     0.000 C 
BRANCH  11  12
ATOM     12  C   UNL     1     -14.247 -73.421  -9.385  1.00  0.00     0.000 C 
BRANCH  12  13
ATOM     13  C   UNL     1     -13.511 -72.378 -10.253  1.00  0.00     0.000 C 
BRANCH  13  14
ATOM     14  C   UNL     1     -12.497 -72.995 -11.231  1.00  0.00     0.000 C 
BRANCH  14  15
ATOM     15  C   UNL     1     -11.047 -72.604 -10.914  1.00  0.00     0.000 C 
BRANCH  15  16
ATOM     16  C   UNL     1     -10.610 -73.161  -9.555  1.00  0.00     0.006 C 
BRANCH  16  17
ATOM     17  C   UNL     1      -9.094 -73.043  -9.375  1.00  0.00     0.053 C 
BRANCH  17  18
ATOM     18  C   UNL     1      -8.721 -71.648  -8.983  1.00  0.00     0.041 C 
ATOM     19  O   UNL     1      -9.417 -71.018  -8.144  1.00  0.00    -0.550 OA
ATOM     20  O   UNL     1      -7.577 -71.060  -9.510  1.00  0.00    -0.550 OA
ENDBRANCH  17  18
ENDBRANCH  16  17
ENDBRANCH  15  16
ENDBRANCH  14  15
ENDBRANCH  13  14
ENDBRANCH  12  13
ENDBRANCH  11  12
ENDBRANCH   1  11
TORSDOF 15
ENDMDL
MODEL 4
REMARK VINA RESULT:    -3.794      2.589      6.867
REMARK INTER + INTRA:          -8.836
REMARK INTER:                  -7.251
REMARK INTRA:                  -1.585
REMARK UNBOUND:                -1.714
REMARK SMILES O=C([O-])CCCCCCCCCCCCCCC(=O)[O-]
REMARK SMILES IDX 10 1 9 2 8 3 7 4 6 5 5 6 4 7 2 8 1 9 3 10 11 11 12 12 13 13
REMARK SMILES IDX 14 14 15 15 16 16 17 17 18 18 19 19 20 20
REMARK H PARENT
REMARK Flexibility Score: inf
ROOT
ATOM      1  C   UNL     1      -7.187 -63.483  -4.994  1.00  0.00     0.000 C 
ENDROOT
BRANCH   1   2
ATOM      2  C   UNL     1      -5.679 -63.188  -4.987  1.00  0.00     0.000 C 
BRANCH   2   3
ATOM      3  C   UNL     1      -5.085 -63.147  -3.569  1.00  0.00     0.000 C 
BRANCH   3   4
ATOM      4  C   UNL     1      -4.889 -64.524  -2.901  1.00  0.00     0.000 C 
BRANCH   4   5
ATOM      5  C   UNL     1      -5.513 -64.668  -1.502  1.00  0.00     0.000 C 
BRANCH   5   6
ATOM      6  C   UNL     1      -6.798 -63.837  -1.334  1.00  0.00     0.006 C 
BRANCH   6   7
ATOM      7  C   UNL     1      -8.063 -64.690  -1.497  1.00  0.00     0.053 C 
BRANCH   7   8
ATOM      8  C   UNL     1      -8.951 -64.608  -0.293  1.00  0.00     0.041 C 
ATOM      9  O   UNL     1      -9.038 -65.584   0.498  1.00  0.00    -0.550 OA
ATOM     10  O   UNL     1      -9.705 -63.465  -0.060  1.00  0.00    -0.550 OA
ENDBRANCH   7   8
ENDBRANCH   6   7
ENDBRANCH   5   6
ENDBRANCH   4   5
ENDBRANCH   3   4
ENDBRANCH   2   3
ENDBRANCH   1   2
BRANCH   1  11
ATOM     11  C   UNL     1      -7.849 -62.927  -6.260  1.00  0.00     0.000 C 
BRANCH  11  12
ATOM     12  C   UNL     1      -8.930 -63.885  -6.783  1.00  0.00     0.000 C 
BRANCH  12  13
ATOM     13  C   UNL     1      -8.514 -64.567  -8.104  1.00  0.00     0.000 C 
BRANCH  13  14
ATOM     14  C   UNL     1      -6.996 -64.562  -8.349  1.00  0.00     0.000 C 
BRANCH  14  15
ATOM     15  C   UNL     1      -6.346 -65.929  -8.095  1.00  0.00     0.000 C 
BRANCH  15  16
ATOM     16  C   UNL     1      -4.947 -65.769  -7.489  1.00  0.00     0.006 C 
BRANCH  16  17
ATOM     17  C   UNL     1      -4.587 -66.974  -6.614  1.00  0.00     0.053 C 
BRANCH  17  18
ATOM     18  C   UNL     1      -3.387 -66.671  -5.774  1.00  0.00     0.041 C 
ATOM     19  O   UNL     1      -2.570 -65.782  -6.133  1.00  0.00    -0.550 OA
ATOM     20  O   UNL     1      -3.193 -67.338  -4.571  1.00  0.00    -0.550 OA
ENDBRANCH  17  18
ENDBRANCH  16  17
ENDBRANCH  15  16
ENDBRANCH  14  15
ENDBRANCH  13  14
ENDBRANCH  12  13
ENDBRANCH  11  12
ENDBRANCH   1  11
TORSDOF 15
ENDMDL
MODEL 5
REMARK VINA RESULT:    -3.776      3.514      6.964
REMARK INTER + INTRA:          -8.803
REMARK INTER:                  -7.025
REMARK INTRA:                  -1.778
REMARK UNBOUND:                -1.714
REMARK SMILES O=C([O-])CCCCCCCCCCCCCCC(=O)[O-]
REMARK SMILES IDX 10 1 9 2 8 3 7 4 6 5 5 6 4 7 2 8 1 9 3 10 11 11 12 12 13 13
REMARK SMILES IDX 14 14 15 15 16 16 17 17 18 18 19 19 20 20
REMARK H PARENT
REMARK Flexibility Score: inf
ROOT
ATOM      1  C   UNL     1      -4.503 -67.793  -5.802  1.00  0.00     0.000 C 
ENDROOT
BRANCH   1   2
ATOM      2  C   UNL     1      -3.818 -66.993  -4.684  1.00  0.00     0.000 C 
BRANCH   2   3
ATOM      3  C   UNL     1      -4.618 -66.996  -3.370  1.00  0.00     0.000 C 
BRANCH   3   4
ATOM      4  C   UNL     1      -4.926 -65.601  -2.788  1.00  0.00     0.000 C 
BRANCH   4   5
ATOM      5  C   UNL     1      -3.820 -64.550  -2.985  1.00  0.00     0.000 C 
BRANCH   5   6
ATOM      6  C   UNL     1      -4.283 -63.346  -3.823  1.00  0.00     0.006 C 
BRANCH   6   7
ATOM      7  C   UNL     1      -5.810 -63.294  -3.966  1.00  0.00     0.053 C 
BRANCH   7   8
ATOM      8  C   UNL     1      -6.262 -62.060  -4.686  1.00  0.00     0.041 C 
ATOM      9  O   UNL     1      -5.418 -61.299  -5.230  1.00  0.00    -0.550 OA
ATOM     10  O   UNL     1      -7.611 -61.733  -4.729  1.00  0.00    -0.550 OA
ENDBRANCH   7   8
ENDBRANCH   6   7
ENDBRANCH   5   6
ENDBRANCH   4   5
ENDBRANCH   3   4
ENDBRANCH   2   3
ENDBRANCH   1   2
BRANCH   1  11
ATOM     11  C   UNL     1      -4.719 -66.924  -7.046  1.00  0.00     0.000 C 
BRANCH  11  12
ATOM     12  C   UNL     1      -4.536 -65.434  -6.717  1.00  0.00     0.000 C 
BRANCH  12  13
ATOM     13  C   UNL     1      -3.803 -64.674  -7.844  1.00  0.00     0.000 C 
BRANCH  13  14
ATOM     14  C   UNL     1      -3.657 -63.167  -7.577  1.00  0.00     0.000 C 
BRANCH  14  15
ATOM     15  C   UNL     1      -2.198 -62.691  -7.623  1.00  0.00     0.000 C 
BRANCH  15  16
ATOM     16  C   UNL     1      -1.501 -62.918  -6.277  1.00  0.00     0.006 C 
BRANCH  16  17
ATOM     17  C   UNL     1       0.020 -62.965  -6.448  1.00  0.00     0.053 C 
BRANCH  17  18
ATOM     18  C   UNL     1       0.482 -64.374  -6.645  1.00  0.00     0.041 C 
ATOM     19  O   UNL     1       0.182 -64.998  -7.697  1.00  0.00    -0.550 OA
ATOM     20  O   UNL     1       1.284 -64.983  -5.688  1.00  0.00    -0.550 OA
ENDBRANCH  17  18
ENDBRANCH  16  17
ENDBRANCH  15  16
ENDBRANCH  14  15
ENDBRANCH  13  14
ENDBRANCH  12  13
ENDBRANCH  11  12
ENDBRANCH   1  11
TORSDOF 15
ENDMDL
MODEL 6
REMARK VINA RESULT:    -3.701      2.975      7.261
REMARK INTER + INTRA:          -8.660
REMARK INTER:                  -6.884
REMARK INTRA:                  -1.776
REMARK UNBOUND:                -1.714
REMARK SMILES O=C([O-])CCCCCCCCCCCCCCC(=O)[O-]
REMARK SMILES IDX 10 1 9 2 8 3 7 4 6 5 5 6 4 7 2 8 1 9 3 10 11 11 12 12 13 13
REMARK SMILES IDX 14 14 15 15 16 16 17 17 18 18 19 19 20 20
REMARK H PARENT
REMARK Flexibility Score: inf
ROOT
ATOM      1  C   UNL     1      -4.284 -64.726  -0.138  1.00  0.00     0.000 C 
ENDROOT
BRANCH   1   2
ATOM      2  C   UNL     1      -3.866 -64.751   1.340  1.00  0.00     0.000 C 
BRANCH   2   3
ATOM      3  C   UNL     1      -3.872 -66.168   1.939  1.00  0.00     0.000 C 
BRANCH   3   4
ATOM      4  C   UNL     1      -5.057 -66.480   2.874  1.00  0.00     0.000 C 
BRANCH   4   5
ATOM      5  C   UNL     1      -5.969 -65.283   3.196  1.00  0.00     0.000 C 
BRANCH   5   6
ATOM      6  C   UNL     1      -7.379 -65.428   2.596  1.00  0.00     0.006 C 
BRANCH   6   7
ATOM      7  C   UNL     1      -7.984 -64.073   2.205  1.00  0.00     0.053 C 
BRANCH   7   8
ATOM      8  C   UNL     1      -9.047 -64.218   1.159  1.00  0.00     0.041 C 
ATOM      9  O   UNL     1      -9.184 -65.307   0.542  1.00  0.00    -0.550 OA
ATOM     10  O   UNL     1      -9.865 -63.140   0.843  1.00  0.00    -0.550 OA
ENDBRANCH   7   8
ENDBRANCH   6   7
ENDBRANCH   5   6
ENDBRANCH   4   5
ENDBRANCH   3   4
ENDBRANCH   2   3
ENDBRANCH   1   2
BRANCH   1  11
ATOM     11  C   UNL     1      -5.510 -63.828  -0.346  1.00  0.00     0.000 C 
BRANCH  11  12
ATOM     12  C   UNL     1      -6.434 -64.400  -1.432  1.00  0.00     0.000 C 
BRANCH  12  13
ATOM     13  C   UNL     1      -6.966 -63.304  -2.380  1.00  0.00     0.000 C 
BRANCH  13  14
ATOM     14  C   UNL     1      -5.949 -62.864  -3.446  1.00  0.00     0.000 C 
BRANCH  14  15
ATOM     15  C   UNL     1      -5.726 -63.924  -4.533  1.00  0.00     0.000 C 
BRANCH  15  16
ATOM     16  C   UNL     1      -4.279 -64.432  -4.519  1.00  0.00     0.006 C 
BRANCH  16  17
ATOM     17  C   UNL     1      -4.203 -65.854  -3.953  1.00  0.00     0.053 C 
BRANCH  17  18
ATOM     18  C   UNL     1      -3.771 -66.816  -5.014  1.00  0.00     0.041 C 
ATOM     19  O   UNL     1      -2.730 -67.509  -4.856  1.00  0.00    -0.550 OA
ATOM     20  O   UNL     1      -4.543 -66.984  -6.157  1.00  0.00    -0.550 OA
ENDBRANCH  17  18
ENDBRANCH  16  17
ENDBRANCH  15  16
ENDBRANCH  14  15
ENDBRANCH  13  14
ENDBRANCH  12  13
ENDBRANCH  11  12
ENDBRANCH   1  11
TORSDOF 15
ENDMDL
MODEL 7
REMARK VINA RESULT:    -3.635      4.091      6.422
REMARK INTER + INTRA:          -8.537
REMARK INTER:                  -6.644
REMARK INTRA:                  -1.893
REMARK UNBOUND:                -1.714
REMARK SMILES O=C([O-])CCCCCCCCCCCCCCC(=O)[O-]
REMARK SMILES IDX 10 1 9 2 8 3 7 4 6 5 5 6 4 7 2 8 1 9 3 10 11 11 12 12 13 13
REMARK SMILES IDX 14 14 15 15 16 16 17 17 18 18 19 19 20 20
REMARK H PARENT
REMARK Flexibility Score: inf
ROOT
ATOM      1  C   UNL     1      -4.740 -65.826  -3.855  1.00  0.00     0.000 C 
ENDROOT
BRANCH   1   2
ATOM      2  C   UNL     1      -3.824 -64.701  -3.351  1.00  0.00     0.000 C 
BRANCH   2   3
ATOM      3  C   UNL     1      -3.953 -63.410  -4.179  1.00  0.00     0.000 C 
BRANCH   3   4
ATOM      4  C   UNL     1      -2.653 -62.937  -4.860  1.00  0.00     0.000 C 
BRANCH   4   5
ATOM      5  C   UNL     1      -2.670 -62.969  -6.398  1.00  0.00     0.000 C 
BRANCH   5   6
ATOM      6  C   UNL     1      -1.305 -62.621  -7.018  1.00  0.00     0.006 C 
BRANCH   6   7
ATOM      7  C   UNL     1      -0.137 -63.063  -6.127  1.00  0.00     0.053 C 
BRANCH   7   8
ATOM      8  C   UNL     1       0.400 -64.402  -6.533  1.00  0.00     0.041 C 
ATOM      9  O   UNL     1       1.191 -65.023  -5.775  1.00  0.00    -0.550 OA
ATOM     10  O   UNL     1       0.051 -64.949  -7.761  1.00  0.00    -0.550 OA
ENDBRANCH   7   8
ENDBRANCH   6   7
ENDBRANCH   5   6
ENDBRANCH   4   5
ENDBRANCH   3   4
ENDBRANCH   2   3
ENDBRANCH   1   2
BRANCH   1  11
ATOM     11  C   UNL     1      -3.921 -66.966  -4.472  1.00  0.00     0.000 C 
BRANCH  11  12
ATOM     12  C   UNL     1      -4.495 -67.382  -5.835  1.00  0.00     0.000 C 
BRANCH  12  13
ATOM     13  C   UNL     1      -4.358 -66.265  -6.891  1.00  0.00     0.000 C 
BRANCH  13  14
ATOM     14  C   UNL     1      -5.420 -66.332  -8.001  1.00  0.00     0.000 C 
BRANCH  14  15
ATOM     15  C   UNL     1      -6.599 -65.379  -7.757  1.00  0.00     0.000 C 
BRANCH  15  16
ATOM     16  C   UNL     1      -6.175 -64.186  -6.893  1.00  0.00     0.006 C 
BRANCH  16  17
ATOM     17  C   UNL     1      -7.391 -63.519  -6.245  1.00  0.00     0.053 C 
BRANCH  17  18
ATOM     18  C   UNL     1      -8.027 -62.554  -7.195  1.00  0.00     0.041 C 
ATOM     19  O   UNL     1      -7.462 -61.459  -7.459  1.00  0.00    -0.550 OA
ATOM     20  O   UNL     1      -9.220 -62.883  -7.826  1.00  0.00    -0.550 OA
ENDBRANCH  17  18
ENDBRANCH  16  17
ENDBRANCH  15  16
ENDBRANCH  14  15
ENDBRANCH  13  14
ENDBRANCH  12  13
ENDBRANCH  11  12
ENDBRANCH   1  11
TORSDOF 15
ENDMDL
MODEL 8
REMARK VINA RESULT:    -3.620      4.611      6.863
REMARK INTER + INTRA:          -8.510
REMARK INTER:                  -6.172
REMARK INTRA:                  -2.337
REMARK UNBOUND:                -1.714
REMARK SMILES O=C([O-])CCCCCCCCCCCCCCC(=O)[O-]
REMARK SMILES IDX 10 1 9 2 8 3 7 4 6 5 5 6 4 7 2 8 1 9 3 10 11 11 12 12 13 13
REMARK SMILES IDX 14 14 15 15 16 16 17 17 18 18 19 19 20 20
REMARK H PARENT
REMARK Flexibility Score: inf
ROOT
ATOM      1  C   UNL     1      -6.219 -62.981  -3.303  1.00  0.00     0.000 C 
ENDROOT
BRANCH   1   2
ATOM      2  C   UNL     1      -5.228 -64.014  -3.861  1.00  0.00     0.000 C 
BRANCH   2   3
ATOM      3  C   UNL     1      -3.800 -63.824  -3.320  1.00  0.00     0.000 C 
BRANCH   3   4
ATOM      4  C   UNL     1      -2.737 -63.478  -4.383  1.00  0.00     0.000 C 
BRANCH   4   5
ATOM      5  C   UNL     1      -3.293 -62.933  -5.711  1.00  0.00     0.000 C 
BRANCH   5   6
ATOM      6  C   UNL     1      -2.321 -63.129  -6.889  1.00  0.00     0.006 C 
BRANCH   6   7
ATOM      7  C   UNL     1      -1.560 -64.458  -6.796  1.00  0.00     0.053 C 
BRANCH   7   8
ATOM      8  C   UNL     1      -0.076 -64.251  -6.775  1.00  0.00     0.041 C 
ATOM      9  O   UNL     1       0.433 -63.260  -7.363  1.00  0.00    -0.550 OA
ATOM     10  O   UNL     1       0.747 -65.168  -6.135  1.00  0.00    -0.550 OA
ENDBRANCH   7   8
ENDBRANCH   6   7
ENDBRANCH   5   6
ENDBRANCH   4   5
ENDBRANCH   3   4
ENDBRANCH   2   3
ENDBRANCH   1   2
BRANCH   1  11
ATOM     11  C   UNL     1      -6.932 -62.236  -4.438  1.00  0.00     0.000 C 
BRANCH  11  12
ATOM     12  C   UNL     1      -7.165 -63.159  -5.643  1.00  0.00     0.000 C 
BRANCH  12  13
ATOM     13  C   UNL     1      -6.729 -62.505  -6.971  1.00  0.00     0.000 C 
BRANCH  13  14
ATOM     14  C   UNL     1      -6.299 -63.517  -8.046  1.00  0.00     0.000 C 
BRANCH  14  15
ATOM     15  C   UNL     1      -6.461 -64.975  -7.593  1.00  0.00     0.000 C 
BRANCH  15  16
ATOM     16  C   UNL     1      -5.101 -65.674  -7.487  1.00  0.00     0.006 C 
BRANCH  16  17
ATOM     17  C   UNL     1      -4.936 -66.350  -6.123  1.00  0.00     0.053 C 
BRANCH  17  18
ATOM     18  C   UNL     1      -3.819 -67.345  -6.164  1.00  0.00     0.041 C 
ATOM     19  O   UNL     1      -2.866 -67.260  -5.345  1.00  0.00    -0.550 OA
ATOM     20  O   UNL     1      -3.853 -68.393  -7.075  1.00  0.00    -0.550 OA
ENDBRANCH  17  18
ENDBRANCH  16  17
ENDBRANCH  15  16
ENDBRANCH  14  15
ENDBRANCH  13  14
ENDBRANCH  12  13
ENDBRANCH  11  12
ENDBRANCH   1  11
TORSDOF 15
ENDMDL
MODEL 9
REMARK VINA RESULT:    -3.600     14.028     16.064
REMARK INTER + INTRA:          -8.471
REMARK INTER:                  -6.176
REMARK INTRA:                  -2.294
REMARK UNBOUND:                -1.714
REMARK SMILES O=C([O-])CCCCCCCCCCCCCCC(=O)[O-]
REMARK SMILES IDX 10 1 9 2 8 3 7 4 6 5 5 6 4 7 2 8 1 9 3 10 11 11 12 12 13 13
REMARK SMILES IDX 14 14 15 15 16 16 17 17 18 18 19 19 20 20
REMARK H PARENT
REMARK Flexibility Score: inf
ROOT
ATOM      1  C   UNL     1     -16.686 -72.779  -7.839  1.00  0.00     0.000 C 
ENDROOT
BRANCH   1   2
ATOM      2  C   UNL     1     -17.827 -72.836  -6.813  1.00  0.00     0.000 C 
BRANCH   2   3
ATOM      3  C   UNL     1     -17.820 -74.131  -5.982  1.00  0.00     0.000 C 
BRANCH   3   4
ATOM      4  C   UNL     1     -16.750 -75.164  -6.389  1.00  0.00     0.000 C 
BRANCH   4   5
ATOM      5  C   UNL     1     -17.294 -76.450  -7.036  1.00  0.00     0.000 C 
BRANCH   5   6
ATOM      6  C   UNL     1     -16.179 -77.426  -7.453  1.00  0.00     0.006 C 
BRANCH   6   7
ATOM      7  C   UNL     1     -14.826 -77.058  -6.831  1.00  0.00     0.053 C 
BRANCH   7   8
ATOM      8  C   UNL     1     -13.721 -77.084  -7.843  1.00  0.00     0.041 C 
ATOM      9  O   UNL     1     -13.846 -77.757  -8.900  1.00  0.00    -0.550 OA
ATOM     10  O   UNL     1     -12.542 -76.390  -7.605  1.00  0.00    -0.550 OA
ENDBRANCH   7   8
ENDBRANCH   6   7
ENDBRANCH   5   6
ENDBRANCH   4   5
ENDBRANCH   3   4
ENDBRANCH   2   3
ENDBRANCH   1   2
BRANCH   1  11
ATOM     11  C   UNL     1     -17.234 -72.622  -9.262  1.00  0.00     0.000 C 
BRANCH  11  12
ATOM     12  C   UNL     1     -18.043 -73.859  -9.681  1.00  0.00     0.000 C 
BRANCH  12  13
ATOM     13  C   UNL     1     -17.330 -74.675 -10.780  1.00  0.00     0.000 C 
BRANCH  13  14
ATOM     14  C   UNL     1     -15.985 -75.270 -10.332  1.00  0.00     0.000 C 
BRANCH  14  15
ATOM     15  C   UNL     1     -14.953 -75.335 -11.466  1.00  0.00     0.000 C 
BRANCH  15  16
ATOM     16  C   UNL     1     -13.609 -74.743 -11.024  1.00  0.00     0.006 C 
BRANCH  16  17
ATOM     17  C   UNL     1     -13.754 -73.979  -9.705  1.00  0.00     0.053 C 
BRANCH  17  18
ATOM     18  C   UNL     1     -12.844 -72.793  -9.684  1.00  0.00     0.041 C 
ATOM     19  O   UNL     1     -13.145 -71.751 -10.326  1.00  0.00    -0.550 OA
ATOM     20  O   UNL     1     -11.684 -72.819  -8.920  1.00  0.00    -0.550 OA
ENDBRANCH  17  18
ENDBRANCH  16  17
ENDBRANCH  15  16
ENDBRANCH  14  15
ENDBRANCH  13  14
ENDBRANCH  12  13
ENDBRANCH  11  12
ENDBRANCH   1  11
TORSDOF 15
ENDMDL
