MODEL 1
REMARK VINA RESULT:     2.664      0.000      0.000
REMARK INTER + INTRA:           2.729
REMARK INTER:                   3.365
REMARK INTRA:                  -0.636
REMARK UNBOUND:                -0.636
REMARK SMILES O=C(C=Cc1ccc(O)cc1)c1ccc(O)cc1O
REMARK SMILES IDX 4 1 3 2 5 3 6 4 7 5 8 6 11 7 10 8 9 9 2 11 1 12 12 13 18 14
REMARK SMILES IDX 13 15 17 16 14 17 15 18 19 19 16 21
REMARK H PARENT 9 10 19 20 16 22
REMARK Flexibility Score: inf
ROOT
ATOM      1  C   UNL     1      19.043  22.062   9.515  1.00  0.00     0.012 C 
ATOM      2  C   UNL     1      19.074  21.646  10.791  1.00  0.00     0.053 C 
ENDROOT
BRANCH   1   3
ATOM      3  C   UNL     1      17.865  21.914   8.626  1.00  0.00    -0.025 A 
ATOM      4  C   UNL     1      17.702  22.667   7.446  1.00  0.00     0.012 A 
ATOM      5  C   UNL     1      16.566  22.496   6.648  1.00  0.00     0.047 A 
ATOM      6  C   UNL     1      15.575  21.578   7.019  1.00  0.00     0.115 A 
ATOM      7  C   UNL     1      16.857  21.007   8.995  1.00  0.00     0.012 A 
ATOM      8  C   UNL     1      15.723  20.838   8.195  1.00  0.00     0.047 A 
BRANCH   6   9
ATOM      9  O   UNL     1      14.441  21.400   6.231  1.00  0.00    -0.508 OA
ATOM     10  H   UNL     1      14.096  22.134   5.624  1.00  0.00     0.293 HD
ENDBRANCH   6   9
ENDBRANCH   1   3
BRANCH   2  11
ATOM     11  C   UNL     1      20.262  21.806  11.656  1.00  0.00     0.189 C 
ATOM     12  O   UNL     1      21.124  20.888  11.660  1.00  0.00    -0.289 OA
BRANCH  11  13
ATOM     13  C   UNL     1      20.486  22.997  12.509  1.00  0.00     0.064 A 
ATOM     14  C   UNL     1      20.833  22.872  13.870  1.00  0.00     0.130 A 
ATOM     15  C   UNL     1      20.390  24.277  11.938  1.00  0.00     0.020 A 
ATOM     16  C   UNL     1      21.036  24.023  14.646  1.00  0.00     0.093 A 
ATOM     17  C   UNL     1      20.599  25.417  12.718  1.00  0.00     0.047 A 
ATOM     18  C   UNL     1      20.919  25.293  14.074  1.00  0.00     0.119 A 
BRANCH  14  19
ATOM     19  O   UNL     1      20.995  21.612  14.444  1.00  0.00    -0.507 OA
ATOM     20  H   UNL     1      21.173  20.789  13.879  1.00  0.00     0.293 HD
ENDBRANCH  14  19
BRANCH  18  21
ATOM     21  O   UNL     1      21.124  26.423  14.861  1.00  0.00    -0.508 OA
ATOM     22  H   UNL     1      21.929  27.024  14.727  1.00  0.00     0.293 HD
ENDBRANCH  18  21
ENDBRANCH  11  13
ENDBRANCH   2  11
TORSDOF 6
ENDMDL
MODEL 2
REMARK VINA RESULT:     2.952      1.203      2.081
REMARK INTER + INTRA:           3.093
REMARK INTER:                   3.456
REMARK INTRA:                  -0.362
REMARK UNBOUND:                -0.636
REMARK SMILES O=C(C=Cc1ccc(O)cc1)c1ccc(O)cc1O
REMARK SMILES IDX 4 1 3 2 5 3 6 4 7 5 8 6 11 7 10 8 9 9 2 11 1 12 12 13 18 14
REMARK SMILES IDX 13 15 17 16 14 17 15 18 19 19 16 21
REMARK H PARENT 9 10 19 20 16 22
REMARK Flexibility Score: inf
ROOT
ATOM      1  C   UNL     1      18.345  21.398   9.591  1.00  0.00     0.012 C 
ATOM      2  C   UNL     1      19.194  22.405   9.850  1.00  0.00     0.053 C 
ENDROOT
BRANCH   1   3
ATOM      3  C   UNL     1      17.215  21.495   8.636  1.00  0.00    -0.025 A 
ATOM      4  C   UNL     1      16.022  20.760   8.790  1.00  0.00     0.012 A 
ATOM      5  C   UNL     1      14.990  20.880   7.855  1.00  0.00     0.047 A 
ATOM      6  C   UNL     1      15.136  21.728   6.749  1.00  0.00     0.115 A 
ATOM      7  C   UNL     1      17.355  22.330   7.514  1.00  0.00     0.012 A 
ATOM      8  C   UNL     1      16.321  22.449   6.581  1.00  0.00     0.047 A 
BRANCH   6   9
ATOM      9  O   UNL     1      14.113  21.856   5.812  1.00  0.00    -0.508 OA
ATOM     10  H   UNL     1      13.451  22.622   5.850  1.00  0.00     0.293 HD
ENDBRANCH   6   9
ENDBRANCH   1   3
BRANCH   2  11
ATOM     11  C   UNL     1      20.313  22.283  10.807  1.00  0.00     0.189 C 
ATOM     12  O   UNL     1      21.118  21.324  10.664  1.00  0.00    -0.289 OA
BRANCH  11  13
ATOM     13  C   UNL     1      20.534  23.238  11.918  1.00  0.00     0.064 A 
ATOM     14  C   UNL     1      20.924  24.572  11.676  1.00  0.00     0.130 A 
ATOM     15  C   UNL     1      20.310  22.816  13.239  1.00  0.00     0.020 A 
ATOM     16  C   UNL     1      21.125  25.446  12.755  1.00  0.00     0.093 A 
ATOM     17  C   UNL     1      20.508  23.696  14.307  1.00  0.00     0.047 A 
ATOM     18  C   UNL     1      20.919  25.012  14.067  1.00  0.00     0.119 A 
BRANCH  14  19
ATOM     19  O   UNL     1      21.092  25.031  10.370  1.00  0.00    -0.507 OA
ATOM     20  H   UNL     1      21.980  25.395  10.044  1.00  0.00     0.293 HD
ENDBRANCH  14  19
BRANCH  18  21
ATOM     21  O   UNL     1      21.124  25.895  15.123  1.00  0.00    -0.508 OA
ATOM     22  H   UNL     1      21.260  25.565  16.072  1.00  0.00     0.293 HD
ENDBRANCH  18  21
ENDBRANCH  11  13
ENDBRANCH   2  11
TORSDOF 6
ENDMDL
MODEL 3
REMARK VINA RESULT:     3.587     12.400     16.243
REMARK INTER + INTRA:           3.894
REMARK INTER:                   4.289
REMARK INTRA:                  -0.395
REMARK UNBOUND:                -0.636
REMARK SMILES O=C(C=Cc1ccc(O)cc1)c1ccc(O)cc1O
REMARK SMILES IDX 4 1 3 2 5 3 6 4 7 5 8 6 11 7 10 8 9 9 2 11 1 12 12 13 18 14
REMARK SMILES IDX 13 15 17 16 14 17 15 18 19 19 16 21
REMARK H PARENT 9 10 19 20 16 22
REMARK Flexibility Score: inf
ROOT
ATOM      1  C   UNL     1      13.783  21.949  -2.322  1.00  0.00     0.012 C 
ATOM      2  C   UNL     1      14.493  21.130  -3.114  1.00  0.00     0.053 C 
ENDROOT
BRANCH   1   3
ATOM      3  C   UNL     1      14.311  23.214  -1.758  1.00  0.00    -0.025 A 
ATOM      4  C   UNL     1      15.200  23.248  -0.664  1.00  0.00     0.012 A 
ATOM      5  C   UNL     1      15.660  24.470  -0.163  1.00  0.00     0.047 A 
ATOM      6  C   UNL     1      15.235  25.674  -0.741  1.00  0.00     0.115 A 
ATOM      7  C   UNL     1      13.880  24.429  -2.318  1.00  0.00     0.012 A 
ATOM      8  C   UNL     1      14.343  25.649  -1.816  1.00  0.00     0.047 A 
BRANCH   6   9
ATOM      9  O   UNL     1      15.689  26.896  -0.250  1.00  0.00    -0.508 OA
ATOM     10  H   UNL     1      15.080  27.705  -0.197  1.00  0.00     0.293 HD
ENDBRANCH   6   9
ENDBRANCH   1   3
BRANCH   2  11
ATOM     11  C   UNL     1      13.943  19.873  -3.664  1.00  0.00     0.189 C 
ATOM     12  O   UNL     1      14.751  18.990  -4.058  1.00  0.00    -0.289 OA
BRANCH  11  13
ATOM     13  C   UNL     1      12.490  19.603  -3.765  1.00  0.00     0.064 A 
ATOM     14  C   UNL     1      11.734  19.210  -2.641  1.00  0.00     0.130 A 
ATOM     15  C   UNL     1      11.843  19.784  -4.999  1.00  0.00     0.020 A 
ATOM     16  C   UNL     1      10.359  18.962  -2.777  1.00  0.00     0.093 A 
ATOM     17  C   UNL     1      10.473  19.540  -5.123  1.00  0.00     0.047 A 
ATOM     18  C   UNL     1       9.729  19.125  -4.013  1.00  0.00     0.119 A 
BRANCH  14  19
ATOM     19  O   UNL     1      12.341  19.084  -1.392  1.00  0.00    -0.507 OA
ATOM     20  H   UNL     1      11.806  18.867  -0.559  1.00  0.00     0.293 HD
ENDBRANCH  14  19
BRANCH  18  21
ATOM     21  O   UNL     1       8.364  18.875  -4.127  1.00  0.00    -0.508 OA
ATOM     22  H   UNL     1       7.741  19.531  -4.583  1.00  0.00     0.293 HD
ENDBRANCH  18  21
ENDBRANCH  11  13
ENDBRANCH   2  11
TORSDOF 6
ENDMDL
MODEL 4
REMARK VINA RESULT:     4.522      7.348     13.447
REMARK INTER + INTRA:           5.076
REMARK INTER:                   5.445
REMARK INTRA:                  -0.369
REMARK UNBOUND:                -0.636
REMARK SMILES O=C(C=Cc1ccc(O)cc1)c1ccc(O)cc1O
REMARK SMILES IDX 4 1 3 2 5 3 6 4 7 5 8 6 11 7 10 8 9 9 2 11 1 12 12 13 18 14
REMARK SMILES IDX 13 15 17 16 14 17 15 18 19 19 16 21
REMARK H PARENT 9 10 19 20 16 22
REMARK Flexibility Score: inf
ROOT
ATOM      1  C   UNL     1      12.697  22.529   2.605  1.00  0.00     0.012 C 
ATOM      2  C   UNL     1      13.268  22.247   1.423  1.00  0.00     0.053 C 
ENDROOT
BRANCH   1   3
ATOM      3  C   UNL     1      13.253  22.104   3.912  1.00  0.00    -0.025 A 
ATOM      4  C   UNL     1      12.929  20.870   4.512  1.00  0.00     0.012 A 
ATOM      5  C   UNL     1      13.473  20.522   5.753  1.00  0.00     0.047 A 
ATOM      6  C   UNL     1      14.340  21.402   6.415  1.00  0.00     0.115 A 
ATOM      7  C   UNL     1      14.111  22.984   4.594  1.00  0.00     0.012 A 
ATOM      8  C   UNL     1      14.654  22.632   5.833  1.00  0.00     0.047 A 
BRANCH   6   9
ATOM      9  O   UNL     1      14.888  21.064   7.650  1.00  0.00    -0.508 OA
ATOM     10  H   UNL     1      15.431  20.217   7.775  1.00  0.00     0.293 HD
ENDBRANCH   6   9
ENDBRANCH   1   3
BRANCH   2  11
ATOM     11  C   UNL     1      12.693  22.683   0.133  1.00  0.00     0.189 C 
ATOM     12  O   UNL     1      12.017  23.746   0.109  1.00  0.00    -0.289 OA
BRANCH  11  13
ATOM     13  C   UNL     1      12.881  21.932  -1.130  1.00  0.00     0.064 A 
ATOM     14  C   UNL     1      14.117  21.932  -1.810  1.00  0.00     0.130 A 
ATOM     15  C   UNL     1      11.817  21.169  -1.640  1.00  0.00     0.020 A 
ATOM     16  C   UNL     1      14.257  21.209  -3.004  1.00  0.00     0.093 A 
ATOM     17  C   UNL     1      11.967  20.449  -2.828  1.00  0.00     0.047 A 
ATOM     18  C   UNL     1      13.186  20.470  -3.514  1.00  0.00     0.119 A 
BRANCH  14  19
ATOM     19  O   UNL     1      15.207  22.630  -1.291  1.00  0.00    -0.507 OA
ATOM     20  H   UNL     1      15.366  23.607  -1.510  1.00  0.00     0.293 HD
ENDBRANCH  14  19
BRANCH  18  21
ATOM     21  O   UNL     1      13.344  19.759  -4.701  1.00  0.00    -0.508 OA
ATOM     22  H   UNL     1      13.308  18.747  -4.721  1.00  0.00     0.293 HD
ENDBRANCH  18  21
ENDBRANCH  11  13
ENDBRANCH   2  11
TORSDOF 6
ENDMDL
MODEL 5
REMARK VINA RESULT:     4.628      7.326     13.324
REMARK INTER + INTRA:           5.210
REMARK INTER:                   5.529
REMARK INTRA:                  -0.319
REMARK UNBOUND:                -0.636
REMARK SMILES O=C(C=Cc1ccc(O)cc1)c1ccc(O)cc1O
REMARK SMILES IDX 4 1 3 2 5 3 6 4 7 5 8 6 11 7 10 8 9 9 2 11 1 12 12 13 18 14
REMARK SMILES IDX 13 15 17 16 14 17 15 18 19 19 16 21
REMARK H PARENT 9 10 19 20 16 22
REMARK Flexibility Score: inf
ROOT
ATOM      1  C   UNL     1      12.676  22.532   2.673  1.00  0.00     0.012 C 
ATOM      2  C   UNL     1      13.291  22.344   1.495  1.00  0.00     0.053 C 
ENDROOT
BRANCH   1   3
ATOM      3  C   UNL     1      13.265  22.156   3.981  1.00  0.00    -0.025 A 
ATOM      4  C   UNL     1      14.143  22.999   4.692  1.00  0.00     0.012 A 
ATOM      5  C   UNL     1      14.679  22.591   5.917  1.00  0.00     0.047 A 
ATOM      6  C   UNL     1      14.352  21.336   6.448  1.00  0.00     0.115 A 
ATOM      7  C   UNL     1      12.957  20.893   4.516  1.00  0.00     0.012 A 
ATOM      8  C   UNL     1      13.493  20.489   5.743  1.00  0.00     0.047 A 
BRANCH   6   9
ATOM      9  O   UNL     1      14.879  20.922   7.668  1.00  0.00    -0.508 OA
ATOM     10  H   UNL     1      14.355  21.012   8.531  1.00  0.00     0.293 HD
ENDBRANCH   6   9
ENDBRANCH   1   3
BRANCH   2  11
ATOM     11  C   UNL     1      12.682  22.728   0.204  1.00  0.00     0.189 C 
ATOM     12  O   UNL     1      11.932  23.739   0.176  1.00  0.00    -0.289 OA
BRANCH  11  13
ATOM     13  C   UNL     1      12.921  21.983  -1.055  1.00  0.00     0.064 A 
ATOM     14  C   UNL     1      14.191  21.961  -1.668  1.00  0.00     0.130 A 
ATOM     15  C   UNL     1      11.869  21.250  -1.628  1.00  0.00     0.020 A 
ATOM     16  C   UNL     1      14.378  21.246  -2.860  1.00  0.00     0.093 A 
ATOM     17  C   UNL     1      12.065  20.537  -2.813  1.00  0.00     0.047 A 
ATOM     18  C   UNL     1      13.319  20.536  -3.434  1.00  0.00     0.119 A 
BRANCH  14  19
ATOM     19  O   UNL     1      15.267  22.630  -1.085  1.00  0.00    -0.507 OA
ATOM     20  H   UNL     1      16.226  22.389  -1.306  1.00  0.00     0.293 HD
ENDBRANCH  14  19
BRANCH  18  21
ATOM     21  O   UNL     1      13.524  19.832  -4.617  1.00  0.00    -0.508 OA
ATOM     22  H   UNL     1      12.748  19.499  -5.177  1.00  0.00     0.293 HD
ENDBRANCH  18  21
ENDBRANCH  11  13
ENDBRANCH   2  11
TORSDOF 6
ENDMDL
MODEL 6
REMARK VINA RESULT:     5.396      1.489      2.840
REMARK INTER + INTRA:           6.180
REMARK INTER:                   6.494
REMARK INTRA:                  -0.314
REMARK UNBOUND:                -0.636
REMARK SMILES O=C(C=Cc1ccc(O)cc1)c1ccc(O)cc1O
REMARK SMILES IDX 4 1 3 2 5 3 6 4 7 5 8 6 11 7 10 8 9 9 2 11 1 12 12 13 18 14
REMARK SMILES IDX 13 15 17 16 14 17 15 18 19 19 16 21
REMARK H PARENT 9 10 19 20 16 22
REMARK Flexibility Score: inf
ROOT
ATOM      1  C   UNL     1      18.213  22.238   9.351  1.00  0.00     0.012 C 
ATOM      2  C   UNL     1      19.221  23.035   8.962  1.00  0.00     0.053 C 
ENDROOT
BRANCH   1   3
ATOM      3  C   UNL     1      17.088  21.841   8.470  1.00  0.00    -0.025 A 
ATOM      4  C   UNL     1      16.241  20.752   8.762  1.00  0.00     0.012 A 
ATOM      5  C   UNL     1      15.200  20.413   7.892  1.00  0.00     0.047 A 
ATOM      6  C   UNL     1      14.994  21.148   6.717  1.00  0.00     0.115 A 
ATOM      7  C   UNL     1      16.881  22.561   7.281  1.00  0.00     0.012 A 
ATOM      8  C   UNL     1      15.839  22.219   6.414  1.00  0.00     0.047 A 
BRANCH   6   9
ATOM      9  O   UNL     1      13.960  20.819   5.845  1.00  0.00    -0.508 OA
ATOM     10  H   UNL     1      13.653  21.458   5.120  1.00  0.00     0.293 HD
ENDBRANCH   6   9
ENDBRANCH   1   3
BRANCH   2  11
ATOM     11  C   UNL     1      20.331  23.417   9.860  1.00  0.00     0.189 C 
ATOM     12  O   UNL     1      21.125  24.317   9.479  1.00  0.00    -0.289 OA
BRANCH  11  13
ATOM     13  C   UNL     1      20.547  22.794  11.188  1.00  0.00     0.064 A 
ATOM     14  C   UNL     1      20.868  23.570  12.322  1.00  0.00     0.130 A 
ATOM     15  C   UNL     1      20.387  21.406  11.328  1.00  0.00     0.020 A 
ATOM     16  C   UNL     1      21.066  22.945  13.562  1.00  0.00     0.093 A 
ATOM     17  C   UNL     1      20.581  20.792  12.568  1.00  0.00     0.047 A 
ATOM     18  C   UNL     1      20.924  21.560  13.687  1.00  0.00     0.119 A 
BRANCH  14  19
ATOM     19  O   UNL     1      20.970  24.957  12.220  1.00  0.00    -0.507 OA
ATOM     20  H   UNL     1      20.197  25.567  12.462  1.00  0.00     0.293 HD
ENDBRANCH  14  19
BRANCH  18  21
ATOM     21  O   UNL     1      21.125  20.958  14.926  1.00  0.00    -0.508 OA
ATOM     22  H   UNL     1      20.638  20.109  15.188  1.00  0.00     0.293 HD
ENDBRANCH  18  21
ENDBRANCH  11  13
ENDBRANCH   2  11
TORSDOF 6
ENDMDL
