MODEL 1
REMARK VINA RESULT:    18.446      0.000      0.000
REMARK INTER + INTRA:          32.789
REMARK INTER:                  33.542
REMARK INTRA:                  -0.753
REMARK UNBOUND:                -0.753
REMARK SMILES CCCCCCCCCCCCCCCC(=O)[O-]
REMARK SMILES IDX 9 1 10 2 11 3 12 4 13 5 14 6 15 7 16 8 17 9 18 10 8 11 7 12
REMARK SMILES IDX 6 13 5 14 4 15 3 16 2 17 1 18
REMARK H PARENT
REMARK Flexibility Score: inf
ROOT
ATOM      1  C   UNL     1     -37.421  27.743 -21.498  1.00  0.00     0.000 C 
ENDROOT
BRANCH   1   2
ATOM      2  C   UNL     1     -38.426  28.797 -21.977  1.00  0.00     0.000 C 
BRANCH   2   3
ATOM      3  C   UNL     1     -38.691  29.841 -20.885  1.00  0.00     0.000 C 
BRANCH   3   4
ATOM      4  C   UNL     1     -40.196  30.039 -20.666  1.00  0.00     0.000 C 
BRANCH   4   5
ATOM      5  C   UNL     1     -41.003  29.464 -21.839  1.00  0.00     0.000 C 
BRANCH   5   6
ATOM      6  C   UNL     1     -41.666  30.556 -22.694  1.00  0.00     0.006 C 
BRANCH   6   7
ATOM      7  C   UNL     1     -43.198  30.518 -22.619  1.00  0.00     0.053 C 
BRANCH   7   8
ATOM      8  C   UNL     1     -43.710  31.676 -21.823  1.00  0.00     0.041 C 
ATOM      9  O   UNL     1     -43.380  31.810 -20.614  1.00  0.00    -0.550 OA
ATOM     10  O   UNL     1     -44.588  32.585 -22.403  1.00  0.00    -0.550 OA
ENDBRANCH   7   8
ENDBRANCH   6   7
ENDBRANCH   5   6
ENDBRANCH   4   5
ENDBRANCH   3   4
ENDBRANCH   2   3
ENDBRANCH   1   2
BRANCH   1  11
ATOM     11  C   UNL     1     -37.952  26.325 -21.740  1.00  0.00     0.000 C 
BRANCH  11  12
ATOM     12  C   UNL     1     -37.293  25.320 -20.786  1.00  0.00    -0.000 C 
BRANCH  12  13
ATOM     13  C   UNL     1     -38.218  24.121 -20.526  1.00  0.00    -0.000 C 
BRANCH  13  14
ATOM     14  C   UNL     1     -37.491  22.941 -19.858  1.00  0.00    -0.000 C 
BRANCH  14  15
ATOM     15  C   UNL     1     -38.338  22.139 -18.848  1.00  0.00    -0.000 C 
BRANCH  15  16
ATOM     16  C   UNL     1     -39.489  22.923 -18.192  1.00  0.00    -0.000 C 
BRANCH  16  17
ATOM     17  C   UNL     1     -40.851  22.237 -18.364  1.00  0.00    -0.003 C 
ATOM     18  C   UNL     1     -41.928  22.941 -17.544  1.00  0.00     0.004 C 
ENDBRANCH  16  17
ENDBRANCH  15  16
ENDBRANCH  14  15
ENDBRANCH  13  14
ENDBRANCH  12  13
ENDBRANCH  11  12
ENDBRANCH   1  11
TORSDOF 14
ENDMDL
MODEL 2
REMARK VINA RESULT:    19.484      0.781      1.290
REMARK INTER + INTRA:          34.678
REMARK INTER:                  33.895
REMARK INTRA:                   0.784
REMARK UNBOUND:                -0.753
REMARK SMILES CCCCCCCCCCCCCCCC(=O)[O-]
REMARK SMILES IDX 9 1 10 2 11 3 12 4 13 5 14 6 15 7 16 8 17 9 18 10 8 11 7 12
REMARK SMILES IDX 6 13 5 14 4 15 3 16 2 17 1 18
REMARK H PARENT
REMARK Flexibility Score: inf
ROOT
ATOM      1  C   UNL     1     -38.389  26.196 -21.980  1.00  0.00     0.000 C 
ENDROOT
BRANCH   1   2
ATOM      2  C   UNL     1     -37.687  27.515 -22.323  1.00  0.00     0.000 C 
BRANCH   2   3
ATOM      3  C   UNL     1     -37.748  28.494 -21.144  1.00  0.00     0.000 C 
BRANCH   3   4
ATOM      4  C   UNL     1     -38.748  29.624 -21.416  1.00  0.00     0.000 C 
BRANCH   4   5
ATOM      5  C   UNL     1     -40.164  29.066 -21.628  1.00  0.00     0.000 C 
BRANCH   5   6
ATOM      6  C   UNL     1     -41.260  30.048 -21.186  1.00  0.00     0.006 C 
BRANCH   6   7
ATOM      7  C   UNL     1     -42.064  30.607 -22.367  1.00  0.00     0.053 C 
BRANCH   7   8
ATOM      8  C   UNL     1     -43.223  31.414 -21.873  1.00  0.00     0.041 C 
ATOM      9  O   UNL     1     -43.338  31.670 -20.644  1.00  0.00    -0.550 OA
ATOM     10  O   UNL     1     -44.199  31.847 -22.762  1.00  0.00    -0.550 OA
ENDBRANCH   7   8
ENDBRANCH   6   7
ENDBRANCH   5   6
ENDBRANCH   4   5
ENDBRANCH   3   4
ENDBRANCH   2   3
ENDBRANCH   1   2
BRANCH   1  11
ATOM     11  C   UNL     1     -37.621  25.428 -20.898  1.00  0.00     0.000 C 
BRANCH  11  12
ATOM     12  C   UNL     1     -38.098  23.973 -20.812  1.00  0.00    -0.000 C 
BRANCH  12  13
ATOM     13  C   UNL     1     -38.463  23.598 -19.368  1.00  0.00    -0.000 C 
BRANCH  13  14
ATOM     14  C   UNL     1     -37.827  22.271 -18.917  1.00  0.00    -0.000 C 
BRANCH  14  15
ATOM     15  C   UNL     1     -38.765  21.047 -18.961  1.00  0.00    -0.000 C 
BRANCH  15  16
ATOM     16  C   UNL     1     -40.258  21.361 -18.753  1.00  0.00    -0.000 C 
BRANCH  16  17
ATOM     17  C   UNL     1     -40.498  22.769 -18.191  1.00  0.00    -0.003 C 
ATOM     18  C   UNL     1     -41.886  22.882 -17.567  1.00  0.00     0.004 C 
ENDBRANCH  16  17
ENDBRANCH  15  16
ENDBRANCH  14  15
ENDBRANCH  13  14
ENDBRANCH  12  13
ENDBRANCH  11  12
ENDBRANCH   1  11
TORSDOF 14
ENDMDL
MODEL 3
REMARK VINA RESULT:    20.394      4.517      6.507
REMARK INTER + INTRA:          36.333
REMARK INTER:                  37.313
REMARK INTRA:                  -0.980
REMARK UNBOUND:                -0.753
REMARK SMILES CCCCCCCCCCCCCCCC(=O)[O-]
REMARK SMILES IDX 9 1 10 2 11 3 12 4 13 5 14 6 15 7 16 8 17 9 18 10 8 11 7 12
REMARK SMILES IDX 6 13 5 14 4 15 3 16 2 17 1 18
REMARK H PARENT
REMARK Flexibility Score: inf
ROOT
ATOM      1  C   UNL     1     -36.873  30.463 -23.852  1.00  0.00     0.000 C 
ENDROOT
BRANCH   1   2
ATOM      2  C   UNL     1     -35.622  30.887 -24.628  1.00  0.00     0.000 C 
BRANCH   2   3
ATOM      3  C   UNL     1     -35.998  31.600 -25.933  1.00  0.00     0.000 C 
BRANCH   3   4
ATOM      4  C   UNL     1     -37.499  31.914 -25.976  1.00  0.00     0.000 C 
BRANCH   4   5
ATOM      5  C   UNL     1     -37.747  33.428 -25.884  1.00  0.00     0.000 C 
BRANCH   5   6
ATOM      6  C   UNL     1     -39.217  33.803 -26.125  1.00  0.00     0.006 C 
BRANCH   6   7
ATOM      7  C   UNL     1     -39.530  35.253 -25.733  1.00  0.00     0.053 C 
BRANCH   7   8
ATOM      8  C   UNL     1     -40.925  35.362 -25.207  1.00  0.00     0.041 C 
ATOM      9  O   UNL     1     -41.125  35.630 -23.991  1.00  0.00    -0.550 OA
ATOM     10  O   UNL     1     -42.007  35.123 -26.046  1.00  0.00    -0.550 OA
ENDBRANCH   7   8
ENDBRANCH   6   7
ENDBRANCH   5   6
ENDBRANCH   4   5
ENDBRANCH   3   4
ENDBRANCH   2   3
ENDBRANCH   1   2
BRANCH   1  11
ATOM     11  C   UNL     1     -36.937  28.939 -23.700  1.00  0.00     0.000 C 
BRANCH  11  12
ATOM     12  C   UNL     1     -37.853  28.539 -22.536  1.00  0.00    -0.000 C 
BRANCH  12  13
ATOM     13  C   UNL     1     -38.377  29.779 -21.797  1.00  0.00    -0.000 C 
BRANCH  13  14
ATOM     14  C   UNL     1     -39.572  29.467 -20.879  1.00  0.00    -0.000 C 
BRANCH  14  15
ATOM     15  C   UNL     1     -40.872  30.225 -21.217  1.00  0.00    -0.000 C 
BRANCH  15  16
ATOM     16  C   UNL     1     -41.376  30.045 -22.661  1.00  0.00    -0.000 C 
BRANCH  16  17
ATOM     17  C   UNL     1     -42.658  30.839 -22.948  1.00  0.00    -0.003 C 
ATOM     18  C   UNL     1     -43.224  31.450 -21.669  1.00  0.00     0.004 C 
ENDBRANCH  16  17
ENDBRANCH  15  16
ENDBRANCH  14  15
ENDBRANCH  13  14
ENDBRANCH  12  13
ENDBRANCH  11  12
ENDBRANCH   1  11
TORSDOF 14
ENDMDL
MODEL 4
REMARK VINA RESULT:    20.522      3.124      7.793
REMARK INTER + INTRA:          36.565
REMARK INTER:                  37.319
REMARK INTRA:                  -0.754
REMARK UNBOUND:                -0.753
REMARK SMILES CCCCCCCCCCCCCCCC(=O)[O-]
REMARK SMILES IDX 9 1 10 2 11 3 12 4 13 5 14 6 15 7 16 8 17 9 18 10 8 11 7 12
REMARK SMILES IDX 6 13 5 14 4 15 3 16 2 17 1 18
REMARK H PARENT
REMARK Flexibility Score: inf
ROOT
ATOM      1  C   UNL     1     -37.116  27.237 -21.264  1.00  0.00     0.000 C 
ENDROOT
BRANCH   1   2
ATOM      2  C   UNL     1     -37.763  25.887 -21.591  1.00  0.00     0.000 C 
BRANCH   2   3
ATOM      3  C   UNL     1     -37.332  24.811 -20.587  1.00  0.00     0.000 C 
BRANCH   3   4
ATOM      4  C   UNL     1     -38.500  23.880 -20.239  1.00  0.00     0.000 C 
BRANCH   4   5
ATOM      5  C   UNL     1     -38.039  22.740 -19.318  1.00  0.00     0.000 C 
BRANCH   5   6
ATOM      6  C   UNL     1     -38.985  22.523 -18.127  1.00  0.00     0.006 C 
BRANCH   6   7
ATOM      7  C   UNL     1     -40.320  21.889 -18.540  1.00  0.00     0.053 C 
BRANCH   7   8
ATOM      8  C   UNL     1     -41.459  22.787 -18.173  1.00  0.00     0.041 C 
ATOM      9  O   UNL     1     -42.131  22.564 -17.130  1.00  0.00    -0.550 OA
ATOM     10  O   UNL     1     -41.808  23.844 -19.005  1.00  0.00    -0.550 OA
ENDBRANCH   7   8
ENDBRANCH   6   7
ENDBRANCH   5   6
ENDBRANCH   4   5
ENDBRANCH   3   4
ENDBRANCH   2   3
ENDBRANCH   1   2
BRANCH   1  11
ATOM     11  C   UNL     1     -37.871  28.388 -21.939  1.00  0.00     0.000 C 
BRANCH  11  12
ATOM     12  C   UNL     1     -37.902  29.629 -21.038  1.00  0.00    -0.000 C 
BRANCH  12  13
ATOM     13  C   UNL     1     -39.347  30.021 -20.692  1.00  0.00    -0.000 C 
BRANCH  13  14
ATOM     14  C   UNL     1     -40.391  29.181 -21.448  1.00  0.00    -0.000 C 
BRANCH  14  15
ATOM     15  C   UNL     1     -41.815  29.775 -21.473  1.00  0.00    -0.000 C 
BRANCH  15  16
ATOM     16  C   UNL     1     -42.128  30.671 -22.685  1.00  0.00    -0.000 C 
BRANCH  16  17
ATOM     17  C   UNL     1     -43.379  31.535 -22.480  1.00  0.00    -0.003 C 
ATOM     18  C   UNL     1     -43.938  31.367 -21.070  1.00  0.00     0.004 C 
ENDBRANCH  16  17
ENDBRANCH  15  16
ENDBRANCH  14  15
ENDBRANCH  13  14
ENDBRANCH  12  13
ENDBRANCH  11  12
ENDBRANCH   1  11
TORSDOF 14
ENDMDL
MODEL 5
REMARK VINA RESULT:    20.536      1.083      2.280
REMARK INTER + INTRA:          36.590
REMARK INTER:                  37.406
REMARK INTRA:                  -0.816
REMARK UNBOUND:                -0.753
REMARK SMILES CCCCCCCCCCCCCCCC(=O)[O-]
REMARK SMILES IDX 9 1 10 2 11 3 12 4 13 5 14 6 15 7 16 8 17 9 18 10 8 11 7 12
REMARK SMILES IDX 6 13 5 14 4 15 3 16 2 17 1 18
REMARK H PARENT
REMARK Flexibility Score: inf
ROOT
ATOM      1  C   UNL     1     -37.409  25.456 -21.148  1.00  0.00     0.000 C 
ENDROOT
BRANCH   1   2
ATOM      2  C   UNL     1     -38.197  26.592 -21.809  1.00  0.00     0.000 C 
BRANCH   2   3
ATOM      3  C   UNL     1     -37.398  27.900 -21.791  1.00  0.00     0.000 C 
BRANCH   3   4
ATOM      4  C   UNL     1     -38.321  29.113 -21.964  1.00  0.00     0.000 C 
BRANCH   4   5
ATOM      5  C   UNL     1     -38.931  29.535 -20.619  1.00  0.00     0.000 C 
BRANCH   5   6
ATOM      6  C   UNL     1     -40.333  30.146 -20.770  1.00  0.00     0.006 C 
BRANCH   6   7
ATOM      7  C   UNL     1     -41.163  29.458 -21.862  1.00  0.00     0.053 C 
BRANCH   7   8
ATOM      8  C   UNL     1     -42.098  30.436 -22.500  1.00  0.00     0.041 C 
ATOM      9  O   UNL     1     -42.871  31.131 -21.787  1.00  0.00    -0.550 OA
ATOM     10  O   UNL     1     -42.148  30.550 -23.883  1.00  0.00    -0.550 OA
ENDBRANCH   7   8
ENDBRANCH   6   7
ENDBRANCH   5   6
ENDBRANCH   4   5
ENDBRANCH   3   4
ENDBRANCH   2   3
ENDBRANCH   1   2
BRANCH   1  11
ATOM     11  C   UNL     1     -38.351  24.457 -20.464  1.00  0.00     0.000 C 
BRANCH  11  12
ATOM     12  C   UNL     1     -37.583  23.224 -19.973  1.00  0.00    -0.000 C 
BRANCH  12  13
ATOM     13  C   UNL     1     -38.180  22.690 -18.662  1.00  0.00    -0.000 C 
BRANCH  13  14
ATOM     14  C   UNL     1     -38.915  21.350 -18.843  1.00  0.00    -0.000 C 
BRANCH  14  15
ATOM     15  C   UNL     1     -40.435  21.397 -18.583  1.00  0.00    -0.000 C 
BRANCH  15  16
ATOM     16  C   UNL     1     -41.002  22.794 -18.274  1.00  0.00    -0.000 C 
BRANCH  16  17
ATOM     17  C   UNL     1     -42.083  22.771 -17.185  1.00  0.00    -0.003 C 
ATOM     18  C   UNL     1     -42.037  24.040 -16.339  1.00  0.00     0.004 C 
ENDBRANCH  16  17
ENDBRANCH  15  16
ENDBRANCH  14  15
ENDBRANCH  13  14
ENDBRANCH  12  13
ENDBRANCH  11  12
ENDBRANCH   1  11
TORSDOF 14
ENDMDL
MODEL 6
REMARK VINA RESULT:    20.981      3.356      7.901
REMARK INTER + INTRA:          37.399
REMARK INTER:                  37.697
REMARK INTRA:                  -0.298
REMARK UNBOUND:                -0.753
REMARK SMILES CCCCCCCCCCCCCCCC(=O)[O-]
REMARK SMILES IDX 9 1 10 2 11 3 12 4 13 5 14 6 15 7 16 8 17 9 18 10 8 11 7 12
REMARK SMILES IDX 6 13 5 14 4 15 3 16 2 17 1 18
REMARK H PARENT
REMARK Flexibility Score: inf
ROOT
ATOM      1  C   UNL     1     -37.900  24.882 -21.370  1.00  0.00     0.000 C 
ENDROOT
BRANCH   1   2
ATOM      2  C   UNL     1     -38.124  24.221 -20.005  1.00  0.00     0.000 C 
BRANCH   2   3
ATOM      3  C   UNL     1     -37.658  22.760 -20.017  1.00  0.00     0.000 C 
BRANCH   3   4
ATOM      4  C   UNL     1     -37.947  22.078 -18.674  1.00  0.00     0.000 C 
BRANCH   4   5
ATOM      5  C   UNL     1     -38.988  20.961 -18.838  1.00  0.00     0.000 C 
BRANCH   5   6
ATOM      6  C   UNL     1     -40.430  21.468 -18.685  1.00  0.00     0.006 C 
BRANCH   6   7
ATOM      7  C   UNL     1     -40.497  22.923 -18.202  1.00  0.00     0.053 C 
BRANCH   7   8
ATOM      8  C   UNL     1     -41.686  23.125 -17.317  1.00  0.00     0.041 C 
ATOM      9  O   UNL     1     -41.714  24.087 -16.503  1.00  0.00    -0.550 OA
ATOM     10  O   UNL     1     -42.744  22.225 -17.357  1.00  0.00    -0.550 OA
ENDBRANCH   7   8
ENDBRANCH   6   7
ENDBRANCH   5   6
ENDBRANCH   4   5
ENDBRANCH   3   4
ENDBRANCH   2   3
ENDBRANCH   1   2
BRANCH   1  11
ATOM     11  C   UNL     1     -37.144  26.208 -21.222  1.00  0.00     0.000 C 
BRANCH  11  12
ATOM     12  C   UNL     1     -37.877  27.344 -21.946  1.00  0.00    -0.000 C 
BRANCH  12  13
ATOM     13  C   UNL     1     -37.797  28.651 -21.142  1.00  0.00    -0.000 C 
BRANCH  13  14
ATOM     14  C   UNL     1     -38.750  29.737 -21.671  1.00  0.00    -0.000 C 
BRANCH  14  15
ATOM     15  C   UNL     1     -40.099  29.841 -20.931  1.00  0.00    -0.000 C 
BRANCH  15  16
ATOM     16  C   UNL     1     -41.332  29.444 -21.762  1.00  0.00    -0.000 C 
BRANCH  16  17
ATOM     17  C   UNL     1     -41.866  30.597 -22.624  1.00  0.00    -0.003 C 
ATOM     18  C   UNL     1     -43.133  31.193 -22.018  1.00  0.00     0.004 C 
ENDBRANCH  16  17
ENDBRANCH  15  16
ENDBRANCH  14  15
ENDBRANCH  13  14
ENDBRANCH  12  13
ENDBRANCH  11  12
ENDBRANCH   1  11
TORSDOF 14
ENDMDL
MODEL 7
REMARK VINA RESULT:    21.063      4.042      7.024
REMARK INTER + INTRA:          37.549
REMARK INTER:                  38.014
REMARK INTRA:                  -0.465
REMARK UNBOUND:                -0.753
REMARK SMILES CCCCCCCCCCCCCCCC(=O)[O-]
REMARK SMILES IDX 9 1 10 2 11 3 12 4 13 5 14 6 15 7 16 8 17 9 18 10 8 11 7 12
REMARK SMILES IDX 6 13 5 14 4 15 3 16 2 17 1 18
REMARK H PARENT
REMARK Flexibility Score: inf
ROOT
ATOM      1  C   UNL     1     -38.007  29.864 -21.364  1.00  0.00     0.000 C 
ENDROOT
BRANCH   1   2
ATOM      2  C   UNL     1     -39.214  29.745 -20.427  1.00  0.00     0.000 C 
BRANCH   2   3
ATOM      3  C   UNL     1     -40.529  29.791 -21.214  1.00  0.00     0.000 C 
BRANCH   3   4
ATOM      4  C   UNL     1     -40.515  28.785 -22.371  1.00  0.00     0.000 C 
BRANCH   4   5
ATOM      5  C   UNL     1     -41.610  29.113 -23.398  1.00  0.00     0.000 C 
BRANCH   5   6
ATOM      6  C   UNL     1     -42.201  30.519 -23.204  1.00  0.00     0.006 C 
BRANCH   6   7
ATOM      7  C   UNL     1     -43.578  30.493 -22.527  1.00  0.00     0.053 C 
BRANCH   7   8
ATOM      8  C   UNL     1     -43.819  31.771 -21.788  1.00  0.00     0.041 C 
ATOM      9  O   UNL     1     -44.084  31.750 -20.556  1.00  0.00    -0.550 OA
ATOM     10  O   UNL     1     -43.797  32.983 -22.467  1.00  0.00    -0.550 OA
ENDBRANCH   7   8
ENDBRANCH   6   7
ENDBRANCH   5   6
ENDBRANCH   4   5
ENDBRANCH   3   4
ENDBRANCH   2   3
ENDBRANCH   1   2
BRANCH   1  11
ATOM     11  C   UNL     1     -37.563  28.486 -21.870  1.00  0.00     0.000 C 
BRANCH  11  12
ATOM     12  C   UNL     1     -37.294  28.513 -23.379  1.00  0.00    -0.000 C 
BRANCH  12  13
ATOM     13  C   UNL     1     -37.170  29.956 -23.890  1.00  0.00    -0.000 C 
BRANCH  13  14
ATOM     14  C   UNL     1     -35.988  30.149 -24.856  1.00  0.00    -0.000 C 
BRANCH  14  15
ATOM     15  C   UNL     1     -36.075  31.400 -25.755  1.00  0.00    -0.000 C 
BRANCH  15  16
ATOM     16  C   UNL     1     -37.428  32.134 -25.724  1.00  0.00    -0.000 C 
BRANCH  16  17
ATOM     17  C   UNL     1     -37.313  33.611 -26.125  1.00  0.00    -0.003 C 
ATOM     18  C   UNL     1     -35.882  34.115 -25.963  1.00  0.00     0.004 C 
ENDBRANCH  16  17
ENDBRANCH  15  16
ENDBRANCH  14  15
ENDBRANCH  13  14
ENDBRANCH  12  13
ENDBRANCH  11  12
ENDBRANCH   1  11
TORSDOF 14
ENDMDL
MODEL 8
REMARK VINA RESULT:    21.179      3.070      6.464
REMARK INTER + INTRA:          37.760
REMARK INTER:                  38.742
REMARK INTRA:                  -0.982
REMARK UNBOUND:                -0.753
REMARK SMILES CCCCCCCCCCCCCCCC(=O)[O-]
REMARK SMILES IDX 9 1 10 2 11 3 12 4 13 5 14 6 15 7 16 8 17 9 18 10 8 11 7 12
REMARK SMILES IDX 6 13 5 14 4 15 3 16 2 17 1 18
REMARK H PARENT
REMARK Flexibility Score: inf
ROOT
ATOM      1  C   UNL     1     -39.080  26.270 -23.034  1.00  0.00     0.000 C 
ENDROOT
BRANCH   1   2
ATOM      2  C   UNL     1     -40.543  26.353 -22.585  1.00  0.00     0.000 C 
BRANCH   2   3
ATOM      3  C   UNL     1     -41.088  27.778 -22.743  1.00  0.00     0.000 C 
BRANCH   3   4
ATOM      4  C   UNL     1     -40.624  28.676 -21.590  1.00  0.00     0.000 C 
BRANCH   4   5
ATOM      5  C   UNL     1     -40.953  30.149 -21.875  1.00  0.00     0.000 C 
BRANCH   5   6
ATOM      6  C   UNL     1     -41.902  30.323 -23.071  1.00  0.00     0.006 C 
BRANCH   6   7
ATOM      7  C   UNL     1     -43.367  30.493 -22.644  1.00  0.00     0.053 C 
BRANCH   7   8
ATOM      8  C   UNL     1     -43.553  31.790 -21.923  1.00  0.00     0.041 C 
ATOM      9  O   UNL     1     -43.186  32.870 -22.458  1.00  0.00    -0.550 OA
ATOM     10  O   UNL     1     -44.090  31.803 -20.642  1.00  0.00    -0.550 OA
ENDBRANCH   7   8
ENDBRANCH   6   7
ENDBRANCH   5   6
ENDBRANCH   4   5
ENDBRANCH   3   4
ENDBRANCH   2   3
ENDBRANCH   1   2
BRANCH   1  11
ATOM     11  C   UNL     1     -38.128  26.437 -21.843  1.00  0.00     0.000 C 
BRANCH  11  12
ATOM     12  C   UNL     1     -37.241  27.677 -22.016  1.00  0.00    -0.000 C 
BRANCH  12  13
ATOM     13  C   UNL     1     -37.505  28.358 -23.367  1.00  0.00    -0.000 C 
BRANCH  13  14
ATOM     14  C   UNL     1     -36.494  29.474 -23.681  1.00  0.00    -0.000 C 
BRANCH  14  15
ATOM     15  C   UNL     1     -37.021  30.596 -24.599  1.00  0.00    -0.000 C 
BRANCH  15  16
ATOM     16  C   UNL     1     -36.097  30.967 -25.773  1.00  0.00    -0.000 C 
BRANCH  16  17
ATOM     17  C   UNL     1     -36.151  32.460 -26.125  1.00  0.00    -0.003 C 
ATOM     18  C   UNL     1     -37.506  33.061 -25.763  1.00  0.00     0.004 C 
ENDBRANCH  16  17
ENDBRANCH  15  16
ENDBRANCH  14  15
ENDBRANCH  13  14
ENDBRANCH  12  13
ENDBRANCH  11  12
ENDBRANCH   1  11
TORSDOF 14
ENDMDL
MODEL 9
REMARK VINA RESULT:    21.418      4.760      7.284
REMARK INTER + INTRA:          38.194
REMARK INTER:                  38.465
REMARK INTRA:                  -0.271
REMARK UNBOUND:                -0.753
REMARK SMILES CCCCCCCCCCCCCCCC(=O)[O-]
REMARK SMILES IDX 9 1 10 2 11 3 12 4 13 5 14 6 15 7 16 8 17 9 18 10 8 11 7 12
REMARK SMILES IDX 6 13 5 14 4 15 3 16 2 17 1 18
REMARK H PARENT
REMARK Flexibility Score: inf
ROOT
ATOM      1  C   UNL     1     -40.579  29.429 -21.935  1.00  0.00     0.000 C 
ENDROOT
BRANCH   1   2
ATOM      2  C   UNL     1     -41.409  30.571 -22.531  1.00  0.00     0.000 C 
BRANCH   2   3
ATOM      3  C   UNL     1     -42.889  30.433 -22.154  1.00  0.00     0.000 C 
BRANCH   3   4
ATOM      4  C   UNL     1     -43.473  31.781 -21.712  1.00  0.00     0.000 C 
BRANCH   4   5
ATOM      5  C   UNL     1     -43.419  32.805 -22.856  1.00  0.00     0.000 C 
BRANCH   5   6
ATOM      6  C   UNL     1     -41.986  33.265 -23.169  1.00  0.00     0.006 C 
BRANCH   6   7
ATOM      7  C   UNL     1     -41.855  33.874 -24.572  1.00  0.00     0.053 C 
BRANCH   7   8
ATOM      8  C   UNL     1     -41.363  35.284 -24.485  1.00  0.00     0.041 C 
ATOM      9  O   UNL     1     -41.067  35.917 -25.533  1.00  0.00    -0.550 OA
ATOM     10  O   UNL     1     -41.189  35.885 -23.244  1.00  0.00    -0.550 OA
ENDBRANCH   7   8
ENDBRANCH   6   7
ENDBRANCH   5   6
ENDBRANCH   4   5
ENDBRANCH   3   4
ENDBRANCH   2   3
ENDBRANCH   1   2
BRANCH   1  11
ATOM     11  C   UNL     1     -39.618  29.949 -20.859  1.00  0.00     0.000 C 
BRANCH  11  12
ATOM     12  C   UNL     1     -38.168  29.573 -21.189  1.00  0.00    -0.000 C 
BRANCH  12  13
ATOM     13  C   UNL     1     -37.959  29.464 -22.707  1.00  0.00    -0.000 C 
BRANCH  13  14
ATOM     14  C   UNL     1     -37.263  30.700 -23.304  1.00  0.00    -0.000 C 
BRANCH  14  15
ATOM     15  C   UNL     1     -36.197  30.396 -24.377  1.00  0.00    -0.000 C 
BRANCH  15  16
ATOM     16  C   UNL     1     -36.265  31.281 -25.634  1.00  0.00    -0.000 C 
BRANCH  16  17
ATOM     17  C   UNL     1     -37.429  32.281 -25.597  1.00  0.00    -0.003 C 
ATOM     18  C   UNL     1     -36.998  33.646 -26.124  1.00  0.00     0.004 C 
ENDBRANCH  16  17
ENDBRANCH  15  16
ENDBRANCH  14  15
ENDBRANCH  13  14
ENDBRANCH  12  13
ENDBRANCH  11  12
ENDBRANCH   1  11
TORSDOF 14
ENDMDL
