MODEL 1
REMARK VINA RESULT:    -5.292      0.000      0.000
REMARK INTER + INTRA:          -5.694
REMARK INTER:                  -5.601
REMARK INTRA:                  -0.093
REMARK UNBOUND:                -0.093
REMARK SMILES C=C(C)[C@H]1CC=C(C)C(=O)C1
REMARK SMILES IDX 8 1 7 2 6 3 5 4 4 5 11 6 9 7 10 8 2 9 1 10 3 11
REMARK H PARENT
REMARK Flexibility Score: inf
ROOT
ATOM      1  C   UNL     1     -29.688  19.523 -33.399  1.00  0.00     0.048 C 
ATOM      2  C   UNL     1     -28.189  19.603 -33.501  1.00  0.00    -0.012 C 
ATOM      3  C   UNL     1     -27.622  20.530 -34.293  1.00  0.00    -0.019 C 
ATOM      4  C   UNL     1     -26.127  20.641 -34.447  1.00  0.00     0.036 C 
ATOM      5  C   UNL     1     -25.405  20.245 -33.146  1.00  0.00     0.025 C 
ATOM      6  C   UNL     1     -25.842  18.836 -32.700  1.00  0.00     0.089 C 
ATOM      7  C   UNL     1     -27.341  18.743 -32.639  1.00  0.00     0.158 C 
ATOM      8  O   UNL     1     -27.872  17.897 -31.870  1.00  0.00    -0.295 OA
ENDROOT
BRANCH   5   9
ATOM      9  C   UNL     1     -23.891  20.343 -33.290  1.00  0.00    -0.077 C 
ATOM     10  C   UNL     1     -23.229  19.624 -34.212  1.00  0.00     0.008 C 
ATOM     11  C   UNL     1     -23.106  21.263 -32.391  1.00  0.00     0.039 C 
ENDBRANCH   5   9
TORSDOF 1
ENDMDL
MODEL 2
REMARK VINA RESULT:    -5.142      6.875      8.938
REMARK INTER + INTRA:          -5.536
REMARK INTER:                  -5.438
REMARK INTRA:                  -0.098
REMARK UNBOUND:                -0.093
REMARK SMILES C=C(C)[C@H]1CC=C(C)C(=O)C1
REMARK SMILES IDX 8 1 7 2 6 3 5 4 4 5 11 6 9 7 10 8 2 9 1 10 3 11
REMARK H PARENT
REMARK Flexibility Score: inf
ROOT
ATOM      1  C   UNL     1     -24.298  14.915 -30.870  1.00  0.00     0.048 C 
ATOM      2  C   UNL     1     -25.340  13.951 -30.373  1.00  0.00    -0.012 C 
ATOM      3  C   UNL     1     -24.969  12.878 -29.653  1.00  0.00    -0.019 C 
ATOM      4  C   UNL     1     -25.968  11.871 -29.146  1.00  0.00     0.036 C 
ATOM      5  C   UNL     1     -27.316  12.543 -28.821  1.00  0.00     0.025 C 
ATOM      6  C   UNL     1     -27.836  13.316 -30.048  1.00  0.00     0.089 C 
ATOM      7  C   UNL     1     -26.780  14.249 -30.572  1.00  0.00     0.158 C 
ATOM      8  O   UNL     1     -27.131  15.274 -31.217  1.00  0.00    -0.295 OA
ENDROOT
BRANCH   5   9
ATOM      9  C   UNL     1     -28.341  11.534 -28.318  1.00  0.00    -0.077 C 
ATOM     10  C   UNL     1     -29.654  11.697 -28.549  1.00  0.00     0.008 C 
ATOM     11  C   UNL     1     -27.889  10.323 -27.545  1.00  0.00     0.039 C 
ENDBRANCH   5   9
TORSDOF 1
ENDMDL
MODEL 3
REMARK VINA RESULT:    -5.072      8.078      9.852
REMARK INTER + INTRA:          -5.462
REMARK INTER:                  -5.366
REMARK INTRA:                  -0.096
REMARK UNBOUND:                -0.093
REMARK SMILES C=C(C)[C@H]1CC=C(C)C(=O)C1
REMARK SMILES IDX 8 1 7 2 6 3 5 4 4 5 11 6 9 7 10 8 2 9 1 10 3 11
REMARK H PARENT
REMARK Flexibility Score: inf
ROOT
ATOM      1  C   UNL     1     -24.228   9.912 -27.391  1.00  0.00     0.048 C 
ATOM      2  C   UNL     1     -25.215  10.861 -28.012  1.00  0.00    -0.012 C 
ATOM      3  C   UNL     1     -24.844  11.622 -29.057  1.00  0.00    -0.019 C 
ATOM      4  C   UNL     1     -25.787  12.603 -29.705  1.00  0.00     0.036 C 
ATOM      5  C   UNL     1     -27.241  12.099 -29.642  1.00  0.00     0.025 C 
ATOM      6  C   UNL     1     -27.635  11.785 -28.186  1.00  0.00     0.089 C 
ATOM      7  C   UNL     1     -26.626  10.870 -27.551  1.00  0.00     0.158 C 
ATOM      8  O   UNL     1     -26.984  10.131 -26.595  1.00  0.00    -0.295 OA
ENDROOT
BRANCH   5   9
ATOM      9  C   UNL     1     -28.207  13.087 -30.285  1.00  0.00    -0.077 C 
ATOM     10  C   UNL     1     -27.763  14.126 -31.011  1.00  0.00     0.008 C 
ATOM     11  C   UNL     1     -29.693  12.908 -30.113  1.00  0.00     0.039 C 
ENDBRANCH   5   9
TORSDOF 1
ENDMDL
MODEL 4
REMARK VINA RESULT:    -5.000     11.237     13.061
REMARK INTER + INTRA:          -5.386
REMARK INTER:                  -5.290
REMARK INTRA:                  -0.096
REMARK UNBOUND:                -0.093
REMARK SMILES C=C(C)[C@H]1CC=C(C)C(=O)C1
REMARK SMILES IDX 8 1 7 2 6 3 5 4 4 5 11 6 9 7 10 8 2 9 1 10 3 11
REMARK H PARENT
REMARK Flexibility Score: inf
ROOT
ATOM      1  C   UNL     1     -18.302  12.494 -30.828  1.00  0.00     0.048 C 
ATOM      2  C   UNL     1     -16.919  13.076 -30.743  1.00  0.00    -0.012 C 
ATOM      3  C   UNL     1     -16.068  12.643 -29.797  1.00  0.00    -0.019 C 
ATOM      4  C   UNL     1     -14.677  13.205 -29.655  1.00  0.00     0.036 C 
ATOM      5  C   UNL     1     -14.104  13.619 -31.024  1.00  0.00     0.025 C 
ATOM      6  C   UNL     1     -15.061  14.599 -31.729  1.00  0.00     0.089 C 
ATOM      7  C   UNL     1     -16.455  14.036 -31.776  1.00  0.00     0.158 C 
ATOM      8  O   UNL     1     -17.240  14.417 -32.685  1.00  0.00    -0.295 OA
ENDROOT
BRANCH   5   9
ATOM      9  C   UNL     1     -12.701  14.199 -30.895  1.00  0.00    -0.077 C 
ATOM     10  C   UNL     1     -12.157  14.451 -29.693  1.00  0.00     0.008 C 
ATOM     11  C   UNL     1     -11.894  14.501 -32.131  1.00  0.00     0.039 C 
ENDBRANCH   5   9
TORSDOF 1
ENDMDL
MODEL 5
REMARK VINA RESULT:    -4.912     11.073     12.642
REMARK INTER + INTRA:          -5.292
REMARK INTER:                  -5.198
REMARK INTRA:                  -0.095
REMARK UNBOUND:                -0.093
REMARK SMILES C=C(C)[C@H]1CC=C(C)C(=O)C1
REMARK SMILES IDX 8 1 7 2 6 3 5 4 4 5 11 6 9 7 10 8 2 9 1 10 3 11
REMARK H PARENT
REMARK Flexibility Score: inf
ROOT
ATOM      1  C   UNL     1     -14.409  15.088 -31.199  1.00  0.00     0.048 C 
ATOM      2  C   UNL     1     -15.427  14.050 -30.816  1.00  0.00    -0.012 C 
ATOM      3  C   UNL     1     -15.313  13.403 -29.642  1.00  0.00    -0.019 C 
ATOM      4  C   UNL     1     -16.293  12.341 -29.218  1.00  0.00     0.036 C 
ATOM      5  C   UNL     1     -17.705  12.642 -29.756  1.00  0.00     0.025 C 
ATOM      6  C   UNL     1     -17.665  12.822 -31.286  1.00  0.00     0.089 C 
ATOM      7  C   UNL     1     -16.618  13.829 -31.673  1.00  0.00     0.158 C 
ATOM      8  O   UNL     1     -16.744  14.460 -32.756  1.00  0.00    -0.295 OA
ENDROOT
BRANCH   5   9
ATOM      9  C   UNL     1     -18.705  11.570 -29.343  1.00  0.00    -0.077 C 
ATOM     10  C   UNL     1     -20.029  11.762 -29.473  1.00  0.00     0.008 C 
ATOM     11  C   UNL     1     -18.218  10.262 -28.776  1.00  0.00     0.039 C 
ENDBRANCH   5   9
TORSDOF 1
ENDMDL
MODEL 6
REMARK VINA RESULT:    -4.739     13.005     14.754
REMARK INTER + INTRA:          -5.109
REMARK INTER:                  -5.018
REMARK INTRA:                  -0.091
REMARK UNBOUND:                -0.093
REMARK SMILES C=C(C)[C@H]1CC=C(C)C(=O)C1
REMARK SMILES IDX 8 1 7 2 6 3 5 4 4 5 11 6 9 7 10 8 2 9 1 10 3 11
REMARK H PARENT
REMARK Flexibility Score: inf
ROOT
ATOM      1  C   UNL     1     -15.730  13.349 -29.410  1.00  0.00     0.048 C 
ATOM      2  C   UNL     1     -14.462  13.743 -30.116  1.00  0.00    -0.012 C 
ATOM      3  C   UNL     1     -13.274  13.540 -29.520  1.00  0.00    -0.019 C 
ATOM      4  C   UNL     1     -11.975  13.933 -30.174  1.00  0.00     0.036 C 
ATOM      5  C   UNL     1     -12.061  13.795 -31.706  1.00  0.00     0.025 C 
ATOM      6  C   UNL     1     -13.255  14.604 -32.248  1.00  0.00     0.089 C 
ATOM      7  C   UNL     1     -14.516  14.241 -31.513  1.00  0.00     0.158 C 
ATOM      8  O   UNL     1     -15.628  14.399 -32.087  1.00  0.00    -0.295 OA
ENDROOT
BRANCH   5   9
ATOM      9  C   UNL     1     -10.757  14.200 -32.381  1.00  0.00    -0.077 C 
ATOM     10  C   UNL     1     -10.288  13.535 -33.450  1.00  0.00     0.008 C 
ATOM     11  C   UNL     1      -9.965  15.369 -31.854  1.00  0.00     0.039 C 
ENDBRANCH   5   9
TORSDOF 1
ENDMDL
MODEL 7
REMARK VINA RESULT:    -4.719     11.681     13.498
REMARK INTER + INTRA:          -5.088
REMARK INTER:                  -4.992
REMARK INTRA:                  -0.096
REMARK UNBOUND:                -0.093
REMARK SMILES C=C(C)[C@H]1CC=C(C)C(=O)C1
REMARK SMILES IDX 8 1 7 2 6 3 5 4 4 5 11 6 9 7 10 8 2 9 1 10 3 11
REMARK H PARENT
REMARK Flexibility Score: inf
ROOT
ATOM      1  C   UNL     1     -12.781  14.658 -32.331  1.00  0.00     0.048 C 
ATOM      2  C   UNL     1     -13.855  13.993 -31.515  1.00  0.00    -0.012 C 
ATOM      3  C   UNL     1     -13.748  13.953 -30.175  1.00  0.00    -0.019 C 
ATOM      4  C   UNL     1     -14.785  13.285 -29.311  1.00  0.00     0.036 C 
ATOM      5  C   UNL     1     -16.189  13.410 -29.932  1.00  0.00     0.025 C 
ATOM      6  C   UNL     1     -16.187  12.861 -31.371  1.00  0.00     0.089 C 
ATOM      7  C   UNL     1     -15.085  13.493 -32.177  1.00  0.00     0.158 C 
ATOM      8  O   UNL     1     -15.204  13.562 -33.430  1.00  0.00    -0.295 OA
ENDROOT
BRANCH   5   9
ATOM      9  C   UNL     1     -17.247  12.729 -29.073  1.00  0.00    -0.077 C 
ATOM     10  C   UNL     1     -17.011  12.420 -27.787  1.00  0.00     0.008 C 
ATOM     11  C   UNL     1     -18.591  12.388 -29.662  1.00  0.00     0.039 C 
ENDBRANCH   5   9
TORSDOF 1
ENDMDL
MODEL 8
REMARK VINA RESULT:    -4.719     12.025     14.543
REMARK INTER + INTRA:          -5.088
REMARK INTER:                  -4.992
REMARK INTRA:                  -0.096
REMARK UNBOUND:                -0.093
REMARK SMILES C=C(C)[C@H]1CC=C(C)C(=O)C1
REMARK SMILES IDX 8 1 7 2 6 3 5 4 4 5 11 6 9 7 10 8 2 9 1 10 3 11
REMARK H PARENT
REMARK Flexibility Score: inf
ROOT
ATOM      1  C   UNL     1     -10.384  14.730 -31.709  1.00  0.00     0.048 C 
ATOM      2  C   UNL     1     -11.813  14.350 -31.437  1.00  0.00    -0.012 C 
ATOM      3  C   UNL     1     -12.406  14.749 -30.298  1.00  0.00    -0.019 C 
ATOM      4  C   UNL     1     -13.829  14.381 -29.967  1.00  0.00     0.036 C 
ATOM      5  C   UNL     1     -14.685  14.274 -31.243  1.00  0.00     0.025 C 
ATOM      6  C   UNL     1     -14.043  13.287 -32.236  1.00  0.00     0.089 C 
ATOM      7  C   UNL     1     -12.602  13.641 -32.476  1.00  0.00     0.158 C 
ATOM      8  O   UNL     1     -12.057  13.297 -33.559  1.00  0.00    -0.295 OA
ENDROOT
BRANCH   5   9
ATOM      9  C   UNL     1     -16.125  13.892 -30.923  1.00  0.00    -0.077 C 
ATOM     10  C   UNL     1     -17.038  13.730 -31.896  1.00  0.00     0.008 C 
ATOM     11  C   UNL     1     -16.551  13.685 -29.492  1.00  0.00     0.039 C 
ENDBRANCH   5   9
TORSDOF 1
ENDMDL
MODEL 9
REMARK VINA RESULT:    -4.655      7.851      9.235
REMARK INTER + INTRA:          -5.020
REMARK INTER:                  -4.924
REMARK INTRA:                  -0.096
REMARK UNBOUND:                -0.093
REMARK SMILES C=C(C)[C@H]1CC=C(C)C(=O)C1
REMARK SMILES IDX 8 1 7 2 6 3 5 4 4 5 11 6 9 7 10 8 2 9 1 10 3 11
REMARK H PARENT
REMARK Flexibility Score: inf
ROOT
ATOM      1  C   UNL     1     -29.778  13.602 -30.413  1.00  0.00     0.048 C 
ATOM      2  C   UNL     1     -28.594  12.950 -29.754  1.00  0.00    -0.012 C 
ATOM      3  C   UNL     1     -28.785  12.078 -28.749  1.00  0.00    -0.019 C 
ATOM      4  C   UNL     1     -27.633  11.411 -28.041  1.00  0.00     0.036 C 
ATOM      5  C   UNL     1     -26.453  11.177 -29.003  1.00  0.00     0.025 C 
ATOM      6  C   UNL     1     -26.038  12.502 -29.671  1.00  0.00     0.089 C 
ATOM      7  C   UNL     1     -27.230  13.176 -30.293  1.00  0.00     0.158 C 
ATOM      8  O   UNL     1     -27.053  13.966 -31.260  1.00  0.00    -0.295 OA
ENDROOT
BRANCH   5   9
ATOM      9  C   UNL     1     -25.277  10.512 -28.298  1.00  0.00    -0.077 C 
ATOM     10  C   UNL     1     -25.434   9.875 -27.126  1.00  0.00     0.008 C 
ATOM     11  C   UNL     1     -23.903  10.560 -28.916  1.00  0.00     0.039 C 
ENDBRANCH   5   9
TORSDOF 1
ENDMDL
