MODEL 1
REMARK VINA RESULT:    -2.870      0.000      0.000
REMARK INTER + INTRA:          -7.712
REMARK INTER:                  -5.220
REMARK INTRA:                  -2.492
REMARK UNBOUND:                -2.492
REMARK SMILES CCCCCC=CCC=CCCCCCCCC(=O)[O-]
REMARK SMILES IDX 11 1 12 2 13 3 14 4 15 5 16 6 17 7 18 8 19 9 20 10 10 11
REMARK SMILES IDX 9 12 8 13 7 14 6 15 5 16 4 17 3 18 2 19 1 20
REMARK H PARENT
REMARK Flexibility Score: inf
ROOT
ATOM      1  C   UNL     1      50.435  36.256 137.793  1.00  0.00     0.027 C 
ENDROOT
BRANCH   1   2
ATOM      2  C   UNL     1      49.191  37.056 138.196  1.00  0.00     0.004 C 
BRANCH   2   3
ATOM      3  C   UNL     1      48.755  38.002 137.068  1.00  0.00     0.000 C 
BRANCH   3   4
ATOM      4  C   UNL     1      48.753  37.323 135.689  1.00  0.00     0.000 C 
BRANCH   4   5
ATOM      5  C   UNL     1      47.577  37.770 134.807  1.00  0.00     0.000 C 
BRANCH   5   6
ATOM      6  C   UNL     1      46.723  38.826 135.520  1.00  0.00     0.006 C 
BRANCH   6   7
ATOM      7  C   UNL     1      46.343  39.961 134.561  1.00  0.00     0.053 C 
BRANCH   7   8
ATOM      8  C   UNL     1      44.863  40.212 134.535  1.00  0.00     0.041 C 
ATOM      9  O   UNL     1      44.052  39.277 134.295  1.00  0.00    -0.550 OA
ATOM     10  O   UNL     1      44.375  41.471 134.864  1.00  0.00    -0.550 OA
ENDBRANCH   7   8
ENDBRANCH   6   7
ENDBRANCH   5   6
ENDBRANCH   4   5
ENDBRANCH   3   4
ENDBRANCH   2   3
ENDBRANCH   1   2
BRANCH   1  11
ATOM     11  C   UNL     1      51.693  37.034 138.079  1.00  0.00    -0.031 C 
ATOM     12  C   UNL     1      52.578  37.440 137.149  1.00  0.00    -0.027 C 
BRANCH  12  13
ATOM     13  C   UNL     1      52.507  37.113 135.678  1.00  0.00     0.054 C 
BRANCH  13  14
ATOM     14  C   UNL     1      52.245  38.365 134.893  1.00  0.00    -0.027 C 
ATOM     15  C   UNL     1      51.772  39.472 135.480  1.00  0.00    -0.031 C 
BRANCH  15  16
ATOM     16  C   UNL     1      51.472  40.717 134.689  1.00  0.00     0.027 C 
BRANCH  16  17
ATOM     17  C   UNL     1      49.964  41.018 134.646  1.00  0.00     0.004 C 
BRANCH  17  18
ATOM     18  C   UNL     1      49.357  41.391 136.012  1.00  0.00     0.000 C 
BRANCH  18  19
ATOM     19  C   UNL     1      49.098  42.897 136.172  1.00  0.00    -0.003 C 
ATOM     20  C   UNL     1      50.208  43.566 136.977  1.00  0.00     0.004 C 
ENDBRANCH  18  19
ENDBRANCH  17  18
ENDBRANCH  16  17
ENDBRANCH  15  16
ENDBRANCH  13  14
ENDBRANCH  12  13
ENDBRANCH   1  11
TORSDOF 14
ENDMDL
MODEL 2
REMARK VINA RESULT:    -2.830      1.530      4.793
REMARK INTER + INTRA:          -7.638
REMARK INTER:                  -5.099
REMARK INTRA:                  -2.539
REMARK UNBOUND:                -2.492
REMARK SMILES CCCCCC=CCC=CCCCCCCCC(=O)[O-]
REMARK SMILES IDX 11 1 12 2 13 3 14 4 15 5 16 6 17 7 18 8 19 9 20 10 10 11
REMARK SMILES IDX 9 12 8 13 7 14 6 15 5 16 4 17 3 18 2 19 1 20
REMARK H PARENT
REMARK Flexibility Score: inf
ROOT
ATOM      1  C   UNL     1      49.129  42.775 134.457  1.00  0.00     0.027 C 
ENDROOT
BRANCH   1   2
ATOM      2  C   UNL     1      47.934  42.405 135.344  1.00  0.00     0.004 C 
BRANCH   2   3
ATOM      3  C   UNL     1      46.747  41.925 134.498  1.00  0.00     0.000 C 
BRANCH   3   4
ATOM      4  C   UNL     1      46.135  40.615 135.021  1.00  0.00     0.000 C 
BRANCH   4   5
ATOM      5  C   UNL     1      46.331  39.439 134.053  1.00  0.00     0.000 C 
BRANCH   5   6
ATOM      6  C   UNL     1      45.689  38.158 134.601  1.00  0.00     0.006 C 
BRANCH   6   7
ATOM      7  C   UNL     1      44.385  37.838 133.860  1.00  0.00     0.053 C 
BRANCH   7   8
ATOM      8  C   UNL     1      43.177  38.353 134.588  1.00  0.00     0.041 C 
ATOM      9  O   UNL     1      42.737  39.514 134.371  1.00  0.00    -0.550 OA
ATOM     10  O   UNL     1      42.485  37.510 135.450  1.00  0.00    -0.550 OA
ENDBRANCH   7   8
ENDBRANCH   6   7
ENDBRANCH   5   6
ENDBRANCH   4   5
ENDBRANCH   3   4
ENDBRANCH   2   3
ENDBRANCH   1   2
BRANCH   1  11
ATOM     11  C   UNL     1      49.256  41.820 133.299  1.00  0.00    -0.031 C 
ATOM     12  C   UNL     1      49.875  40.626 133.347  1.00  0.00    -0.027 C 
BRANCH  12  13
ATOM     13  C   UNL     1      50.619  40.079 134.540  1.00  0.00     0.054 C 
BRANCH  13  14
ATOM     14  C   UNL     1      49.820  38.978 135.175  1.00  0.00    -0.027 C 
ATOM     15  C   UNL     1      49.285  39.117 136.395  1.00  0.00    -0.031 C 
BRANCH  15  16
ATOM     16  C   UNL     1      48.516  38.000 137.050  1.00  0.00     0.027 C 
BRANCH  16  17
ATOM     17  C   UNL     1      49.284  37.396 138.238  1.00  0.00     0.004 C 
BRANCH  17  18
ATOM     18  C   UNL     1      50.454  36.480 137.831  1.00  0.00     0.000 C 
BRANCH  18  19
ATOM     19  C   UNL     1      51.822  36.993 138.304  1.00  0.00    -0.003 C 
ATOM     20  C   UNL     1      52.678  37.450 137.125  1.00  0.00     0.004 C 
ENDBRANCH  18  19
ENDBRANCH  17  18
ENDBRANCH  16  17
ENDBRANCH  15  16
ENDBRANCH  13  14
ENDBRANCH  12  13
ENDBRANCH   1  11
TORSDOF 14
ENDMDL
MODEL 3
REMARK VINA RESULT:    -2.829      2.289      3.912
REMARK INTER + INTRA:          -7.637
REMARK INTER:                  -5.379
REMARK INTRA:                  -2.258
REMARK UNBOUND:                -2.492
REMARK SMILES CCCCCC=CCC=CCCCCCCCC(=O)[O-]
REMARK SMILES IDX 11 1 12 2 13 3 14 4 15 5 16 6 17 7 18 8 19 9 20 10 10 11
REMARK SMILES IDX 9 12 8 13 7 14 6 15 5 16 4 17 3 18 2 19 1 20
REMARK H PARENT
REMARK Flexibility Score: inf
ROOT
ATOM      1  C   UNL     1      50.811  36.414 137.883  1.00  0.00     0.027 C 
ENDROOT
BRANCH   1   2
ATOM      2  C   UNL     1      52.183  37.039 138.159  1.00  0.00     0.004 C 
BRANCH   2   3
ATOM      3  C   UNL     1      52.849  37.505 136.856  1.00  0.00     0.000 C 
BRANCH   3   4
ATOM      4  C   UNL     1      51.918  37.388 135.638  1.00  0.00     0.000 C 
BRANCH   4   5
ATOM      5  C   UNL     1      52.135  38.512 134.614  1.00  0.00     0.000 C 
BRANCH   5   6
ATOM      6  C   UNL     1      51.536  38.142 133.251  1.00  0.00     0.006 C 
BRANCH   6   7
ATOM      7  C   UNL     1      50.813  36.791 133.319  1.00  0.00     0.053 C 
BRANCH   7   8
ATOM      8  C   UNL     1      49.385  36.888 132.864  1.00  0.00     0.041 C 
ATOM      9  O   UNL     1      48.634  35.875 132.873  1.00  0.00    -0.550 OA
ATOM     10  O   UNL     1      48.862  38.125 132.509  1.00  0.00    -0.550 OA
ENDBRANCH   7   8
ENDBRANCH   6   7
ENDBRANCH   5   6
ENDBRANCH   4   5
ENDBRANCH   3   4
ENDBRANCH   2   3
ENDBRANCH   1   2
BRANCH   1  11
ATOM     11  C   UNL     1      49.710  37.235 138.503  1.00  0.00    -0.031 C 
ATOM     12  C   UNL     1      48.676  37.773 137.831  1.00  0.00    -0.027 C 
BRANCH  12  13
ATOM     13  C   UNL     1      48.488  37.719 136.335  1.00  0.00     0.054 C 
BRANCH  13  14
ATOM     14  C   UNL     1      48.315  39.109 135.796  1.00  0.00    -0.027 C 
ATOM     15  C   UNL     1      49.227  40.064 136.020  1.00  0.00    -0.031 C 
BRANCH  15  16
ATOM     16  C   UNL     1      49.038  41.470 135.514  1.00  0.00     0.027 C 
BRANCH  16  17
ATOM     17  C   UNL     1      50.375  42.222 135.403  1.00  0.00     0.004 C 
BRANCH  17  18
ATOM     18  C   UNL     1      50.436  43.521 136.229  1.00  0.00     0.000 C 
BRANCH  18  19
ATOM     19  C   UNL     1      49.630  43.450 137.535  1.00  0.00    -0.003 C 
ATOM     20  C   UNL     1      48.651  44.616 137.642  1.00  0.00     0.004 C 
ENDBRANCH  18  19
ENDBRANCH  17  18
ENDBRANCH  16  17
ENDBRANCH  15  16
ENDBRANCH  13  14
ENDBRANCH  12  13
ENDBRANCH   1  11
TORSDOF 14
ENDMDL
MODEL 4
REMARK VINA RESULT:    -2.796      3.873      7.225
REMARK INTER + INTRA:          -7.576
REMARK INTER:                  -5.416
REMARK INTRA:                  -2.159
REMARK UNBOUND:                -2.492
REMARK SMILES CCCCCC=CCC=CCCCCCCCC(=O)[O-]
REMARK SMILES IDX 11 1 12 2 13 3 14 4 15 5 16 6 17 7 18 8 19 9 20 10 10 11
REMARK SMILES IDX 9 12 8 13 7 14 6 15 5 16 4 17 3 18 2 19 1 20
REMARK H PARENT
REMARK Flexibility Score: inf
ROOT
ATOM      1  C   UNL     1      47.185  37.334 134.026  1.00  0.00     0.027 C 
ENDROOT
BRANCH   1   2
ATOM      2  C   UNL     1      46.678  38.250 135.146  1.00  0.00     0.004 C 
BRANCH   2   3
ATOM      3  C   UNL     1      47.707  39.341 135.473  1.00  0.00     0.000 C 
BRANCH   3   4
ATOM      4  C   UNL     1      48.948  38.791 136.197  1.00  0.00     0.000 C 
BRANCH   4   5
ATOM      5  C   UNL     1      48.613  38.167 137.560  1.00  0.00     0.000 C 
BRANCH   5   6
ATOM      6  C   UNL     1      49.428  36.889 137.799  1.00  0.00     0.006 C 
BRANCH   6   7
ATOM      7  C   UNL     1      50.551  36.755 136.763  1.00  0.00     0.053 C 
BRANCH   7   8
ATOM      8  C   UNL     1      51.910  36.943 137.371  1.00  0.00     0.041 C 
ATOM      9  O   UNL     1      52.938  37.027 136.646  1.00  0.00    -0.550 OA
ATOM     10  O   UNL     1      52.029  37.110 138.746  1.00  0.00    -0.550 OA
ENDBRANCH   7   8
ENDBRANCH   6   7
ENDBRANCH   5   6
ENDBRANCH   4   5
ENDBRANCH   3   4
ENDBRANCH   2   3
ENDBRANCH   1   2
BRANCH   1  11
ATOM     11  C   UNL     1      46.882  37.920 132.672  1.00  0.00    -0.031 C 
ATOM     12  C   UNL     1      46.002  37.410 131.789  1.00  0.00    -0.027 C 
BRANCH  12  13
ATOM     13  C   UNL     1      45.236  36.123 131.969  1.00  0.00     0.054 C 
BRANCH  13  14
ATOM     14  C   UNL     1      43.907  36.409 132.606  1.00  0.00    -0.027 C 
ATOM     15  C   UNL     1      43.706  36.218 133.917  1.00  0.00    -0.031 C 
BRANCH  15  16
ATOM     16  C   UNL     1      42.364  36.467 134.552  1.00  0.00     0.027 C 
BRANCH  16  17
ATOM     17  C   UNL     1      42.324  37.812 135.298  1.00  0.00     0.004 C 
BRANCH  17  18
ATOM     18  C   UNL     1      42.198  39.039 134.376  1.00  0.00     0.000 C 
BRANCH  18  19
ATOM     19  C   UNL     1      43.320  40.068 134.576  1.00  0.00    -0.003 C 
ATOM     20  C   UNL     1      44.108  40.283 133.286  1.00  0.00     0.004 C 
ENDBRANCH  18  19
ENDBRANCH  17  18
ENDBRANCH  16  17
ENDBRANCH  15  16
ENDBRANCH  13  14
ENDBRANCH  12  13
ENDBRANCH   1  11
TORSDOF 14
ENDMDL
MODEL 5
REMARK VINA RESULT:    -2.776      2.159      3.146
REMARK INTER + INTRA:          -7.539
REMARK INTER:                  -4.807
REMARK INTRA:                  -2.733
REMARK UNBOUND:                -2.492
REMARK SMILES CCCCCC=CCC=CCCCCCCCC(=O)[O-]
REMARK SMILES IDX 11 1 12 2 13 3 14 4 15 5 16 6 17 7 18 8 19 9 20 10 10 11
REMARK SMILES IDX 9 12 8 13 7 14 6 15 5 16 4 17 3 18 2 19 1 20
REMARK H PARENT
REMARK Flexibility Score: inf
ROOT
ATOM      1  C   UNL     1      52.300  36.527 136.387  1.00  0.00     0.027 C 
ENDROOT
BRANCH   1   2
ATOM      2  C   UNL     1      51.282  35.943 137.373  1.00  0.00     0.004 C 
BRANCH   2   3
ATOM      3  C   UNL     1      50.620  37.051 138.203  1.00  0.00     0.000 C 
BRANCH   3   4
ATOM      4  C   UNL     1      49.131  37.238 137.865  1.00  0.00     0.000 C 
BRANCH   4   5
ATOM      5  C   UNL     1      48.866  38.491 137.018  1.00  0.00     0.000 C 
BRANCH   5   6
ATOM      6  C   UNL     1      48.038  38.152 135.772  1.00  0.00     0.006 C 
BRANCH   6   7
ATOM      7  C   UNL     1      48.381  36.751 135.251  1.00  0.00     0.053 C 
BRANCH   7   8
ATOM      8  C   UNL     1      48.866  36.776 133.831  1.00  0.00     0.041 C 
ATOM      9  O   UNL     1      49.922  36.174 133.497  1.00  0.00    -0.550 OA
ATOM     10  O   UNL     1      48.097  37.400 132.855  1.00  0.00    -0.550 OA
ENDBRANCH   7   8
ENDBRANCH   6   7
ENDBRANCH   5   6
ENDBRANCH   4   5
ENDBRANCH   3   4
ENDBRANCH   2   3
ENDBRANCH   1   2
BRANCH   1  11
ATOM     11  C   UNL     1      52.597  37.968 136.709  1.00  0.00    -0.031 C 
ATOM     12  C   UNL     1      52.376  39.006 135.880  1.00  0.00    -0.027 C 
BRANCH  12  13
ATOM     13  C   UNL     1      51.876  38.895 134.461  1.00  0.00     0.054 C 
BRANCH  13  14
ATOM     14  C   UNL     1      51.290  40.207 134.027  1.00  0.00    -0.027 C 
ATOM     15  C   UNL     1      50.090  40.275 133.434  1.00  0.00    -0.031 C 
BRANCH  15  16
ATOM     16  C   UNL     1      49.517  41.584 132.962  1.00  0.00     0.027 C 
BRANCH  16  17
ATOM     17  C   UNL     1      48.075  41.789 133.456  1.00  0.00     0.004 C 
BRANCH  17  18
ATOM     18  C   UNL     1      47.914  41.696 134.985  1.00  0.00     0.000 C 
BRANCH  18  19
ATOM     19  C   UNL     1      48.339  42.976 135.720  1.00  0.00    -0.003 C 
ATOM     20  C   UNL     1      49.617  42.751 136.524  1.00  0.00     0.004 C 
ENDBRANCH  18  19
ENDBRANCH  17  18
ENDBRANCH  16  17
ENDBRANCH  15  16
ENDBRANCH  13  14
ENDBRANCH  12  13
ENDBRANCH   1  11
TORSDOF 14
ENDMDL
MODEL 6
REMARK VINA RESULT:    -2.716      3.091      5.845
REMARK INTER + INTRA:          -7.431
REMARK INTER:                  -4.398
REMARK INTRA:                  -3.034
REMARK UNBOUND:                -2.492
REMARK SMILES CCCCCC=CCC=CCCCCCCCC(=O)[O-]
REMARK SMILES IDX 11 1 12 2 13 3 14 4 15 5 16 6 17 7 18 8 19 9 20 10 10 11
REMARK SMILES IDX 9 12 8 13 7 14 6 15 5 16 4 17 3 18 2 19 1 20
REMARK H PARENT
REMARK Flexibility Score: inf
ROOT
ATOM      1  C   UNL     1      45.111  39.666 133.416  1.00  0.00     0.027 C 
ENDROOT
BRANCH   1   2
ATOM      2  C   UNL     1      46.420  40.455 133.536  1.00  0.00     0.004 C 
BRANCH   2   3
ATOM      3  C   UNL     1      46.998  40.352 134.954  1.00  0.00     0.000 C 
BRANCH   3   4
ATOM      4  C   UNL     1      48.529  40.202 134.963  1.00  0.00     0.000 C 
BRANCH   4   5
ATOM      5  C   UNL     1      49.044  39.434 136.189  1.00  0.00     0.000 C 
BRANCH   5   6
ATOM      6  C   UNL     1      48.249  38.139 136.405  1.00  0.00     0.006 C 
BRANCH   6   7
ATOM      7  C   UNL     1      49.181  36.922 136.434  1.00  0.00     0.053 C 
BRANCH   7   8
ATOM      8  C   UNL     1      49.757  36.680 137.799  1.00  0.00     0.041 C 
ATOM      9  O   UNL     1      49.055  36.176 138.717  1.00  0.00    -0.550 OA
ATOM     10  O   UNL     1      51.104  36.937 138.030  1.00  0.00    -0.550 OA
ENDBRANCH   7   8
ENDBRANCH   6   7
ENDBRANCH   5   6
ENDBRANCH   4   5
ENDBRANCH   3   4
ENDBRANCH   2   3
ENDBRANCH   1   2
BRANCH   1  11
ATOM     11  C   UNL     1      45.118  38.469 134.330  1.00  0.00    -0.031 C 
ATOM     12  C   UNL     1      45.533  37.236 133.983  1.00  0.00    -0.027 C 
BRANCH  12  13
ATOM     13  C   UNL     1      45.979  36.824 132.602  1.00  0.00     0.054 C 
BRANCH  13  14
ATOM     14  C   UNL     1      47.476  36.717 132.565  1.00  0.00    -0.027 C 
ATOM     15  C   UNL     1      48.225  37.614 131.910  1.00  0.00    -0.031 C 
BRANCH  15  16
ATOM     16  C   UNL     1      49.723  37.489 131.838  1.00  0.00     0.027 C 
BRANCH  16  17
ATOM     17  C   UNL     1      50.349  37.296 133.230  1.00  0.00     0.004 C 
BRANCH  17  18
ATOM     18  C   UNL     1      51.452  38.316 133.571  1.00  0.00     0.000 C 
BRANCH  18  19
ATOM     19  C   UNL     1      52.298  37.912 134.788  1.00  0.00    -0.003 C 
ATOM     20  C   UNL     1      52.665  39.128 135.633  1.00  0.00     0.004 C 
ENDBRANCH  18  19
ENDBRANCH  17  18
ENDBRANCH  16  17
ENDBRANCH  15  16
ENDBRANCH  13  14
ENDBRANCH  12  13
ENDBRANCH   1  11
TORSDOF 14
ENDMDL
MODEL 7
REMARK VINA RESULT:    -2.697      2.492      5.000
REMARK INTER + INTRA:          -7.396
REMARK INTER:                  -4.944
REMARK INTRA:                  -2.452
REMARK UNBOUND:                -2.492
REMARK SMILES CCCCCC=CCC=CCCCCCCCC(=O)[O-]
REMARK SMILES IDX 11 1 12 2 13 3 14 4 15 5 16 6 17 7 18 8 19 9 20 10 10 11
REMARK SMILES IDX 9 12 8 13 7 14 6 15 5 16 4 17 3 18 2 19 1 20
REMARK H PARENT
REMARK Flexibility Score: inf
ROOT
ATOM      1  C   UNL     1      51.141  35.875 135.753  1.00  0.00     0.027 C 
ENDROOT
BRANCH   1   2
ATOM      2  C   UNL     1      51.642  36.486 134.439  1.00  0.00     0.004 C 
BRANCH   2   3
ATOM      3  C   UNL     1      50.481  36.720 133.462  1.00  0.00     0.000 C 
BRANCH   3   4
ATOM      4  C   UNL     1      50.099  38.204 133.337  1.00  0.00     0.000 C 
BRANCH   4   5
ATOM      5  C   UNL     1      51.045  39.129 134.117  1.00  0.00     0.000 C 
BRANCH   5   6
ATOM      6  C   UNL     1      50.444  40.532 134.272  1.00  0.00     0.006 C 
BRANCH   6   7
ATOM      7  C   UNL     1      51.114  41.291 135.424  1.00  0.00     0.053 C 
BRANCH   7   8
ATOM      8  C   UNL     1      50.350  42.524 135.812  1.00  0.00     0.041 C 
ATOM      9  O   UNL     1      50.948  43.607 136.052  1.00  0.00    -0.550 OA
ATOM     10  O   UNL     1      48.961  42.493 135.826  1.00  0.00    -0.550 OA
ENDBRANCH   7   8
ENDBRANCH   6   7
ENDBRANCH   5   6
ENDBRANCH   4   5
ENDBRANCH   3   4
ENDBRANCH   2   3
ENDBRANCH   1   2
BRANCH   1  11
ATOM     11  C   UNL     1      51.680  36.631 136.939  1.00  0.00    -0.031 C 
ATOM     12  C   UNL     1      50.941  37.073 137.974  1.00  0.00    -0.027 C 
BRANCH  12  13
ATOM     13  C   UNL     1      49.440  36.962 138.082  1.00  0.00     0.054 C 
BRANCH  13  14
ATOM     14  C   UNL     1      48.798  38.171 137.466  1.00  0.00    -0.027 C 
ATOM     15  C   UNL     1      48.037  38.076 136.369  1.00  0.00    -0.031 C 
BRANCH  15  16
ATOM     16  C   UNL     1      47.423  39.291 135.727  1.00  0.00     0.027 C 
BRANCH  16  17
ATOM     17  C   UNL     1      46.175  38.934 134.902  1.00  0.00     0.004 C 
BRANCH  17  18
ATOM     18  C   UNL     1      46.481  38.199 133.583  1.00  0.00     0.000 C 
BRANCH  18  19
ATOM     19  C   UNL     1      45.785  36.834 133.472  1.00  0.00    -0.003 C 
ATOM     20  C   UNL     1      44.309  36.935 133.849  1.00  0.00     0.004 C 
ENDBRANCH  18  19
ENDBRANCH  17  18
ENDBRANCH  16  17
ENDBRANCH  15  16
ENDBRANCH  13  14
ENDBRANCH  12  13
ENDBRANCH   1  11
TORSDOF 14
ENDMDL
MODEL 8
REMARK VINA RESULT:    -2.684      2.345      5.341
REMARK INTER + INTRA:          -7.372
REMARK INTER:                  -5.012
REMARK INTRA:                  -2.360
REMARK UNBOUND:                -2.492
REMARK SMILES CCCCCC=CCC=CCCCCCCCC(=O)[O-]
REMARK SMILES IDX 11 1 12 2 13 3 14 4 15 5 16 6 17 7 18 8 19 9 20 10 10 11
REMARK SMILES IDX 9 12 8 13 7 14 6 15 5 16 4 17 3 18 2 19 1 20
REMARK H PARENT
REMARK Flexibility Score: inf
ROOT
ATOM      1  C   UNL     1      49.828  36.306 137.842  1.00  0.00     0.027 C 
ENDROOT
BRANCH   1   2
ATOM      2  C   UNL     1      51.349  36.484 137.905  1.00  0.00     0.004 C 
BRANCH   2   3
ATOM      3  C   UNL     1      51.902  36.980 136.561  1.00  0.00     0.000 C 
BRANCH   3   4
ATOM      4  C   UNL     1      53.022  38.021 136.727  1.00  0.00     0.000 C 
BRANCH   4   5
ATOM      5  C   UNL     1      52.791  39.283 135.881  1.00  0.00     0.000 C 
BRANCH   5   6
ATOM      6  C   UNL     1      51.464  39.200 135.116  1.00  0.00     0.006 C 
BRANCH   6   7
ATOM      7  C   UNL     1      50.645  40.484 135.300  1.00  0.00     0.053 C 
BRANCH   7   8
ATOM      8  C   UNL     1      50.445  41.221 134.007  1.00  0.00     0.041 C 
ATOM      9  O   UNL     1      49.299  41.329 133.495  1.00  0.00    -0.550 OA
ATOM     10  O   UNL     1      51.524  41.863 133.412  1.00  0.00    -0.550 OA
ENDBRANCH   7   8
ENDBRANCH   6   7
ENDBRANCH   5   6
ENDBRANCH   4   5
ENDBRANCH   3   4
ENDBRANCH   2   3
ENDBRANCH   1   2
BRANCH   1  11
ATOM     11  C   UNL     1      49.124  37.632 137.959  1.00  0.00    -0.031 C 
ATOM     12  C   UNL     1      48.366  38.192 136.997  1.00  0.00    -0.027 C 
BRANCH  12  13
ATOM     13  C   UNL     1      48.163  37.629 135.612  1.00  0.00     0.054 C 
BRANCH  13  14
ATOM     14  C   UNL     1      47.389  38.608 134.777  1.00  0.00    -0.027 C 
ATOM     15  C   UNL     1      46.767  39.658 135.328  1.00  0.00    -0.031 C 
BRANCH  15  16
ATOM     16  C   UNL     1      45.958  40.620 134.498  1.00  0.00     0.027 C 
BRANCH  16  17
ATOM     17  C   UNL     1      44.446  40.416 134.698  1.00  0.00     0.004 C 
BRANCH  17  18
ATOM     18  C   UNL     1      43.828  39.346 133.778  1.00  0.00     0.000 C 
BRANCH  18  19
ATOM     19  C   UNL     1      43.539  38.020 134.496  1.00  0.00    -0.003 C 
ATOM     20  C   UNL     1      44.197  36.847 133.775  1.00  0.00     0.004 C 
ENDBRANCH  18  19
ENDBRANCH  17  18
ENDBRANCH  16  17
ENDBRANCH  15  16
ENDBRANCH  13  14
ENDBRANCH  12  13
ENDBRANCH   1  11
TORSDOF 14
ENDMDL
MODEL 9
REMARK VINA RESULT:    -2.676      1.781      4.462
REMARK INTER + INTRA:          -7.359
REMARK INTER:                  -4.701
REMARK INTRA:                  -2.658
REMARK UNBOUND:                -2.492
REMARK SMILES CCCCCC=CCC=CCCCCCCCC(=O)[O-]
REMARK SMILES IDX 11 1 12 2 13 3 14 4 15 5 16 6 17 7 18 8 19 9 20 10 10 11
REMARK SMILES IDX 9 12 8 13 7 14 6 15 5 16 4 17 3 18 2 19 1 20
REMARK H PARENT
REMARK Flexibility Score: inf
ROOT
ATOM      1  C   UNL     1      47.905  37.702 135.608  1.00  0.00     0.027 C 
ENDROOT
BRANCH   1   2
ATOM      2  C   UNL     1      46.815  38.422 134.805  1.00  0.00     0.004 C 
BRANCH   2   3
ATOM      3  C   UNL     1      46.973  38.157 133.301  1.00  0.00     0.000 C 
BRANCH   3   4
ATOM      4  C   UNL     1      47.535  39.369 132.540  1.00  0.00     0.000 C 
BRANCH   4   5
ATOM      5  C   UNL     1      49.069  39.431 132.571  1.00  0.00     0.000 C 
BRANCH   5   6
ATOM      6  C   UNL     1      49.559  40.515 133.540  1.00  0.00     0.006 C 
BRANCH   6   7
ATOM      7  C   UNL     1      48.588  41.702 133.570  1.00  0.00     0.053 C 
BRANCH   7   8
ATOM      8  C   UNL     1      48.050  41.961 134.948  1.00  0.00     0.041 C 
ATOM      9  O   UNL     1      48.827  42.206 135.910  1.00  0.00    -0.550 OA
ATOM     10  O   UNL     1      46.676  42.016 135.148  1.00  0.00    -0.550 OA
ENDBRANCH   7   8
ENDBRANCH   6   7
ENDBRANCH   5   6
ENDBRANCH   4   5
ENDBRANCH   3   4
ENDBRANCH   2   3
ENDBRANCH   1   2
BRANCH   1  11
ATOM     11  C   UNL     1      48.440  38.586 136.704  1.00  0.00    -0.031 C 
ATOM     12  C   UNL     1      49.036  38.146 137.829  1.00  0.00    -0.027 C 
BRANCH  12  13
ATOM     13  C   UNL     1      49.192  36.698 138.222  1.00  0.00     0.054 C 
BRANCH  13  14
ATOM     14  C   UNL     1      50.572  36.224 137.870  1.00  0.00    -0.027 C 
ATOM     15  C   UNL     1      51.642  37.016 138.018  1.00  0.00    -0.031 C 
BRANCH  15  16
ATOM     16  C   UNL     1      53.023  36.557 137.630  1.00  0.00     0.027 C 
BRANCH  16  17
ATOM     17  C   UNL     1      53.458  37.137 136.274  1.00  0.00     0.004 C 
BRANCH  17  18
ATOM     18  C   UNL     1      52.524  38.233 135.728  1.00  0.00     0.000 C 
BRANCH  18  19
ATOM     19  C   UNL     1      51.997  37.936 134.316  1.00  0.00    -0.003 C 
ATOM     20  C   UNL     1      51.218  36.625 134.282  1.00  0.00     0.004 C 
ENDBRANCH  18  19
ENDBRANCH  17  18
ENDBRANCH  16  17
ENDBRANCH  15  16
ENDBRANCH  13  14
ENDBRANCH  12  13
ENDBRANCH   1  11
TORSDOF 14
ENDMDL
