MODEL 1
REMARK VINA RESULT:    -3.302      0.000      0.000
REMARK INTER + INTRA:          -3.831
REMARK INTER:                  -3.784
REMARK INTRA:                  -0.047
REMARK UNBOUND:                -0.047
REMARK SMILES CC(C)[C@H]([NH3+])C(=O)[O-]
REMARK SMILES IDX 4 1 5 2 6 6 7 7 8 8 2 9 1 10 3 11
REMARK H PARENT 5 3 5 4 5 5
REMARK Flexibility Score: inf
ROOT
ATOM      1  C   UNL     1       1.566  11.051  -3.391  1.00  0.00     0.230 C 
ENDROOT
BRANCH   1   2
ATOM      2  N   UNL     1       0.918  11.221  -2.082  1.00  0.00    -0.350 N 
ATOM      3  H   UNL     1       0.014  11.737  -2.191  1.00  0.00     0.345 HD
ATOM      4  H   UNL     1       0.728  10.292  -1.639  1.00  0.00     0.345 HD
ATOM      5  H   UNL     1       1.525  11.793  -1.450  1.00  0.00     0.345 HD
ENDBRANCH   1   2
BRANCH   1   6
ATOM      6  C   UNL     1       0.535  11.198  -4.484  1.00  0.00     0.099 C 
ATOM      7  O   UNL     1      -0.410  10.372  -4.584  1.00  0.00    -0.544 OA
ATOM      8  O   UNL     1       0.630  12.245  -5.392  1.00  0.00    -0.544 OA
ENDBRANCH   1   6
BRANCH   1   9
ATOM      9  C   UNL     1       2.302   9.680  -3.502  1.00  0.00     0.047 C 
ATOM     10  C   UNL     1       1.912   8.726  -2.361  1.00  0.00     0.014 C 
ATOM     11  C   UNL     1       3.830   9.866  -3.503  1.00  0.00     0.014 C 
ENDBRANCH   1   9
TORSDOF 3
ENDMDL
MODEL 2
REMARK VINA RESULT:    -3.241      1.991      3.019
REMARK INTER + INTRA:          -3.762
REMARK INTER:                  -3.685
REMARK INTRA:                  -0.076
REMARK UNBOUND:                -0.047
REMARK SMILES CC(C)[C@H]([NH3+])C(=O)[O-]
REMARK SMILES IDX 4 1 5 2 6 6 7 7 8 8 2 9 1 10 3 11
REMARK H PARENT 5 3 5 4 5 5
REMARK Flexibility Score: inf
ROOT
ATOM      1  C   UNL     1       0.521  11.567  -3.959  1.00  0.00     0.230 C 
ENDROOT
BRANCH   1   2
ATOM      2  N   UNL     1       0.296  12.450  -2.804  1.00  0.00    -0.350 N 
ATOM      3  H   UNL     1      -0.352  13.229  -3.067  1.00  0.00     0.345 HD
ATOM      4  H   UNL     1      -0.121  11.916  -2.006  1.00  0.00     0.345 HD
ATOM      5  H   UNL     1       1.196  12.887  -2.502  1.00  0.00     0.345 HD
ENDBRANCH   1   2
BRANCH   1   6
ATOM      6  C   UNL     1       0.776  10.161  -3.474  1.00  0.00     0.099 C 
ATOM      7  O   UNL     1       0.925   9.220  -4.297  1.00  0.00    -0.544 OA
ATOM      8  O   UNL     1       0.841   9.897  -2.112  1.00  0.00    -0.544 OA
ENDBRANCH   1   6
BRANCH   1   9
ATOM      9  C   UNL     1       1.695  12.068  -4.854  1.00  0.00     0.047 C 
ATOM     10  C   UNL     1       2.993  12.249  -4.050  1.00  0.00     0.014 C 
ATOM     11  C   UNL     1       1.342  13.398  -5.545  1.00  0.00     0.014 C 
ENDBRANCH   1   9
TORSDOF 3
ENDMDL
MODEL 3
REMARK VINA RESULT:    -3.181      2.154      3.426
REMARK INTER + INTRA:          -3.692
REMARK INTER:                  -3.641
REMARK INTRA:                  -0.051
REMARK UNBOUND:                -0.047
REMARK SMILES CC(C)[C@H]([NH3+])C(=O)[O-]
REMARK SMILES IDX 4 1 5 2 6 6 7 7 8 8 2 9 1 10 3 11
REMARK H PARENT 5 3 5 4 5 5
REMARK Flexibility Score: inf
ROOT
ATOM      1  C   UNL     1       1.789  11.776  -3.857  1.00  0.00     0.230 C 
ENDROOT
BRANCH   1   2
ATOM      2  N   UNL     1       3.126  11.166  -3.883  1.00  0.00    -0.350 N 
ATOM      3  H   UNL     1       3.249  10.532  -3.059  1.00  0.00     0.345 HD
ATOM      4  H   UNL     1       3.263  10.613  -4.761  1.00  0.00     0.345 HD
ATOM      5  H   UNL     1       3.863  11.905  -3.816  1.00  0.00     0.345 HD
ENDBRANCH   1   2
BRANCH   1   6
ATOM      6  C   UNL     1       0.744  10.693  -3.738  1.00  0.00     0.099 C 
ATOM      7  O   UNL     1      -0.222  10.649  -4.545  1.00  0.00    -0.544 OA
ATOM      8  O   UNL     1       0.840   9.743  -2.730  1.00  0.00    -0.544 OA
ENDBRANCH   1   6
BRANCH   1   9
ATOM      9  C   UNL     1       1.529  12.664  -5.113  1.00  0.00     0.047 C 
ATOM     10  C   UNL     1       2.826  12.957  -5.885  1.00  0.00     0.014 C 
ATOM     11  C   UNL     1       0.861  13.995  -4.727  1.00  0.00     0.014 C 
ENDBRANCH   1   9
TORSDOF 3
ENDMDL
MODEL 4
REMARK VINA RESULT:    -3.174      2.389      3.267
REMARK INTER + INTRA:          -3.685
REMARK INTER:                  -3.626
REMARK INTRA:                  -0.059
REMARK UNBOUND:                -0.047
REMARK SMILES CC(C)[C@H]([NH3+])C(=O)[O-]
REMARK SMILES IDX 4 1 5 2 6 6 7 7 8 8 2 9 1 10 3 11
REMARK H PARENT 5 3 5 4 5 5
REMARK Flexibility Score: inf
ROOT
ATOM      1  C   UNL     1       1.290  10.681  -4.081  1.00  0.00     0.230 C 
ENDROOT
BRANCH   1   2
ATOM      2  N   UNL     1      -0.011  10.549  -4.753  1.00  0.00    -0.350 N 
ATOM      3  H   UNL     1      -0.763  10.986  -4.171  1.00  0.00     0.345 HD
ATOM      4  H   UNL     1       0.008  11.014  -5.690  1.00  0.00     0.345 HD
ATOM      5  H   UNL     1      -0.257   9.539  -4.867  1.00  0.00     0.345 HD
ENDBRANCH   1   2
BRANCH   1   6
ATOM      6  C   UNL     1       1.148  10.293  -2.629  1.00  0.00     0.099 C 
ATOM      7  O   UNL     1       1.226  11.167  -1.725  1.00  0.00    -0.544 OA
ATOM      8  O   UNL     1       0.936   8.965  -2.282  1.00  0.00    -0.544 OA
ENDBRANCH   1   6
BRANCH   1   9
ATOM      9  C   UNL     1       1.871  12.123  -4.216  1.00  0.00     0.047 C 
ATOM     10  C   UNL     1       1.217  12.898  -5.371  1.00  0.00     0.014 C 
ATOM     11  C   UNL     1       3.395  12.092  -4.429  1.00  0.00     0.014 C 
ENDBRANCH   1   9
TORSDOF 3
ENDMDL
MODEL 5
REMARK VINA RESULT:    -3.140      2.050      3.468
REMARK INTER + INTRA:          -3.646
REMARK INTER:                  -3.599
REMARK INTRA:                  -0.047
REMARK UNBOUND:                -0.047
REMARK SMILES CC(C)[C@H]([NH3+])C(=O)[O-]
REMARK SMILES IDX 4 1 5 2 6 6 7 7 8 8 2 9 1 10 3 11
REMARK H PARENT 5 3 5 4 5 5
REMARK Flexibility Score: inf
ROOT
ATOM      1  C   UNL     1       1.587  11.318  -3.197  1.00  0.00     0.230 C 
ENDROOT
BRANCH   1   2
ATOM      2  N   UNL     1       2.910  11.376  -3.837  1.00  0.00    -0.350 N 
ATOM      3  H   UNL     1       3.662  11.377  -3.110  1.00  0.00     0.345 HD
ATOM      4  H   UNL     1       3.051  10.556  -4.472  1.00  0.00     0.345 HD
ATOM      5  H   UNL     1       3.008  12.263  -4.383  1.00  0.00     0.345 HD
ENDBRANCH   1   2
BRANCH   1   6
ATOM      6  C   UNL     1       1.116   9.885  -3.148  1.00  0.00     0.099 C 
ATOM      7  O   UNL     1       0.868   9.258  -4.212  1.00  0.00    -0.544 OA
ATOM      8  O   UNL     1       0.946   9.251  -1.924  1.00  0.00    -0.544 OA
ENDBRANCH   1   6
BRANCH   1   9
ATOM      9  C   UNL     1       0.546  12.220  -3.929  1.00  0.00     0.047 C 
ATOM     10  C   UNL     1       1.055  12.684  -5.303  1.00  0.00     0.014 C 
ATOM     11  C   UNL     1       0.185  13.454  -3.083  1.00  0.00     0.014 C 
ENDBRANCH   1   9
TORSDOF 3
ENDMDL
MODEL 6
REMARK VINA RESULT:    -3.094      1.878      2.256
REMARK INTER + INTRA:          -3.593
REMARK INTER:                  -3.533
REMARK INTRA:                  -0.061
REMARK UNBOUND:                -0.047
REMARK SMILES CC(C)[C@H]([NH3+])C(=O)[O-]
REMARK SMILES IDX 4 1 5 2 6 6 7 7 8 8 2 9 1 10 3 11
REMARK H PARENT 5 3 5 4 5 5
REMARK Flexibility Score: inf
ROOT
ATOM      1  C   UNL     1       0.686  11.283  -4.023  1.00  0.00     0.230 C 
ENDROOT
BRANCH   1   2
ATOM      2  N   UNL     1      -0.161  10.446  -4.885  1.00  0.00    -0.350 N 
ATOM      3  H   UNL     1      -1.092  10.290  -4.433  1.00  0.00     0.345 HD
ATOM      4  H   UNL     1      -0.308  10.902  -5.816  1.00  0.00     0.345 HD
ATOM      5  H   UNL     1       0.276   9.506  -5.021  1.00  0.00     0.345 HD
ENDBRANCH   1   2
BRANCH   1   6
ATOM      6  C   UNL     1       1.438  12.278  -4.873  1.00  0.00     0.099 C 
ATOM      7  O   UNL     1       0.836  12.948  -5.753  1.00  0.00    -0.544 OA
ATOM      8  O   UNL     1       2.804  12.454  -4.692  1.00  0.00    -0.544 OA
ENDBRANCH   1   6
BRANCH   1   9
ATOM      9  C   UNL     1       1.670  10.427  -3.167  1.00  0.00     0.047 C 
ATOM     10  C   UNL     1       1.704   8.961  -3.627  1.00  0.00     0.014 C 
ATOM     11  C   UNL     1       1.299  10.478  -1.674  1.00  0.00     0.014 C 
ENDBRANCH   1   9
TORSDOF 3
ENDMDL
MODEL 7
REMARK VINA RESULT:    -3.029      2.147      2.983
REMARK INTER + INTRA:          -3.519
REMARK INTER:                  -3.472
REMARK INTRA:                  -0.047
REMARK UNBOUND:                -0.047
REMARK SMILES CC(C)[C@H]([NH3+])C(=O)[O-]
REMARK SMILES IDX 4 1 5 2 6 6 7 7 8 8 2 9 1 10 3 11
REMARK H PARENT 5 3 5 4 5 5
REMARK Flexibility Score: inf
ROOT
ATOM      1  C   UNL     1       2.640  10.449  -3.195  1.00  0.00     0.230 C 
ENDROOT
BRANCH   1   2
ATOM      2  N   UNL     1       3.609   9.435  -3.637  1.00  0.00    -0.350 N 
ATOM      3  H   UNL     1       4.213   9.140  -2.835  1.00  0.00     0.345 HD
ATOM      4  H   UNL     1       3.116   8.594  -4.019  1.00  0.00     0.345 HD
ATOM      5  H   UNL     1       4.241   9.833  -4.368  1.00  0.00     0.345 HD
ENDBRANCH   1   2
BRANCH   1   6
ATOM      6  C   UNL     1       1.259   9.841  -3.158  1.00  0.00     0.099 C 
ATOM      7  O   UNL     1       0.922   9.080  -2.213  1.00  0.00    -0.544 OA
ATOM      8  O   UNL     1       0.353  10.114  -4.175  1.00  0.00    -0.544 OA
ENDBRANCH   1   6
BRANCH   1   9
ATOM      9  C   UNL     1       2.666  11.715  -4.105  1.00  0.00     0.047 C 
ATOM     10  C   UNL     1       4.066  11.976  -4.684  1.00  0.00     0.014 C 
ATOM     11  C   UNL     1       2.199  12.964  -3.336  1.00  0.00     0.014 C 
ENDBRANCH   1   9
TORSDOF 3
ENDMDL
MODEL 8
REMARK VINA RESULT:    -2.905      1.673      2.205
REMARK INTER + INTRA:          -3.377
REMARK INTER:                  -3.354
REMARK INTRA:                  -0.023
REMARK UNBOUND:                -0.047
REMARK SMILES CC(C)[C@H]([NH3+])C(=O)[O-]
REMARK SMILES IDX 4 1 5 2 6 6 7 7 8 8 2 9 1 10 3 11
REMARK H PARENT 5 3 5 4 5 5
REMARK Flexibility Score: inf
ROOT
ATOM      1  C   UNL     1       1.420  10.717  -2.550  1.00  0.00     0.230 C 
ENDROOT
BRANCH   1   2
ATOM      2  N   UNL     1       0.734  11.979  -2.233  1.00  0.00    -0.350 N 
ATOM      3  H   UNL     1      -0.270  11.926  -2.522  1.00  0.00     0.345 HD
ATOM      4  H   UNL     1       0.782  12.178  -1.206  1.00  0.00     0.345 HD
ATOM      5  H   UNL     1       1.167  12.769  -2.764  1.00  0.00     0.345 HD
ENDBRANCH   1   2
BRANCH   1   6
ATOM      6  C   UNL     1       0.759  10.073  -3.744  1.00  0.00     0.099 C 
ATOM      7  O   UNL     1      -0.156  10.674  -4.367  1.00  0.00    -0.544 OA
ATOM      8  O   UNL     1       1.153   8.807  -4.158  1.00  0.00    -0.544 OA
ENDBRANCH   1   6
BRANCH   1   9
ATOM      9  C   UNL     1       1.439   9.743  -1.332  1.00  0.00     0.047 C 
ATOM     10  C   UNL     1       1.043  10.450  -0.026  1.00  0.00     0.014 C 
ATOM     11  C   UNL     1       2.825   9.098  -1.156  1.00  0.00     0.014 C 
ENDBRANCH   1   9
TORSDOF 3
ENDMDL
MODEL 9
REMARK VINA RESULT:    -2.824      2.165      3.393
REMARK INTER + INTRA:          -3.284
REMARK INTER:                  -3.224
REMARK INTRA:                  -0.059
REMARK UNBOUND:                -0.047
REMARK SMILES CC(C)[C@H]([NH3+])C(=O)[O-]
REMARK SMILES IDX 4 1 5 2 6 6 7 7 8 8 2 9 1 10 3 11
REMARK H PARENT 5 3 5 4 5 5
REMARK Flexibility Score: inf
ROOT
ATOM      1  C   UNL     1       1.393  10.817  -2.414  1.00  0.00     0.230 C 
ENDROOT
BRANCH   1   2
ATOM      2  N   UNL     1       2.333  11.472  -1.492  1.00  0.00    -0.350 N 
ATOM      3  H   UNL     1       2.560  12.435  -1.834  1.00  0.00     0.345 HD
ATOM      4  H   UNL     1       1.922  11.540  -0.532  1.00  0.00     0.345 HD
ATOM      5  H   UNL     1       3.232  10.940  -1.453  1.00  0.00     0.345 HD
ENDBRANCH   1   2
BRANCH   1   6
ATOM      6  C   UNL     1       1.958   9.485  -2.844  1.00  0.00     0.099 C 
ATOM      7  O   UNL     1       3.069   9.424  -3.434  1.00  0.00    -0.544 OA
ATOM      8  O   UNL     1       1.248   8.317  -2.597  1.00  0.00    -0.544 OA
ENDBRANCH   1   6
BRANCH   1   9
ATOM      9  C   UNL     1       1.074  11.711  -3.652  1.00  0.00     0.047 C 
ATOM     10  C   UNL     1       0.378  13.020  -3.249  1.00  0.00     0.014 C 
ATOM     11  C   UNL     1       0.191  10.962  -4.667  1.00  0.00     0.014 C 
ENDBRANCH   1   9
TORSDOF 3
ENDMDL
