MODEL 1
REMARK VINA RESULT:    -4.026      0.000      0.000
REMARK INTER + INTRA:          -4.533
REMARK INTER:                  -4.497
REMARK INTRA:                  -0.036
REMARK UNBOUND:                -0.036
REMARK SMILES O=C([O-])c1ccc(O)c(O)c1
REMARK SMILES IDX 4 1 11 2 5 3 9 4 6 5 7 6 2 7 1 8 3 9 10 10 8 12
REMARK H PARENT 10 11 8 13
REMARK Flexibility Score: inf
ROOT
ATOM      1  C   UNL     1       4.119  38.154   7.144  1.00  0.00     0.001 A 
ATOM      2  C   UNL     1       4.670  37.399   8.194  1.00  0.00     0.060 A 
ATOM      3  C   UNL     1       4.922  39.112   6.500  1.00  0.00     0.014 A 
ATOM      4  C   UNL     1       6.001  37.594   8.594  1.00  0.00     0.158 A 
ATOM      5  C   UNL     1       6.247  39.308   6.898  1.00  0.00     0.051 A 
ATOM      6  C   UNL     1       6.792  38.553   7.942  1.00  0.00     0.157 A 
ENDROOT
BRANCH   1   7
ATOM      7  C   UNL     1       2.717  37.950   6.720  1.00  0.00     0.072 C 
ATOM      8  O   UNL     1       2.433  37.095   5.838  1.00  0.00    -0.545 OA
ATOM      9  O   UNL     1       1.692  38.697   7.288  1.00  0.00    -0.545 OA
ENDBRANCH   1   7
BRANCH   4  10
ATOM     10  O   UNL     1       6.537  36.839   9.636  1.00  0.00    -0.504 OA
ATOM     11  H   UNL     1       6.876  35.896   9.489  1.00  0.00     0.293 HD
ENDBRANCH   4  10
BRANCH   6  12
ATOM     12  O   UNL     1       8.117  38.773   8.316  1.00  0.00    -0.504 OA
ATOM     13  H   UNL     1       8.379  38.972   9.274  1.00  0.00     0.293 HD
ENDBRANCH   6  12
TORSDOF 3
ENDMDL
MODEL 2
REMARK VINA RESULT:    -3.963      3.535      6.206
REMARK INTER + INTRA:          -4.462
REMARK INTER:                  -4.425
REMARK INTRA:                  -0.037
REMARK UNBOUND:                -0.036
REMARK SMILES O=C([O-])c1ccc(O)c(O)c1
REMARK SMILES IDX 4 1 11 2 5 3 9 4 6 5 7 6 2 7 1 8 3 9 10 10 8 12
REMARK H PARENT 10 11 8 13
REMARK Flexibility Score: inf
ROOT
ATOM      1  C   UNL     1       1.666  36.870   5.722  1.00  0.00     0.001 A 
ATOM      2  C   UNL     1       0.592  37.421   6.443  1.00  0.00     0.060 A 
ATOM      3  C   UNL     1       1.598  35.524   5.322  1.00  0.00     0.014 A 
ATOM      4  C   UNL     1      -0.531  36.642   6.760  1.00  0.00     0.158 A 
ATOM      5  C   UNL     1       0.480  34.747   5.637  1.00  0.00     0.051 A 
ATOM      6  C   UNL     1      -0.586  35.299   6.354  1.00  0.00     0.157 A 
ENDROOT
BRANCH   1   7
ATOM      7  C   UNL     1       2.851  37.689   5.387  1.00  0.00     0.072 C 
ATOM      8  O   UNL     1       3.135  37.943   4.185  1.00  0.00    -0.545 OA
ATOM      9  O   UNL     1       3.669  38.192   6.392  1.00  0.00    -0.545 OA
ENDBRANCH   1   7
BRANCH   4  10
ATOM     10  O   UNL     1      -1.591  37.199   7.475  1.00  0.00    -0.504 OA
ATOM     11  H   UNL     1      -1.688  37.063   8.474  1.00  0.00     0.293 HD
ENDBRANCH   4  10
BRANCH   6  12
ATOM     12  O   UNL     1      -1.688  34.498   6.653  1.00  0.00    -0.504 OA
ATOM     13  H   UNL     1      -1.725  33.925   7.488  1.00  0.00     0.293 HD
ENDBRANCH   6  12
TORSDOF 3
ENDMDL
MODEL 3
REMARK VINA RESULT:    -3.737      2.815      5.794
REMARK INTER + INTRA:          -4.209
REMARK INTER:                  -4.173
REMARK INTRA:                  -0.036
REMARK UNBOUND:                -0.036
REMARK SMILES O=C([O-])c1ccc(O)c(O)c1
REMARK SMILES IDX 4 1 11 2 5 3 9 4 6 5 7 6 2 7 1 8 3 9 10 10 8 12
REMARK H PARENT 10 11 8 13
REMARK Flexibility Score: inf
ROOT
ATOM      1  C   UNL     1       2.295  37.468   6.117  1.00  0.00     0.001 A 
ATOM      2  C   UNL     1       1.181  37.988   6.799  1.00  0.00     0.060 A 
ATOM      3  C   UNL     1       2.150  36.277   5.385  1.00  0.00     0.014 A 
ATOM      4  C   UNL     1      -0.057  37.330   6.752  1.00  0.00     0.158 A 
ATOM      5  C   UNL     1       0.918  35.620   5.338  1.00  0.00     0.051 A 
ATOM      6  C   UNL     1      -0.188  36.140   6.018  1.00  0.00     0.157 A 
ENDROOT
BRANCH   1   7
ATOM      7  C   UNL     1       3.602  38.161   6.164  1.00  0.00     0.072 C 
ATOM      8  O   UNL     1       4.338  38.072   7.183  1.00  0.00    -0.545 OA
ATOM      9  O   UNL     1       4.037  38.920   5.083  1.00  0.00    -0.545 OA
ENDBRANCH   1   7
BRANCH   4  10
ATOM     10  O   UNL     1      -1.155  37.854   7.433  1.00  0.00    -0.504 OA
ATOM     11  H   UNL     1      -1.102  38.110   8.412  1.00  0.00     0.293 HD
ENDBRANCH   4  10
BRANCH   6  12
ATOM     12  O   UNL     1      -1.404  35.461   5.952  1.00  0.00    -0.504 OA
ATOM     13  H   UNL     1      -1.970  35.453   5.112  1.00  0.00     0.293 HD
ENDBRANCH   6  12
TORSDOF 3
ENDMDL
MODEL 4
REMARK VINA RESULT:    -3.619      4.030      5.558
REMARK INTER + INTRA:          -4.078
REMARK INTER:                  -4.033
REMARK INTRA:                  -0.044
REMARK UNBOUND:                -0.036
REMARK SMILES O=C([O-])c1ccc(O)c(O)c1
REMARK SMILES IDX 4 1 11 2 5 3 9 4 6 5 7 6 2 7 1 8 3 9 10 10 8 12
REMARK H PARENT 10 11 8 13
REMARK Flexibility Score: inf
ROOT
ATOM      1  C   UNL     1       1.450  38.410   6.283  1.00  0.00     0.001 A 
ATOM      2  C   UNL     1       0.177  37.890   6.575  1.00  0.00     0.060 A 
ATOM      3  C   UNL     1       2.407  37.573   5.682  1.00  0.00     0.014 A 
ATOM      4  C   UNL     1      -0.137  36.556   6.271  1.00  0.00     0.158 A 
ATOM      5  C   UNL     1       2.095  36.245   5.379  1.00  0.00     0.051 A 
ATOM      6  C   UNL     1       0.828  35.731   5.671  1.00  0.00     0.157 A 
ENDROOT
BRANCH   1   7
ATOM      7  C   UNL     1       1.784  39.816   6.601  1.00  0.00     0.072 C 
ATOM      8  O   UNL     1       2.902  40.298   6.277  1.00  0.00    -0.545 OA
ATOM      9  O   UNL     1       0.868  40.626   7.261  1.00  0.00    -0.545 OA
ENDBRANCH   1   7
BRANCH   4  10
ATOM     10  O   UNL     1      -1.403  36.050   6.565  1.00  0.00    -0.504 OA
ATOM     11  H   UNL     1      -1.954  35.561   5.870  1.00  0.00     0.293 HD
ENDBRANCH   4  10
BRANCH   6  12
ATOM     12  O   UNL     1       0.548  34.402   5.357  1.00  0.00    -0.504 OA
ATOM     13  H   UNL     1       1.157  33.849   4.765  1.00  0.00     0.293 HD
ENDBRANCH   6  12
TORSDOF 3
ENDMDL
MODEL 5
REMARK VINA RESULT:    -3.582      2.886      5.668
REMARK INTER + INTRA:          -4.037
REMARK INTER:                  -4.001
REMARK INTRA:                  -0.036
REMARK UNBOUND:                -0.036
REMARK SMILES O=C([O-])c1ccc(O)c(O)c1
REMARK SMILES IDX 4 1 11 2 5 3 9 4 6 5 7 6 2 7 1 8 3 9 10 10 8 12
REMARK H PARENT 10 11 8 13
REMARK Flexibility Score: inf
ROOT
ATOM      1  C   UNL     1       2.286  37.647   6.014  1.00  0.00     0.001 A 
ATOM      2  C   UNL     1       2.105  36.314   5.604  1.00  0.00     0.060 A 
ATOM      3  C   UNL     1       1.182  38.362   6.510  1.00  0.00     0.014 A 
ATOM      4  C   UNL     1       0.843  35.705   5.688  1.00  0.00     0.158 A 
ATOM      5  C   UNL     1      -0.074  37.757   6.594  1.00  0.00     0.051 A 
ATOM      6  C   UNL     1      -0.250  36.432   6.186  1.00  0.00     0.157 A 
ENDROOT
BRANCH   1   7
ATOM      7  C   UNL     1       3.615  38.291   5.926  1.00  0.00     0.072 C 
ATOM      8  O   UNL     1       3.952  38.925   4.891  1.00  0.00    -0.545 OA
ATOM      9  O   UNL     1       4.510  38.206   6.986  1.00  0.00    -0.545 OA
ENDBRANCH   1   7
BRANCH   4  10
ATOM     10  O   UNL     1       0.675  34.383   5.279  1.00  0.00    -0.504 OA
ATOM     11  H   UNL     1      -0.239  34.007   5.060  1.00  0.00     0.293 HD
ENDBRANCH   4  10
BRANCH   6  12
ATOM     12  O   UNL     1      -1.517  35.856   6.282  1.00  0.00    -0.504 OA
ATOM     13  H   UNL     1      -1.720  35.109   6.936  1.00  0.00     0.293 HD
ENDBRANCH   6  12
TORSDOF 3
ENDMDL
MODEL 6
REMARK VINA RESULT:    -3.573      0.840      2.051
REMARK INTER + INTRA:          -4.026
REMARK INTER:                  -3.990
REMARK INTRA:                  -0.036
REMARK UNBOUND:                -0.036
REMARK SMILES O=C([O-])c1ccc(O)c(O)c1
REMARK SMILES IDX 4 1 11 2 5 3 9 4 6 5 7 6 2 7 1 8 3 9 10 10 8 12
REMARK H PARENT 10 11 8 13
REMARK Flexibility Score: inf
ROOT
ATOM      1  C   UNL     1       4.232  38.133   7.207  1.00  0.00     0.001 A 
ATOM      2  C   UNL     1       5.040  39.126   6.627  1.00  0.00     0.060 A 
ATOM      3  C   UNL     1       4.744  37.375   8.274  1.00  0.00     0.014 A 
ATOM      4  C   UNL     1       6.339  39.359   7.105  1.00  0.00     0.158 A 
ATOM      5  C   UNL     1       6.037  37.606   8.750  1.00  0.00     0.051 A 
ATOM      6  C   UNL     1       6.838  38.595   8.171  1.00  0.00     0.157 A 
ENDROOT
BRANCH   1   7
ATOM      7  C   UNL     1       2.861  37.886   6.706  1.00  0.00     0.072 C 
ATOM      8  O   UNL     1       2.666  37.116   5.728  1.00  0.00    -0.545 OA
ATOM      9  O   UNL     1       1.769  38.498   7.310  1.00  0.00    -0.545 OA
ENDBRANCH   1   7
BRANCH   4  10
ATOM     10  O   UNL     1       7.132  40.347   6.522  1.00  0.00    -0.504 OA
ATOM     11  H   UNL     1       7.583  41.064   7.079  1.00  0.00     0.293 HD
ENDBRANCH   4  10
BRANCH   6  12
ATOM     12  O   UNL     1       8.125  38.801   8.668  1.00  0.00    -0.504 OA
ATOM     13  H   UNL     1       8.952  38.537   8.145  1.00  0.00     0.293 HD
ENDBRANCH   6  12
TORSDOF 3
ENDMDL
MODEL 7
REMARK VINA RESULT:    -3.503      3.355      4.469
REMARK INTER + INTRA:          -3.948
REMARK INTER:                  -3.906
REMARK INTRA:                  -0.042
REMARK UNBOUND:                -0.036
REMARK SMILES O=C([O-])c1ccc(O)c(O)c1
REMARK SMILES IDX 4 1 11 2 5 3 9 4 6 5 7 6 2 7 1 8 3 9 10 10 8 12
REMARK H PARENT 10 11 8 13
REMARK Flexibility Score: inf
ROOT
ATOM      1  C   UNL     1       0.990  37.192   6.013  1.00  0.00     0.001 A 
ATOM      2  C   UNL     1       0.545  38.390   6.598  1.00  0.00     0.060 A 
ATOM      3  C   UNL     1       2.351  37.058   5.686  1.00  0.00     0.014 A 
ATOM      4  C   UNL     1       1.443  39.438   6.854  1.00  0.00     0.158 A 
ATOM      5  C   UNL     1       3.246  38.101   5.940  1.00  0.00     0.051 A 
ATOM      6  C   UNL     1       2.799  39.291   6.522  1.00  0.00     0.157 A 
ENDROOT
BRANCH   1   7
ATOM      7  C   UNL     1       0.045  36.085   5.744  1.00  0.00     0.072 C 
ATOM      8  O   UNL     1      -1.168  36.324   5.500  1.00  0.00    -0.545 OA
ATOM      9  O   UNL     1       0.483  34.766   5.754  1.00  0.00    -0.545 OA
ENDBRANCH   1   7
BRANCH   4  10
ATOM     10  O   UNL     1       0.990  40.622   7.435  1.00  0.00    -0.504 OA
ATOM     11  H   UNL     1       0.566  41.357   6.882  1.00  0.00     0.293 HD
ENDBRANCH   4  10
BRANCH   6  12
ATOM     12  O   UNL     1       3.717  40.313   6.762  1.00  0.00    -0.504 OA
ATOM     13  H   UNL     1       3.824  41.099   6.131  1.00  0.00     0.293 HD
ENDBRANCH   6  12
TORSDOF 3
ENDMDL
MODEL 8
REMARK VINA RESULT:    -3.489      4.237      5.775
REMARK INTER + INTRA:          -3.933
REMARK INTER:                  -3.896
REMARK INTRA:                  -0.037
REMARK UNBOUND:                -0.036
REMARK SMILES O=C([O-])c1ccc(O)c(O)c1
REMARK SMILES IDX 4 1 11 2 5 3 9 4 6 5 7 6 2 7 1 8 3 9 10 10 8 12
REMARK H PARENT 10 11 8 13
REMARK Flexibility Score: inf
ROOT
ATOM      1  C   UNL     1      -0.505  35.779   6.286  1.00  0.00     0.001 A 
ATOM      2  C   UNL     1      -0.309  37.158   6.477  1.00  0.00     0.060 A 
ATOM      3  C   UNL     1       0.526  35.018   5.707  1.00  0.00     0.014 A 
ATOM      4  C   UNL     1       0.895  37.768   6.097  1.00  0.00     0.158 A 
ATOM      5  C   UNL     1       1.726  35.625   5.327  1.00  0.00     0.051 A 
ATOM      6  C   UNL     1       1.917  36.997   5.520  1.00  0.00     0.157 A 
ENDROOT
BRANCH   1   7
ATOM      7  C   UNL     1      -1.774  35.132   6.687  1.00  0.00     0.072 C 
ATOM      8  O   UNL     1      -1.800  34.309   7.640  1.00  0.00    -0.545 OA
ATOM      9  O   UNL     1      -2.957  35.425   6.018  1.00  0.00    -0.545 OA
ENDBRANCH   1   7
BRANCH   4  10
ATOM     10  O   UNL     1       1.079  39.137   6.291  1.00  0.00    -0.504 OA
ATOM     11  H   UNL     1       0.384  39.813   5.999  1.00  0.00     0.293 HD
ENDBRANCH   4  10
BRANCH   6  12
ATOM     12  O   UNL     1       3.126  37.573   5.130  1.00  0.00    -0.504 OA
ATOM     13  H   UNL     1       3.531  37.407   4.216  1.00  0.00     0.293 HD
ENDBRANCH   6  12
TORSDOF 3
ENDMDL
MODEL 9
REMARK VINA RESULT:    -3.482     14.072     15.631
REMARK INTER + INTRA:          -3.925
REMARK INTER:                  -3.883
REMARK INTRA:                  -0.042
REMARK UNBOUND:                -0.036
REMARK SMILES O=C([O-])c1ccc(O)c(O)c1
REMARK SMILES IDX 4 1 11 2 5 3 9 4 6 5 7 6 2 7 1 8 3 9 10 10 8 12
REMARK H PARENT 10 11 8 13
REMARK Flexibility Score: inf
ROOT
ATOM      1  C   UNL     1      -4.217  50.776  10.615  1.00  0.00     0.001 A 
ATOM      2  C   UNL     1      -3.370  49.654  10.613  1.00  0.00     0.060 A 
ATOM      3  C   UNL     1      -5.404  50.735   9.862  1.00  0.00     0.014 A 
ATOM      4  C   UNL     1      -3.701  48.510   9.872  1.00  0.00     0.158 A 
ATOM      5  C   UNL     1      -5.734  49.595   9.123  1.00  0.00     0.051 A 
ATOM      6  C   UNL     1      -4.889  48.481   9.125  1.00  0.00     0.157 A 
ENDROOT
BRANCH   1   7
ATOM      7  C   UNL     1      -3.871  51.984  11.396  1.00  0.00     0.072 C 
ATOM      8  O   UNL     1      -4.239  53.125  11.007  1.00  0.00    -0.545 OA
ATOM      9  O   UNL     1      -3.136  51.878  12.571  1.00  0.00    -0.545 OA
ENDBRANCH   1   7
BRANCH   4  10
ATOM     10  O   UNL     1      -2.854  47.402   9.878  1.00  0.00    -0.504 OA
ATOM     11  H   UNL     1      -3.130  46.523  10.298  1.00  0.00     0.293 HD
ENDBRANCH   4  10
BRANCH   6  12
ATOM     12  O   UNL     1      -5.247  47.360   8.377  1.00  0.00    -0.504 OA
ATOM     13  H   UNL     1      -4.853  47.176   7.462  1.00  0.00     0.293 HD
ENDBRANCH   6  12
TORSDOF 3
ENDMDL
