MODEL 1
REMARK VINA RESULT:    -5.614      0.000      0.000
REMARK INTER + INTRA:          -6.156
REMARK INTER:                  -6.107
REMARK INTRA:                  -0.049
REMARK UNBOUND:                -0.049
REMARK SMILES CCc1cccc(O)c1
REMARK SMILES IDX 3 1 9 2 7 3 6 4 5 5 4 6 2 7 1 8 8 9
REMARK H PARENT 8 10
REMARK Flexibility Score: inf
ROOT
ATOM      1  C   UNL     1      38.397   4.664 102.926  1.00  0.00    -0.045 A 
ATOM      2  C   UNL     1      39.203   4.636 104.077  1.00  0.00     0.049 A 
ATOM      3  C   UNL     1      39.493   3.417 104.707  1.00  0.00     0.115 A 
ATOM      4  C   UNL     1      38.971   2.225 104.192  1.00  0.00     0.046 A 
ATOM      5  C   UNL     1      38.157   2.250 103.056  1.00  0.00     0.004 A 
ATOM      6  C   UNL     1      37.866   3.463 102.427  1.00  0.00     0.004 A 
ENDROOT
BRANCH   1   7
ATOM      7  C   UNL     1      38.056   5.976 102.270  1.00  0.00     0.032 C 
ATOM      8  C   UNL     1      39.173   6.991 102.479  1.00  0.00     0.009 C 
ENDBRANCH   1   7
BRANCH   3   9
ATOM      9  O   UNL     1      40.296   3.380 105.844  1.00  0.00    -0.508 OA
ATOM     10  H   UNL     1      41.143   3.934 105.913  1.00  0.00     0.293 HD
ENDBRANCH   3   9
TORSDOF 2
ENDMDL
MODEL 2
REMARK VINA RESULT:    -5.318      2.174      2.820
REMARK INTER + INTRA:          -5.833
REMARK INTER:                  -5.782
REMARK INTRA:                  -0.051
REMARK UNBOUND:                -0.049
REMARK SMILES CCc1cccc(O)c1
REMARK SMILES IDX 3 1 9 2 7 3 6 4 5 5 4 6 2 7 1 8 8 9
REMARK H PARENT 8 10
REMARK Flexibility Score: inf
ROOT
ATOM      1  C   UNL     1      38.711   3.816 103.363  1.00  0.00    -0.045 A 
ATOM      2  C   UNL     1      37.746   3.348 102.455  1.00  0.00     0.049 A 
ATOM      3  C   UNL     1      37.365   1.999 102.460  1.00  0.00     0.115 A 
ATOM      4  C   UNL     1      37.956   1.112 103.367  1.00  0.00     0.046 A 
ATOM      5  C   UNL     1      38.926   1.570 104.264  1.00  0.00     0.004 A 
ATOM      6  C   UNL     1      39.307   2.914 104.260  1.00  0.00     0.004 A 
ENDROOT
BRANCH   1   7
ATOM      7  C   UNL     1      39.145   5.257 103.335  1.00  0.00     0.032 C 
ATOM      8  C   UNL     1      38.278   6.064 102.375  1.00  0.00     0.009 C 
ENDBRANCH   1   7
BRANCH   3   9
ATOM      9  O   UNL     1      36.405   1.529 101.568  1.00  0.00    -0.508 OA
ATOM     10  H   UNL     1      36.654   1.227 100.632  1.00  0.00     0.293 HD
ENDBRANCH   3   9
TORSDOF 2
ENDMDL
MODEL 3
REMARK VINA RESULT:    -5.192      1.044      3.191
REMARK INTER + INTRA:          -5.697
REMARK INTER:                  -5.623
REMARK INTRA:                  -0.074
REMARK UNBOUND:                -0.049
REMARK SMILES CCc1cccc(O)c1
REMARK SMILES IDX 3 1 9 2 7 3 6 4 5 5 4 6 2 7 1 8 8 9
REMARK H PARENT 8 10
REMARK Flexibility Score: inf
ROOT
ATOM      1  C   UNL     1      37.979   2.256 103.000  1.00  0.00    -0.045 A 
ATOM      2  C   UNL     1      38.877   2.219 104.080  1.00  0.00     0.049 A 
ATOM      3  C   UNL     1      39.465   3.401 104.551  1.00  0.00     0.115 A 
ATOM      4  C   UNL     1      39.163   4.622 103.937  1.00  0.00     0.046 A 
ATOM      5  C   UNL     1      38.281   4.662 102.854  1.00  0.00     0.004 A 
ATOM      6  C   UNL     1      37.694   3.485 102.382  1.00  0.00     0.004 A 
ENDROOT
BRANCH   1   7
ATOM      7  C   UNL     1      37.374   0.983 102.471  1.00  0.00     0.032 C 
ATOM      8  C   UNL     1      36.151   1.282 101.612  1.00  0.00     0.009 C 
ENDBRANCH   1   7
BRANCH   3   9
ATOM      9  O   UNL     1      40.350   3.374 105.625  1.00  0.00    -0.508 OA
ATOM     10  H   UNL     1      40.025   3.248 106.578  1.00  0.00     0.293 HD
ENDBRANCH   3   9
TORSDOF 2
ENDMDL
MODEL 4
REMARK VINA RESULT:    -5.188     11.260     13.244
REMARK INTER + INTRA:          -5.692
REMARK INTER:                  -5.642
REMARK INTRA:                  -0.050
REMARK UNBOUND:                -0.049
REMARK SMILES CCc1cccc(O)c1
REMARK SMILES IDX 3 1 9 2 7 3 6 4 5 5 4 6 2 7 1 8 8 9
REMARK H PARENT 8 10
REMARK Flexibility Score: inf
ROOT
ATOM      1  C   UNL     1      36.417  -7.453 108.708  1.00  0.00    -0.045 A 
ATOM      2  C   UNL     1      35.480  -7.437 109.754  1.00  0.00     0.049 A 
ATOM      3  C   UNL     1      34.844  -6.241 110.115  1.00  0.00     0.115 A 
ATOM      4  C   UNL     1      35.150  -5.057 109.435  1.00  0.00     0.046 A 
ATOM      5  C   UNL     1      36.091  -5.066 108.402  1.00  0.00     0.004 A 
ATOM      6  C   UNL     1      36.727  -6.256 108.041  1.00  0.00     0.004 A 
ENDROOT
BRANCH   1   7
ATOM      7  C   UNL     1      37.127  -8.731 108.343  1.00  0.00     0.032 C 
ATOM      8  C   UNL     1      36.313  -9.944 108.778  1.00  0.00     0.009 C 
ENDBRANCH   1   7
BRANCH   3   9
ATOM      9  O   UNL     1      33.909  -6.217 111.147  1.00  0.00    -0.508 OA
ATOM     10  H   UNL     1      34.183  -6.032 112.106  1.00  0.00     0.293 HD
ENDBRANCH   3   9
TORSDOF 2
ENDMDL
MODEL 5
REMARK VINA RESULT:    -5.132      2.859      3.746
REMARK INTER + INTRA:          -5.631
REMARK INTER:                  -5.581
REMARK INTRA:                  -0.050
REMARK UNBOUND:                -0.049
REMARK SMILES CCc1cccc(O)c1
REMARK SMILES IDX 3 1 9 2 7 3 6 4 5 5 4 6 2 7 1 8 8 9
REMARK H PARENT 8 10
REMARK Flexibility Score: inf
ROOT
ATOM      1  C   UNL     1      38.086   2.587 103.116  1.00  0.00    -0.045 A 
ATOM      2  C   UNL     1      37.148   2.572 102.071  1.00  0.00     0.049 A 
ATOM      3  C   UNL     1      36.433   1.401 101.779  1.00  0.00     0.115 A 
ATOM      4  C   UNL     1      36.662   0.241 102.528  1.00  0.00     0.046 A 
ATOM      5  C   UNL     1      37.604   0.248 103.560  1.00  0.00     0.004 A 
ATOM      6  C   UNL     1      38.318   1.413 103.852  1.00  0.00     0.004 A 
ENDROOT
BRANCH   1   7
ATOM      7  C   UNL     1      38.879   3.834 103.407  1.00  0.00     0.032 C 
ATOM      8  C   UNL     1      38.216   5.054 102.779  1.00  0.00     0.009 C 
ENDBRANCH   1   7
BRANCH   3   9
ATOM      9  O   UNL     1      35.496   1.379 100.749  1.00  0.00    -0.508 OA
ATOM     10  H   UNL     1      35.648   0.836  99.906  1.00  0.00     0.293 HD
ENDBRANCH   3   9
TORSDOF 2
ENDMDL
MODEL 6
REMARK VINA RESULT:    -5.054     12.085     14.198
REMARK INTER + INTRA:          -5.546
REMARK INTER:                  -5.470
REMARK INTRA:                  -0.076
REMARK UNBOUND:                -0.049
REMARK SMILES CCc1cccc(O)c1
REMARK SMILES IDX 3 1 9 2 7 3 6 4 5 5 4 6 2 7 1 8 8 9
REMARK H PARENT 8 10
REMARK Flexibility Score: inf
ROOT
ATOM      1  C   UNL     1      36.841  -9.457 108.324  1.00  0.00    -0.045 A 
ATOM      2  C   UNL     1      37.635  -8.702 107.445  1.00  0.00     0.049 A 
ATOM      3  C   UNL     1      37.601  -7.301 107.487  1.00  0.00     0.115 A 
ATOM      4  C   UNL     1      36.766  -6.653 108.404  1.00  0.00     0.046 A 
ATOM      5  C   UNL     1      35.964  -7.400 109.272  1.00  0.00     0.004 A 
ATOM      6  C   UNL     1      35.996  -8.796 109.230  1.00  0.00     0.004 A 
ENDROOT
BRANCH   1   7
ATOM      7  C   UNL     1      36.852 -10.962 108.255  1.00  0.00     0.032 C 
ATOM      8  C   UNL     1      35.820 -11.553 109.209  1.00  0.00     0.009 C 
ENDBRANCH   1   7
BRANCH   3   9
ATOM      9  O   UNL     1      38.389  -6.545 106.624  1.00  0.00    -0.508 OA
ATOM     10  H   UNL     1      39.271  -6.145 106.925  1.00  0.00     0.293 HD
ENDBRANCH   3   9
TORSDOF 2
ENDMDL
MODEL 7
REMARK VINA RESULT:    -5.017      1.797      3.357
REMARK INTER + INTRA:          -5.506
REMARK INTER:                  -5.430
REMARK INTRA:                  -0.076
REMARK UNBOUND:                -0.049
REMARK SMILES CCc1cccc(O)c1
REMARK SMILES IDX 3 1 9 2 7 3 6 4 5 5 4 6 2 7 1 8 8 9
REMARK H PARENT 8 10
REMARK Flexibility Score: inf
ROOT
ATOM      1  C   UNL     1      37.604   2.227 102.548  1.00  0.00    -0.045 A 
ATOM      2  C   UNL     1      38.063   3.542 102.734  1.00  0.00     0.049 A 
ATOM      3  C   UNL     1      38.978   3.833 103.756  1.00  0.00     0.115 A 
ATOM      4  C   UNL     1      39.430   2.811 104.598  1.00  0.00     0.046 A 
ATOM      5  C   UNL     1      38.966   1.505 104.426  1.00  0.00     0.004 A 
ATOM      6  C   UNL     1      38.053   1.212 103.408  1.00  0.00     0.004 A 
ENDROOT
BRANCH   1   7
ATOM      7  C   UNL     1      36.595   1.920 101.473  1.00  0.00     0.032 C 
ATOM      8  C   UNL     1      36.141   0.468 101.558  1.00  0.00     0.009 C 
ENDBRANCH   1   7
BRANCH   3   9
ATOM      9  O   UNL     1      39.443   5.133 103.943  1.00  0.00    -0.508 OA
ATOM     10  H   UNL     1      39.551   5.528 104.871  1.00  0.00     0.293 HD
ENDBRANCH   3   9
TORSDOF 2
ENDMDL
MODEL 8
REMARK VINA RESULT:    -4.874      9.361     11.008
REMARK INTER + INTRA:          -5.350
REMARK INTER:                  -5.275
REMARK INTRA:                  -0.075
REMARK UNBOUND:                -0.049
REMARK SMILES CCc1cccc(O)c1
REMARK SMILES IDX 3 1 9 2 7 3 6 4 5 5 4 6 2 7 1 8 8 9
REMARK H PARENT 8 10
REMARK Flexibility Score: inf
ROOT
ATOM      1  C   UNL     1      37.255  -6.359 103.015  1.00  0.00    -0.045 A 
ATOM      2  C   UNL     1      37.160  -6.860 101.706  1.00  0.00     0.049 A 
ATOM      3  C   UNL     1      36.770  -6.020 100.654  1.00  0.00     0.115 A 
ATOM      4  C   UNL     1      36.465  -4.678 100.911  1.00  0.00     0.046 A 
ATOM      5  C   UNL     1      36.544  -4.179 102.214  1.00  0.00     0.004 A 
ATOM      6  C   UNL     1      36.933  -5.015 103.264  1.00  0.00     0.004 A 
ENDROOT
BRANCH   1   7
ATOM      7  C   UNL     1      37.640  -7.270 104.151  1.00  0.00     0.032 C 
ATOM      8  C   UNL     1      37.306  -6.631 105.493  1.00  0.00     0.009 C 
ENDBRANCH   1   7
BRANCH   3   9
ATOM      9  O   UNL     1      36.680  -6.506  99.352  1.00  0.00    -0.508 OA
ATOM     10  H   UNL     1      37.473  -6.940  98.893  1.00  0.00     0.293 HD
ENDBRANCH   3   9
TORSDOF 2
ENDMDL
MODEL 9
REMARK VINA RESULT:    -4.808      5.923      7.237
REMARK INTER + INTRA:          -5.279
REMARK INTER:                  -5.203
REMARK INTRA:                  -0.075
REMARK UNBOUND:                -0.049
REMARK SMILES CCc1cccc(O)c1
REMARK SMILES IDX 3 1 9 2 7 3 6 4 5 5 4 6 2 7 1 8 8 9
REMARK H PARENT 8 10
REMARK Flexibility Score: inf
ROOT
ATOM      1  C   UNL     1      38.220   0.717 108.775  1.00  0.00    -0.045 A 
ATOM      2  C   UNL     1      38.204   1.095 110.129  1.00  0.00     0.049 A 
ATOM      3  C   UNL     1      37.532   0.308 111.075  1.00  0.00     0.115 A 
ATOM      4  C   UNL     1      36.868  -0.854 110.667  1.00  0.00     0.046 A 
ATOM      5  C   UNL     1      36.870  -1.227 109.321  1.00  0.00     0.004 A 
ATOM      6  C   UNL     1      37.538  -0.444 108.376  1.00  0.00     0.004 A 
ENDROOT
BRANCH   1   7
ATOM      7  C   UNL     1      38.912   1.580 107.754  1.00  0.00     0.032 C 
ATOM      8  C   UNL     1      38.533   1.154 106.341  1.00  0.00     0.009 C 
ENDBRANCH   1   7
BRANCH   3   9
ATOM      9  O   UNL     1      37.517   0.673 112.418  1.00  0.00    -0.508 OA
ATOM     10  H   UNL     1      37.913   1.551 112.734  1.00  0.00     0.293 HD
ENDBRANCH   3   9
TORSDOF 2
ENDMDL
