MODEL 1
REMARK VINA RESULT:    -2.649      0.000      0.000
REMARK INTER + INTRA:          -3.330
REMARK INTER:                  -3.269
REMARK INTRA:                  -0.061
REMARK UNBOUND:                -0.061
REMARK SMILES CCCCCC(=O)[O-]
REMARK SMILES IDX 4 1 5 2 6 3 7 4 8 5 3 6 2 7 1 8
REMARK H PARENT
REMARK Flexibility Score: inf
ROOT
ATOM      1  C   UNL     1     -19.968   3.606  -1.195  1.00  0.00     0.006 C 
ENDROOT
BRANCH   1   2
ATOM      2  C   UNL     1     -20.432   3.046   0.153  1.00  0.00     0.053 C 
BRANCH   2   3
ATOM      3  C   UNL     1     -20.255   4.065   1.233  1.00  0.00     0.041 C 
ATOM      4  O   UNL     1     -20.764   3.878   2.369  1.00  0.00    -0.550 OA
ATOM      5  O   UNL     1     -19.487   5.199   1.000  1.00  0.00    -0.550 OA
ENDBRANCH   2   3
ENDBRANCH   1   2
BRANCH   1   6
ATOM      6  C   UNL     1     -21.124   4.307  -1.926  1.00  0.00     0.000 C 
BRANCH   6   7
ATOM      7  C   UNL     1     -20.823   4.546  -3.413  1.00  0.00    -0.003 C 
ATOM      8  C   UNL     1     -20.833   6.028  -3.787  1.00  0.00     0.004 C 
ENDBRANCH   6   7
ENDBRANCH   1   6
TORSDOF 4
ENDMDL
MODEL 2
REMARK VINA RESULT:    -2.633      2.093      3.178
REMARK INTER + INTRA:          -3.310
REMARK INTER:                  -3.200
REMARK INTRA:                  -0.110
REMARK UNBOUND:                -0.061
REMARK SMILES CCCCCC(=O)[O-]
REMARK SMILES IDX 4 1 5 2 6 3 7 4 8 5 3 6 2 7 1 8
REMARK H PARENT
REMARK Flexibility Score: inf
ROOT
ATOM      1  C   UNL     1     -20.728   3.048   2.145  1.00  0.00     0.006 C 
ENDROOT
BRANCH   1   2
ATOM      2  C   UNL     1     -20.288   4.515   2.089  1.00  0.00     0.053 C 
BRANCH   2   3
ATOM      3  C   UNL     1     -20.739   5.244   3.314  1.00  0.00     0.041 C 
ATOM      4  O   UNL     1     -20.981   6.479   3.263  1.00  0.00    -0.550 OA
ATOM      5  O   UNL     1     -20.940   4.552   4.501  1.00  0.00    -0.550 OA
ENDBRANCH   2   3
ENDBRANCH   1   2
BRANCH   1   6
ATOM      6  C   UNL     1     -20.893   2.470   0.732  1.00  0.00     0.000 C 
BRANCH   6   7
ATOM      7  C   UNL     1     -20.177   3.308  -0.337  1.00  0.00    -0.003 C 
ATOM      8  C   UNL     1     -20.791   3.146  -1.726  1.00  0.00     0.004 C 
ENDBRANCH   6   7
ENDBRANCH   1   6
TORSDOF 4
ENDMDL
MODEL 3
REMARK VINA RESULT:    -2.399     17.021     17.683
REMARK INTER + INTRA:          -3.021
REMARK INTER:                  -2.978
REMARK INTRA:                  -0.042
REMARK UNBOUND:                -0.061
REMARK SMILES CCCCCC(=O)[O-]
REMARK SMILES IDX 4 1 5 2 6 3 7 4 8 5 3 6 2 7 1 8
REMARK H PARENT
REMARK Flexibility Score: inf
ROOT
ATOM      1  C   UNL     1     -13.649  -7.205 -11.414  1.00  0.00     0.006 C 
ENDROOT
BRANCH   1   2
ATOM      2  C   UNL     1     -13.320  -8.607 -11.935  1.00  0.00     0.053 C 
BRANCH   2   3
ATOM      3  C   UNL     1     -12.117  -9.156 -11.237  1.00  0.00     0.041 C 
ATOM      4  O   UNL     1     -11.039  -9.322 -11.866  1.00  0.00    -0.550 OA
ATOM      5  O   UNL     1     -12.171  -9.440  -9.878  1.00  0.00    -0.550 OA
ENDBRANCH   2   3
ENDBRANCH   1   2
BRANCH   1   6
ATOM      6  C   UNL     1     -14.953  -6.681 -12.033  1.00  0.00     0.000 C 
BRANCH   6   7
ATOM      7  C   UNL     1     -15.206  -5.200 -11.711  1.00  0.00    -0.003 C 
ATOM      8  C   UNL     1     -16.693  -4.855 -11.644  1.00  0.00     0.004 C 
ENDBRANCH   6   7
ENDBRANCH   1   6
TORSDOF 4
ENDMDL
MODEL 4
REMARK VINA RESULT:    -2.378     16.021     16.891
REMARK INTER + INTRA:          -2.995
REMARK INTER:                  -2.946
REMARK INTRA:                  -0.050
REMARK UNBOUND:                -0.061
REMARK SMILES CCCCCC(=O)[O-]
REMARK SMILES IDX 4 1 5 2 6 3 7 4 8 5 3 6 2 7 1 8
REMARK H PARENT
REMARK Flexibility Score: inf
ROOT
ATOM      1  C   UNL     1     -14.001  -6.533 -11.447  1.00  0.00     0.006 C 
ENDROOT
BRANCH   1   2
ATOM      2  C   UNL     1     -15.185  -5.837 -12.125  1.00  0.00     0.053 C 
BRANCH   2   3
ATOM      3  C   UNL     1     -15.181  -4.374 -11.815  1.00  0.00     0.041 C 
ATOM      4  O   UNL     1     -16.242  -3.704 -11.910  1.00  0.00    -0.550 OA
ATOM      5  O   UNL     1     -14.016  -3.760 -11.373  1.00  0.00    -0.550 OA
ENDBRANCH   2   3
ENDBRANCH   1   2
BRANCH   1   6
ATOM      6  C   UNL     1     -13.955  -8.024 -11.815  1.00  0.00     0.000 C 
BRANCH   6   7
ATOM      7  C   UNL     1     -12.537  -8.609 -11.732  1.00  0.00    -0.003 C 
ATOM      8  C   UNL     1     -12.321  -9.463 -10.484  1.00  0.00     0.004 C 
ENDBRANCH   6   7
ENDBRANCH   1   6
TORSDOF 4
ENDMDL
MODEL 5
REMARK VINA RESULT:    -2.371     16.212     16.919
REMARK INTER + INTRA:          -2.986
REMARK INTER:                  -2.917
REMARK INTRA:                  -0.069
REMARK UNBOUND:                -0.061
REMARK SMILES CCCCCC(=O)[O-]
REMARK SMILES IDX 4 1 5 2 6 3 7 4 8 5 3 6 2 7 1 8
REMARK H PARENT
REMARK Flexibility Score: inf
ROOT
ATOM      1  C   UNL     1     -14.470  -6.134 -11.764  1.00  0.00     0.006 C 
ENDROOT
BRANCH   1   2
ATOM      2  C   UNL     1     -14.923  -7.552 -12.125  1.00  0.00     0.053 C 
BRANCH   2   3
ATOM      3  C   UNL     1     -13.860  -8.546 -11.780  1.00  0.00     0.041 C 
ATOM      4  O   UNL     1     -14.165  -9.744 -11.545  1.00  0.00    -0.550 OA
ATOM      5  O   UNL     1     -12.525  -8.159 -11.765  1.00  0.00    -0.550 OA
ENDBRANCH   2   3
ENDBRANCH   1   2
BRANCH   1   6
ATOM      6  C   UNL     1     -15.636  -5.140 -11.873  1.00  0.00     0.000 C 
BRANCH   6   7
ATOM      7  C   UNL     1     -15.287  -3.756 -11.307  1.00  0.00    -0.003 C 
ATOM      8  C   UNL     1     -13.915  -3.260 -11.762  1.00  0.00     0.004 C 
ENDBRANCH   6   7
ENDBRANCH   1   6
TORSDOF 4
ENDMDL
MODEL 6
REMARK VINA RESULT:    -2.106     17.132     17.738
REMARK INTER + INTRA:          -2.659
REMARK INTER:                  -2.615
REMARK INTRA:                  -0.045
REMARK UNBOUND:                -0.061
REMARK SMILES CCCCCC(=O)[O-]
REMARK SMILES IDX 4 1 5 2 6 3 7 4 8 5 3 6 2 7 1 8
REMARK H PARENT
REMARK Flexibility Score: inf
ROOT
ATOM      1  C   UNL     1      -3.508   6.113   2.816  1.00  0.00     0.006 C 
ENDROOT
BRANCH   1   2
ATOM      2  C   UNL     1      -2.045   5.711   3.027  1.00  0.00     0.053 C 
BRANCH   2   3
ATOM      3  C   UNL     1      -1.859   5.096   4.377  1.00  0.00     0.041 C 
ATOM      4  O   UNL     1      -1.621   5.822   5.378  1.00  0.00    -0.550 OA
ATOM      5  O   UNL     1      -1.999   3.723   4.541  1.00  0.00    -0.550 OA
ENDBRANCH   2   3
ENDBRANCH   1   2
BRANCH   1   6
ATOM      6  C   UNL     1      -3.815   6.304   1.323  1.00  0.00     0.000 C 
BRANCH   6   7
ATOM      7  C   UNL     1      -5.091   7.125   1.084  1.00  0.00    -0.003 C 
ATOM      8  C   UNL     1      -6.129   6.376   0.251  1.00  0.00     0.004 C 
ENDBRANCH   6   7
ENDBRANCH   1   6
TORSDOF 4
ENDMDL
MODEL 7
REMARK VINA RESULT:    -2.103     17.533     18.084
REMARK INTER + INTRA:          -2.655
REMARK INTER:                  -2.455
REMARK INTRA:                  -0.200
REMARK UNBOUND:                -0.061
REMARK SMILES CCCCCC(=O)[O-]
REMARK SMILES IDX 4 1 5 2 6 3 7 4 8 5 3 6 2 7 1 8
REMARK H PARENT
REMARK Flexibility Score: inf
ROOT
ATOM      1  C   UNL     1     -20.248 -12.959  -7.810  1.00  0.00     0.006 C 
ENDROOT
BRANCH   1   2
ATOM      2  C   UNL     1     -18.848 -12.917  -8.428  1.00  0.00     0.053 C 
BRANCH   2   3
ATOM      3  C   UNL     1     -18.674 -11.680  -9.250  1.00  0.00     0.041 C 
ATOM      4  O   UNL     1     -19.085 -11.645 -10.439  1.00  0.00    -0.550 OA
ATOM      5  O   UNL     1     -18.100 -10.546  -8.686  1.00  0.00    -0.550 OA
ENDBRANCH   2   3
ENDBRANCH   1   2
BRANCH   1   6
ATOM      6  C   UNL     1     -20.186 -12.734  -6.292  1.00  0.00     0.000 C 
BRANCH   6   7
ATOM      7  C   UNL     1     -21.125 -11.613  -5.822  1.00  0.00    -0.003 C 
ATOM      8  C   UNL     1     -21.074 -10.381  -6.724  1.00  0.00     0.004 C 
ENDBRANCH   6   7
ENDBRANCH   1   6
TORSDOF 4
ENDMDL
MODEL 8
REMARK VINA RESULT:    -2.043     23.868     24.314
REMARK INTER + INTRA:          -2.582
REMARK INTER:                  -2.538
REMARK INTRA:                  -0.043
REMARK UNBOUND:                -0.061
REMARK SMILES CCCCCC(=O)[O-]
REMARK SMILES IDX 4 1 5 2 6 3 7 4 8 5 3 6 2 7 1 8
REMARK H PARENT
REMARK Flexibility Score: inf
ROOT
ATOM      1  C   UNL     1      -3.819  -9.782 -10.237  1.00  0.00     0.006 C 
ENDROOT
BRANCH   1   2
ATOM      2  C   UNL     1      -4.073 -11.099 -10.976  1.00  0.00     0.053 C 
BRANCH   2   3
ATOM      3  C   UNL     1      -5.539 -11.305 -11.192  1.00  0.00     0.041 C 
ATOM      4  O   UNL     1      -6.202 -10.477 -11.869  1.00  0.00    -0.550 OA
ATOM      5  O   UNL     1      -6.164 -12.438 -10.685  1.00  0.00    -0.550 OA
ENDBRANCH   2   3
ENDBRANCH   1   2
BRANCH   1   6
ATOM      6  C   UNL     1      -2.348  -9.666  -9.810  1.00  0.00     0.000 C 
BRANCH   6   7
ATOM      7  C   UNL     1      -2.174  -8.891  -8.496  1.00  0.00    -0.003 C 
ATOM      8  C   UNL     1      -1.184  -7.734  -8.618  1.00  0.00     0.004 C 
ENDBRANCH   6   7
ENDBRANCH   1   6
TORSDOF 4
ENDMDL
