MODEL 1
REMARK VINA RESULT:    -3.287      0.000      0.000
REMARK INTER + INTRA:          -6.075
REMARK INTER:                  -5.017
REMARK INTRA:                  -1.058
REMARK UNBOUND:                -1.058
REMARK SMILES CCCCCCCCCCC(=O)[O-]
REMARK SMILES IDX 7 1 8 2 9 3 10 4 11 5 12 6 13 7 6 8 5 9 4 10 3 11 2 12 1 13
REMARK H PARENT
REMARK Flexibility Score: inf
ROOT
ATOM      1  C   UNL     1      -6.422  -7.859  -7.406  1.00  0.00     0.000 C 
ENDROOT
BRANCH   1   2
ATOM      2  C   UNL     1      -5.552  -7.878  -6.140  1.00  0.00     0.000 C 
BRANCH   2   3
ATOM      3  C   UNL     1      -6.384  -7.969  -4.850  1.00  0.00     0.006 C 
BRANCH   3   4
ATOM      4  C   UNL     1      -7.893  -7.887  -5.114  1.00  0.00     0.053 C 
BRANCH   4   5
ATOM      5  C   UNL     1      -8.502  -6.774  -4.321  1.00  0.00     0.041 C 
ATOM      6  O   UNL     1      -9.371  -7.021  -3.445  1.00  0.00    -0.550 OA
ATOM      7  O   UNL     1      -8.074  -5.467  -4.516  1.00  0.00    -0.550 OA
ENDBRANCH   4   5
ENDBRANCH   3   4
ENDBRANCH   2   3
ENDBRANCH   1   2
BRANCH   1   8
ATOM      8  C   UNL     1      -6.095  -9.056  -8.312  1.00  0.00     0.000 C 
BRANCH   8   9
ATOM      9  C   UNL     1      -7.353  -9.711  -8.907  1.00  0.00    -0.000 C 
BRANCH   9  10
ATOM     10  C   UNL     1      -8.381 -10.100  -7.832  1.00  0.00    -0.000 C 
BRANCH  10  11
ATOM     11  C   UNL     1      -9.824  -9.732  -8.222  1.00  0.00    -0.000 C 
BRANCH  11  12
ATOM     12  C   UNL     1      -9.985  -8.359  -8.898  1.00  0.00    -0.003 C 
ATOM     13  C   UNL     1     -10.125  -7.211  -7.898  1.00  0.00     0.004 C 
ENDBRANCH  11  12
ENDBRANCH  10  11
ENDBRANCH   9  10
ENDBRANCH   8   9
ENDBRANCH   1   8
TORSDOF 9
ENDMDL
MODEL 2
REMARK VINA RESULT:    -3.087      2.770      4.138
REMARK INTER + INTRA:          -5.769
REMARK INTER:                  -4.712
REMARK INTRA:                  -1.057
REMARK UNBOUND:                -1.058
REMARK SMILES CCCCCCCCCCC(=O)[O-]
REMARK SMILES IDX 7 1 8 2 9 3 10 4 11 5 12 6 13 7 6 8 5 9 4 10 3 11 2 12 1 13
REMARK H PARENT
REMARK Flexibility Score: inf
ROOT
ATOM      1  C   UNL     1      -7.551  -6.821  -4.986  1.00  0.00     0.000 C 
ENDROOT
BRANCH   1   2
ATOM      2  C   UNL     1      -6.822  -8.149  -4.732  1.00  0.00     0.000 C 
BRANCH   2   3
ATOM      3  C   UNL     1      -5.751  -8.450  -5.793  1.00  0.00     0.006 C 
BRANCH   3   4
ATOM      4  C   UNL     1      -5.826  -7.499  -6.994  1.00  0.00     0.053 C 
BRANCH   4   5
ATOM      5  C   UNL     1      -5.039  -8.046  -8.143  1.00  0.00     0.041 C 
ATOM      6  O   UNL     1      -5.328  -9.171  -8.631  1.00  0.00    -0.550 OA
ATOM      7  O   UNL     1      -4.017  -7.294  -8.707  1.00  0.00    -0.550 OA
ENDBRANCH   4   5
ENDBRANCH   3   4
ENDBRANCH   2   3
ENDBRANCH   1   2
BRANCH   1   8
ATOM      8  C   UNL     1      -8.850  -6.746  -4.170  1.00  0.00     0.000 C 
BRANCH   8   9
ATOM      9  C   UNL     1     -10.109  -6.763  -5.054  1.00  0.00    -0.000 C 
BRANCH   9  10
ATOM     10  C   UNL     1      -9.779  -6.923  -6.547  1.00  0.00    -0.000 C 
BRANCH  10  11
ATOM     11  C   UNL     1     -10.125  -8.323  -7.090  1.00  0.00    -0.000 C 
BRANCH  11  12
ATOM     12  C   UNL     1      -8.949  -9.079  -7.734  1.00  0.00    -0.003 C 
ATOM     13  C   UNL     1      -8.989  -9.059  -9.262  1.00  0.00     0.004 C 
ENDBRANCH  11  12
ENDBRANCH  10  11
ENDBRANCH   9  10
ENDBRANCH   8   9
ENDBRANCH   1   8
TORSDOF 9
ENDMDL
MODEL 3
REMARK VINA RESULT:    -3.081      3.203      4.575
REMARK INTER + INTRA:          -5.760
REMARK INTER:                  -4.740
REMARK INTRA:                  -1.020
REMARK UNBOUND:                -1.058
REMARK SMILES CCCCCCCCCCC(=O)[O-]
REMARK SMILES IDX 7 1 8 2 9 3 10 4 11 5 12 6 13 7 6 8 5 9 4 10 3 11 2 12 1 13
REMARK H PARENT
REMARK Flexibility Score: inf
ROOT
ATOM      1  C   UNL     1      -5.722  -9.358  -5.753  1.00  0.00     0.000 C 
ENDROOT
BRANCH   1   2
ATOM      2  C   UNL     1      -5.416  -7.879  -6.034  1.00  0.00     0.000 C 
BRANCH   2   3
ATOM      3  C   UNL     1      -5.680  -7.487  -7.497  1.00  0.00     0.006 C 
BRANCH   3   4
ATOM      4  C   UNL     1      -4.837  -8.301  -8.488  1.00  0.00     0.053 C 
BRANCH   4   5
ATOM      5  C   UNL     1      -3.854  -7.416  -9.187  1.00  0.00     0.041 C 
ATOM      6  O   UNL     1      -3.867  -6.173  -8.987  1.00  0.00    -0.550 OA
ATOM      7  O   UNL     1      -2.892  -7.968 -10.021  1.00  0.00    -0.550 OA
ENDBRANCH   4   5
ENDBRANCH   3   4
ENDBRANCH   2   3
ENDBRANCH   1   2
BRANCH   1   8
ATOM      8  C   UNL     1      -7.159  -9.532  -5.239  1.00  0.00     0.000 C 
BRANCH   8   9
ATOM      9  C   UNL     1      -8.165  -9.808  -6.370  1.00  0.00    -0.000 C 
BRANCH   9  10
ATOM     10  C   UNL     1      -9.115  -8.624  -6.616  1.00  0.00    -0.000 C 
BRANCH  10  11
ATOM     11  C   UNL     1      -9.636  -7.993  -5.312  1.00  0.00    -0.000 C 
BRANCH  11  12
ATOM     12  C   UNL     1      -9.526  -6.459  -5.243  1.00  0.00    -0.003 C 
ATOM     13  C   UNL     1      -8.259  -5.981  -4.534  1.00  0.00     0.004 C 
ENDBRANCH  11  12
ENDBRANCH  10  11
ENDBRANCH   9  10
ENDBRANCH   8   9
ENDBRANCH   1   8
TORSDOF 9
ENDMDL
MODEL 4
REMARK VINA RESULT:    -2.986      3.103      4.870
REMARK INTER + INTRA:          -5.616
REMARK INTER:                  -4.663
REMARK INTRA:                  -0.953
REMARK UNBOUND:                -1.058
REMARK SMILES CCCCCCCCCCC(=O)[O-]
REMARK SMILES IDX 7 1 8 2 9 3 10 4 11 5 12 6 13 7 6 8 5 9 4 10 3 11 2 12 1 13
REMARK H PARENT
REMARK Flexibility Score: inf
ROOT
ATOM      1  C   UNL     1      -8.222  -8.195  -7.905  1.00  0.00     0.000 C 
ENDROOT
BRANCH   1   2
ATOM      2  C   UNL     1      -7.140  -8.985  -8.658  1.00  0.00     0.000 C 
BRANCH   2   3
ATOM      3  C   UNL     1      -5.777  -8.947  -7.948  1.00  0.00     0.006 C 
BRANCH   3   4
ATOM      4  C   UNL     1      -5.220  -7.524  -7.813  1.00  0.00     0.053 C 
BRANCH   4   5
ATOM      5  C   UNL     1      -4.142  -7.288  -8.823  1.00  0.00     0.041 C 
ATOM      6  O   UNL     1      -3.630  -8.258  -9.442  1.00  0.00    -0.550 OA
ATOM      7  O   UNL     1      -3.735  -5.993  -9.116  1.00  0.00    -0.550 OA
ENDBRANCH   4   5
ENDBRANCH   3   4
ENDBRANCH   2   3
ENDBRANCH   1   2
BRANCH   1   8
ATOM      8  C   UNL     1      -9.225  -9.145  -7.234  1.00  0.00     0.000 C 
BRANCH   8   9
ATOM      9  C   UNL     1      -9.788  -8.582  -5.917  1.00  0.00    -0.000 C 
BRANCH   9  10
ATOM     10  C   UNL     1      -9.498  -7.082  -5.746  1.00  0.00    -0.000 C 
BRANCH  10  11
ATOM     11  C   UNL     1      -8.624  -6.778  -4.515  1.00  0.00    -0.000 C 
BRANCH  11  12
ATOM     12  C   UNL     1      -7.106  -6.817  -4.770  1.00  0.00    -0.003 C 
ATOM     13  C   UNL     1      -6.494  -8.197  -4.535  1.00  0.00     0.004 C 
ENDBRANCH  11  12
ENDBRANCH  10  11
ENDBRANCH   9  10
ENDBRANCH   8   9
ENDBRANCH   1   8
TORSDOF 9
ENDMDL
MODEL 5
REMARK VINA RESULT:    -2.883      1.535      3.706
REMARK INTER + INTRA:          -5.458
REMARK INTER:                  -4.705
REMARK INTRA:                  -0.753
REMARK UNBOUND:                -1.058
REMARK SMILES CCCCCCCCCCC(=O)[O-]
REMARK SMILES IDX 7 1 8 2 9 3 10 4 11 5 12 6 13 7 6 8 5 9 4 10 3 11 2 12 1 13
REMARK H PARENT
REMARK Flexibility Score: inf
ROOT
ATOM      1  C   UNL     1      -8.667  -8.882  -8.348  1.00  0.00     0.000 C 
ENDROOT
BRANCH   1   2
ATOM      2  C   UNL     1      -9.976  -8.238  -7.868  1.00  0.00     0.000 C 
BRANCH   2   3
ATOM      3  C   UNL     1      -9.742  -6.952  -7.058  1.00  0.00     0.006 C 
BRANCH   3   4
ATOM      4  C   UNL     1      -9.969  -7.150  -5.554  1.00  0.00     0.053 C 
BRANCH   4   5
ATOM      5  C   UNL     1      -8.692  -6.944  -4.802  1.00  0.00     0.041 C 
ATOM      6  O   UNL     1      -7.997  -7.933  -4.450  1.00  0.00    -0.550 OA
ATOM      7  O   UNL     1      -8.244  -5.658  -4.532  1.00  0.00    -0.550 OA
ENDBRANCH   4   5
ENDBRANCH   3   4
ENDBRANCH   2   3
ENDBRANCH   1   2
BRANCH   1   8
ATOM      8  C   UNL     1      -8.190  -9.956  -7.358  1.00  0.00     0.000 C 
BRANCH   8   9
ATOM      9  C   UNL     1      -6.690  -9.844  -7.035  1.00  0.00    -0.000 C 
BRANCH   9  10
ATOM     10  C   UNL     1      -5.922  -9.019  -8.081  1.00  0.00    -0.000 C 
BRANCH  10  11
ATOM     11  C   UNL     1      -5.297  -7.740  -7.494  1.00  0.00    -0.000 C 
BRANCH  11  12
ATOM     12  C   UNL     1      -4.124  -7.158  -8.304  1.00  0.00    -0.003 C 
ATOM     13  C   UNL     1      -3.737  -8.023  -9.504  1.00  0.00     0.004 C 
ENDBRANCH  11  12
ENDBRANCH  10  11
ENDBRANCH   9  10
ENDBRANCH   8   9
ENDBRANCH   1   8
TORSDOF 9
ENDMDL
MODEL 6
REMARK VINA RESULT:    -2.771      1.915      3.420
REMARK INTER + INTRA:          -5.287
REMARK INTER:                  -4.778
REMARK INTRA:                  -0.510
REMARK UNBOUND:                -1.058
REMARK SMILES CCCCCCCCCCC(=O)[O-]
REMARK SMILES IDX 7 1 8 2 9 3 10 4 11 5 12 6 13 7 6 8 5 9 4 10 3 11 2 12 1 13
REMARK H PARENT
REMARK Flexibility Score: inf
ROOT
ATOM      1  C   UNL     1      -5.252  -8.599  -6.005  1.00  0.00     0.000 C 
ENDROOT
BRANCH   1   2
ATOM      2  C   UNL     1      -6.273  -7.998  -5.028  1.00  0.00     0.000 C 
BRANCH   2   3
ATOM      3  C   UNL     1      -7.680  -8.594  -5.200  1.00  0.00     0.006 C 
BRANCH   3   4
ATOM      4  C   UNL     1      -8.749  -7.523  -5.452  1.00  0.00     0.053 C 
BRANCH   4   5
ATOM      5  C   UNL     1      -8.821  -6.575  -4.296  1.00  0.00     0.041 C 
ATOM      6  O   UNL     1      -9.327  -6.945  -3.204  1.00  0.00    -0.550 OA
ATOM      7  O   UNL     1      -8.285  -5.300  -4.409  1.00  0.00    -0.550 OA
ENDBRANCH   4   5
ENDBRANCH   3   4
ENDBRANCH   2   3
ENDBRANCH   1   2
BRANCH   1   8
ATOM      8  C   UNL     1      -5.914  -9.646  -6.913  1.00  0.00     0.000 C 
BRANCH   8   9
ATOM      9  C   UNL     1      -6.198  -9.112  -8.328  1.00  0.00    -0.000 C 
BRANCH   9  10
ATOM     10  C   UNL     1      -5.439  -9.891  -9.415  1.00  0.00    -0.000 C 
BRANCH  10  11
ATOM     11  C   UNL     1      -4.156  -9.177  -9.879  1.00  0.00    -0.000 C 
BRANCH  11  12
ATOM     12  C   UNL     1      -3.918  -7.794  -9.247  1.00  0.00    -0.003 C 
ATOM     13  C   UNL     1      -3.064  -6.875 -10.120  1.00  0.00     0.004 C 
ENDBRANCH  11  12
ENDBRANCH  10  11
ENDBRANCH   9  10
ENDBRANCH   8   9
ENDBRANCH   1   8
TORSDOF 9
ENDMDL
MODEL 7
REMARK VINA RESULT:    -2.758      1.885      3.948
REMARK INTER + INTRA:          -5.267
REMARK INTER:                  -4.399
REMARK INTRA:                  -0.868
REMARK UNBOUND:                -1.058
REMARK SMILES CCCCCCCCCCC(=O)[O-]
REMARK SMILES IDX 7 1 8 2 9 3 10 4 11 5 12 6 13 7 6 8 5 9 4 10 3 11 2 12 1 13
REMARK H PARENT
REMARK Flexibility Score: inf
ROOT
ATOM      1  C   UNL     1      -5.599  -8.718  -8.228  1.00  0.00     0.000 C 
ENDROOT
BRANCH   1   2
ATOM      2  C   UNL     1      -6.700  -9.765  -8.003  1.00  0.00     0.000 C 
BRANCH   2   3
ATOM      3  C   UNL     1      -7.833  -9.667  -9.038  1.00  0.00     0.006 C 
BRANCH   3   4
ATOM      4  C   UNL     1      -9.192 -10.093  -8.470  1.00  0.00     0.053 C 
BRANCH   4   5
ATOM      5  C   UNL     1      -9.693  -9.074  -7.497  1.00  0.00     0.041 C 
ATOM      6  O   UNL     1     -10.042  -7.932  -7.897  1.00  0.00    -0.550 OA
ATOM      7  O   UNL     1      -9.822  -9.400  -6.153  1.00  0.00    -0.550 OA
ENDBRANCH   4   5
ENDBRANCH   3   4
ENDBRANCH   2   3
ENDBRANCH   1   2
BRANCH   1   8
ATOM      8  C   UNL     1      -5.427  -7.829  -6.987  1.00  0.00     0.000 C 
BRANCH   8   9
ATOM      9  C   UNL     1      -5.439  -8.632  -5.675  1.00  0.00    -0.000 C 
BRANCH   9  10
ATOM     10  C   UNL     1      -6.617  -8.254  -4.763  1.00  0.00    -0.000 C 
BRANCH  10  11
ATOM     11  C   UNL     1      -7.369  -6.999  -5.245  1.00  0.00    -0.000 C 
BRANCH  11  12
ATOM     12  C   UNL     1      -8.545  -6.563  -4.352  1.00  0.00    -0.003 C 
ATOM     13  C   UNL     1      -9.686  -5.918  -5.138  1.00  0.00     0.004 C 
ENDBRANCH  11  12
ENDBRANCH  10  11
ENDBRANCH   9  10
ENDBRANCH   8   9
ENDBRANCH   1   8
TORSDOF 9
ENDMDL
MODEL 8
REMARK VINA RESULT:    -2.681      3.147      4.300
REMARK INTER + INTRA:          -5.150
REMARK INTER:                  -4.263
REMARK INTRA:                  -0.887
REMARK UNBOUND:                -1.058
REMARK SMILES CCCCCCCCCCC(=O)[O-]
REMARK SMILES IDX 7 1 8 2 9 3 10 4 11 5 12 6 13 7 6 8 5 9 4 10 3 11 2 12 1 13
REMARK H PARENT
REMARK Flexibility Score: inf
ROOT
ATOM      1  C   UNL     1      -6.011  -7.773  -5.305  1.00  0.00     0.000 C 
ENDROOT
BRANCH   1   2
ATOM      2  C   UNL     1      -5.746  -9.043  -6.129  1.00  0.00     0.000 C 
BRANCH   2   3
ATOM      3  C   UNL     1      -5.536  -8.747  -7.623  1.00  0.00     0.006 C 
BRANCH   3   4
ATOM      4  C   UNL     1      -5.220  -7.271  -7.894  1.00  0.00     0.053 C 
BRANCH   4   5
ATOM      5  C   UNL     1      -4.141  -7.149  -8.924  1.00  0.00     0.041 C 
ATOM      6  O   UNL     1      -3.600  -6.034  -9.146  1.00  0.00    -0.550 OA
ATOM      7  O   UNL     1      -3.699  -8.276  -9.603  1.00  0.00    -0.550 OA
ENDBRANCH   4   5
ENDBRANCH   3   4
ENDBRANCH   2   3
ENDBRANCH   1   2
BRANCH   1   8
ATOM      8  C   UNL     1      -7.517  -7.570  -5.082  1.00  0.00     0.000 C 
BRANCH   8   9
ATOM      9  C   UNL     1      -8.316  -8.881  -5.186  1.00  0.00    -0.000 C 
BRANCH   9  10
ATOM     10  C   UNL     1      -9.583  -8.733  -6.045  1.00  0.00    -0.000 C 
BRANCH  10  11
ATOM     11  C   UNL     1      -9.806  -7.292  -6.539  1.00  0.00    -0.000 C 
BRANCH  11  12
ATOM     12  C   UNL     1     -10.124  -7.161  -8.039  1.00  0.00    -0.003 C 
ATOM     13  C   UNL     1      -9.687  -8.379  -8.853  1.00  0.00     0.004 C 
ENDBRANCH  11  12
ENDBRANCH  10  11
ENDBRANCH   9  10
ENDBRANCH   8   9
ENDBRANCH   1   8
TORSDOF 9
ENDMDL
MODEL 9
REMARK VINA RESULT:    -2.616     14.081     15.811
REMARK INTER + INTRA:          -5.051
REMARK INTER:                  -3.924
REMARK INTRA:                  -1.128
REMARK UNBOUND:                -1.058
REMARK SMILES CCCCCCCCCCC(=O)[O-]
REMARK SMILES IDX 7 1 8 2 9 3 10 4 11 5 12 6 13 7 6 8 5 9 4 10 3 11 2 12 1 13
REMARK H PARENT
REMARK Flexibility Score: inf
ROOT
ATOM      1  C   UNL     1       6.346  -8.487  -5.509  1.00  0.00     0.000 C 
ENDROOT
BRANCH   1   2
ATOM      2  C   UNL     1       6.955  -7.093  -5.729  1.00  0.00     0.000 C 
BRANCH   2   3
ATOM      3  C   UNL     1       8.408  -7.153  -6.226  1.00  0.00     0.006 C 
BRANCH   3   4
ATOM      4  C   UNL     1       9.334  -6.198  -5.462  1.00  0.00     0.053 C 
BRANCH   4   5
ATOM      5  C   UNL     1       9.373  -6.558  -4.011  1.00  0.00     0.041 C 
ATOM      6  O   UNL     1       9.876  -7.652  -3.642  1.00  0.00    -0.550 OA
ATOM      7  O   UNL     1       8.897  -5.665  -3.060  1.00  0.00    -0.550 OA
ENDBRANCH   4   5
ENDBRANCH   3   4
ENDBRANCH   2   3
ENDBRANCH   1   2
BRANCH   1   8
ATOM      8  C   UNL     1       6.390  -9.313  -6.803  1.00  0.00     0.000 C 
BRANCH   8   9
ATOM      9  C   UNL     1       5.193  -9.033  -7.729  1.00  0.00    -0.000 C 
BRANCH   9  10
ATOM     10  C   UNL     1       5.627  -8.574  -9.131  1.00  0.00    -0.000 C 
BRANCH  10  11
ATOM     11  C   UNL     1       5.991  -7.079  -9.186  1.00  0.00    -0.000 C 
BRANCH  11  12
ATOM     12  C   UNL     1       7.352  -6.764  -9.833  1.00  0.00    -0.003 C 
ATOM     13  C   UNL     1       8.302  -7.961  -9.841  1.00  0.00     0.004 C 
ENDBRANCH  11  12
ENDBRANCH  10  11
ENDBRANCH   9  10
ENDBRANCH   8   9
ENDBRANCH   1   8
TORSDOF 9
ENDMDL
