MODEL 1
REMARK VINA RESULT:    -4.784      0.000      0.000
REMARK INTER + INTRA:          -7.050
REMARK INTER:                  -6.461
REMARK INTRA:                  -0.588
REMARK UNBOUND:                -0.588
REMARK SMILES COc1ccc(-c2cc(=O)c3c(OC)c(OC)c(OC)c(OC)c3o2)cc1
REMARK SMILES IDX 7 1 8 2 9 3 10 4 11 5 24 6 25 7 21 8 18 9 15 10 12 11 6 12
REMARK SMILES IDX 3 13 4 14 27 15 5 16 26 17 2 18 1 19 22 20 23 21 13 22 14 23
REMARK SMILES IDX 19 24 20 25 16 26 17 27
REMARK H PARENT
REMARK Flexibility Score: inf
ROOT
ATOM      1  C   UNL     1     125.308 121.587 140.350  1.00  0.00     0.138 A 
ATOM      2  C   UNL     1     126.577 121.020 140.525  1.00  0.00     0.100 A 
ATOM      3  C   UNL     1     126.976 120.614 141.798  1.00  0.00     0.197 A 
ATOM      4  O   UNL     1     128.122 120.110 141.943  1.00  0.00    -0.289 OA
ATOM      5  C   UNL     1     126.096 120.775 142.890  1.00  0.00     0.115 A 
ATOM      6  C   UNL     1     124.823 121.325 142.631  1.00  0.00     0.188 A 
ATOM      7  O   UNL     1     124.494 121.702 141.397  1.00  0.00    -0.452 OA
ATOM      8  C   UNL     1     123.899 121.502 143.672  1.00  0.00     0.209 A 
ATOM      9  C   UNL     1     124.253 121.179 145.006  1.00  0.00     0.211 A 
ATOM     10  C   UNL     1     125.523 120.601 145.263  1.00  0.00     0.208 A 
ATOM     11  C   UNL     1     126.443 120.424 144.212  1.00  0.00     0.179 A 
ENDROOT
BRANCH   1  12
ATOM     12  C   UNL     1     124.840 122.059 139.021  1.00  0.00     0.018 A 
ATOM     13  C   UNL     1     123.955 122.905 136.474  1.00  0.00     0.118 A 
ATOM     14  C   UNL     1     124.912 121.881 136.592  1.00  0.00     0.047 A 
ATOM     15  C   UNL     1     123.440 123.492 137.634  1.00  0.00     0.047 A 
ATOM     16  C   UNL     1     125.345 121.461 137.853  1.00  0.00     0.016 A 
ATOM     17  C   UNL     1     123.872 123.074 138.896  1.00  0.00     0.016 A 
BRANCH  13  18
ATOM     18  O   UNL     1     123.489 123.362 135.232  1.00  0.00    -0.497 OA
ATOM     19  C   UNL     1     122.621 124.477 135.060  1.00  0.00     0.278 C 
ENDBRANCH  13  18
ENDBRANCH   1  12
BRANCH   8  20
ATOM     20  O   UNL     1     122.630 122.007 143.373  1.00  0.00    -0.490 OA
ATOM     21  C   UNL     1     122.334 123.399 143.441  1.00  0.00     0.278 C 
ENDBRANCH   8  20
BRANCH  11  22
ATOM     22  O   UNL     1     127.705 119.878 144.480  1.00  0.00    -0.492 OA
ATOM     23  C   UNL     1     128.742 120.626 145.107  1.00  0.00     0.278 C 
ENDBRANCH  11  22
BRANCH   9  24
ATOM     24  O   UNL     1     123.387 121.408 146.092  1.00  0.00    -0.490 OA
ATOM     25  C   UNL     1     123.365 122.542 146.952  1.00  0.00     0.279 C 
ENDBRANCH   9  24
BRANCH  10  26
ATOM     26  O   UNL     1     125.931 120.160 146.538  1.00  0.00    -0.490 OA
ATOM     27  C   UNL     1     125.704 118.882 147.123  1.00  0.00     0.278 C 
ENDBRANCH  10  26
TORSDOF 6
ENDMDL
MODEL 2
REMARK VINA RESULT:    -4.658      2.504      6.846
REMARK INTER + INTRA:          -6.880
REMARK INTER:                  -6.347
REMARK INTRA:                  -0.533
REMARK UNBOUND:                -0.588
REMARK SMILES COc1ccc(-c2cc(=O)c3c(OC)c(OC)c(OC)c(OC)c3o2)cc1
REMARK SMILES IDX 7 1 8 2 9 3 10 4 11 5 24 6 25 7 21 8 18 9 15 10 12 11 6 12
REMARK SMILES IDX 3 13 4 14 27 15 5 16 26 17 2 18 1 19 22 20 23 21 13 22 14 23
REMARK SMILES IDX 19 24 20 25 16 26 17 27
REMARK H PARENT
REMARK Flexibility Score: inf
ROOT
ATOM      1  C   UNL     1     124.206 120.429 144.925  1.00  0.00     0.138 A 
ATOM      2  C   UNL     1     125.326 120.021 145.662  1.00  0.00     0.100 A 
ATOM      3  C   UNL     1     126.585 120.042 145.064  1.00  0.00     0.197 A 
ATOM      4  O   UNL     1     127.582 119.668 145.737  1.00  0.00    -0.289 OA
ATOM      5  C   UNL     1     126.716 120.478 143.728  1.00  0.00     0.115 A 
ATOM      6  C   UNL     1     125.549 120.902 143.059  1.00  0.00     0.188 A 
ATOM      7  O   UNL     1     124.369 120.857 143.675  1.00  0.00    -0.452 OA
ATOM      8  C   UNL     1     125.613 121.356 141.732  1.00  0.00     0.209 A 
ATOM      9  C   UNL     1     126.845 121.342 141.031  1.00  0.00     0.211 A 
ATOM     10  C   UNL     1     128.024 120.940 141.712  1.00  0.00     0.208 A 
ATOM     11  C   UNL     1     127.949 120.490 143.044  1.00  0.00     0.179 A 
ENDROOT
BRANCH   1  12
ATOM     12  C   UNL     1     122.838 120.405 145.504  1.00  0.00     0.018 A 
ATOM     13  C   UNL     1     120.221 120.394 146.568  1.00  0.00     0.118 A 
ATOM     14  C   UNL     1     120.772 121.576 146.044  1.00  0.00     0.047 A 
ATOM     15  C   UNL     1     120.982 119.221 146.548  1.00  0.00     0.047 A 
ATOM     16  C   UNL     1     122.065 121.578 145.513  1.00  0.00     0.016 A 
ATOM     17  C   UNL     1     122.275 119.221 146.018  1.00  0.00     0.016 A 
BRANCH  13  18
ATOM     18  O   UNL     1     118.928 120.341 147.112  1.00  0.00    -0.497 OA
ATOM     19  C   UNL     1     117.875 121.236 146.769  1.00  0.00     0.278 C 
ENDBRANCH  13  18
ENDBRANCH   1  12
BRANCH   8  20
ATOM     20  O   UNL     1     124.445 121.813 141.115  1.00  0.00    -0.490 OA
ATOM     21  C   UNL     1     124.109 123.196 141.066  1.00  0.00     0.278 C 
ENDBRANCH   8  20
BRANCH  11  22
ATOM     22  O   UNL     1     129.114 120.069 143.698  1.00  0.00    -0.492 OA
ATOM     23  C   UNL     1     130.086 120.985 144.190  1.00  0.00     0.278 C 
ENDBRANCH  11  22
BRANCH   9  24
ATOM     24  O   UNL     1     126.946 121.717 139.678  1.00  0.00    -0.490 OA
ATOM     25  C   UNL     1     126.639 120.922 138.538  1.00  0.00     0.279 C 
ENDBRANCH   9  24
BRANCH  10  26
ATOM     26  O   UNL     1     129.307 120.981 141.131  1.00  0.00    -0.490 OA
ATOM     27  C   UNL     1     129.935 119.967 140.353  1.00  0.00     0.278 C 
ENDBRANCH  10  26
TORSDOF 6
ENDMDL
MODEL 3
REMARK VINA RESULT:    -4.533     18.664     20.350
REMARK INTER + INTRA:          -6.711
REMARK INTER:                  -6.249
REMARK INTRA:                  -0.462
REMARK UNBOUND:                -0.588
REMARK SMILES COc1ccc(-c2cc(=O)c3c(OC)c(OC)c(OC)c(OC)c3o2)cc1
REMARK SMILES IDX 7 1 8 2 9 3 10 4 11 5 24 6 25 7 21 8 18 9 15 10 12 11 6 12
REMARK SMILES IDX 3 13 4 14 27 15 5 16 26 17 2 18 1 19 22 20 23 21 13 22 14 23
REMARK SMILES IDX 19 24 20 25 16 26 17 27
REMARK H PARENT
REMARK Flexibility Score: inf
ROOT
ATOM      1  C   UNL     1     136.277 137.573 134.369  1.00  0.00     0.138 A 
ATOM      2  C   UNL     1     137.199 138.026 135.323  1.00  0.00     0.100 A 
ATOM      3  C   UNL     1     136.751 138.375 136.596  1.00  0.00     0.197 A 
ATOM      4  O   UNL     1     137.590 138.785 137.443  1.00  0.00    -0.289 OA
ATOM      5  C   UNL     1     135.380 138.262 136.910  1.00  0.00     0.115 A 
ATOM      6  C   UNL     1     134.516 137.771 135.909  1.00  0.00     0.188 A 
ATOM      7  O   UNL     1     134.995 137.457 134.706  1.00  0.00    -0.452 OA
ATOM      8  C   UNL     1     133.143 137.626 136.160  1.00  0.00     0.209 A 
ATOM      9  C   UNL     1     132.598 138.024 137.407  1.00  0.00     0.211 A 
ATOM     10  C   UNL     1     133.470 138.495 138.423  1.00  0.00     0.208 A 
ATOM     11  C   UNL     1     134.847 138.633 138.162  1.00  0.00     0.179 A 
ENDROOT
BRANCH   1  12
ATOM     12  C   UNL     1     136.695 137.210 132.991  1.00  0.00     0.018 A 
ATOM     13  C   UNL     1     137.540 136.534 130.381  1.00  0.00     0.118 A 
ATOM     14  C   UNL     1     138.125 137.617 131.061  1.00  0.00     0.047 A 
ATOM     15  C   UNL     1     136.542 135.790 131.016  1.00  0.00     0.047 A 
ATOM     16  C   UNL     1     137.708 137.947 132.354  1.00  0.00     0.016 A 
ATOM     17  C   UNL     1     136.123 136.118 132.309  1.00  0.00     0.016 A 
BRANCH  13  18
ATOM     18  O   UNL     1     137.923 136.165 129.082  1.00  0.00    -0.497 OA
ATOM     19  C   UNL     1     137.022 136.026 127.988  1.00  0.00     0.278 C 
ENDBRANCH  13  18
ENDBRANCH   1  12
BRANCH   8  20
ATOM     20  O   UNL     1     132.324 137.091 135.161  1.00  0.00    -0.490 OA
ATOM     21  C   UNL     1     131.998 135.706 135.114  1.00  0.00     0.278 C 
ENDBRANCH   8  20
BRANCH  11  22
ATOM     22  O   UNL     1     135.695 139.125 139.163  1.00  0.00    -0.492 OA
ATOM     23  C   UNL     1     136.208 138.297 140.203  1.00  0.00     0.278 C 
ENDBRANCH  11  22
BRANCH   9  24
ATOM     24  O   UNL     1     131.218 137.968 137.679  1.00  0.00    -0.490 OA
ATOM     25  C   UNL     1     130.262 139.007 137.499  1.00  0.00     0.279 C 
ENDBRANCH   9  24
BRANCH  10  26
ATOM     26  O   UNL     1     133.038 138.826 139.724  1.00  0.00    -0.490 OA
ATOM     27  C   UNL     1     132.621 137.929 140.748  1.00  0.00     0.278 C 
ENDBRANCH  10  26
TORSDOF 6
ENDMDL
MODEL 4
REMARK VINA RESULT:    -4.529      1.100      1.614
REMARK INTER + INTRA:          -6.705
REMARK INTER:                  -6.206
REMARK INTRA:                  -0.499
REMARK UNBOUND:                -0.588
REMARK SMILES COc1ccc(-c2cc(=O)c3c(OC)c(OC)c(OC)c(OC)c3o2)cc1
REMARK SMILES IDX 7 1 8 2 9 3 10 4 11 5 24 6 25 7 21 8 18 9 15 10 12 11 6 12
REMARK SMILES IDX 3 13 4 14 27 15 5 16 26 17 2 18 1 19 22 20 23 21 13 22 14 23
REMARK SMILES IDX 19 24 20 25 16 26 17 27
REMARK H PARENT
REMARK Flexibility Score: inf
ROOT
ATOM      1  C   UNL     1     125.071 121.870 139.490  1.00  0.00     0.138 A 
ATOM      2  C   UNL     1     126.297 121.219 139.299  1.00  0.00     0.100 A 
ATOM      3  C   UNL     1     126.975 120.699 140.400  1.00  0.00     0.197 A 
ATOM      4  O   UNL     1     128.079 120.120 140.215  1.00  0.00    -0.289 OA
ATOM      5  C   UNL     1     126.416 120.828 141.690  1.00  0.00     0.115 A 
ATOM      6  C   UNL     1     125.164 121.469 141.800  1.00  0.00     0.188 A 
ATOM      7  O   UNL     1     124.561 121.954 140.716  1.00  0.00    -0.452 OA
ATOM      8  C   UNL     1     124.550 121.622 143.053  1.00  0.00     0.209 A 
ATOM      9  C   UNL     1     125.206 121.181 144.230  1.00  0.00     0.211 A 
ATOM     10  C   UNL     1     126.453 120.513 144.117  1.00  0.00     0.208 A 
ATOM     11  C   UNL     1     127.060 120.362 142.855  1.00  0.00     0.179 A 
ENDROOT
BRANCH   1  12
ATOM     12  C   UNL     1     124.318 122.465 138.355  1.00  0.00     0.018 A 
ATOM     13  C   UNL     1     122.882 123.642 136.225  1.00  0.00     0.118 A 
ATOM     14  C   UNL     1     122.576 123.969 137.558  1.00  0.00     0.047 A 
ATOM     15  C   UNL     1     123.914 122.734 135.967  1.00  0.00     0.047 A 
ATOM     16  C   UNL     1     123.290 123.389 138.610  1.00  0.00     0.016 A 
ATOM     17  C   UNL     1     124.630 122.152 137.018  1.00  0.00     0.016 A 
BRANCH  13  18
ATOM     18  O   UNL     1     122.194 124.196 135.135  1.00  0.00    -0.497 OA
ATOM     19  C   UNL     1     122.793 124.514 133.883  1.00  0.00     0.278 C 
ENDBRANCH  13  18
ENDBRANCH   1  12
BRANCH   8  20
ATOM     20  O   UNL     1     123.287 122.219 143.120  1.00  0.00    -0.490 OA
ATOM     21  C   UNL     1     123.124 123.619 143.328  1.00  0.00     0.278 C 
ENDBRANCH   8  20
BRANCH  11  22
ATOM     22  O   UNL     1     128.304 119.726 142.757  1.00  0.00    -0.492 OA
ATOM     23  C   UNL     1     129.517 120.359 143.153  1.00  0.00     0.278 C 
ENDBRANCH  11  22
BRANCH   9  24
ATOM     24  O   UNL     1     124.664 121.379 145.514  1.00  0.00    -0.490 OA
ATOM     25  C   UNL     1     124.856 122.502 146.366  1.00  0.00     0.279 C 
ENDBRANCH   9  24
BRANCH  10  26
ATOM     26  O   UNL     1     127.138 119.957 145.216  1.00  0.00    -0.490 OA
ATOM     27  C   UNL     1     126.713 118.875 146.038  1.00  0.00     0.278 C 
ENDBRANCH  10  26
TORSDOF 6
ENDMDL
MODEL 5
REMARK VINA RESULT:    -4.516     18.379     21.105
REMARK INTER + INTRA:          -6.688
REMARK INTER:                  -6.091
REMARK INTRA:                  -0.597
REMARK UNBOUND:                -0.588
REMARK SMILES COc1ccc(-c2cc(=O)c3c(OC)c(OC)c(OC)c(OC)c3o2)cc1
REMARK SMILES IDX 7 1 8 2 9 3 10 4 11 5 24 6 25 7 21 8 18 9 15 10 12 11 6 12
REMARK SMILES IDX 3 13 4 14 27 15 5 16 26 17 2 18 1 19 22 20 23 21 13 22 14 23
REMARK SMILES IDX 19 24 20 25 16 26 17 27
REMARK H PARENT
REMARK Flexibility Score: inf
ROOT
ATOM      1  C   UNL     1     137.074 136.951 136.800  1.00  0.00     0.138 A 
ATOM      2  C   UNL     1     137.315 138.070 135.991  1.00  0.00     0.100 A 
ATOM      3  C   UNL     1     137.180 137.958 134.609  1.00  0.00     0.197 A 
ATOM      4  O   UNL     1     137.404 138.971 133.892  1.00  0.00    -0.289 OA
ATOM      5  C   UNL     1     136.799 136.723 134.042  1.00  0.00     0.115 A 
ATOM      6  C   UNL     1     136.544 135.649 134.921  1.00  0.00     0.188 A 
ATOM      7  O   UNL     1     136.694 135.808 136.235  1.00  0.00    -0.452 OA
ATOM      8  C   UNL     1     136.152 134.397 134.422  1.00  0.00     0.209 A 
ATOM      9  C   UNL     1     136.059 134.182 133.024  1.00  0.00     0.211 A 
ATOM     10  C   UNL     1     136.290 135.269 132.140  1.00  0.00     0.208 A 
ATOM     11  C   UNL     1     136.680 136.522 132.651  1.00  0.00     0.179 A 
ENDROOT
BRANCH   1  12
ATOM     12  C   UNL     1     137.226 137.008 138.277  1.00  0.00     0.018 A 
ATOM     13  C   UNL     1     137.464 137.132 141.089  1.00  0.00     0.118 A 
ATOM     14  C   UNL     1     136.673 138.068 140.399  1.00  0.00     0.047 A 
ATOM     15  C   UNL     1     138.124 136.133 140.367  1.00  0.00     0.047 A 
ATOM     16  C   UNL     1     136.553 138.001 139.008  1.00  0.00     0.016 A 
ATOM     17  C   UNL     1     138.005 136.066 138.975  1.00  0.00     0.016 A 
BRANCH  13  18
ATOM     18  O   UNL     1     137.616 137.157 142.484  1.00  0.00    -0.497 OA
ATOM     19  C   UNL     1     137.773 135.998 143.296  1.00  0.00     0.278 C 
ENDBRANCH  13  18
ENDBRANCH   1  12
BRANCH   8  20
ATOM     20  O   UNL     1     135.862 133.369 135.323  1.00  0.00    -0.490 OA
ATOM     21  C   UNL     1     134.553 133.173 135.850  1.00  0.00     0.278 C 
ENDBRANCH   8  20
BRANCH  11  22
ATOM     22  O   UNL     1     136.932 137.581 131.769  1.00  0.00    -0.492 OA
ATOM     23  C   UNL     1     138.114 137.649 130.978  1.00  0.00     0.278 C 
ENDBRANCH  11  22
BRANCH   9  24
ATOM     24  O   UNL     1     135.742 132.925 132.474  1.00  0.00    -0.490 OA
ATOM     25  C   UNL     1     134.447 132.421 132.169  1.00  0.00     0.279 C 
ENDBRANCH   9  24
BRANCH  10  26
ATOM     26  O   UNL     1     136.131 135.179 130.742  1.00  0.00    -0.490 OA
ATOM     27  C   UNL     1     134.936 135.382 129.995  1.00  0.00     0.278 C 
ENDBRANCH  10  26
TORSDOF 6
ENDMDL
MODEL 6
REMARK VINA RESULT:    -4.481     16.371     18.470
REMARK INTER + INTRA:          -6.640
REMARK INTER:                  -6.137
REMARK INTRA:                  -0.504
REMARK UNBOUND:                -0.588
REMARK SMILES COc1ccc(-c2cc(=O)c3c(OC)c(OC)c(OC)c(OC)c3o2)cc1
REMARK SMILES IDX 7 1 8 2 9 3 10 4 11 5 24 6 25 7 21 8 18 9 15 10 12 11 6 12
REMARK SMILES IDX 3 13 4 14 27 15 5 16 26 17 2 18 1 19 22 20 23 21 13 22 14 23
REMARK SMILES IDX 19 24 20 25 16 26 17 27
REMARK H PARENT
REMARK Flexibility Score: inf
ROOT
ATOM      1  C   UNL     1     130.757 136.206 134.841  1.00  0.00     0.138 A 
ATOM      2  C   UNL     1     130.093 136.958 135.819  1.00  0.00     0.100 A 
ATOM      3  C   UNL     1     130.836 137.697 136.738  1.00  0.00     0.197 A 
ATOM      4  O   UNL     1     130.226 138.364 137.616  1.00  0.00    -0.289 OA
ATOM      5  C   UNL     1     132.245 137.683 136.668  1.00  0.00     0.115 A 
ATOM      6  C   UNL     1     132.844 136.928 135.638  1.00  0.00     0.188 A 
ATOM      7  O   UNL     1     132.087 136.235 134.789  1.00  0.00    -0.452 OA
ATOM      8  C   UNL     1     134.240 136.881 135.508  1.00  0.00     0.209 A 
ATOM      9  C   UNL     1     135.069 137.548 136.444  1.00  0.00     0.211 A 
ATOM     10  C   UNL     1     134.467 138.330 137.465  1.00  0.00     0.208 A 
ATOM     11  C   UNL     1     133.065 138.373 137.586  1.00  0.00     0.179 A 
ENDROOT
BRANCH   1  12
ATOM     12  C   UNL     1     130.016 135.382 133.852  1.00  0.00     0.018 A 
ATOM     13  C   UNL     1     128.584 133.859 131.951  1.00  0.00     0.118 A 
ATOM     14  C   UNL     1     128.012 135.012 132.517  1.00  0.00     0.047 A 
ATOM     15  C   UNL     1     129.875 133.481 132.333  1.00  0.00     0.047 A 
ATOM     16  C   UNL     1     128.724 135.766 133.454  1.00  0.00     0.016 A 
ATOM     17  C   UNL     1     130.589 134.234 133.270  1.00  0.00     0.016 A 
BRANCH  13  18
ATOM     18  O   UNL     1     127.910 133.068 131.008  1.00  0.00    -0.497 OA
ATOM     19  C   UNL     1     128.474 131.931 130.363  1.00  0.00     0.278 C 
ENDBRANCH  13  18
ENDBRANCH   1  12
BRANCH   8  20
ATOM     20  O   UNL     1     134.798 136.161 134.447  1.00  0.00    -0.490 OA
ATOM     21  C   UNL     1     135.222 134.809 134.592  1.00  0.00     0.278 C 
ENDBRANCH   8  20
BRANCH  11  22
ATOM     22  O   UNL     1     132.482 139.125 138.614  1.00  0.00    -0.492 OA
ATOM     23  C   UNL     1     132.371 138.637 139.947  1.00  0.00     0.278 C 
ENDBRANCH  11  22
BRANCH   9  24
ATOM     24  O   UNL     1     136.473 137.469 136.399  1.00  0.00    -0.490 OA
ATOM     25  C   UNL     1     137.358 138.289 135.644  1.00  0.00     0.279 C 
ENDBRANCH   9  24
BRANCH  10  26
ATOM     26  O   UNL     1     135.203 139.104 138.385  1.00  0.00    -0.490 OA
ATOM     27  C   UNL     1     135.963 138.635 139.494  1.00  0.00     0.278 C 
ENDBRANCH  10  26
TORSDOF 6
ENDMDL
MODEL 7
REMARK VINA RESULT:    -4.432      2.390      4.802
REMARK INTER + INTRA:          -6.575
REMARK INTER:                  -6.076
REMARK INTRA:                  -0.499
REMARK UNBOUND:                -0.588
REMARK SMILES COc1ccc(-c2cc(=O)c3c(OC)c(OC)c(OC)c(OC)c3o2)cc1
REMARK SMILES IDX 7 1 8 2 9 3 10 4 11 5 24 6 25 7 21 8 18 9 15 10 12 11 6 12
REMARK SMILES IDX 3 13 4 14 27 15 5 16 26 17 2 18 1 19 22 20 23 21 13 22 14 23
REMARK SMILES IDX 19 24 20 25 16 26 17 27
REMARK H PARENT
REMARK Flexibility Score: inf
ROOT
ATOM      1  C   UNL     1     123.400 122.500 141.193  1.00  0.00     0.138 A 
ATOM      2  C   UNL     1     122.205 123.227 141.105  1.00  0.00     0.100 A 
ATOM      3  C   UNL     1     121.336 123.249 142.195  1.00  0.00     0.197 A 
ATOM      4  O   UNL     1     120.262 123.903 142.101  1.00  0.00    -0.289 OA
ATOM      5  C   UNL     1     121.672 122.546 143.371  1.00  0.00     0.115 A 
ATOM      6  C   UNL     1     122.905 121.861 143.396  1.00  0.00     0.188 A 
ATOM      7  O   UNL     1     123.697 121.867 142.325  1.00  0.00    -0.452 OA
ATOM      8  C   UNL     1     123.302 121.151 144.539  1.00  0.00     0.209 A 
ATOM      9  C   UNL     1     122.444 121.067 145.664  1.00  0.00     0.211 A 
ATOM     10  C   UNL     1     121.214 121.777 145.650  1.00  0.00     0.208 A 
ATOM     11  C   UNL     1     120.826 122.490 144.499  1.00  0.00     0.179 A 
ENDROOT
BRANCH   1  12
ATOM     12  C   UNL     1     124.351 122.421 140.054  1.00  0.00     0.018 A 
ATOM     13  C   UNL     1     126.163 122.219 137.896  1.00  0.00     0.118 A 
ATOM     14  C   UNL     1     126.297 121.383 139.019  1.00  0.00     0.047 A 
ATOM     15  C   UNL     1     125.116 123.145 137.856  1.00  0.00     0.047 A 
ATOM     16  C   UNL     1     125.396 121.482 140.083  1.00  0.00     0.016 A 
ATOM     17  C   UNL     1     124.214 123.245 138.920  1.00  0.00     0.016 A 
BRANCH  13  18
ATOM     18  O   UNL     1     127.042 122.159 136.803  1.00  0.00    -0.497 OA
ATOM     19  C   UNL     1     128.266 122.881 136.716  1.00  0.00     0.278 C 
ENDBRANCH  13  18
ENDBRANCH   1  12
BRANCH   8  20
ATOM     20  O   UNL     1     124.552 120.523 144.547  1.00  0.00    -0.490 OA
ATOM     21  C   UNL     1     125.692 121.119 145.158  1.00  0.00     0.278 C 
ENDBRANCH   8  20
BRANCH  11  22
ATOM     22  O   UNL     1     119.598 123.164 144.484  1.00  0.00    -0.492 OA
ATOM     23  C   UNL     1     118.372 122.509 144.176  1.00  0.00     0.278 C 
ENDBRANCH  11  22
BRANCH   9  24
ATOM     24  O   UNL     1     122.766 120.306 146.803  1.00  0.00    -0.490 OA
ATOM     25  C   UNL     1     122.611 118.901 146.973  1.00  0.00     0.279 C 
ENDBRANCH   9  24
BRANCH  10  26
ATOM     26  O   UNL     1     120.338 121.833 146.752  1.00  0.00    -0.490 OA
ATOM     27  C   UNL     1     119.359 120.868 147.124  1.00  0.00     0.278 C 
ENDBRANCH  10  26
TORSDOF 6
ENDMDL
MODEL 8
REMARK VINA RESULT:    -4.431      5.013     12.444
REMARK INTER + INTRA:          -6.573
REMARK INTER:                  -6.051
REMARK INTRA:                  -0.522
REMARK UNBOUND:                -0.588
REMARK SMILES COc1ccc(-c2cc(=O)c3c(OC)c(OC)c(OC)c(OC)c3o2)cc1
REMARK SMILES IDX 7 1 8 2 9 3 10 4 11 5 24 6 25 7 21 8 18 9 15 10 12 11 6 12
REMARK SMILES IDX 3 13 4 14 27 15 5 16 26 17 2 18 1 19 22 20 23 21 13 22 14 23
REMARK SMILES IDX 19 24 20 25 16 26 17 27
REMARK H PARENT
REMARK Flexibility Score: inf
ROOT
ATOM      1  C   UNL     1     122.736 124.188 134.684  1.00  0.00     0.138 A 
ATOM      2  C   UNL     1     121.355 124.132 134.916  1.00  0.00     0.100 A 
ATOM      3  C   UNL     1     120.480 124.670 133.974  1.00  0.00     0.197 A 
ATOM      4  O   UNL     1     119.240 124.618 134.197  1.00  0.00    -0.289 OA
ATOM      5  C   UNL     1     120.994 125.258 132.798  1.00  0.00     0.115 A 
ATOM      6  C   UNL     1     122.393 125.250 132.619  1.00  0.00     0.188 A 
ATOM      7  O   UNL     1     123.186 124.728 133.554  1.00  0.00    -0.452 OA
ATOM      8  C   UNL     1     122.967 125.810 131.468  1.00  0.00     0.209 A 
ATOM      9  C   UNL     1     122.151 126.439 130.495  1.00  0.00     0.211 A 
ATOM     10  C   UNL     1     120.741 126.424 130.661  1.00  0.00     0.208 A 
ATOM     11  C   UNL     1     120.174 125.857 131.819  1.00  0.00     0.179 A 
ENDROOT
BRANCH   1  12
ATOM     12  C   UNL     1     123.714 123.652 135.665  1.00  0.00     0.018 A 
ATOM     13  C   UNL     1     125.568 122.676 137.562  1.00  0.00     0.118 A 
ATOM     14  C   UNL     1     125.465 124.056 137.310  1.00  0.00     0.047 A 
ATOM     15  C   UNL     1     124.734 121.794 136.867  1.00  0.00     0.047 A 
ATOM     16  C   UNL     1     124.544 124.537 136.375  1.00  0.00     0.016 A 
ATOM     17  C   UNL     1     123.812 122.273 135.932  1.00  0.00     0.016 A 
BRANCH  13  18
ATOM     18  O   UNL     1     126.476 122.145 138.490  1.00  0.00    -0.497 OA
ATOM     19  C   UNL     1     126.399 120.827 139.026  1.00  0.00     0.278 C 
ENDBRANCH  13  18
ENDBRANCH   1  12
BRANCH   8  20
ATOM     20  O   UNL     1     124.354 125.744 131.301  1.00  0.00    -0.490 OA
ATOM     21  C   UNL     1     124.971 124.733 130.510  1.00  0.00     0.278 C 
ENDBRANCH   8  20
BRANCH  11  22
ATOM     22  O   UNL     1     118.783 125.872 131.987  1.00  0.00    -0.492 OA
ATOM     23  C   UNL     1     117.917 125.013 131.252  1.00  0.00     0.278 C 
ENDBRANCH  11  22
BRANCH   9  24
ATOM     24  O   UNL     1     122.686 127.079 129.361  1.00  0.00    -0.490 OA
ATOM     25  C   UNL     1     122.844 126.531 128.057  1.00  0.00     0.279 C 
ENDBRANCH   9  24
BRANCH  10  26
ATOM     26  O   UNL     1     119.841 126.938 129.706  1.00  0.00    -0.490 OA
ATOM     27  C   UNL     1     119.427 128.292 129.553  1.00  0.00     0.278 C 
ENDBRANCH  10  26
TORSDOF 6
ENDMDL
MODEL 9
REMARK VINA RESULT:    -4.396      5.114     11.862
REMARK INTER + INTRA:          -6.526
REMARK INTER:                  -5.952
REMARK INTRA:                  -0.573
REMARK UNBOUND:                -0.588
REMARK SMILES COc1ccc(-c2cc(=O)c3c(OC)c(OC)c(OC)c(OC)c3o2)cc1
REMARK SMILES IDX 7 1 8 2 9 3 10 4 11 5 24 6 25 7 21 8 18 9 15 10 12 11 6 12
REMARK SMILES IDX 3 13 4 14 27 15 5 16 26 17 2 18 1 19 22 20 23 21 13 22 14 23
REMARK SMILES IDX 19 24 20 25 16 26 17 27
REMARK H PARENT
REMARK Flexibility Score: inf
ROOT
ATOM      1  C   UNL     1     122.758 123.935 135.269  1.00  0.00     0.138 A 
ATOM      2  C   UNL     1     121.478 124.046 135.830  1.00  0.00     0.100 A 
ATOM      3  C   UNL     1     120.443 124.594 135.074  1.00  0.00     0.197 A 
ATOM      4  O   UNL     1     119.299 124.692 135.593  1.00  0.00    -0.289 OA
ATOM      5  C   UNL     1     120.695 125.023 133.754  1.00  0.00     0.115 A 
ATOM      6  C   UNL     1     122.000 124.852 133.246  1.00  0.00     0.188 A 
ATOM      7  O   UNL     1     122.955 124.328 134.013  1.00  0.00    -0.452 OA
ATOM      8  C   UNL     1     122.313 125.250 131.937  1.00  0.00     0.209 A 
ATOM      9  C   UNL     1     121.335 125.879 131.127  1.00  0.00     0.211 A 
ATOM     10  C   UNL     1     120.015 126.028 131.628  1.00  0.00     0.208 A 
ATOM     11  C   UNL     1     119.710 125.623 132.941  1.00  0.00     0.179 A 
ENDROOT
BRANCH   1  12
ATOM     12  C   UNL     1     123.902 123.381 136.037  1.00  0.00     0.018 A 
ATOM     13  C   UNL     1     126.074 122.369 137.534  1.00  0.00     0.118 A 
ATOM     14  C   UNL     1     125.890 123.757 137.395  1.00  0.00     0.047 A 
ATOM     15  C   UNL     1     125.163 121.497 136.931  1.00  0.00     0.047 A 
ATOM     16  C   UNL     1     124.812 124.255 136.658  1.00  0.00     0.016 A 
ATOM     17  C   UNL     1     124.085 121.994 136.193  1.00  0.00     0.016 A 
BRANCH  13  18
ATOM     18  O   UNL     1     127.141 121.820 138.263  1.00  0.00    -0.497 OA
ATOM     19  C   UNL     1     127.020 120.720 139.159  1.00  0.00     0.278 C 
ENDBRANCH  13  18
ENDBRANCH   1  12
BRANCH   8  20
ATOM     20  O   UNL     1     123.604 125.022 131.450  1.00  0.00    -0.490 OA
ATOM     21  C   UNL     1     124.615 126.024 131.493  1.00  0.00     0.278 C 
ENDBRANCH   8  20
BRANCH  11  22
ATOM     22  O   UNL     1     118.411 125.799 133.436  1.00  0.00    -0.492 OA
ATOM     23  C   UNL     1     117.914 127.072 133.837  1.00  0.00     0.278 C 
ENDBRANCH  11  22
BRANCH   9  24
ATOM     24  O   UNL     1     121.621 126.361 129.836  1.00  0.00    -0.490 OA
ATOM     25  C   UNL     1     121.597 125.627 128.617  1.00  0.00     0.279 C 
ENDBRANCH   9  24
BRANCH  10  26
ATOM     26  O   UNL     1     118.951 126.554 130.867  1.00  0.00    -0.490 OA
ATOM     27  C   UNL     1     118.099 125.847 129.972  1.00  0.00     0.278 C 
ENDBRANCH  10  26
TORSDOF 6
ENDMDL
