MODEL 1
REMARK VINA RESULT:    -8.896      0.000      0.000
REMARK INTER + INTRA:         -10.278
REMARK INTER:                 -10.196
REMARK INTRA:                  -0.082
REMARK UNBOUND:                -0.082
REMARK SMILES CC1(C)CC[C@]23CO[C@@]4(C=C[C@@H]5[C@]6(C)CC[C@@H](O)[C@](C)(CO)[C@@H]6CC[C@@]5(C)[C@]4(C)C[C@@H]2O)[C@@H]3C1
REMARK SMILES IDX 1 1 2 2 4 3 5 4 6 5 7 6 8 7 9 8 33 9 34 10 10 11 11 12 12 13
REMARK SMILES IDX 13 14 15 15 16 16 17 17 19 18 23 19 24 20 25 21 26 22 28 23
REMARK SMILES IDX 30 24 31 25 29 26 27 27 20 28 14 29 3 30 32 31 21 33 22 34
REMARK SMILES IDX 18 36
REMARK H PARENT 32 32 22 35 18 37
REMARK Flexibility Score: inf
ROOT
ATOM      1  C   UNL     1      13.734  -5.171 -13.148  1.00  0.00     0.011 C 
ATOM      2  C   UNL     1      14.167  -3.702 -12.945  1.00  0.00    -0.035 C 
ATOM      3  C   UNL     1      13.097  -2.990 -12.058  1.00  0.00     0.007 C 
ATOM      4  C   UNL     1      13.258  -1.456 -11.994  1.00  0.00     0.013 C 
ATOM      5  C   UNL     1      13.310  -0.831 -13.410  1.00  0.00     0.026 C 
ATOM      6  C   UNL     1      13.852   0.602 -13.443  1.00  0.00     0.171 C 
ATOM      7  O   UNL     1      14.506   0.775 -14.691  1.00  0.00    -0.369 OA
ATOM      8  C   UNL     1      14.501  -0.474 -15.377  1.00  0.00     0.096 C 
ATOM      9  C   UNL     1      14.411  -1.483 -14.210  1.00  0.00     0.037 C 
ATOM     10  C   UNL     1      14.271  -3.015 -14.345  1.00  0.00     0.014 C 
ATOM     11  C   UNL     1      15.833  -0.572 -16.105  1.00  0.00     0.005 C 
ATOM     12  C   UNL     1      16.013  -0.146 -17.369  1.00  0.00    -0.024 C 
ATOM     13  C   UNL     1      14.852   0.068 -18.332  1.00  0.00     0.024 C 
ATOM     14  C   UNL     1      15.223   0.732 -19.729  1.00  0.00    -0.022 C 
ATOM     15  C   UNL     1      15.866   2.137 -19.556  1.00  0.00     0.010 C 
ATOM     16  C   UNL     1      16.159   2.874 -20.877  1.00  0.00     0.033 C 
ATOM     17  C   UNL     1      15.159   2.615 -22.033  1.00  0.00     0.123 C 
ATOM     18  C   UNL     1      13.758   2.094 -21.570  1.00  0.00     0.020 C 
ATOM     19  C   UNL     1      13.945   0.787 -20.679  1.00  0.00     0.006 C 
ATOM     20  C   UNL     1      12.642   0.234 -20.026  1.00  0.00     0.005 C 
ATOM     21  C   UNL     1      12.353   0.695 -18.585  1.00  0.00     0.008 C 
ATOM     22  C   UNL     1      13.558   0.580 -17.577  1.00  0.00    -0.017 C 
ATOM     23  C   UNL     1      13.261  -0.488 -16.386  1.00  0.00     0.009 C 
ATOM     24  C   UNL     1      11.959  -0.174 -15.554  1.00  0.00     0.043 C 
ATOM     25  C   UNL     1      11.931  -0.905 -14.171  1.00  0.00     0.124 C 
ATOM     26  C   UNL     1      13.045  -1.912 -17.015  1.00  0.00     0.015 C 
ATOM     27  C   UNL     1      13.821   2.022 -17.001  1.00  0.00     0.013 C 
ATOM     28  C   UNL     1      12.951   1.742 -22.861  1.00  0.00     0.017 C 
ATOM     29  C   UNL     1      16.311  -0.182 -20.399  1.00  0.00     0.012 C 
ATOM     30  C   UNL     1      15.539  -3.717 -12.230  1.00  0.00     0.011 C 
ENDROOT
BRANCH  25  31
ATOM     31  O   UNL     1      10.873  -0.423 -13.379  1.00  0.00    -0.392 OA
ATOM     32  H   UNL     1      11.149   0.441 -12.983  1.00  0.00     0.210 HD
ENDBRANCH  25  31
BRANCH  18  33
ATOM     33  C   UNL     1      12.996   3.257 -20.855  1.00  0.00     0.165 C 
BRANCH  33  34
ATOM     34  O   UNL     1      11.949   3.758 -21.642  1.00  0.00    -0.396 OA
ATOM     35  H   UNL     1      11.933   3.220 -22.479  1.00  0.00     0.210 HD
ENDBRANCH  33  34
ENDBRANCH  18  33
BRANCH  17  36
ATOM     36  O   UNL     1      15.732   1.727 -22.962  1.00  0.00    -0.392 OA
ATOM     37  H   UNL     1      15.593   2.117 -23.865  1.00  0.00     0.210 HD
ENDBRANCH  17  36
TORSDOF 4
ENDMDL
MODEL 2
REMARK VINA RESULT:    -8.626      3.676      6.673
REMARK INTER + INTRA:          -9.969
REMARK INTER:                  -9.913
REMARK INTRA:                  -0.056
REMARK UNBOUND:                -0.082
REMARK SMILES CC1(C)CC[C@]23CO[C@@]4(C=C[C@@H]5[C@]6(C)CC[C@@H](O)[C@](C)(CO)[C@@H]6CC[C@@]5(C)[C@]4(C)C[C@@H]2O)[C@@H]3C1
REMARK SMILES IDX 1 1 2 2 4 3 5 4 6 5 7 6 8 7 9 8 33 9 34 10 10 11 11 12 12 13
REMARK SMILES IDX 13 14 15 15 16 16 17 17 19 18 23 19 24 20 25 21 26 22 28 23
REMARK SMILES IDX 30 24 31 25 29 26 27 27 20 28 14 29 3 30 32 31 21 33 22 34
REMARK SMILES IDX 18 36
REMARK H PARENT 32 32 22 35 18 37
REMARK Flexibility Score: inf
ROOT
ATOM      1  C   UNL     1      11.314  -9.554 -12.251  1.00  0.00     0.011 C 
ATOM      2  C   UNL     1      12.798  -9.149 -12.395  1.00  0.00    -0.035 C 
ATOM      3  C   UNL     1      13.496  -9.333 -11.010  1.00  0.00     0.007 C 
ATOM      4  C   UNL     1      14.910  -8.716 -10.934  1.00  0.00     0.013 C 
ATOM      5  C   UNL     1      14.902  -7.227 -11.359  1.00  0.00     0.026 C 
ATOM      6  C   UNL     1      16.288  -6.661 -11.686  1.00  0.00     0.171 C 
ATOM      7  O   UNL     1      16.111  -5.662 -12.679  1.00  0.00    -0.369 OA
ATOM      8  C   UNL     1      14.739  -5.651 -13.063  1.00  0.00     0.096 C 
ATOM      9  C   UNL     1      14.299  -7.096 -12.735  1.00  0.00     0.037 C 
ATOM     10  C   UNL     1      12.864  -7.656 -12.853  1.00  0.00     0.014 C 
ATOM     11  C   UNL     1      14.711  -5.380 -14.559  1.00  0.00     0.005 C 
ATOM     12  C   UNL     1      14.624  -4.141 -15.081  1.00  0.00    -0.024 C 
ATOM     13  C   UNL     1      14.118  -2.951 -14.276  1.00  0.00     0.024 C 
ATOM     14  C   UNL     1      14.237  -1.533 -14.987  1.00  0.00    -0.022 C 
ATOM     15  C   UNL     1      15.708  -1.179 -15.346  1.00  0.00     0.010 C 
ATOM     16  C   UNL     1      15.900   0.225 -15.949  1.00  0.00     0.033 C 
ATOM     17  C   UNL     1      14.944   1.326 -15.422  1.00  0.00     0.123 C 
ATOM     18  C   UNL     1      14.303   1.010 -14.029  1.00  0.00     0.020 C 
ATOM     19  C   UNL     1      13.565  -0.400 -14.090  1.00  0.00     0.006 C 
ATOM     20  C   UNL     1      12.999  -0.914 -12.732  1.00  0.00     0.005 C 
ATOM     21  C   UNL     1      13.907  -1.870 -11.934  1.00  0.00     0.008 C 
ATOM     22  C   UNL     1      14.529  -3.063 -12.751  1.00  0.00    -0.017 C 
ATOM     23  C   UNL     1      13.993  -4.508 -12.230  1.00  0.00     0.009 C 
ATOM     24  C   UNL     1      14.260  -4.776 -10.699  1.00  0.00     0.043 C 
ATOM     25  C   UNL     1      14.167  -6.292 -10.323  1.00  0.00     0.124 C 
ATOM     26  C   UNL     1      12.435  -4.578 -12.421  1.00  0.00     0.015 C 
ATOM     27  C   UNL     1      16.094  -2.950 -12.618  1.00  0.00     0.013 C 
ATOM     28  C   UNL     1      13.263   2.140 -13.738  1.00  0.00     0.017 C 
ATOM     29  C   UNL     1      13.453  -1.631 -16.345  1.00  0.00     0.012 C 
ATOM     30  C   UNL     1      13.435 -10.083 -13.449  1.00  0.00     0.011 C 
ENDROOT
BRANCH  25  31
ATOM     31  O   UNL     1      14.629  -6.504  -9.012  1.00  0.00    -0.392 OA
ATOM     32  H   UNL     1      15.596  -6.713  -9.052  1.00  0.00     0.210 HD
ENDBRANCH  25  31
BRANCH  18  33
ATOM     33  C   UNL     1      15.409   1.110 -12.929  1.00  0.00     0.165 C 
BRANCH  33  34
ATOM     34  O   UNL     1      16.348   2.111 -13.220  1.00  0.00    -0.396 OA
ATOM     35  H   UNL     1      16.807   1.842 -14.061  1.00  0.00     0.210 HD
ENDBRANCH  33  34
ENDBRANCH  18  33
BRANCH  17  36
ATOM     36  O   UNL     1      13.944   1.579 -16.378  1.00  0.00    -0.392 OA
ATOM     37  H   UNL     1      13.082   1.648 -15.890  1.00  0.00     0.210 HD
ENDBRANCH  17  36
TORSDOF 4
ENDMDL
MODEL 3
REMARK VINA RESULT:    -8.407      8.425     13.665
REMARK INTER + INTRA:          -9.717
REMARK INTER:                  -9.604
REMARK INTRA:                  -0.114
REMARK UNBOUND:                -0.082
REMARK SMILES CC1(C)CC[C@]23CO[C@@]4(C=C[C@@H]5[C@]6(C)CC[C@@H](O)[C@](C)(CO)[C@@H]6CC[C@@]5(C)[C@]4(C)C[C@@H]2O)[C@@H]3C1
REMARK SMILES IDX 1 1 2 2 4 3 5 4 6 5 7 6 8 7 9 8 33 9 34 10 10 11 11 12 12 13
REMARK SMILES IDX 13 14 15 15 16 16 17 17 19 18 23 19 24 20 25 21 26 22 28 23
REMARK SMILES IDX 30 24 31 25 29 26 27 27 20 28 14 29 3 30 32 31 21 33 22 34
REMARK SMILES IDX 18 36
REMARK H PARENT 32 32 22 35 18 37
REMARK Flexibility Score: inf
ROOT
ATOM      1  C   UNL     1      12.385  -8.761 -20.976  1.00  0.00     0.011 C 
ATOM      2  C   UNL     1      13.447  -8.282 -19.961  1.00  0.00    -0.035 C 
ATOM      3  C   UNL     1      14.860  -8.659 -20.508  1.00  0.00     0.007 C 
ATOM      4  C   UNL     1      15.997  -8.483 -19.479  1.00  0.00     0.013 C 
ATOM      5  C   UNL     1      15.693  -9.237 -18.161  1.00  0.00     0.026 C 
ATOM      6  C   UNL     1      16.560  -8.802 -16.975  1.00  0.00     0.171 C 
ATOM      7  O   UNL     1      15.779  -8.967 -15.801  1.00  0.00    -0.369 OA
ATOM      8  C   UNL     1      14.466  -9.365 -16.187  1.00  0.00     0.096 C 
ATOM      9  C   UNL     1      14.361  -8.785 -17.616  1.00  0.00     0.037 C 
ATOM     10  C   UNL     1      13.178  -8.984 -18.590  1.00  0.00     0.014 C 
ATOM     11  C   UNL     1      13.507  -8.679 -15.228  1.00  0.00     0.005 C 
ATOM     12  C   UNL     1      13.085  -9.242 -14.081  1.00  0.00    -0.024 C 
ATOM     13  C   UNL     1      13.163 -10.743 -13.832  1.00  0.00     0.024 C 
ATOM     14  C   UNL     1      12.780 -11.223 -12.365  1.00  0.00    -0.022 C 
ATOM     15  C   UNL     1      13.698 -10.588 -11.282  1.00  0.00     0.010 C 
ATOM     16  C   UNL     1      13.440 -11.090  -9.849  1.00  0.00     0.033 C 
ATOM     17  C   UNL     1      12.995 -12.570  -9.719  1.00  0.00     0.123 C 
ATOM     18  C   UNL     1      13.370 -13.466 -10.946  1.00  0.00     0.020 C 
ATOM     19  C   UNL     1      12.787 -12.814 -12.277  1.00  0.00     0.006 C 
ATOM     20  C   UNL     1      13.202 -13.523 -13.602  1.00  0.00     0.005 C 
ATOM     21  C   UNL     1      14.432 -12.944 -14.328  1.00  0.00     0.008 C 
ATOM     22  C   UNL     1      14.437 -11.381 -14.523  1.00  0.00    -0.017 C 
ATOM     23  C   UNL     1      14.376 -10.958 -16.092  1.00  0.00     0.009 C 
ATOM     24  C   UNL     1      15.544 -11.561 -16.964  1.00  0.00     0.043 C 
ATOM     25  C   UNL     1      15.741 -10.806 -18.319  1.00  0.00     0.124 C 
ATOM     26  C   UNL     1      13.040 -11.499 -16.719  1.00  0.00     0.015 C 
ATOM     27  C   UNL     1      15.741 -10.832 -13.831  1.00  0.00     0.013 C 
ATOM     28  C   UNL     1      12.711 -14.863 -10.709  1.00  0.00     0.017 C 
ATOM     29  C   UNL     1      11.323 -10.709 -12.077  1.00  0.00     0.012 C 
ATOM     30  C   UNL     1      13.309  -6.746 -19.834  1.00  0.00     0.011 C 
ENDROOT
BRANCH  25  31
ATOM     31  O   UNL     1      16.924 -11.228 -18.953  1.00  0.00    -0.392 OA
ATOM     32  H   UNL     1      17.201 -10.527 -19.595  1.00  0.00     0.210 HD
ENDBRANCH  25  31
BRANCH  18  33
ATOM     33  C   UNL     1      14.918 -13.684 -10.960  1.00  0.00     0.165 C 
BRANCH  33  34
ATOM     34  O   UNL     1      15.253 -15.042 -11.073  1.00  0.00    -0.396 OA
ATOM     35  H   UNL     1      15.119 -15.295 -12.026  1.00  0.00     0.210 HD
ENDBRANCH  33  34
ENDBRANCH  18  33
BRANCH  17  36
ATOM     36  O   UNL     1      11.612 -12.626  -9.471  1.00  0.00    -0.392 OA
ATOM     37  H   UNL     1      11.382 -13.577  -9.303  1.00  0.00     0.210 HD
ENDBRANCH  17  36
TORSDOF 4
ENDMDL
MODEL 4
REMARK VINA RESULT:    -8.397      3.603      5.710
REMARK INTER + INTRA:          -9.706
REMARK INTER:                  -9.606
REMARK INTRA:                  -0.099
REMARK UNBOUND:                -0.082
REMARK SMILES CC1(C)CC[C@]23CO[C@@]4(C=C[C@@H]5[C@]6(C)CC[C@@H](O)[C@](C)(CO)[C@@H]6CC[C@@]5(C)[C@]4(C)C[C@@H]2O)[C@@H]3C1
REMARK SMILES IDX 1 1 2 2 4 3 5 4 6 5 7 6 8 7 9 8 33 9 34 10 10 11 11 12 12 13
REMARK SMILES IDX 13 14 15 15 16 16 17 17 19 18 23 19 24 20 25 21 26 22 28 23
REMARK SMILES IDX 30 24 31 25 29 26 27 27 20 28 14 29 3 30 32 31 21 33 22 34
REMARK SMILES IDX 18 36
REMARK H PARENT 32 32 22 35 18 37
REMARK Flexibility Score: inf
ROOT
ATOM      1  C   UNL     1      18.127  -6.302 -17.241  1.00  0.00     0.011 C 
ATOM      2  C   UNL     1      16.698  -6.306 -17.826  1.00  0.00    -0.035 C 
ATOM      3  C   UNL     1      16.732  -7.033 -19.209  1.00  0.00     0.007 C 
ATOM      4  C   UNL     1      15.433  -6.877 -20.030  1.00  0.00     0.013 C 
ATOM      5  C   UNL     1      15.041  -5.388 -20.195  1.00  0.00     0.026 C 
ATOM      6  C   UNL     1      13.592  -5.167 -20.644  1.00  0.00     0.171 C 
ATOM      7  O   UNL     1      13.162  -3.936 -20.084  1.00  0.00    -0.369 OA
ATOM      8  C   UNL     1      14.197  -3.442 -19.238  1.00  0.00     0.096 C 
ATOM      9  C   UNL     1      14.933  -4.739 -18.837  1.00  0.00     0.037 C 
ATOM     10  C   UNL     1      16.224  -4.826 -17.992  1.00  0.00     0.014 C 
ATOM     11  C   UNL     1      13.509  -2.793 -18.048  1.00  0.00     0.005 C 
ATOM     12  C   UNL     1      13.178  -1.489 -18.009  1.00  0.00    -0.024 C 
ATOM     13  C   UNL     1      13.820  -0.457 -18.928  1.00  0.00     0.024 C 
ATOM     14  C   UNL     1      13.197   1.005 -18.871  1.00  0.00    -0.022 C 
ATOM     15  C   UNL     1      11.689   1.015 -19.249  1.00  0.00     0.010 C 
ATOM     16  C   UNL     1      11.052   2.415 -19.307  1.00  0.00     0.033 C 
ATOM     17  C   UNL     1      11.979   3.563 -19.786  1.00  0.00     0.123 C 
ATOM     18  C   UNL     1      13.215   3.087 -20.619  1.00  0.00     0.020 C 
ATOM     19  C   UNL     1      14.035   2.006 -19.785  1.00  0.00     0.006 C 
ATOM     20  C   UNL     1      15.219   1.335 -20.545  1.00  0.00     0.005 C 
ATOM     21  C   UNL     1      14.912  -0.009 -21.232  1.00  0.00     0.008 C 
ATOM     22  C   UNL     1      14.161  -1.073 -20.346  1.00  0.00    -0.017 C 
ATOM     23  C   UNL     1      15.070  -2.395 -20.073  1.00  0.00     0.009 C 
ATOM     24  C   UNL     1      15.563  -3.116 -21.386  1.00  0.00     0.043 C 
ATOM     25  C   UNL     1      16.026  -4.588 -21.132  1.00  0.00     0.124 C 
ATOM     26  C   UNL     1      16.367  -1.973 -19.293  1.00  0.00     0.015 C 
ATOM     27  C   UNL     1      12.825  -1.441 -21.095  1.00  0.00     0.013 C 
ATOM     28  C   UNL     1      14.106   4.346 -20.874  1.00  0.00     0.017 C 
ATOM     29  C   UNL     1      13.289   1.488 -17.378  1.00  0.00     0.012 C 
ATOM     30  C   UNL     1      15.791  -7.072 -16.835  1.00  0.00     0.011 C 
ENDROOT
BRANCH  25  31
ATOM     31  O   UNL     1      16.239  -5.256 -22.352  1.00  0.00    -0.392 OA
ATOM     32  H   UNL     1      15.969  -4.653 -23.089  1.00  0.00     0.210 HD
ENDBRANCH  25  31
BRANCH  18  33
ATOM     33  C   UNL     1      12.722   2.583 -22.015  1.00  0.00     0.165 C 
BRANCH  33  34
ATOM     34  O   UNL     1      11.879   3.515 -22.639  1.00  0.00    -0.396 OA
ATOM     35  H   UNL     1      12.410   3.946 -23.363  1.00  0.00     0.210 HD
ENDBRANCH  33  34
ENDBRANCH  18  33
BRANCH  17  36
ATOM     36  O   UNL     1      12.394   4.326 -18.680  1.00  0.00    -0.392 OA
ATOM     37  H   UNL     1      11.615   4.867 -18.387  1.00  0.00     0.210 HD
ENDBRANCH  17  36
TORSDOF 4
ENDMDL
MODEL 5
REMARK VINA RESULT:    -8.284      4.005      5.915
REMARK INTER + INTRA:          -9.576
REMARK INTER:                  -9.483
REMARK INTRA:                  -0.094
REMARK UNBOUND:                -0.082
REMARK SMILES CC1(C)CC[C@]23CO[C@@]4(C=C[C@@H]5[C@]6(C)CC[C@@H](O)[C@](C)(CO)[C@@H]6CC[C@@]5(C)[C@]4(C)C[C@@H]2O)[C@@H]3C1
REMARK SMILES IDX 1 1 2 2 4 3 5 4 6 5 7 6 8 7 9 8 33 9 34 10 10 11 11 12 12 13
REMARK SMILES IDX 13 14 15 15 16 16 17 17 19 18 23 19 24 20 25 21 26 22 28 23
REMARK SMILES IDX 30 24 31 25 29 26 27 27 20 28 14 29 3 30 32 31 21 33 22 34
REMARK SMILES IDX 18 36
REMARK H PARENT 32 32 22 35 18 37
REMARK Flexibility Score: inf
ROOT
ATOM      1  C   UNL     1      12.726  -8.328 -18.466  1.00  0.00     0.011 C 
ATOM      2  C   UNL     1      13.718  -7.707 -19.474  1.00  0.00    -0.035 C 
ATOM      3  C   UNL     1      15.171  -8.013 -18.989  1.00  0.00     0.007 C 
ATOM      4  C   UNL     1      16.263  -7.229 -19.749  1.00  0.00     0.013 C 
ATOM      5  C   UNL     1      15.982  -5.706 -19.734  1.00  0.00     0.026 C 
ATOM      6  C   UNL     1      16.780  -4.911 -20.774  1.00  0.00     0.171 C 
ATOM      7  O   UNL     1      15.983  -3.801 -21.156  1.00  0.00    -0.369 OA
ATOM      8  C   UNL     1      14.717  -3.915 -20.513  1.00  0.00     0.096 C 
ATOM      9  C   UNL     1      14.605  -5.440 -20.289  1.00  0.00     0.037 C 
ATOM     10  C   UNL     1      13.469  -6.165 -19.533  1.00  0.00     0.014 C 
ATOM     11  C   UNL     1      13.681  -3.414 -21.506  1.00  0.00     0.005 C 
ATOM     12  C   UNL     1      13.272  -2.132 -21.561  1.00  0.00    -0.024 C 
ATOM     13  C   UNL     1      13.461  -1.166 -20.399  1.00  0.00     0.024 C 
ATOM     14  C   UNL     1      13.077   0.350 -20.688  1.00  0.00    -0.022 C 
ATOM     15  C   UNL     1      13.913   0.954 -21.852  1.00  0.00     0.010 C 
ATOM     16  C   UNL     1      13.656   2.449 -22.116  1.00  0.00     0.033 C 
ATOM     17  C   UNL     1      13.325   3.311 -20.870  1.00  0.00     0.123 C 
ATOM     18  C   UNL     1      13.802   2.692 -19.514  1.00  0.00     0.020 C 
ATOM     19  C   UNL     1      13.206   1.223 -19.361  1.00  0.00     0.006 C 
ATOM     20  C   UNL     1      13.711   0.426 -18.121  1.00  0.00     0.005 C 
ATOM     21  C   UNL     1      14.911  -0.512 -18.356  1.00  0.00     0.008 C 
ATOM     22  C   UNL     1      14.799  -1.464 -19.606  1.00  0.00    -0.017 C 
ATOM     23  C   UNL     1      14.748  -3.033 -19.180  1.00  0.00     0.009 C 
ATOM     24  C   UNL     1      15.984  -3.503 -18.319  1.00  0.00     0.043 C 
ATOM     25  C   UNL     1      16.158  -5.057 -18.307  1.00  0.00     0.124 C 
ATOM     26  C   UNL     1      13.477  -3.283 -18.292  1.00  0.00     0.015 C 
ATOM     27  C   UNL     1      16.037  -1.161 -20.532  1.00  0.00     0.013 C 
ATOM     28  C   UNL     1      13.248   3.608 -18.375  1.00  0.00     0.017 C 
ATOM     29  C   UNL     1      11.577   0.364 -21.157  1.00  0.00     0.012 C 
ATOM     30  C   UNL     1      13.458  -8.365 -20.849  1.00  0.00     0.011 C 
ENDROOT
BRANCH  25  31
ATOM     31  O   UNL     1      17.387  -5.412 -17.723  1.00  0.00    -0.392 OA
ATOM     32  H   UNL     1      17.957  -4.604 -17.681  1.00  0.00     0.210 HD
ENDBRANCH  25  31
BRANCH  18  33
ATOM     33  C   UNL     1      15.361   2.765 -19.444  1.00  0.00     0.165 C 
BRANCH  33  34
ATOM     34  O   UNL     1      15.847   4.005 -19.886  1.00  0.00    -0.396 OA
ATOM     35  H   UNL     1      16.701   3.827 -20.365  1.00  0.00     0.210 HD
ENDBRANCH  33  34
ENDBRANCH  18  33
BRANCH  17  36
ATOM     36  O   UNL     1      11.944   3.575 -20.833  1.00  0.00    -0.392 OA
ATOM     37  H   UNL     1      11.519   3.021 -21.539  1.00  0.00     0.210 HD
ENDBRANCH  17  36
TORSDOF 4
ENDMDL
MODEL 6
REMARK VINA RESULT:    -8.278      7.353      9.746
REMARK INTER + INTRA:          -9.570
REMARK INTER:                  -9.470
REMARK INTRA:                  -0.100
REMARK UNBOUND:                -0.082
REMARK SMILES CC1(C)CC[C@]23CO[C@@]4(C=C[C@@H]5[C@]6(C)CC[C@@H](O)[C@](C)(CO)[C@@H]6CC[C@@]5(C)[C@]4(C)C[C@@H]2O)[C@@H]3C1
REMARK SMILES IDX 1 1 2 2 4 3 5 4 6 5 7 6 8 7 9 8 33 9 34 10 10 11 11 12 12 13
REMARK SMILES IDX 13 14 15 15 16 16 17 17 19 18 23 19 24 20 25 21 26 22 28 23
REMARK SMILES IDX 30 24 31 25 29 26 27 27 20 28 14 29 3 30 32 31 21 33 22 34
REMARK SMILES IDX 18 36
REMARK H PARENT 32 32 22 35 18 37
REMARK Flexibility Score: inf
ROOT
ATOM      1  C   UNL     1      11.265 -13.223 -15.519  1.00  0.00     0.011 C 
ATOM      2  C   UNL     1      12.216 -13.238 -16.736  1.00  0.00    -0.035 C 
ATOM      3  C   UNL     1      13.513 -14.014 -16.339  1.00  0.00     0.007 C 
ATOM      4  C   UNL     1      14.661 -13.880 -17.363  1.00  0.00     0.013 C 
ATOM      5  C   UNL     1      14.974 -12.396 -17.673  1.00  0.00     0.026 C 
ATOM      6  C   UNL     1      15.807 -12.183 -18.942  1.00  0.00     0.171 C 
ATOM      7  O   UNL     1      15.426 -10.930 -19.489  1.00  0.00    -0.369 OA
ATOM      8  C   UNL     1      14.347 -10.412 -18.715  1.00  0.00     0.096 C 
ATOM      9  C   UNL     1      13.719 -11.699 -18.135  1.00  0.00     0.037 C 
ATOM     10  C   UNL     1      12.552 -11.762 -17.124  1.00  0.00     0.014 C 
ATOM     11  C   UNL     1      13.410  -9.717 -19.691  1.00  0.00     0.005 C 
ATOM     12  C   UNL     1      13.506  -8.410 -19.999  1.00  0.00    -0.024 C 
ATOM     13  C   UNL     1      14.248  -7.416 -19.116  1.00  0.00     0.024 C 
ATOM     14  C   UNL     1      14.410  -5.949 -19.708  1.00  0.00    -0.022 C 
ATOM     15  C   UNL     1      15.184  -5.944 -21.057  1.00  0.00     0.010 C 
ATOM     16  C   UNL     1      15.459  -4.542 -21.633  1.00  0.00     0.033 C 
ATOM     17  C   UNL     1      15.705  -3.418 -20.593  1.00  0.00     0.123 C 
ATOM     18  C   UNL     1      16.155  -3.931 -19.185  1.00  0.00     0.020 C 
ATOM     19  C   UNL     1      15.094  -4.986 -18.639  1.00  0.00     0.006 C 
ATOM     20  C   UNL     1      15.483  -5.690 -17.304  1.00  0.00     0.005 C 
ATOM     21  C   UNL     1      16.183  -7.057 -17.434  1.00  0.00     0.008 C 
ATOM     22  C   UNL     1      15.500  -8.084 -18.412  1.00  0.00    -0.017 C 
ATOM     23  C   UNL     1      14.947  -9.400 -17.632  1.00  0.00     0.009 C 
ATOM     24  C   UNL     1      16.053 -10.170 -16.813  1.00  0.00     0.043 C 
ATOM     25  C   UNL     1      15.635 -11.636 -16.459  1.00  0.00     0.124 C 
ATOM     26  C   UNL     1      13.858  -8.959 -16.589  1.00  0.00     0.015 C 
ATOM     27  C   UNL     1      16.571  -8.470 -19.501  1.00  0.00     0.013 C 
ATOM     28  C   UNL     1      16.199  -2.687 -18.239  1.00  0.00     0.017 C 
ATOM     29  C   UNL     1      12.966  -5.414 -20.017  1.00  0.00     0.012 C 
ATOM     30  C   UNL     1      11.485 -13.964 -17.889  1.00  0.00     0.011 C 
ENDROOT
BRANCH  25  31
ATOM     31  O   UNL     1      16.728 -12.347 -15.933  1.00  0.00    -0.392 OA
ATOM     32  H   UNL     1      16.628 -13.301 -16.181  1.00  0.00     0.210 HD
ENDBRANCH  25  31
BRANCH  18  33
ATOM     33  C   UNL     1      17.615  -4.480 -19.288  1.00  0.00     0.165 C 
BRANCH  33  34
ATOM     34  O   UNL     1      18.467  -3.581 -19.945  1.00  0.00    -0.396 OA
ATOM     35  H   UNL     1      19.375  -3.707 -19.558  1.00  0.00     0.210 HD
ENDBRANCH  33  34
ENDBRANCH  18  33
BRANCH  17  36
ATOM     36  O   UNL     1      14.553  -2.619 -20.482  1.00  0.00    -0.392 OA
ATOM     37  H   UNL     1      14.673  -1.844 -21.091  1.00  0.00     0.210 HD
ENDBRANCH  17  36
TORSDOF 4
ENDMDL
MODEL 7
REMARK VINA RESULT:    -8.140      4.174      5.903
REMARK INTER + INTRA:          -9.411
REMARK INTER:                  -9.344
REMARK INTRA:                  -0.066
REMARK UNBOUND:                -0.082
REMARK SMILES CC1(C)CC[C@]23CO[C@@]4(C=C[C@@H]5[C@]6(C)CC[C@@H](O)[C@](C)(CO)[C@@H]6CC[C@@]5(C)[C@]4(C)C[C@@H]2O)[C@@H]3C1
REMARK SMILES IDX 1 1 2 2 4 3 5 4 6 5 7 6 8 7 9 8 33 9 34 10 10 11 11 12 12 13
REMARK SMILES IDX 13 14 15 15 16 16 17 17 19 18 23 19 24 20 25 21 26 22 28 23
REMARK SMILES IDX 30 24 31 25 29 26 27 27 20 28 14 29 3 30 32 31 21 33 22 34
REMARK SMILES IDX 18 36
REMARK H PARENT 32 32 22 35 18 37
REMARK Flexibility Score: inf
ROOT
ATOM      1  C   UNL     1      21.415  -5.399 -19.897  1.00  0.00     0.011 C 
ATOM      2  C   UNL     1      20.223  -5.387 -18.914  1.00  0.00    -0.035 C 
ATOM      3  C   UNL     1      19.451  -6.737 -19.057  1.00  0.00     0.007 C 
ATOM      4  C   UNL     1      18.087  -6.759 -18.333  1.00  0.00     0.013 C 
ATOM      5  C   UNL     1      17.199  -5.564 -18.760  1.00  0.00     0.026 C 
ATOM      6  C   UNL     1      16.019  -5.293 -17.821  1.00  0.00     0.171 C 
ATOM      7  O   UNL     1      15.765  -3.897 -17.858  1.00  0.00    -0.369 OA
ATOM      8  C   UNL     1      16.767  -3.279 -18.660  1.00  0.00     0.096 C 
ATOM      9  C   UNL     1      17.944  -4.272 -18.528  1.00  0.00     0.037 C 
ATOM     10  C   UNL     1      19.296  -4.180 -19.269  1.00  0.00     0.014 C 
ATOM     11  C   UNL     1      17.081  -1.943 -18.006  1.00  0.00     0.005 C 
ATOM     12  C   UNL     1      16.451  -0.798 -18.330  1.00  0.00    -0.024 C 
ATOM     13  C   UNL     1      15.694  -0.627 -19.641  1.00  0.00     0.024 C 
ATOM     14  C   UNL     1      14.867   0.723 -19.793  1.00  0.00    -0.022 C 
ATOM     15  C   UNL     1      13.789   0.877 -18.683  1.00  0.00     0.010 C 
ATOM     16  C   UNL     1      12.889   2.118 -18.832  1.00  0.00     0.033 C 
ATOM     17  C   UNL     1      12.574   2.556 -20.286  1.00  0.00     0.123 C 
ATOM     18  C   UNL     1      12.755   1.426 -21.354  1.00  0.00     0.020 C 
ATOM     19  C   UNL     1      14.226   0.826 -21.248  1.00  0.00     0.006 C 
ATOM     20  C   UNL     1      14.508  -0.409 -22.157  1.00  0.00     0.005 C 
ATOM     21  C   UNL     1      14.324  -1.792 -21.504  1.00  0.00     0.008 C 
ATOM     22  C   UNL     1      15.012  -1.981 -20.100  1.00  0.00    -0.017 C 
ATOM     23  C   UNL     1      16.189  -3.104 -20.140  1.00  0.00     0.009 C 
ATOM     24  C   UNL     1      15.706  -4.519 -20.640  1.00  0.00     0.043 C 
ATOM     25  C   UNL     1      16.692  -5.669 -20.250  1.00  0.00     0.124 C 
ATOM     26  C   UNL     1      17.305  -2.643 -21.145  1.00  0.00     0.015 C 
ATOM     27  C   UNL     1      13.880  -2.373 -19.077  1.00  0.00     0.013 C 
ATOM     28  C   UNL     1      12.552   2.086 -22.756  1.00  0.00     0.017 C 
ATOM     29  C   UNL     1      15.880   1.908 -19.603  1.00  0.00     0.012 C 
ATOM     30  C   UNL     1      20.799  -5.244 -17.486  1.00  0.00     0.011 C 
ENDROOT
BRANCH  25  31
ATOM     31  O   UNL     1      16.117  -6.925 -20.515  1.00  0.00    -0.392 OA
ATOM     32  H   UNL     1      15.179  -6.911 -20.198  1.00  0.00     0.210 HD
ENDBRANCH  25  31
BRANCH  18  33
ATOM     33  C   UNL     1      11.615   0.372 -21.173  1.00  0.00     0.165 C 
BRANCH  33  34
ATOM     34  O   UNL     1      10.511   0.649 -21.993  1.00  0.00    -0.396 OA
ATOM     35  H   UNL     1      10.769   1.411 -22.578  1.00  0.00     0.210 HD
ENDBRANCH  33  34
ENDBRANCH  18  33
BRANCH  17  36
ATOM     36  O   UNL     1      13.354   3.679 -20.620  1.00  0.00    -0.392 OA
ATOM     37  H   UNL     1      13.164   4.380 -19.943  1.00  0.00     0.210 HD
ENDBRANCH  17  36
TORSDOF 4
ENDMDL
MODEL 8
REMARK VINA RESULT:    -7.997      1.764      2.696
REMARK INTER + INTRA:          -9.248
REMARK INTER:                  -9.186
REMARK INTRA:                  -0.061
REMARK UNBOUND:                -0.082
REMARK SMILES CC1(C)CC[C@]23CO[C@@]4(C=C[C@@H]5[C@]6(C)CC[C@@H](O)[C@](C)(CO)[C@@H]6CC[C@@]5(C)[C@]4(C)C[C@@H]2O)[C@@H]3C1
REMARK SMILES IDX 1 1 2 2 4 3 5 4 6 5 7 6 8 7 9 8 33 9 34 10 10 11 11 12 12 13
REMARK SMILES IDX 13 14 15 15 16 16 17 17 19 18 23 19 24 20 25 21 26 22 28 23
REMARK SMILES IDX 30 24 31 25 29 26 27 27 20 28 14 29 3 30 32 31 21 33 22 34
REMARK SMILES IDX 18 36
REMARK H PARENT 32 32 22 35 18 37
REMARK Flexibility Score: inf
ROOT
ATOM      1  C   UNL     1      11.890  -2.119 -12.248  1.00  0.00     0.011 C 
ATOM      2  C   UNL     1      13.237  -2.161 -13.004  1.00  0.00    -0.035 C 
ATOM      3  C   UNL     1      14.288  -1.345 -12.186  1.00  0.00     0.007 C 
ATOM      4  C   UNL     1      15.603  -1.076 -12.950  1.00  0.00     0.013 C 
ATOM      5  C   UNL     1      15.336  -0.417 -14.325  1.00  0.00     0.026 C 
ATOM      6  C   UNL     1      16.525  -0.476 -15.291  1.00  0.00     0.171 C 
ATOM      7  O   UNL     1      15.995  -0.538 -16.606  1.00  0.00    -0.369 OA
ATOM      8  C   UNL     1      14.576  -0.632 -16.514  1.00  0.00     0.096 C 
ATOM      9  C   UNL     1      14.384  -1.274 -15.121  1.00  0.00     0.037 C 
ATOM     10  C   UNL     1      13.032  -1.535 -14.421  1.00  0.00     0.014 C 
ATOM     11  C   UNL     1      14.132  -1.564 -17.630  1.00  0.00     0.005 C 
ATOM     12  C   UNL     1      13.787  -1.131 -18.857  1.00  0.00    -0.024 C 
ATOM     13  C   UNL     1      13.393   0.314 -19.131  1.00  0.00     0.024 C 
ATOM     14  C   UNL     1      13.180   0.697 -20.660  1.00  0.00    -0.022 C 
ATOM     15  C   UNL     1      14.462   0.463 -21.507  1.00  0.00     0.010 C 
ATOM     16  C   UNL     1      14.349   0.906 -22.978  1.00  0.00     0.033 C 
ATOM     17  C   UNL     1      13.459   2.148 -23.244  1.00  0.00     0.123 C 
ATOM     18  C   UNL     1      13.240   3.065 -21.995  1.00  0.00     0.020 C 
ATOM     19  C   UNL     1      12.656   2.196 -20.794  1.00  0.00     0.006 C 
ATOM     20  C   UNL     1      12.519   2.947 -19.435  1.00  0.00     0.005 C 
ATOM     21  C   UNL     1      13.695   2.794 -18.451  1.00  0.00     0.008 C 
ATOM     22  C   UNL     1      14.198   1.321 -18.211  1.00  0.00    -0.017 C 
ATOM     23  C   UNL     1      13.964   0.836 -16.676  1.00  0.00     0.009 C 
ATOM     24  C   UNL     1      14.647   1.764 -15.600  1.00  0.00     0.043 C 
ATOM     25  C   UNL     1      14.808   1.065 -14.210  1.00  0.00     0.124 C 
ATOM     26  C   UNL     1      12.425   0.858 -16.359  1.00  0.00     0.015 C 
ATOM     27  C   UNL     1      15.724   1.283 -18.598  1.00  0.00     0.013 C 
ATOM     28  C   UNL     1      12.204   4.160 -22.408  1.00  0.00     0.017 C 
ATOM     29  C   UNL     1      12.082  -0.273 -21.229  1.00  0.00     0.012 C 
ATOM     30  C   UNL     1      13.666  -3.643 -13.108  1.00  0.00     0.011 C 
ENDROOT
BRANCH  25  31
ATOM     31  O   UNL     1      15.615   1.840 -13.357  1.00  0.00    -0.392 OA
ATOM     32  H   UNL     1      15.027   2.321 -12.723  1.00  0.00     0.210 HD
ENDBRANCH  25  31
BRANCH  18  33
ATOM     33  C   UNL     1      14.580   3.800 -21.665  1.00  0.00     0.165 C 
BRANCH  33  34
ATOM     34  O   UNL     1      14.359   5.103 -21.194  1.00  0.00    -0.396 OA
ATOM     35  H   UNL     1      14.137   5.027 -20.227  1.00  0.00     0.210 HD
ENDBRANCH  33  34
ENDBRANCH  18  33
BRANCH  17  36
ATOM     36  O   UNL     1      12.223   1.737 -23.777  1.00  0.00    -0.392 OA
ATOM     37  H   UNL     1      11.669   1.418 -23.018  1.00  0.00     0.210 HD
ENDBRANCH  17  36
TORSDOF 4
ENDMDL
MODEL 9
REMARK VINA RESULT:    -7.954      6.575      9.684
REMARK INTER + INTRA:          -9.198
REMARK INTER:                  -9.122
REMARK INTRA:                  -0.077
REMARK UNBOUND:                -0.082
REMARK SMILES CC1(C)CC[C@]23CO[C@@]4(C=C[C@@H]5[C@]6(C)CC[C@@H](O)[C@](C)(CO)[C@@H]6CC[C@@]5(C)[C@]4(C)C[C@@H]2O)[C@@H]3C1
REMARK SMILES IDX 1 1 2 2 4 3 5 4 6 5 7 6 8 7 9 8 33 9 34 10 10 11 11 12 12 13
REMARK SMILES IDX 13 14 15 15 16 16 17 17 19 18 23 19 24 20 25 21 26 22 28 23
REMARK SMILES IDX 30 24 31 25 29 26 27 27 20 28 14 29 3 30 32 31 21 33 22 34
REMARK SMILES IDX 18 36
REMARK H PARENT 32 32 22 35 18 37
REMARK Flexibility Score: inf
ROOT
ATOM      1  C   UNL     1      14.985  -1.945 -18.513  1.00  0.00     0.011 C 
ATOM      2  C   UNL     1      16.001  -1.528 -19.599  1.00  0.00    -0.035 C 
ATOM      3  C   UNL     1      16.488  -2.814 -20.341  1.00  0.00     0.007 C 
ATOM      4  C   UNL     1      17.701  -2.581 -21.267  1.00  0.00     0.013 C 
ATOM      5  C   UNL     1      18.869  -1.899 -20.514  1.00  0.00     0.026 C 
ATOM      6  C   UNL     1      19.935  -1.287 -21.429  1.00  0.00     0.171 C 
ATOM      7  O   UNL     1      20.476  -0.164 -20.752  1.00  0.00    -0.369 OA
ATOM      8  C   UNL     1      19.748   0.024 -19.542  1.00  0.00     0.096 C 
ATOM      9  C   UNL     1      18.384  -0.617 -19.882  1.00  0.00     0.037 C 
ATOM     10  C   UNL     1      17.200  -0.801 -18.907  1.00  0.00     0.014 C 
ATOM     11  C   UNL     1      19.629   1.526 -19.338  1.00  0.00     0.005 C 
ATOM     12  C   UNL     1      20.523   2.247 -18.635  1.00  0.00    -0.024 C 
ATOM     13  C   UNL     1      21.477   1.609 -17.633  1.00  0.00     0.024 C 
ATOM     14  C   UNL     1      22.580   2.575 -17.015  1.00  0.00    -0.022 C 
ATOM     15  C   UNL     1      23.498   3.191 -18.108  1.00  0.00     0.010 C 
ATOM     16  C   UNL     1      24.648   4.059 -17.564  1.00  0.00     0.033 C 
ATOM     17  C   UNL     1      25.250   3.614 -16.206  1.00  0.00     0.123 C 
ATOM     18  C   UNL     1      24.992   2.112 -15.848  1.00  0.00     0.020 C 
ATOM     19  C   UNL     1      23.428   1.815 -15.900  1.00  0.00     0.006 C 
ATOM     20  C   UNL     1      23.028   0.321 -15.703  1.00  0.00     0.005 C 
ATOM     21  C   UNL     1      22.825  -0.505 -16.988  1.00  0.00     0.008 C 
ATOM     22  C   UNL     1      21.921   0.160 -18.093  1.00  0.00    -0.017 C 
ATOM     23  C   UNL     1      20.554  -0.682 -18.356  1.00  0.00     0.009 C 
ATOM     24  C   UNL     1      20.798  -2.185 -18.766  1.00  0.00     0.043 C 
ATOM     25  C   UNL     1      19.549  -2.839 -19.445  1.00  0.00     0.124 C 
ATOM     26  C   UNL     1      19.713  -0.723 -17.029  1.00  0.00     0.015 C 
ATOM     27  C   UNL     1      22.790   0.267 -19.402  1.00  0.00     0.013 C 
ATOM     28  C   UNL     1      25.524   1.891 -14.396  1.00  0.00     0.017 C 
ATOM     29  C   UNL     1      21.819   3.772 -16.340  1.00  0.00     0.012 C 
ATOM     30  C   UNL     1      15.271  -0.582 -20.581  1.00  0.00     0.011 C 
ENDROOT
BRANCH  25  31
ATOM     31  O   UNL     1      19.883  -4.091 -19.992  1.00  0.00    -0.392 OA
ATOM     32  H   UNL     1      19.589  -4.107 -20.937  1.00  0.00     0.210 HD
ENDBRANCH  25  31
BRANCH  18  33
ATOM     33  C   UNL     1      25.850   1.211 -16.795  1.00  0.00     0.165 C 
BRANCH  33  34
ATOM     34  O   UNL     1      27.221   1.319 -16.519  1.00  0.00    -0.396 OA
ATOM     35  H   UNL     1      27.689   1.376 -17.395  1.00  0.00     0.210 HD
ENDBRANCH  33  34
ENDBRANCH  18  33
BRANCH  17  36
ATOM     36  O   UNL     1      24.776   4.453 -15.182  1.00  0.00    -0.392 OA
ATOM     37  H   UNL     1      24.283   5.197 -15.617  1.00  0.00     0.210 HD
ENDBRANCH  17  36
TORSDOF 4
ENDMDL
