MODEL 1
REMARK VINA RESULT:    -3.134      0.000      0.000
REMARK INTER + INTRA:          -5.415
REMARK INTER:                  -4.783
REMARK INTRA:                  -0.632
REMARK UNBOUND:                -0.632
REMARK SMILES CCCCCCCCCCC(=O)[O-]
REMARK SMILES IDX 7 1 8 2 9 3 10 4 11 5 12 6 13 7 6 8 5 9 4 10 3 11 2 12 1 13
REMARK H PARENT
REMARK Flexibility Score: inf
ROOT
ATOM      1  C   UNL     1      58.364  25.992  51.608  1.00  0.00     0.000 C 
ENDROOT
BRANCH   1   2
ATOM      2  C   UNL     1      58.381  25.394  50.197  1.00  0.00     0.000 C 
BRANCH   2   3
ATOM      3  C   UNL     1      59.816  25.275  49.668  1.00  0.00     0.006 C 
BRANCH   3   4
ATOM      4  C   UNL     1      60.532  26.628  49.717  1.00  0.00     0.053 C 
BRANCH   4   5
ATOM      5  C   UNL     1      62.015  26.436  49.713  1.00  0.00     0.041 C 
ATOM      6  O   UNL     1      62.772  27.355  49.301  1.00  0.00    -0.550 OA
ATOM      7  O   UNL     1      62.562  25.224  50.117  1.00  0.00    -0.550 OA
ENDBRANCH   4   5
ENDBRANCH   3   4
ENDBRANCH   2   3
ENDBRANCH   1   2
BRANCH   1   8
ATOM      8  C   UNL     1      57.474  27.244  51.665  1.00  0.00     0.000 C 
BRANCH   8   9
ATOM      9  C   UNL     1      56.118  26.969  52.350  1.00  0.00    -0.000 C 
BRANCH   9  10
ATOM     10  C   UNL     1      55.031  26.449  51.389  1.00  0.00    -0.000 C 
BRANCH  10  11
ATOM     11  C   UNL     1      54.494  27.492  50.395  1.00  0.00    -0.000 C 
BRANCH  11  12
ATOM     12  C   UNL     1      54.017  26.866  49.077  1.00  0.00    -0.003 C 
ATOM     13  C   UNL     1      54.632  25.485  48.871  1.00  0.00     0.004 C 
ENDBRANCH  11  12
ENDBRANCH  10  11
ENDBRANCH   9  10
ENDBRANCH   8   9
ENDBRANCH   1   8
TORSDOF 9
ENDMDL
MODEL 2
REMARK VINA RESULT:    -3.109     12.248     13.890
REMARK INTER + INTRA:          -5.378
REMARK INTER:                  -4.958
REMARK INTRA:                  -0.419
REMARK UNBOUND:                -0.632
REMARK SMILES CCCCCCCCCCC(=O)[O-]
REMARK SMILES IDX 7 1 8 2 9 3 10 4 11 5 12 6 13 7 6 8 5 9 4 10 3 11 2 12 1 13
REMARK H PARENT
REMARK Flexibility Score: inf
ROOT
ATOM      1  C   UNL     1      64.900  30.175  61.203  1.00  0.00     0.000 C 
ENDROOT
BRANCH   1   2
ATOM      2  C   UNL     1      63.997  29.004  60.800  1.00  0.00     0.000 C 
BRANCH   2   3
ATOM      3  C   UNL     1      62.718  28.980  61.645  1.00  0.00     0.006 C 
BRANCH   3   4
ATOM      4  C   UNL     1      61.482  29.246  60.780  1.00  0.00     0.053 C 
BRANCH   4   5
ATOM      5  C   UNL     1      60.806  27.961  60.423  1.00  0.00     0.041 C 
ATOM      6  O   UNL     1      60.295  27.809  59.282  1.00  0.00    -0.550 OA
ATOM      7  O   UNL     1      60.695  26.947  61.367  1.00  0.00    -0.550 OA
ENDBRANCH   4   5
ENDBRANCH   3   4
ENDBRANCH   2   3
ENDBRANCH   1   2
BRANCH   1   8
ATOM      8  C   UNL     1      64.915  31.260  60.116  1.00  0.00     0.000 C 
BRANCH   8   9
ATOM      9  C   UNL     1      64.984  32.684  60.709  1.00  0.00    -0.000 C 
BRANCH   9  10
ATOM     10  C   UNL     1      64.041  33.691  60.021  1.00  0.00    -0.000 C 
BRANCH  10  11
ATOM     11  C   UNL     1      63.851  35.017  60.775  1.00  0.00    -0.000 C 
BRANCH  11  12
ATOM     12  C   UNL     1      65.154  35.537  61.400  1.00  0.00    -0.003 C 
ATOM     13  C   UNL     1      64.967  35.837  62.884  1.00  0.00     0.004 C 
ENDBRANCH  11  12
ENDBRANCH  10  11
ENDBRANCH   9  10
ENDBRANCH   8   9
ENDBRANCH   1   8
TORSDOF 9
ENDMDL
MODEL 3
REMARK VINA RESULT:    -3.098     12.497     14.010
REMARK INTER + INTRA:          -5.360
REMARK INTER:                  -4.759
REMARK INTRA:                  -0.601
REMARK UNBOUND:                -0.632
REMARK SMILES CCCCCCCCCCC(=O)[O-]
REMARK SMILES IDX 7 1 8 2 9 3 10 4 11 5 12 6 13 7 6 8 5 9 4 10 3 11 2 12 1 13
REMARK H PARENT
REMARK Flexibility Score: inf
ROOT
ATOM      1  C   UNL     1      63.848  31.240  59.472  1.00  0.00     0.000 C 
ENDROOT
BRANCH   1   2
ATOM      2  C   UNL     1      64.866  31.372  60.611  1.00  0.00     0.000 C 
BRANCH   2   3
ATOM      3  C   UNL     1      65.463  30.007  60.975  1.00  0.00     0.006 C 
BRANCH   3   4
ATOM      4  C   UNL     1      64.371  28.937  61.068  1.00  0.00     0.053 C 
BRANCH   4   5
ATOM      5  C   UNL     1      64.944  27.580  60.811  1.00  0.00     0.041 C 
ATOM      6  O   UNL     1      64.277  26.548  61.089  1.00  0.00    -0.550 OA
ATOM      7  O   UNL     1      66.233  27.452  60.309  1.00  0.00    -0.550 OA
ENDBRANCH   4   5
ENDBRANCH   3   4
ENDBRANCH   2   3
ENDBRANCH   1   2
BRANCH   1   8
ATOM      8  C   UNL     1      63.245  32.606  59.110  1.00  0.00     0.000 C 
BRANCH   8   9
ATOM      9  C   UNL     1      64.295  33.737  59.142  1.00  0.00    -0.000 C 
BRANCH   9  10
ATOM     10  C   UNL     1      63.717  35.112  59.528  1.00  0.00    -0.000 C 
BRANCH  10  11
ATOM     11  C   UNL     1      63.597  35.361  61.041  1.00  0.00    -0.000 C 
BRANCH  11  12
ATOM     12  C   UNL     1      64.905  35.077  61.795  1.00  0.00    -0.003 C 
ATOM     13  C   UNL     1      65.053  35.999  63.001  1.00  0.00     0.004 C 
ENDBRANCH  11  12
ENDBRANCH  10  11
ENDBRANCH   9  10
ENDBRANCH   8   9
ENDBRANCH   1   8
TORSDOF 9
ENDMDL
MODEL 4
REMARK VINA RESULT:    -3.091     12.215     13.707
REMARK INTER + INTRA:          -5.350
REMARK INTER:                  -4.160
REMARK INTRA:                  -1.189
REMARK UNBOUND:                -0.632
REMARK SMILES CCCCCCCCCCC(=O)[O-]
REMARK SMILES IDX 7 1 8 2 9 3 10 4 11 5 12 6 13 7 6 8 5 9 4 10 3 11 2 12 1 13
REMARK H PARENT
REMARK Flexibility Score: inf
ROOT
ATOM      1  C   UNL     1      65.419  31.655  58.336  1.00  0.00     0.000 C 
ENDROOT
BRANCH   1   2
ATOM      2  C   UNL     1      63.924  31.992  58.383  1.00  0.00     0.000 C 
BRANCH   2   3
ATOM      3  C   UNL     1      63.617  32.974  59.520  1.00  0.00     0.006 C 
BRANCH   3   4
ATOM      4  C   UNL     1      64.892  33.344  60.284  1.00  0.00     0.053 C 
BRANCH   4   5
ATOM      5  C   UNL     1      64.672  34.576  61.103  1.00  0.00     0.041 C 
ATOM      6  O   UNL     1      63.559  35.165  61.075  1.00  0.00    -0.550 OA
ATOM      7  O   UNL     1      65.711  35.104  61.859  1.00  0.00    -0.550 OA
ENDBRANCH   4   5
ENDBRANCH   3   4
ENDBRANCH   2   3
ENDBRANCH   1   2
BRANCH   1   8
ATOM      8  C   UNL     1      65.656  30.159  58.592  1.00  0.00     0.000 C 
BRANCH   8   9
ATOM      9  C   UNL     1      66.472  29.907  59.878  1.00  0.00    -0.000 C 
BRANCH   9  10
ATOM     10  C   UNL     1      65.699  29.135  60.964  1.00  0.00    -0.000 C 
BRANCH  10  11
ATOM     11  C   UNL     1      64.401  29.811  61.438  1.00  0.00    -0.000 C 
BRANCH  11  12
ATOM     12  C   UNL     1      63.184  28.876  61.368  1.00  0.00    -0.003 C 
ATOM     13  C   UNL     1      62.112  29.441  60.441  1.00  0.00     0.004 C 
ENDBRANCH  11  12
ENDBRANCH  10  11
ENDBRANCH   9  10
ENDBRANCH   8   9
ENDBRANCH   1   8
TORSDOF 9
ENDMDL
MODEL 5
REMARK VINA RESULT:    -3.075     11.841     13.467
REMARK INTER + INTRA:          -5.325
REMARK INTER:                  -4.792
REMARK INTRA:                  -0.533
REMARK UNBOUND:                -0.632
REMARK SMILES CCCCCCCCCCC(=O)[O-]
REMARK SMILES IDX 7 1 8 2 9 3 10 4 11 5 12 6 13 7 6 8 5 9 4 10 3 11 2 12 1 13
REMARK H PARENT
REMARK Flexibility Score: inf
ROOT
ATOM      1  C   UNL     1      64.641  29.674  60.313  1.00  0.00     0.000 C 
ENDROOT
BRANCH   1   2
ATOM      2  C   UNL     1      63.668  29.389  61.462  1.00  0.00     0.000 C 
BRANCH   2   3
ATOM      3  C   UNL     1      62.558  28.430  61.017  1.00  0.00     0.006 C 
BRANCH   3   4
ATOM      4  C   UNL     1      61.249  29.183  60.762  1.00  0.00     0.053 C 
BRANCH   4   5
ATOM      5  C   UNL     1      61.196  29.680  59.352  1.00  0.00     0.041 C 
ATOM      6  O   UNL     1      60.756  30.834  59.104  1.00  0.00    -0.550 OA
ATOM      7  O   UNL     1      61.586  28.852  58.308  1.00  0.00    -0.550 OA
ENDBRANCH   4   5
ENDBRANCH   3   4
ENDBRANCH   2   3
ENDBRANCH   1   2
BRANCH   1   8
ATOM      8  C   UNL     1      65.268  31.070  60.454  1.00  0.00     0.000 C 
BRANCH   8   9
ATOM      9  C   UNL     1      64.336  32.186  59.935  1.00  0.00    -0.000 C 
BRANCH   9  10
ATOM     10  C   UNL     1      64.855  33.610  60.216  1.00  0.00    -0.000 C 
BRANCH  10  11
ATOM     11  C   UNL     1      63.763  34.689  60.309  1.00  0.00    -0.000 C 
BRANCH  11  12
ATOM     12  C   UNL     1      63.945  35.615  61.520  1.00  0.00    -0.003 C 
ATOM     13  C   UNL     1      65.264  35.331  62.233  1.00  0.00     0.004 C 
ENDBRANCH  11  12
ENDBRANCH  10  11
ENDBRANCH   9  10
ENDBRANCH   8   9
ENDBRANCH   1   8
TORSDOF 9
ENDMDL
MODEL 6
REMARK VINA RESULT:    -3.075      1.773      2.398
REMARK INTER + INTRA:          -5.324
REMARK INTER:                  -4.670
REMARK INTRA:                  -0.655
REMARK UNBOUND:                -0.632
REMARK SMILES CCCCCCCCCCC(=O)[O-]
REMARK SMILES IDX 7 1 8 2 9 3 10 4 11 5 12 6 13 7 6 8 5 9 4 10 3 11 2 12 1 13
REMARK H PARENT
REMARK Flexibility Score: inf
ROOT
ATOM      1  C   UNL     1      59.681  27.186  51.910  1.00  0.00     0.000 C 
ENDROOT
BRANCH   1   2
ATOM      2  C   UNL     1      60.267  27.538  50.538  1.00  0.00     0.000 C 
BRANCH   2   3
ATOM      3  C   UNL     1      60.587  26.271  49.736  1.00  0.00     0.006 C 
BRANCH   3   4
ATOM      4  C   UNL     1      59.404  25.298  49.753  1.00  0.00     0.053 C 
BRANCH   4   5
ATOM      5  C   UNL     1      59.821  23.976  50.316  1.00  0.00     0.041 C 
ATOM      6  O   UNL     1      60.668  23.268  49.710  1.00  0.00    -0.550 OA
ATOM      7  O   UNL     1      59.238  23.503  51.485  1.00  0.00    -0.550 OA
ENDBRANCH   4   5
ENDBRANCH   3   4
ENDBRANCH   2   3
ENDBRANCH   1   2
BRANCH   1   8
ATOM      8  C   UNL     1      58.399  27.988  52.184  1.00  0.00     0.000 C 
BRANCH   8   9
ATOM      9  C   UNL     1      57.125  27.133  52.009  1.00  0.00    -0.000 C 
BRANCH   9  10
ATOM     10  C   UNL     1      55.891  27.941  51.562  1.00  0.00    -0.000 C 
BRANCH  10  11
ATOM     11  C   UNL     1      54.906  27.174  50.664  1.00  0.00    -0.000 C 
BRANCH  11  12
ATOM     12  C   UNL     1      55.543  25.944  50.000  1.00  0.00    -0.003 C 
ATOM     13  C   UNL     1      54.687  25.444  48.840  1.00  0.00     0.004 C 
ENDBRANCH  11  12
ENDBRANCH  10  11
ENDBRANCH   9  10
ENDBRANCH   8   9
ENDBRANCH   1   8
TORSDOF 9
ENDMDL
MODEL 7
REMARK VINA RESULT:    -3.072     11.644     13.111
REMARK INTER + INTRA:          -5.320
REMARK INTER:                  -4.369
REMARK INTRA:                  -0.950
REMARK UNBOUND:                -0.632
REMARK SMILES CCCCCCCCCCC(=O)[O-]
REMARK SMILES IDX 7 1 8 2 9 3 10 4 11 5 12 6 13 7 6 8 5 9 4 10 3 11 2 12 1 13
REMARK H PARENT
REMARK Flexibility Score: inf
ROOT
ATOM      1  C   UNL     1      63.049  29.827  58.614  1.00  0.00     0.000 C 
ENDROOT
BRANCH   1   2
ATOM      2  C   UNL     1      62.537  29.907  60.056  1.00  0.00     0.000 C 
BRANCH   2   3
ATOM      3  C   UNL     1      63.394  29.047  60.993  1.00  0.00     0.006 C 
BRANCH   3   4
ATOM      4  C   UNL     1      64.613  29.828  61.493  1.00  0.00     0.053 C 
BRANCH   4   5
ATOM      5  C   UNL     1      65.857  29.350  60.812  1.00  0.00     0.041 C 
ATOM      6  O   UNL     1      66.463  30.101  60.002  1.00  0.00    -0.550 OA
ATOM      7  O   UNL     1      66.319  28.059  61.033  1.00  0.00    -0.550 OA
ENDBRANCH   4   5
ENDBRANCH   3   4
ENDBRANCH   2   3
ENDBRANCH   1   2
BRANCH   1   8
ATOM      8  C   UNL     1      63.426  31.219  58.084  1.00  0.00     0.000 C 
BRANCH   8   9
ATOM      9  C   UNL     1      62.604  32.342  58.750  1.00  0.00    -0.000 C 
BRANCH   9  10
ATOM     10  C   UNL     1      63.452  33.542  59.214  1.00  0.00    -0.000 C 
BRANCH  10  11
ATOM     11  C   UNL     1      64.694  33.173  60.042  1.00  0.00    -0.000 C 
BRANCH  11  12
ATOM     12  C   UNL     1      64.968  34.169  61.179  1.00  0.00    -0.003 C 
ATOM     13  C   UNL     1      63.897  35.255  61.225  1.00  0.00     0.004 C 
ENDBRANCH  11  12
ENDBRANCH  10  11
ENDBRANCH   9  10
ENDBRANCH   8   9
ENDBRANCH   1   8
TORSDOF 9
ENDMDL
MODEL 8
REMARK VINA RESULT:    -3.040      2.454      3.845
REMARK INTER + INTRA:          -5.271
REMARK INTER:                  -4.426
REMARK INTRA:                  -0.845
REMARK UNBOUND:                -0.632
REMARK SMILES CCCCCCCCCCC(=O)[O-]
REMARK SMILES IDX 7 1 8 2 9 3 10 4 11 5 12 6 13 7 6 8 5 9 4 10 3 11 2 12 1 13
REMARK H PARENT
REMARK Flexibility Score: inf
ROOT
ATOM      1  C   UNL     1      60.863  26.362  49.710  1.00  0.00     0.000 C 
ENDROOT
BRANCH   1   2
ATOM      2  C   UNL     1      62.152  25.617  50.074  1.00  0.00     0.000 C 
BRANCH   2   3
ATOM      3  C   UNL     1      61.842  24.221  50.629  1.00  0.00     0.006 C 
BRANCH   3   4
ATOM      4  C   UNL     1      60.593  23.632  49.967  1.00  0.00     0.053 C 
BRANCH   4   5
ATOM      5  C   UNL     1      60.715  22.146  49.848  1.00  0.00     0.041 C 
ATOM      6  O   UNL     1      60.358  21.403  50.801  1.00  0.00    -0.550 OA
ATOM      7  O   UNL     1      61.269  21.582  48.706  1.00  0.00    -0.550 OA
ENDBRANCH   4   5
ENDBRANCH   3   4
ENDBRANCH   2   3
ENDBRANCH   1   2
BRANCH   1   8
ATOM      8  C   UNL     1      60.849  27.771  50.323  1.00  0.00     0.000 C 
BRANCH   8   9
ATOM      9  C   UNL     1      59.754  27.930  51.400  1.00  0.00    -0.000 C 
BRANCH   9  10
ATOM     10  C   UNL     1      59.051  26.611  51.772  1.00  0.00    -0.000 C 
BRANCH  10  11
ATOM     11  C   UNL     1      57.551  26.562  51.438  1.00  0.00    -0.000 C 
BRANCH  11  12
ATOM     12  C   UNL     1      57.216  25.521  50.359  1.00  0.00    -0.003 C 
ATOM     13  C   UNL     1      55.756  25.627  49.931  1.00  0.00     0.004 C 
ENDBRANCH  11  12
ENDBRANCH  10  11
ENDBRANCH   9  10
ENDBRANCH   8   9
ENDBRANCH   1   8
TORSDOF 9
ENDMDL
MODEL 9
REMARK VINA RESULT:    -3.031     12.139     13.754
REMARK INTER + INTRA:          -5.258
REMARK INTER:                  -4.816
REMARK INTRA:                  -0.442
REMARK UNBOUND:                -0.632
REMARK SMILES CCCCCCCCCCC(=O)[O-]
REMARK SMILES IDX 7 1 8 2 9 3 10 4 11 5 12 6 13 7 6 8 5 9 4 10 3 11 2 12 1 13
REMARK H PARENT
REMARK Flexibility Score: inf
ROOT
ATOM      1  C   UNL     1      64.464  29.817  61.349  1.00  0.00     0.000 C 
ENDROOT
BRANCH   1   2
ATOM      2  C   UNL     1      63.136  29.648  60.602  1.00  0.00     0.000 C 
BRANCH   2   3
ATOM      3  C   UNL     1      62.316  28.494  61.191  1.00  0.00     0.006 C 
BRANCH   3   4
ATOM      4  C   UNL     1      62.709  27.159  60.552  1.00  0.00     0.053 C 
BRANCH   4   5
ATOM      5  C   UNL     1      63.028  26.147  61.606  1.00  0.00     0.041 C 
ATOM      6  O   UNL     1      63.842  25.216  61.365  1.00  0.00    -0.550 OA
ATOM      7  O   UNL     1      62.391  26.201  62.839  1.00  0.00    -0.550 OA
ENDBRANCH   4   5
ENDBRANCH   3   4
ENDBRANCH   2   3
ENDBRANCH   1   2
BRANCH   1   8
ATOM      8  C   UNL     1      65.124  31.160  61.005  1.00  0.00     0.000 C 
BRANCH   8   9
ATOM      9  C   UNL     1      64.787  31.630  59.573  1.00  0.00    -0.000 C 
BRANCH   9  10
ATOM     10  C   UNL     1      64.812  33.161  59.398  1.00  0.00    -0.000 C 
BRANCH  10  11
ATOM     11  C   UNL     1      64.815  33.961  60.712  1.00  0.00    -0.000 C 
BRANCH  11  12
ATOM     12  C   UNL     1      63.722  35.039  60.753  1.00  0.00    -0.003 C 
ATOM     13  C   UNL     1      63.975  36.033  61.882  1.00  0.00     0.004 C 
ENDBRANCH  11  12
ENDBRANCH  10  11
ENDBRANCH   9  10
ENDBRANCH   8   9
ENDBRANCH   1   8
TORSDOF 9
ENDMDL
