MODEL 1
REMARK VINA RESULT:    -4.189      0.000      0.000
REMARK INTER + INTRA:          -5.606
REMARK INTER:                  -5.414
REMARK INTRA:                  -0.192
REMARK UNBOUND:                -0.192
REMARK SMILES CCCCCCC(=O)[O-]
REMARK SMILES IDX 5 1 6 2 7 3 8 4 9 5 4 6 3 7 2 8 1 9
REMARK H PARENT
REMARK Flexibility Score: inf
ROOT
ATOM      1  C   UNL     1     -23.007 -61.044   0.981  1.00  0.00     0.006 C 
ENDROOT
BRANCH   1   2
ATOM      2  C   UNL     1     -21.944 -60.009   0.604  1.00  0.00     0.053 C 
BRANCH   2   3
ATOM      3  C   UNL     1     -22.043 -59.662  -0.848  1.00  0.00     0.041 C 
ATOM      4  O   UNL     1     -21.875 -60.551  -1.725  1.00  0.00    -0.550 OA
ATOM      5  O   UNL     1     -22.272 -58.348  -1.235  1.00  0.00    -0.550 OA
ENDBRANCH   2   3
ENDBRANCH   1   2
BRANCH   1   6
ATOM      6  C   UNL     1     -22.360 -62.350   1.458  1.00  0.00     0.000 C 
BRANCH   6   7
ATOM      7  C   UNL     1     -23.310 -63.129   2.380  1.00  0.00    -0.000 C 
BRANCH   7   8
ATOM      8  C   UNL     1     -24.555 -62.317   2.768  1.00  0.00    -0.003 C 
ATOM      9  C   UNL     1     -25.567 -63.134   3.570  1.00  0.00     0.004 C 
ENDBRANCH   7   8
ENDBRANCH   6   7
ENDBRANCH   1   6
TORSDOF 5
ENDMDL
MODEL 2
REMARK VINA RESULT:    -4.165      0.208      1.100
REMARK INTER + INTRA:          -5.574
REMARK INTER:                  -5.390
REMARK INTRA:                  -0.184
REMARK UNBOUND:                -0.192
REMARK SMILES CCCCCCC(=O)[O-]
REMARK SMILES IDX 5 1 6 2 7 3 8 4 9 5 4 6 3 7 2 8 1 9
REMARK H PARENT
REMARK Flexibility Score: inf
ROOT
ATOM      1  C   UNL     1     -22.985 -60.734   1.114  1.00  0.00     0.006 C 
ENDROOT
BRANCH   1   2
ATOM      2  C   UNL     1     -21.880 -59.790   0.634  1.00  0.00     0.053 C 
BRANCH   2   3
ATOM      3  C   UNL     1     -22.013 -59.531  -0.833  1.00  0.00     0.041 C 
ATOM      4  O   UNL     1     -22.294 -58.375  -1.249  1.00  0.00    -0.550 OA
ATOM      5  O   UNL     1     -21.875 -60.574  -1.740  1.00  0.00    -0.550 OA
ENDBRANCH   2   3
ENDBRANCH   1   2
BRANCH   1   6
ATOM      6  C   UNL     1     -22.427 -62.130   1.413  1.00  0.00     0.000 C 
BRANCH   6   7
ATOM      7  C   UNL     1     -23.464 -62.992   2.148  1.00  0.00    -0.000 C 
BRANCH   7   8
ATOM      8  C   UNL     1     -24.597 -62.156   2.762  1.00  0.00    -0.003 C 
ATOM      9  C   UNL     1     -25.551 -62.990   3.617  1.00  0.00     0.004 C 
ENDBRANCH   7   8
ENDBRANCH   6   7
ENDBRANCH   1   6
TORSDOF 5
ENDMDL
MODEL 3
REMARK VINA RESULT:    -4.159      1.183      1.289
REMARK INTER + INTRA:          -5.567
REMARK INTER:                  -5.383
REMARK INTRA:                  -0.185
REMARK UNBOUND:                -0.192
REMARK SMILES CCCCCCC(=O)[O-]
REMARK SMILES IDX 5 1 6 2 7 3 8 4 9 5 4 6 3 7 2 8 1 9
REMARK H PARENT
REMARK Flexibility Score: inf
ROOT
ATOM      1  C   UNL     1     -21.886 -61.239  -0.011  1.00  0.00     0.006 C 
ENDROOT
BRANCH   1   2
ATOM      2  C   UNL     1     -23.054 -60.266   0.167  1.00  0.00     0.053 C 
BRANCH   2   3
ATOM      3  C   UNL     1     -23.262 -59.463  -1.079  1.00  0.00     0.041 C 
ATOM      4  O   UNL     1     -24.152 -59.796  -1.906  1.00  0.00    -0.550 OA
ATOM      5  O   UNL     1     -22.441 -58.376  -1.350  1.00  0.00    -0.550 OA
ENDBRANCH   2   3
ENDBRANCH   1   2
BRANCH   1   6
ATOM      6  C   UNL     1     -22.105 -62.519   0.805  1.00  0.00     0.000 C 
BRANCH   6   7
ATOM      7  C   UNL     1     -22.849 -62.215   2.114  1.00  0.00    -0.000 C 
BRANCH   7   8
ATOM      8  C   UNL     1     -23.819 -63.336   2.517  1.00  0.00    -0.003 C 
ATOM      9  C   UNL     1     -25.092 -62.808   3.178  1.00  0.00     0.004 C 
ENDBRANCH   7   8
ENDBRANCH   6   7
ENDBRANCH   1   6
TORSDOF 5
ENDMDL
MODEL 4
REMARK VINA RESULT:    -3.844      3.005      4.316
REMARK INTER + INTRA:          -5.160
REMARK INTER:                  -4.934
REMARK INTRA:                  -0.226
REMARK UNBOUND:                -0.192
REMARK SMILES CCCCCCC(=O)[O-]
REMARK SMILES IDX 5 1 6 2 7 3 8 4 9 5 4 6 3 7 2 8 1 9
REMARK H PARENT
REMARK Flexibility Score: inf
ROOT
ATOM      1  C   UNL     1     -23.949 -58.336  -1.088  1.00  0.00     0.006 C 
ENDROOT
BRANCH   1   2
ATOM      2  C   UNL     1     -24.796 -59.474  -1.664  1.00  0.00     0.053 C 
BRANCH   2   3
ATOM      3  C   UNL     1     -25.801 -58.940  -2.635  1.00  0.00     0.041 C 
ATOM      4  O   UNL     1     -26.529 -57.961  -2.319  1.00  0.00    -0.550 OA
ATOM      5  O   UNL     1     -25.969 -59.553  -3.870  1.00  0.00    -0.550 OA
ENDBRANCH   2   3
ENDBRANCH   1   2
BRANCH   1   6
ATOM      6  C   UNL     1     -22.600 -58.856  -0.579  1.00  0.00     0.000 C 
BRANCH   6   7
ATOM      7  C   UNL     1     -22.281 -60.235  -1.176  1.00  0.00    -0.000 C 
BRANCH   7   8
ATOM      8  C   UNL     1     -22.155 -61.328  -0.103  1.00  0.00    -0.003 C 
ATOM      9  C   UNL     1     -22.567 -60.843   1.287  1.00  0.00     0.004 C 
ENDBRANCH   7   8
ENDBRANCH   6   7
ENDBRANCH   1   6
TORSDOF 5
ENDMDL
MODEL 5
REMARK VINA RESULT:    -3.837      2.198      3.077
REMARK INTER + INTRA:          -5.150
REMARK INTER:                  -4.889
REMARK INTRA:                  -0.261
REMARK UNBOUND:                -0.192
REMARK SMILES CCCCCCC(=O)[O-]
REMARK SMILES IDX 5 1 6 2 7 3 8 4 9 5 4 6 3 7 2 8 1 9
REMARK H PARENT
REMARK Flexibility Score: inf
ROOT
ATOM      1  C   UNL     1     -22.611 -59.777  -1.206  1.00  0.00     0.006 C 
ENDROOT
BRANCH   1   2
ATOM      2  C   UNL     1     -24.128 -59.860  -1.020  1.00  0.00     0.053 C 
BRANCH   2   3
ATOM      3  C   UNL     1     -24.826 -58.979  -2.007  1.00  0.00     0.041 C 
ATOM      4  O   UNL     1     -25.662 -59.468  -2.813  1.00  0.00    -0.550 OA
ATOM      5  O   UNL     1     -24.519 -57.626  -2.072  1.00  0.00    -0.550 OA
ENDBRANCH   2   3
ENDBRANCH   1   2
BRANCH   1   6
ATOM      6  C   UNL     1     -21.875 -60.431  -0.030  1.00  0.00     0.000 C 
BRANCH   6   7
ATOM      7  C   UNL     1     -22.855 -60.807   1.091  1.00  0.00    -0.000 C 
BRANCH   7   8
ATOM      8  C   UNL     1     -22.600 -62.216   1.650  1.00  0.00    -0.003 C 
ATOM      9  C   UNL     1     -22.216 -63.222   0.566  1.00  0.00     0.004 C 
ENDBRANCH   7   8
ENDBRANCH   6   7
ENDBRANCH   1   6
TORSDOF 5
ENDMDL
MODEL 6
REMARK VINA RESULT:    -3.635      3.022      4.658
REMARK INTER + INTRA:          -4.889
REMARK INTER:                  -4.652
REMARK INTRA:                  -0.238
REMARK UNBOUND:                -0.192
REMARK SMILES CCCCCCC(=O)[O-]
REMARK SMILES IDX 5 1 6 2 7 3 8 4 9 5 4 6 3 7 2 8 1 9
REMARK H PARENT
REMARK Flexibility Score: inf
ROOT
ATOM      1  C   UNL     1     -21.896 -61.357   0.556  1.00  0.00     0.006 C 
ENDROOT
BRANCH   1   2
ATOM      2  C   UNL     1     -23.175 -61.683   1.331  1.00  0.00     0.053 C 
BRANCH   2   3
ATOM      3  C   UNL     1     -22.937 -62.808   2.288  1.00  0.00     0.041 C 
ATOM      4  O   UNL     1     -23.199 -63.993   1.950  1.00  0.00    -0.550 OA
ATOM      5  O   UNL     1     -22.470 -62.544   3.569  1.00  0.00    -0.550 OA
ENDBRANCH   2   3
ENDBRANCH   1   2
BRANCH   1   6
ATOM      6  C   UNL     1     -21.875 -59.887   0.119  1.00  0.00     0.000 C 
BRANCH   6   7
ATOM      7  C   UNL     1     -22.537 -59.713  -1.255  1.00  0.00    -0.000 C 
BRANCH   7   8
ATOM      8  C   UNL     1     -23.740 -58.758  -1.214  1.00  0.00    -0.003 C 
ATOM      9  C   UNL     1     -25.078 -59.484  -1.354  1.00  0.00     0.004 C 
ENDBRANCH   7   8
ENDBRANCH   6   7
ENDBRANCH   1   6
TORSDOF 5
ENDMDL
MODEL 7
REMARK VINA RESULT:    -3.629      1.572      2.203
REMARK INTER + INTRA:          -4.882
REMARK INTER:                  -4.660
REMARK INTRA:                  -0.222
REMARK UNBOUND:                -0.192
REMARK SMILES CCCCCCC(=O)[O-]
REMARK SMILES IDX 5 1 6 2 7 3 8 4 9 5 4 6 3 7 2 8 1 9
REMARK H PARENT
REMARK Flexibility Score: inf
ROOT
ATOM      1  C   UNL     1     -24.794 -59.875   0.444  1.00  0.00     0.006 C 
ENDROOT
BRANCH   1   2
ATOM      2  C   UNL     1     -24.152 -59.844  -0.946  1.00  0.00     0.053 C 
BRANCH   2   3
ATOM      3  C   UNL     1     -23.567 -58.495  -1.223  1.00  0.00     0.041 C 
ATOM      4  O   UNL     1     -22.317 -58.339  -1.243  1.00  0.00    -0.550 OA
ATOM      5  O   UNL     1     -24.401 -57.401  -1.412  1.00  0.00    -0.550 OA
ENDBRANCH   2   3
ENDBRANCH   1   2
BRANCH   1   6
ATOM      6  C   UNL     1     -23.738 -60.090   1.535  1.00  0.00     0.000 C 
BRANCH   6   7
ATOM      7  C   UNL     1     -23.042 -61.449   1.366  1.00  0.00    -0.000 C 
BRANCH   7   8
ATOM      8  C   UNL     1     -23.001 -62.257   2.672  1.00  0.00    -0.003 C 
ATOM      9  C   UNL     1     -23.952 -63.453   2.658  1.00  0.00     0.004 C 
ENDBRANCH   7   8
ENDBRANCH   6   7
ENDBRANCH   1   6
TORSDOF 5
ENDMDL
MODEL 8
REMARK VINA RESULT:    -3.602      3.273      5.123
REMARK INTER + INTRA:          -4.847
REMARK INTER:                  -4.630
REMARK INTRA:                  -0.217
REMARK UNBOUND:                -0.192
REMARK SMILES CCCCCCC(=O)[O-]
REMARK SMILES IDX 5 1 6 2 7 3 8 4 9 5 4 6 3 7 2 8 1 9
REMARK H PARENT
REMARK Flexibility Score: inf
ROOT
ATOM      1  C   UNL     1     -23.999 -61.194   2.712  1.00  0.00     0.006 C 
ENDROOT
BRANCH   1   2
ATOM      2  C   UNL     1     -24.305 -62.693   2.756  1.00  0.00     0.053 C 
BRANCH   2   3
ATOM      3  C   UNL     1     -23.248 -63.422   3.525  1.00  0.00     0.041 C 
ATOM      4  O   UNL     1     -22.323 -62.782   4.092  1.00  0.00    -0.550 OA
ATOM      5  O   UNL     1     -23.257 -64.810   3.574  1.00  0.00    -0.550 OA
ENDBRANCH   2   3
ENDBRANCH   1   2
BRANCH   1   6
ATOM      6  C   UNL     1     -23.730 -60.728   1.276  1.00  0.00     0.000 C 
BRANCH   6   7
ATOM      7  C   UNL     1     -22.224 -60.568   1.023  1.00  0.00    -0.000 C 
BRANCH   7   8
ATOM      8  C   UNL     1     -21.890 -60.398  -0.467  1.00  0.00    -0.003 C 
ATOM      9  C   UNL     1     -23.099 -59.972  -1.299  1.00  0.00     0.004 C 
ENDBRANCH   7   8
ENDBRANCH   6   7
ENDBRANCH   1   6
TORSDOF 5
ENDMDL
