MODEL 1
REMARK VINA RESULT:    -7.797      0.000      0.000
REMARK INTER + INTRA:         -15.864
REMARK INTER:                 -14.178
REMARK INTRA:                  -1.686
REMARK UNBOUND:                -1.686
REMARK SMILES CCCCCC=CCC=CCCCCCCCC(=O)[O-]
REMARK SMILES IDX 11 1 12 2 13 3 14 4 15 5 16 6 17 7 18 8 19 9 20 10 10 11
REMARK SMILES IDX 9 12 8 13 7 14 6 15 5 16 4 17 3 18 2 19 1 20
REMARK H PARENT
REMARK Flexibility Score: inf
ROOT
ATOM      1  C   UNL     1       4.860   1.757  -5.931  1.00  0.00     0.027 C 
ENDROOT
BRANCH   1   2
ATOM      2  C   UNL     1       4.542   1.645  -7.427  1.00  0.00     0.004 C 
BRANCH   2   3
ATOM      3  C   UNL     1       4.125   0.214  -7.790  1.00  0.00     0.000 C 
BRANCH   3   4
ATOM      4  C   UNL     1       2.607   0.117  -8.009  1.00  0.00     0.000 C 
BRANCH   4   5
ATOM      5  C   UNL     1       1.903   1.481  -7.916  1.00  0.00     0.000 C 
BRANCH   5   6
ATOM      6  C   UNL     1       0.811   1.517  -6.833  1.00  0.00     0.006 C 
BRANCH   6   7
ATOM      7  C   UNL     1       0.836   0.268  -5.941  1.00  0.00     0.053 C 
BRANCH   7   8
ATOM      8  C   UNL     1      -0.413  -0.546  -6.085  1.00  0.00     0.041 C 
ATOM      9  O   UNL     1      -1.088  -0.856  -5.069  1.00  0.00    -0.550 OA
ATOM     10  O   UNL     1      -0.844  -0.946  -7.344  1.00  0.00    -0.550 OA
ENDBRANCH   7   8
ENDBRANCH   6   7
ENDBRANCH   5   6
ENDBRANCH   4   5
ENDBRANCH   3   4
ENDBRANCH   2   3
ENDBRANCH   1   2
BRANCH   1  11
ATOM     11  C   UNL     1       4.344   0.568  -5.168  1.00  0.00    -0.031 C 
ATOM     12  C   UNL     1       4.097   0.632  -3.852  1.00  0.00    -0.027 C 
BRANCH  12  13
ATOM     13  C   UNL     1       3.538  -0.540  -3.095  1.00  0.00     0.054 C 
BRANCH  13  14
ATOM     14  C   UNL     1       4.349  -0.808  -1.856  1.00  0.00    -0.027 C 
ATOM     15  C   UNL     1       5.221  -1.825  -1.727  1.00  0.00    -0.031 C 
BRANCH  15  16
ATOM     16  C   UNL     1       5.514  -2.816  -2.830  1.00  0.00     0.027 C 
BRANCH  16  17
ATOM     17  C   UNL     1       4.937  -4.214  -2.537  1.00  0.00     0.004 C 
BRANCH  17  18
ATOM     18  C   UNL     1       3.405  -4.296  -2.690  1.00  0.00     0.000 C 
BRANCH  18  19
ATOM     19  C   UNL     1       2.856  -5.707  -2.956  1.00  0.00    -0.003 C 
ATOM     20  C   UNL     1       3.147  -6.197  -4.375  1.00  0.00     0.004 C 
ENDBRANCH  18  19
ENDBRANCH  17  18
ENDBRANCH  16  17
ENDBRANCH  15  16
ENDBRANCH  13  14
ENDBRANCH  12  13
ENDBRANCH   1  11
TORSDOF 14
ENDMDL
MODEL 2
REMARK VINA RESULT:    -7.732      2.501      7.204
REMARK INTER + INTRA:         -15.747
REMARK INTER:                 -14.154
REMARK INTRA:                  -1.593
REMARK UNBOUND:                -1.686
REMARK SMILES CCCCCC=CCC=CCCCCCCCC(=O)[O-]
REMARK SMILES IDX 11 1 12 2 13 3 14 4 15 5 16 6 17 7 18 8 19 9 20 10 10 11
REMARK SMILES IDX 9 12 8 13 7 14 6 15 5 16 4 17 3 18 2 19 1 20
REMARK H PARENT
REMARK Flexibility Score: inf
ROOT
ATOM      1  C   UNL     1       4.029   0.474  -4.178  1.00  0.00     0.027 C 
ENDROOT
BRANCH   1   2
ATOM      2  C   UNL     1       3.320  -0.454  -3.185  1.00  0.00     0.004 C 
BRANCH   2   3
ATOM      3  C   UNL     1       4.275  -0.886  -2.064  1.00  0.00     0.000 C 
BRANCH   3   4
ATOM      4  C   UNL     1       5.622  -1.355  -2.635  1.00  0.00     0.000 C 
BRANCH   4   5
ATOM      5  C   UNL     1       5.805  -2.879  -2.559  1.00  0.00     0.000 C 
BRANCH   5   6
ATOM      6  C   UNL     1       4.469  -3.642  -2.530  1.00  0.00     0.006 C 
BRANCH   6   7
ATOM      7  C   UNL     1       4.618  -5.092  -3.009  1.00  0.00     0.053 C 
BRANCH   7   8
ATOM      8  C   UNL     1       3.303  -5.685  -3.409  1.00  0.00     0.041 C 
ATOM      9  O   UNL     1       3.140  -6.139  -4.572  1.00  0.00    -0.550 OA
ATOM     10  O   UNL     1       2.261  -5.758  -2.492  1.00  0.00    -0.550 OA
ENDBRANCH   7   8
ENDBRANCH   6   7
ENDBRANCH   5   6
ENDBRANCH   4   5
ENDBRANCH   3   4
ENDBRANCH   2   3
ENDBRANCH   1   2
BRANCH   1  11
ATOM     11  C   UNL     1       3.249   0.608  -5.457  1.00  0.00    -0.031 C 
ATOM     12  C   UNL     1       1.917   0.455  -5.486  1.00  0.00    -0.027 C 
BRANCH  12  13
ATOM     13  C   UNL     1       1.129   0.634  -6.753  1.00  0.00     0.054 C 
BRANCH  13  14
ATOM     14  C   UNL     1       0.681   2.063  -6.905  1.00  0.00    -0.027 C 
ATOM     15  C   UNL     1       1.301   2.972  -7.679  1.00  0.00    -0.031 C 
BRANCH  15  16
ATOM     16  C   UNL     1       2.519   2.660  -8.518  1.00  0.00     0.027 C 
BRANCH  16  17
ATOM     17  C   UNL     1       3.774   3.417  -8.042  1.00  0.00     0.004 C 
BRANCH  17  18
ATOM     18  C   UNL     1       3.662   3.959  -6.603  1.00  0.00     0.000 C 
BRANCH  18  19
ATOM     19  C   UNL     1       4.932   3.802  -5.753  1.00  0.00    -0.003 C 
ATOM     20  C   UNL     1       4.771   4.358  -4.338  1.00  0.00     0.004 C 
ENDBRANCH  18  19
ENDBRANCH  17  18
ENDBRANCH  16  17
ENDBRANCH  15  16
ENDBRANCH  13  14
ENDBRANCH  12  13
ENDBRANCH   1  11
TORSDOF 14
ENDMDL
MODEL 3
REMARK VINA RESULT:    -7.573      2.360      6.551
REMARK INTER + INTRA:         -15.457
REMARK INTER:                 -13.776
REMARK INTRA:                  -1.681
REMARK UNBOUND:                -1.686
REMARK SMILES CCCCCC=CCC=CCCCCCCCC(=O)[O-]
REMARK SMILES IDX 11 1 12 2 13 3 14 4 15 5 16 6 17 7 18 8 19 9 20 10 10 11
REMARK SMILES IDX 9 12 8 13 7 14 6 15 5 16 4 17 3 18 2 19 1 20
REMARK H PARENT
REMARK Flexibility Score: inf
ROOT
ATOM      1  C   UNL     1       3.292  -0.560  -3.268  1.00  0.00     0.027 C 
ENDROOT
BRANCH   1   2
ATOM      2  C   UNL     1       4.202  -0.261  -2.071  1.00  0.00     0.004 C 
BRANCH   2   3
ATOM      3  C   UNL     1       4.944  -1.525  -1.619  1.00  0.00     0.000 C 
BRANCH   3   4
ATOM      4  C   UNL     1       5.303  -2.415  -2.820  1.00  0.00     0.000 C 
BRANCH   4   5
ATOM      5  C   UNL     1       5.989  -3.727  -2.407  1.00  0.00     0.000 C 
BRANCH   5   6
ATOM      6  C   UNL     1       5.072  -4.954  -2.551  1.00  0.00     0.006 C 
BRANCH   6   7
ATOM      7  C   UNL     1       3.640  -4.565  -2.943  1.00  0.00     0.053 C 
BRANCH   7   8
ATOM      8  C   UNL     1       2.856  -5.742  -3.434  1.00  0.00     0.041 C 
ATOM      9  O   UNL     1       1.936  -6.230  -2.726  1.00  0.00    -0.550 OA
ATOM     10  O   UNL     1       3.126  -6.290  -4.682  1.00  0.00    -0.550 OA
ENDBRANCH   7   8
ENDBRANCH   6   7
ENDBRANCH   5   6
ENDBRANCH   4   5
ENDBRANCH   3   4
ENDBRANCH   2   3
ENDBRANCH   1   2
BRANCH   1  11
ATOM     11  C   UNL     1       3.442   0.479  -4.345  1.00  0.00    -0.031 C 
ATOM     12  C   UNL     1       4.483   0.469  -5.190  1.00  0.00    -0.027 C 
BRANCH  12  13
ATOM     13  C   UNL     1       4.613   1.477  -6.296  1.00  0.00     0.054 C 
BRANCH  13  14
ATOM     14  C   UNL     1       4.180   2.841  -5.828  1.00  0.00    -0.027 C 
ATOM     15  C   UNL     1       3.173   3.545  -6.376  1.00  0.00    -0.031 C 
BRANCH  15  16
ATOM     16  C   UNL     1       2.330   3.038  -7.523  1.00  0.00     0.027 C 
BRANCH  16  17
ATOM     17  C   UNL     1       1.051   2.323  -7.046  1.00  0.00     0.004 C 
BRANCH  17  18
ATOM     18  C   UNL     1       1.160   0.785  -7.062  1.00  0.00     0.000 C 
BRANCH  18  19
ATOM     19  C   UNL     1       0.209   0.060  -6.096  1.00  0.00    -0.003 C 
ATOM     20  C   UNL     1      -0.726  -0.918  -6.807  1.00  0.00     0.004 C 
ENDBRANCH  18  19
ENDBRANCH  17  18
ENDBRANCH  16  17
ENDBRANCH  15  16
ENDBRANCH  13  14
ENDBRANCH  12  13
ENDBRANCH   1  11
TORSDOF 14
ENDMDL
MODEL 4
REMARK VINA RESULT:    -7.553      3.462      4.549
REMARK INTER + INTRA:         -15.420
REMARK INTER:                 -14.145
REMARK INTRA:                  -1.276
REMARK UNBOUND:                -1.686
REMARK SMILES CCCCCC=CCC=CCCCCCCCC(=O)[O-]
REMARK SMILES IDX 11 1 12 2 13 3 14 4 15 5 16 6 17 7 18 8 19 9 20 10 10 11
REMARK SMILES IDX 9 12 8 13 7 14 6 15 5 16 4 17 3 18 2 19 1 20
REMARK H PARENT
REMARK Flexibility Score: inf
ROOT
ATOM      1  C   UNL     1       1.316   0.763  -6.067  1.00  0.00     0.027 C 
ENDROOT
BRANCH   1   2
ATOM      2  C   UNL     1       1.303   1.981  -6.998  1.00  0.00     0.004 C 
BRANCH   2   3
ATOM      3  C   UNL     1       2.680   2.192  -7.640  1.00  0.00     0.000 C 
BRANCH   3   4
ATOM      4  C   UNL     1       3.305   3.521  -7.188  1.00  0.00     0.000 C 
BRANCH   4   5
ATOM      5  C   UNL     1       4.643   3.333  -6.455  1.00  0.00     0.000 C 
BRANCH   5   6
ATOM      6  C   UNL     1       4.609   3.847  -5.005  1.00  0.00     0.006 C 
BRANCH   6   7
ATOM      7  C   UNL     1       5.757   4.822  -4.708  1.00  0.00     0.053 C 
BRANCH   7   8
ATOM      8  C   UNL     1       5.657   5.397  -3.329  1.00  0.00     0.041 C 
ATOM      9  O   UNL     1       6.424   6.331  -2.976  1.00  0.00    -0.550 OA
ATOM     10  O   UNL     1       4.703   4.918  -2.440  1.00  0.00    -0.550 OA
ENDBRANCH   7   8
ENDBRANCH   6   7
ENDBRANCH   5   6
ENDBRANCH   4   5
ENDBRANCH   3   4
ENDBRANCH   2   3
ENDBRANCH   1   2
BRANCH   1  11
ATOM     11  C   UNL     1       2.710   0.440  -5.604  1.00  0.00    -0.031 C 
ATOM     12  C   UNL     1       2.989   0.230  -4.310  1.00  0.00    -0.027 C 
BRANCH  12  13
ATOM     13  C   UNL     1       4.371  -0.138  -3.849  1.00  0.00     0.054 C 
BRANCH  13  14
ATOM     14  C   UNL     1       4.356  -0.559  -2.403  1.00  0.00    -0.027 C 
ATOM     15  C   UNL     1       4.815  -1.741  -1.954  1.00  0.00    -0.031 C 
BRANCH  15  16
ATOM     16  C   UNL     1       5.429  -2.791  -2.851  1.00  0.00     0.027 C 
BRANCH  16  17
ATOM     17  C   UNL     1       4.928  -4.212  -2.527  1.00  0.00     0.004 C 
BRANCH  17  18
ATOM     18  C   UNL     1       3.409  -4.391  -2.721  1.00  0.00     0.000 C 
BRANCH  18  19
ATOM     19  C   UNL     1       2.960  -5.835  -3.000  1.00  0.00    -0.003 C 
ATOM     20  C   UNL     1       3.135  -6.238  -4.463  1.00  0.00     0.004 C 
ENDBRANCH  18  19
ENDBRANCH  17  18
ENDBRANCH  16  17
ENDBRANCH  15  16
ENDBRANCH  13  14
ENDBRANCH  12  13
ENDBRANCH   1  11
TORSDOF 14
ENDMDL
MODEL 5
REMARK VINA RESULT:    -7.488      2.699      7.234
REMARK INTER + INTRA:         -15.303
REMARK INTER:                 -13.954
REMARK INTRA:                  -1.349
REMARK UNBOUND:                -1.686
REMARK SMILES CCCCCC=CCC=CCCCCCCCC(=O)[O-]
REMARK SMILES IDX 11 1 12 2 13 3 14 4 15 5 16 6 17 7 18 8 19 9 20 10 10 11
REMARK SMILES IDX 9 12 8 13 7 14 6 15 5 16 4 17 3 18 2 19 1 20
REMARK H PARENT
REMARK Flexibility Score: inf
ROOT
ATOM      1  C   UNL     1       2.945  -0.071  -3.871  1.00  0.00     0.027 C 
ENDROOT
BRANCH   1   2
ATOM      2  C   UNL     1       4.354  -0.029  -3.268  1.00  0.00     0.004 C 
BRANCH   2   3
ATOM      3  C   UNL     1       4.422  -0.857  -1.978  1.00  0.00     0.000 C 
BRANCH   3   4
ATOM      4  C   UNL     1       5.806  -1.503  -1.806  1.00  0.00     0.000 C 
BRANCH   4   5
ATOM      5  C   UNL     1       5.895  -2.901  -2.441  1.00  0.00     0.000 C 
BRANCH   5   6
ATOM      6  C   UNL     1       4.542  -3.631  -2.473  1.00  0.00     0.006 C 
BRANCH   6   7
ATOM      7  C   UNL     1       4.652  -5.030  -3.094  1.00  0.00     0.053 C 
BRANCH   7   8
ATOM      8  C   UNL     1       3.305  -5.630  -3.360  1.00  0.00     0.041 C 
ATOM      9  O   UNL     1       2.380  -5.510  -2.515  1.00  0.00    -0.550 OA
ATOM     10  O   UNL     1       3.065  -6.305  -4.550  1.00  0.00    -0.550 OA
ENDBRANCH   7   8
ENDBRANCH   6   7
ENDBRANCH   5   6
ENDBRANCH   4   5
ENDBRANCH   3   4
ENDBRANCH   2   3
ENDBRANCH   1   2
BRANCH   1  11
ATOM     11  C   UNL     1       2.936   0.443  -5.284  1.00  0.00    -0.031 C 
ATOM     12  C   UNL     1       1.791   0.630  -5.955  1.00  0.00    -0.027 C 
BRANCH  12  13
ATOM     13  C   UNL     1       1.775   1.187  -7.351  1.00  0.00     0.054 C 
BRANCH  13  14
ATOM     14  C   UNL     1       1.712   2.691  -7.323  1.00  0.00    -0.027 C 
ATOM     15  C   UNL     1       2.791   3.494  -7.342  1.00  0.00    -0.031 C 
BRANCH  15  16
ATOM     16  C   UNL     1       4.211   2.981  -7.419  1.00  0.00     0.027 C 
BRANCH  16  17
ATOM     17  C   UNL     1       5.068   3.434  -6.222  1.00  0.00     0.004 C 
BRANCH  17  18
ATOM     18  C   UNL     1       4.284   4.240  -5.168  1.00  0.00     0.000 C 
BRANCH  18  19
ATOM     19  C   UNL     1       5.041   4.497  -3.855  1.00  0.00    -0.003 C 
ATOM     20  C   UNL     1       6.203   5.476  -4.024  1.00  0.00     0.004 C 
ENDBRANCH  18  19
ENDBRANCH  17  18
ENDBRANCH  16  17
ENDBRANCH  15  16
ENDBRANCH  13  14
ENDBRANCH  12  13
ENDBRANCH   1  11
TORSDOF 14
ENDMDL
MODEL 6
REMARK VINA RESULT:    -7.460      2.374      6.668
REMARK INTER + INTRA:         -15.253
REMARK INTER:                 -13.557
REMARK INTRA:                  -1.695
REMARK UNBOUND:                -1.686
REMARK SMILES CCCCCC=CCC=CCCCCCCCC(=O)[O-]
REMARK SMILES IDX 11 1 12 2 13 3 14 4 15 5 16 6 17 7 18 8 19 9 20 10 10 11
REMARK SMILES IDX 9 12 8 13 7 14 6 15 5 16 4 17 3 18 2 19 1 20
REMARK H PARENT
REMARK Flexibility Score: inf
ROOT
ATOM      1  C   UNL     1       2.683  -0.305  -3.925  1.00  0.00     0.027 C 
ENDROOT
BRANCH   1   2
ATOM      2  C   UNL     1       4.140   0.005  -3.563  1.00  0.00     0.004 C 
BRANCH   2   3
ATOM      3  C   UNL     1       4.586  -0.812  -2.344  1.00  0.00     0.000 C 
BRANCH   3   4
ATOM      4  C   UNL     1       5.921  -1.525  -2.613  1.00  0.00     0.000 C 
BRANCH   4   5
ATOM      5  C   UNL     1       5.851  -3.039  -2.352  1.00  0.00     0.000 C 
BRANCH   5   6
ATOM      6  C   UNL     1       4.434  -3.612  -2.529  1.00  0.00     0.006 C 
BRANCH   6   7
ATOM      7  C   UNL     1       4.451  -5.039  -3.093  1.00  0.00     0.053 C 
BRANCH   7   8
ATOM      8  C   UNL     1       3.071  -5.603  -3.225  1.00  0.00     0.041 C 
ATOM      9  O   UNL     1       2.714  -6.160  -4.297  1.00  0.00    -0.550 OA
ATOM     10  O   UNL     1       2.182  -5.533  -2.159  1.00  0.00    -0.550 OA
ENDBRANCH   7   8
ENDBRANCH   6   7
ENDBRANCH   5   6
ENDBRANCH   4   5
ENDBRANCH   3   4
ENDBRANCH   2   3
ENDBRANCH   1   2
BRANCH   1  11
ATOM     11  C   UNL     1       2.286   0.354  -5.217  1.00  0.00    -0.031 C 
ATOM     12  C   UNL     1       1.029   0.288  -5.681  1.00  0.00    -0.027 C 
BRANCH  12  13
ATOM     13  C   UNL     1       0.617   0.984  -6.947  1.00  0.00     0.054 C 
BRANCH  13  14
ATOM     14  C   UNL     1       0.956   2.450  -6.885  1.00  0.00    -0.027 C 
ATOM     15  C   UNL     1       1.935   3.031  -7.600  1.00  0.00    -0.031 C 
BRANCH  15  16
ATOM     16  C   UNL     1       2.807   2.282  -8.582  1.00  0.00     0.027 C 
BRANCH  16  17
ATOM     17  C   UNL     1       4.167   1.880  -7.979  1.00  0.00     0.004 C 
BRANCH  17  18
ATOM     18  C   UNL     1       4.448   0.366  -8.041  1.00  0.00     0.000 C 
BRANCH  18  19
ATOM     19  C   UNL     1       3.397  -0.456  -8.806  1.00  0.00    -0.003 C 
ATOM     20  C   UNL     1       3.978  -1.172 -10.025  1.00  0.00     0.004 C 
ENDBRANCH  18  19
ENDBRANCH  17  18
ENDBRANCH  16  17
ENDBRANCH  15  16
ENDBRANCH  13  14
ENDBRANCH  12  13
ENDBRANCH   1  11
TORSDOF 14
ENDMDL
MODEL 7
REMARK VINA RESULT:    -7.451      2.588      3.396
REMARK INTER + INTRA:         -15.236
REMARK INTER:                 -13.748
REMARK INTRA:                  -1.488
REMARK UNBOUND:                -1.686
REMARK SMILES CCCCCC=CCC=CCCCCCCCC(=O)[O-]
REMARK SMILES IDX 11 1 12 2 13 3 14 4 15 5 16 6 17 7 18 8 19 9 20 10 10 11
REMARK SMILES IDX 9 12 8 13 7 14 6 15 5 16 4 17 3 18 2 19 1 20
REMARK H PARENT
REMARK Flexibility Score: inf
ROOT
ATOM      1  C   UNL     1       1.619   0.611  -6.068  1.00  0.00     0.027 C 
ENDROOT
BRANCH   1   2
ATOM      2  C   UNL     1       1.930   0.481  -7.563  1.00  0.00     0.004 C 
BRANCH   2   3
ATOM      3  C   UNL     1       3.361  -0.027  -7.781  1.00  0.00     0.000 C 
BRANCH   3   4
ATOM      4  C   UNL     1       3.798   0.157  -9.243  1.00  0.00     0.000 C 
BRANCH   4   5
ATOM      5  C   UNL     1       3.506   1.568  -9.780  1.00  0.00     0.000 C 
BRANCH   5   6
ATOM      6  C   UNL     1       4.551   2.606  -9.335  1.00  0.00     0.006 C 
BRANCH   6   7
ATOM      7  C   UNL     1       4.013   3.543  -8.246  1.00  0.00     0.053 C 
BRANCH   7   8
ATOM      8  C   UNL     1       4.675   3.301  -6.924  1.00  0.00     0.041 C 
ATOM      9  O   UNL     1       4.334   3.970  -5.914  1.00  0.00    -0.550 OA
ATOM     10  O   UNL     1       5.654   2.323  -6.802  1.00  0.00    -0.550 OA
ENDBRANCH   7   8
ENDBRANCH   6   7
ENDBRANCH   5   6
ENDBRANCH   4   5
ENDBRANCH   3   4
ENDBRANCH   2   3
ENDBRANCH   1   2
BRANCH   1  11
ATOM     11  C   UNL     1       2.878   0.718  -5.252  1.00  0.00    -0.031 C 
ATOM     12  C   UNL     1       3.129  -0.119  -4.235  1.00  0.00    -0.027 C 
BRANCH  12  13
ATOM     13  C   UNL     1       4.406  -0.045  -3.447  1.00  0.00     0.054 C 
BRANCH  13  14
ATOM     14  C   UNL     1       4.237  -0.691  -2.097  1.00  0.00    -0.027 C 
ATOM     15  C   UNL     1       4.654  -1.933  -1.795  1.00  0.00    -0.031 C 
BRANCH  15  16
ATOM     16  C   UNL     1       5.372  -2.833  -2.775  1.00  0.00     0.027 C 
BRANCH  16  17
ATOM     17  C   UNL     1       4.875  -4.290  -2.712  1.00  0.00     0.004 C 
BRANCH  17  18
ATOM     18  C   UNL     1       3.353  -4.418  -2.504  1.00  0.00     0.000 C 
BRANCH  18  19
ATOM     19  C   UNL     1       2.747  -5.752  -2.969  1.00  0.00    -0.003 C 
ATOM     20  C   UNL     1       3.205  -6.154  -4.370  1.00  0.00     0.004 C 
ENDBRANCH  18  19
ENDBRANCH  17  18
ENDBRANCH  16  17
ENDBRANCH  15  16
ENDBRANCH  13  14
ENDBRANCH  12  13
ENDBRANCH   1  11
TORSDOF 14
ENDMDL
MODEL 8
REMARK VINA RESULT:    -7.392      2.013      3.378
REMARK INTER + INTRA:         -15.128
REMARK INTER:                 -13.334
REMARK INTRA:                  -1.795
REMARK UNBOUND:                -1.686
REMARK SMILES CCCCCC=CCC=CCCCCCCCC(=O)[O-]
REMARK SMILES IDX 11 1 12 2 13 3 14 4 15 5 16 6 17 7 18 8 19 9 20 10 10 11
REMARK SMILES IDX 9 12 8 13 7 14 6 15 5 16 4 17 3 18 2 19 1 20
REMARK H PARENT
REMARK Flexibility Score: inf
ROOT
ATOM      1  C   UNL     1       0.730   1.303  -6.939  1.00  0.00     0.027 C 
ENDROOT
BRANCH   1   2
ATOM      2  C   UNL     1       1.411   2.675  -6.873  1.00  0.00     0.004 C 
BRANCH   2   3
ATOM      3  C   UNL     1       1.626   3.247  -8.280  1.00  0.00     0.000 C 
BRANCH   3   4
ATOM      4  C   UNL     1       3.016   3.888  -8.411  1.00  0.00     0.000 C 
BRANCH   4   5
ATOM      5  C   UNL     1       4.011   3.378  -7.356  1.00  0.00     0.000 C 
BRANCH   5   6
ATOM      6  C   UNL     1       5.013   2.357  -7.922  1.00  0.00     0.006 C 
BRANCH   6   7
ATOM      7  C   UNL     1       4.585   0.909  -7.646  1.00  0.00     0.053 C 
BRANCH   7   8
ATOM      8  C   UNL     1       3.896   0.296  -8.825  1.00  0.00     0.041 C 
ATOM      9  O   UNL     1       3.064  -0.635  -8.660  1.00  0.00    -0.550 OA
ATOM     10  O   UNL     1       4.155   0.766 -10.107  1.00  0.00    -0.550 OA
ENDBRANCH   7   8
ENDBRANCH   6   7
ENDBRANCH   5   6
ENDBRANCH   4   5
ENDBRANCH   3   4
ENDBRANCH   2   3
ENDBRANCH   1   2
BRANCH   1  11
ATOM     11  C   UNL     1       1.192   0.406  -5.825  1.00  0.00    -0.031 C 
ATOM     12  C   UNL     1       2.353   0.618  -5.188  1.00  0.00    -0.027 C 
BRANCH  12  13
ATOM     13  C   UNL     1       2.796  -0.248  -4.043  1.00  0.00     0.054 C 
BRANCH  13  14
ATOM     14  C   UNL     1       4.275  -0.098  -3.803  1.00  0.00    -0.027 C 
ATOM     15  C   UNL     1       5.018  -0.965  -3.093  1.00  0.00    -0.031 C 
BRANCH  15  16
ATOM     16  C   UNL     1       4.460  -2.221  -2.464  1.00  0.00     0.027 C 
BRANCH  16  17
ATOM     17  C   UNL     1       5.433  -3.412  -2.559  1.00  0.00     0.004 C 
BRANCH  17  18
ATOM     18  C   UNL     1       4.747  -4.745  -2.917  1.00  0.00     0.000 C 
BRANCH  18  19
ATOM     19  C   UNL     1       3.214  -4.736  -2.794  1.00  0.00    -0.003 C 
ATOM     20  C   UNL     1       2.565  -5.984  -3.392  1.00  0.00     0.004 C 
ENDBRANCH  18  19
ENDBRANCH  17  18
ENDBRANCH  16  17
ENDBRANCH  15  16
ENDBRANCH  13  14
ENDBRANCH  12  13
ENDBRANCH   1  11
TORSDOF 14
ENDMDL
MODEL 9
REMARK VINA RESULT:    -7.364      3.728      4.757
REMARK INTER + INTRA:         -15.078
REMARK INTER:                 -14.263
REMARK INTRA:                  -0.815
REMARK UNBOUND:                -1.686
REMARK SMILES CCCCCC=CCC=CCCCCCCCC(=O)[O-]
REMARK SMILES IDX 11 1 12 2 13 3 14 4 15 5 16 6 17 7 18 8 19 9 20 10 10 11
REMARK SMILES IDX 9 12 8 13 7 14 6 15 5 16 4 17 3 18 2 19 1 20
REMARK H PARENT
REMARK Flexibility Score: inf
ROOT
ATOM      1  C   UNL     1       3.127   0.642  -5.353  1.00  0.00     0.027 C 
ENDROOT
BRANCH   1   2
ATOM      2  C   UNL     1       4.441   0.672  -6.143  1.00  0.00     0.004 C 
BRANCH   2   3
ATOM      3  C   UNL     1       4.285   1.487  -7.433  1.00  0.00     0.000 C 
BRANCH   3   4
ATOM      4  C   UNL     1       5.079   2.800  -7.358  1.00  0.00     0.000 C 
BRANCH   4   5
ATOM      5  C   UNL     1       4.540   3.764  -6.288  1.00  0.00     0.000 C 
BRANCH   5   6
ATOM      6  C   UNL     1       5.636   4.281  -5.341  1.00  0.00     0.006 C 
BRANCH   6   7
ATOM      7  C   UNL     1       5.085   4.638  -3.954  1.00  0.00     0.053 C 
BRANCH   7   8
ATOM      8  C   UNL     1       5.985   5.584  -3.222  1.00  0.00     0.041 C 
ATOM      9  O   UNL     1       6.119   5.493  -1.973  1.00  0.00    -0.550 OA
ATOM     10  O   UNL     1       6.693   6.555  -3.919  1.00  0.00    -0.550 OA
ENDBRANCH   7   8
ENDBRANCH   6   7
ENDBRANCH   5   6
ENDBRANCH   4   5
ENDBRANCH   3   4
ENDBRANCH   2   3
ENDBRANCH   1   2
BRANCH   1  11
ATOM     11  C   UNL     1       3.317   0.030  -3.992  1.00  0.00    -0.031 C 
ATOM     12  C   UNL     1       4.537  -0.257  -3.517  1.00  0.00    -0.027 C 
BRANCH  12  13
ATOM     13  C   UNL     1       4.735  -0.826  -2.140  1.00  0.00     0.054 C 
BRANCH  13  14
ATOM     14  C   UNL     1       5.889  -1.792  -2.123  1.00  0.00    -0.027 C 
ATOM     15  C   UNL     1       5.783  -3.102  -2.409  1.00  0.00    -0.031 C 
BRANCH  15  16
ATOM     16  C   UNL     1       4.486  -3.766  -2.810  1.00  0.00     0.027 C 
BRANCH  16  17
ATOM     17  C   UNL     1       4.636  -5.286  -3.007  1.00  0.00     0.004 C 
BRANCH  17  18
ATOM     18  C   UNL     1       3.691  -5.868  -4.077  1.00  0.00     0.000 C 
BRANCH  18  19
ATOM     19  C   UNL     1       2.336  -6.362  -3.543  1.00  0.00    -0.003 C 
ATOM     20  C   UNL     1       2.024  -5.835  -2.143  1.00  0.00     0.004 C 
ENDBRANCH  18  19
ENDBRANCH  17  18
ENDBRANCH  16  17
ENDBRANCH  15  16
ENDBRANCH  13  14
ENDBRANCH  12  13
ENDBRANCH   1  11
TORSDOF 14
ENDMDL
