MODEL 1
REMARK VINA RESULT:    -5.054      0.000      0.000
REMARK INTER + INTRA:          -6.694
REMARK INTER:                  -6.236
REMARK INTRA:                  -0.459
REMARK UNBOUND:                -0.459
REMARK SMILES COC(=O)c1ccccc1C(=O)OC
REMARK SMILES IDX 5 1 6 2 7 3 8 4 9 5 10 6 3 7 4 8 2 9 1 10 11 11 12 12 13 13
REMARK SMILES IDX 14 14
REMARK H PARENT
REMARK Flexibility Score: inf
ROOT
ATOM      1  C   UNL     1     133.745 123.037 139.947  1.00  0.00     0.074 A 
ATOM      2  C   UNL     1     133.172 121.814 140.339  1.00  0.00     0.016 A 
ATOM      3  C   UNL     1     133.905 120.629 140.270  1.00  0.00     0.001 A 
ATOM      4  C   UNL     1     135.220 120.645 139.812  1.00  0.00     0.001 A 
ATOM      5  C   UNL     1     135.816 121.851 139.442  1.00  0.00     0.016 A 
ATOM      6  C   UNL     1     135.104 123.062 139.523  1.00  0.00     0.074 A 
ENDROOT
BRANCH   1   7
ATOM      7  C   UNL     1     132.876 124.237 139.937  1.00  0.00     0.338 C 
ATOM      8  O   UNL     1     132.350 124.634 138.861  1.00  0.00    -0.246 OA
BRANCH   7   9
ATOM      9  O   UNL     1     132.590 124.891 141.140  1.00  0.00    -0.465 OA
ATOM     10  C   UNL     1     133.504 125.786 141.762  1.00  0.00     0.282 C 
ENDBRANCH   7   9
ENDBRANCH   1   7
BRANCH   6  11
ATOM     11  C   UNL     1     135.833 124.315 139.222  1.00  0.00     0.338 C 
ATOM     12  O   UNL     1     136.549 124.863 140.103  1.00  0.00    -0.246 OA
BRANCH  11  13
ATOM     13  O   UNL     1     135.767 124.858 137.934  1.00  0.00    -0.465 OA
ATOM     14  C   UNL     1     135.350 126.196 137.686  1.00  0.00     0.282 C 
ENDBRANCH  11  13
ENDBRANCH   6  11
TORSDOF 4
ENDMDL
MODEL 2
REMARK VINA RESULT:    -5.045      0.094      3.379
REMARK INTER + INTRA:          -6.683
REMARK INTER:                  -6.223
REMARK INTRA:                  -0.461
REMARK UNBOUND:                -0.459
REMARK SMILES COC(=O)c1ccccc1C(=O)OC
REMARK SMILES IDX 5 1 6 2 7 3 8 4 9 5 10 6 3 7 4 8 2 9 1 10 11 11 12 12 13 13
REMARK SMILES IDX 14 14
REMARK H PARENT
REMARK Flexibility Score: inf
ROOT
ATOM      1  C   UNL     1     135.116 123.061 139.573  1.00  0.00     0.074 A 
ATOM      2  C   UNL     1     135.821 121.849 139.460  1.00  0.00     0.016 A 
ATOM      3  C   UNL     1     135.211 120.636 139.780  1.00  0.00     0.001 A 
ATOM      4  C   UNL     1     133.890 120.612 140.217  1.00  0.00     0.001 A 
ATOM      5  C   UNL     1     133.163 121.799 140.314  1.00  0.00     0.016 A 
ATOM      6  C   UNL     1     133.750 123.032 139.975  1.00  0.00     0.074 A 
ENDROOT
BRANCH   1   7
ATOM      7  C   UNL     1     135.857 124.319 139.326  1.00  0.00     0.338 C 
ATOM      8  O   UNL     1     136.591 124.813 140.226  1.00  0.00    -0.246 OA
BRANCH   7   9
ATOM      9  O   UNL     1     135.787 124.924 138.067  1.00  0.00    -0.465 OA
ATOM     10  C   UNL     1     135.313 126.252 137.880  1.00  0.00     0.282 C 
ENDBRANCH   7   9
ENDBRANCH   1   7
BRANCH   6  11
ATOM     11  C   UNL     1     132.889 124.236 139.993  1.00  0.00     0.338 C 
ATOM     12  O   UNL     1     132.344 124.646 138.932  1.00  0.00    -0.246 OA
BRANCH  11  13
ATOM     13  O   UNL     1     132.636 124.884 141.207  1.00  0.00    -0.465 OA
ATOM     14  C   UNL     1     133.524 125.849 141.761  1.00  0.00     0.282 C 
ENDBRANCH  11  13
ENDBRANCH   6  11
TORSDOF 4
ENDMDL
MODEL 3
REMARK VINA RESULT:    -5.009      0.905      3.141
REMARK INTER + INTRA:          -6.639
REMARK INTER:                  -6.296
REMARK INTRA:                  -0.343
REMARK UNBOUND:                -0.459
REMARK SMILES COC(=O)c1ccccc1C(=O)OC
REMARK SMILES IDX 5 1 6 2 7 3 8 4 9 5 10 6 3 7 4 8 2 9 1 10 11 11 12 12 13 13
REMARK SMILES IDX 14 14
REMARK H PARENT
REMARK Flexibility Score: inf
ROOT
ATOM      1  C   UNL     1     135.174 122.765 139.482  1.00  0.00     0.074 A 
ATOM      2  C   UNL     1     136.018 121.652 139.314  1.00  0.00     0.016 A 
ATOM      3  C   UNL     1     135.587 120.371 139.661  1.00  0.00     0.001 A 
ATOM      4  C   UNL     1     134.309 120.180 140.179  1.00  0.00     0.001 A 
ATOM      5  C   UNL     1     133.446 121.266 140.333  1.00  0.00     0.016 A 
ATOM      6  C   UNL     1     133.851 122.564 139.970  1.00  0.00     0.074 A 
ENDROOT
BRANCH   1   7
ATOM      7  C   UNL     1     135.734 124.107 139.201  1.00  0.00     0.338 C 
ATOM      8  O   UNL     1     135.546 124.654 138.080  1.00  0.00    -0.246 OA
BRANCH   7   9
ATOM      9  O   UNL     1     136.421 124.792 140.209  1.00  0.00    -0.465 OA
ATOM     10  C   UNL     1     136.470 124.330 141.554  1.00  0.00     0.282 C 
ENDBRANCH   7   9
ENDBRANCH   1   7
BRANCH   6  11
ATOM     11  C   UNL     1     132.848 123.650 140.052  1.00  0.00     0.338 C 
ATOM     12  O   UNL     1     131.884 123.691 139.240  1.00  0.00    -0.246 OA
BRANCH  11  13
ATOM     13  O   UNL     1     132.945 124.600 141.075  1.00  0.00    -0.465 OA
ATOM     14  C   UNL     1     132.968 126.000 140.822  1.00  0.00     0.282 C 
ENDBRANCH  11  13
ENDBRANCH   6  11
TORSDOF 4
ENDMDL
MODEL 4
REMARK VINA RESULT:    -4.992      0.956      1.575
REMARK INTER + INTRA:          -6.618
REMARK INTER:                  -6.257
REMARK INTRA:                  -0.361
REMARK UNBOUND:                -0.459
REMARK SMILES COC(=O)c1ccccc1C(=O)OC
REMARK SMILES IDX 5 1 6 2 7 3 8 4 9 5 10 6 3 7 4 8 2 9 1 10 11 11 12 12 13 13
REMARK SMILES IDX 14 14
REMARK H PARENT
REMARK Flexibility Score: inf
ROOT
ATOM      1  C   UNL     1     133.861 122.491 139.972  1.00  0.00     0.074 A 
ATOM      2  C   UNL     1     133.439 121.210 140.372  1.00  0.00     0.016 A 
ATOM      3  C   UNL     1     134.276 120.104 140.220  1.00  0.00     0.001 A 
ATOM      4  C   UNL     1     135.545 120.257 139.669  1.00  0.00     0.001 A 
ATOM      5  C   UNL     1     135.994 121.522 139.288  1.00  0.00     0.016 A 
ATOM      6  C   UNL     1     135.176 122.656 139.451  1.00  0.00     0.074 A 
ENDROOT
BRANCH   1   7
ATOM      7  C   UNL     1     132.883 123.600 140.056  1.00  0.00     0.338 C 
ATOM      8  O   UNL     1     131.885 123.629 139.283  1.00  0.00    -0.246 OA
BRANCH   7   9
ATOM      9  O   UNL     1     133.038 124.582 141.039  1.00  0.00    -0.465 OA
ATOM     10  C   UNL     1     133.096 125.971 140.734  1.00  0.00     0.282 C 
ENDBRANCH   7   9
ENDBRANCH   1   7
BRANCH   6  11
ATOM     11  C   UNL     1     135.757 123.980 139.132  1.00  0.00     0.338 C 
ATOM     12  O   UNL     1     135.403 124.597 138.091  1.00  0.00    -0.246 OA
BRANCH  11  13
ATOM     13  O   UNL     1     136.661 124.569 140.024  1.00  0.00    -0.465 OA
ATOM     14  C   UNL     1     136.566 124.399 141.434  1.00  0.00     0.282 C 
ENDBRANCH  11  13
ENDBRANCH   6  11
TORSDOF 4
ENDMDL
MODEL 5
REMARK VINA RESULT:    -4.930      2.135      3.011
REMARK INTER + INTRA:          -6.542
REMARK INTER:                  -6.425
REMARK INTRA:                  -0.117
REMARK UNBOUND:                -0.459
REMARK SMILES COC(=O)c1ccccc1C(=O)OC
REMARK SMILES IDX 5 1 6 2 7 3 8 4 9 5 10 6 3 7 4 8 2 9 1 10 11 11 12 12 13 13
REMARK SMILES IDX 14 14
REMARK H PARENT
REMARK Flexibility Score: inf
ROOT
ATOM      1  C   UNL     1     135.541 120.866 140.177  1.00  0.00     0.074 A 
ATOM      2  C   UNL     1     135.806 119.511 139.906  1.00  0.00     0.016 A 
ATOM      3  C   UNL     1     137.117 119.036 139.857  1.00  0.00     0.001 A 
ATOM      4  C   UNL     1     138.183 119.904 140.077  1.00  0.00     0.001 A 
ATOM      5  C   UNL     1     137.944 121.247 140.372  1.00  0.00     0.016 A 
ATOM      6  C   UNL     1     136.630 121.743 140.448  1.00  0.00     0.074 A 
ENDROOT
BRANCH   1   7
ATOM      7  C   UNL     1     134.135 121.325 140.102  1.00  0.00     0.338 C 
ATOM      8  O   UNL     1     133.222 120.679 140.688  1.00  0.00    -0.246 OA
BRANCH   7   9
ATOM      9  O   UNL     1     133.833 122.513 139.430  1.00  0.00    -0.465 OA
ATOM     10  C   UNL     1     132.636 123.244 139.664  1.00  0.00     0.282 C 
ENDBRANCH   7   9
ENDBRANCH   1   7
BRANCH   6  11
ATOM     11  C   UNL     1     136.445 123.149 140.876  1.00  0.00     0.338 C 
ATOM     12  O   UNL     1     136.176 123.420 142.077  1.00  0.00    -0.246 OA
BRANCH  11  13
ATOM     13  O   UNL     1     136.628 124.180 139.947  1.00  0.00    -0.465 OA
ATOM     14  C   UNL     1     135.815 125.348 139.928  1.00  0.00     0.282 C 
ENDBRANCH  11  13
ENDBRANCH   6  11
TORSDOF 4
ENDMDL
MODEL 6
REMARK VINA RESULT:    -4.822      2.725      3.806
REMARK INTER + INTRA:          -6.408
REMARK INTER:                  -6.112
REMARK INTRA:                  -0.296
REMARK UNBOUND:                -0.459
REMARK SMILES COC(=O)c1ccccc1C(=O)OC
REMARK SMILES IDX 5 1 6 2 7 3 8 4 9 5 10 6 3 7 4 8 2 9 1 10 11 11 12 12 13 13
REMARK SMILES IDX 14 14
REMARK H PARENT
REMARK Flexibility Score: inf
ROOT
ATOM      1  C   UNL     1     135.206 119.780 139.657  1.00  0.00     0.074 A 
ATOM      2  C   UNL     1     134.748 118.630 138.988  1.00  0.00     0.016 A 
ATOM      3  C   UNL     1     135.483 118.074 137.940  1.00  0.00     0.001 A 
ATOM      4  C   UNL     1     136.685 118.656 137.544  1.00  0.00     0.001 A 
ATOM      5  C   UNL     1     137.170 119.783 138.209  1.00  0.00     0.016 A 
ATOM      6  C   UNL     1     136.457 120.347 139.282  1.00  0.00     0.074 A 
ENDROOT
BRANCH   1   7
ATOM      7  C   UNL     1     134.322 120.382 140.682  1.00  0.00     0.338 C 
ATOM      8  O   UNL     1     134.647 120.349 141.901  1.00  0.00    -0.246 OA
BRANCH   7   9
ATOM      9  O   UNL     1     133.155 121.042 140.284  1.00  0.00    -0.465 OA
ATOM     10  C   UNL     1     133.122 122.434 139.994  1.00  0.00     0.282 C 
ENDBRANCH   7   9
ENDBRANCH   1   7
BRANCH   6  11
ATOM     11  C   UNL     1     137.084 121.472 140.014  1.00  0.00     0.338 C 
ATOM     12  O   UNL     1     138.086 121.272 140.753  1.00  0.00    -0.246 OA
BRANCH  11  13
ATOM     13  O   UNL     1     136.592 122.770 139.835  1.00  0.00    -0.465 OA
ATOM     14  C   UNL     1     136.697 123.775 140.836  1.00  0.00     0.282 C 
ENDBRANCH  11  13
ENDBRANCH   6  11
TORSDOF 4
ENDMDL
MODEL 7
REMARK VINA RESULT:    -4.724      1.613      3.660
REMARK INTER + INTRA:          -6.287
REMARK INTER:                  -5.993
REMARK INTRA:                  -0.293
REMARK UNBOUND:                -0.459
REMARK SMILES COC(=O)c1ccccc1C(=O)OC
REMARK SMILES IDX 5 1 6 2 7 3 8 4 9 5 10 6 3 7 4 8 2 9 1 10 11 11 12 12 13 13
REMARK SMILES IDX 14 14
REMARK H PARENT
REMARK Flexibility Score: inf
ROOT
ATOM      1  C   UNL     1     133.948 124.516 138.967  1.00  0.00     0.074 A 
ATOM      2  C   UNL     1     133.273 125.133 137.898  1.00  0.00     0.016 A 
ATOM      3  C   UNL     1     133.981 125.797 136.895  1.00  0.00     0.001 A 
ATOM      4  C   UNL     1     135.371 125.855 136.943  1.00  0.00     0.001 A 
ATOM      5  C   UNL     1     136.063 125.230 137.981  1.00  0.00     0.016 A 
ATOM      6  C   UNL     1     135.372 124.536 138.991  1.00  0.00     0.074 A 
ENDROOT
BRANCH   1   7
ATOM      7  C   UNL     1     133.132 123.928 140.054  1.00  0.00     0.338 C 
ATOM      8  O   UNL     1     132.866 124.602 141.087  1.00  0.00    -0.246 OA
BRANCH   7   9
ATOM      9  O   UNL     1     132.605 122.642 139.901  1.00  0.00    -0.465 OA
ATOM     10  C   UNL     1     133.311 121.472 140.294  1.00  0.00     0.282 C 
ENDBRANCH   7   9
ENDBRANCH   1   7
BRANCH   6  11
ATOM     11  C   UNL     1     136.172 123.801 139.997  1.00  0.00     0.338 C 
ATOM     12  O   UNL     1     136.610 124.394 141.020  1.00  0.00    -0.246 OA
BRANCH  11  13
ATOM     13  O   UNL     1     136.390 122.428 139.834  1.00  0.00    -0.465 OA
ATOM     14  C   UNL     1     137.271 121.687 140.670  1.00  0.00     0.282 C 
ENDBRANCH  11  13
ENDBRANCH   6  11
TORSDOF 4
ENDMDL
MODEL 8
REMARK VINA RESULT:    -4.657      1.530      3.213
REMARK INTER + INTRA:          -6.204
REMARK INTER:                  -5.733
REMARK INTRA:                  -0.471
REMARK UNBOUND:                -0.459
REMARK SMILES COC(=O)c1ccccc1C(=O)OC
REMARK SMILES IDX 5 1 6 2 7 3 8 4 9 5 10 6 3 7 4 8 2 9 1 10 11 11 12 12 13 13
REMARK SMILES IDX 14 14
REMARK H PARENT
REMARK Flexibility Score: inf
ROOT
ATOM      1  C   UNL     1     134.166 124.007 139.693  1.00  0.00     0.074 A 
ATOM      2  C   UNL     1     135.348 123.315 139.371  1.00  0.00     0.016 A 
ATOM      3  C   UNL     1     135.428 121.930 139.527  1.00  0.00     0.001 A 
ATOM      4  C   UNL     1     134.333 121.216 140.005  1.00  0.00     0.001 A 
ATOM      5  C   UNL     1     133.143 121.879 140.308  1.00  0.00     0.016 A 
ATOM      6  C   UNL     1     133.031 123.271 140.139  1.00  0.00     0.074 A 
ENDROOT
BRANCH   1   7
ATOM      7  C   UNL     1     134.187 125.486 139.612  1.00  0.00     0.338 C 
ATOM      8  O   UNL     1     134.123 126.063 138.492  1.00  0.00    -0.246 OA
BRANCH   7   9
ATOM      9  O   UNL     1     134.215 126.240 140.790  1.00  0.00    -0.465 OA
ATOM     10  C   UNL     1     133.238 127.230 141.090  1.00  0.00     0.282 C 
ENDBRANCH   7   9
ENDBRANCH   1   7
BRANCH   6  11
ATOM     11  C   UNL     1     131.707 123.892 140.371  1.00  0.00     0.338 C 
ATOM     12  O   UNL     1     131.298 124.100 141.545  1.00  0.00    -0.246 OA
BRANCH  11  13
ATOM     13  O   UNL     1     130.937 124.301 139.276  1.00  0.00    -0.465 OA
ATOM     14  C   UNL     1     130.403 125.615 139.162  1.00  0.00     0.282 C 
ENDBRANCH  11  13
ENDBRANCH   6  11
TORSDOF 4
ENDMDL
MODEL 9
REMARK VINA RESULT:    -4.615      1.871      4.392
REMARK INTER + INTRA:          -6.153
REMARK INTER:                  -5.795
REMARK INTRA:                  -0.358
REMARK UNBOUND:                -0.459
REMARK SMILES COC(=O)c1ccccc1C(=O)OC
REMARK SMILES IDX 5 1 6 2 7 3 8 4 9 5 10 6 3 7 4 8 2 9 1 10 11 11 12 12 13 13
REMARK SMILES IDX 14 14
REMARK H PARENT
REMARK Flexibility Score: inf
ROOT
ATOM      1  C   UNL     1     135.021 124.090 138.836  1.00  0.00     0.074 A 
ATOM      2  C   UNL     1     135.739 124.783 137.845  1.00  0.00     0.016 A 
ATOM      3  C   UNL     1     135.096 125.690 137.001  1.00  0.00     0.001 A 
ATOM      4  C   UNL     1     133.730 125.919 137.133  1.00  0.00     0.001 A 
ATOM      5  C   UNL     1     133.002 125.261 138.125  1.00  0.00     0.016 A 
ATOM      6  C   UNL     1     133.633 124.359 139.002  1.00  0.00     0.074 A 
ENDROOT
BRANCH   1   7
ATOM      7  C   UNL     1     135.742 123.061 139.620  1.00  0.00     0.338 C 
ATOM      8  O   UNL     1     135.621 121.839 139.331  1.00  0.00    -0.246 OA
BRANCH   7   9
ATOM      9  O   UNL     1     136.608 123.456 140.645  1.00  0.00    -0.465 OA
ATOM     10  C   UNL     1     136.187 124.270 141.733  1.00  0.00     0.282 C 
ENDBRANCH   7   9
ENDBRANCH   1   7
BRANCH   6  11
ATOM     11  C   UNL     1     132.825 123.783 140.101  1.00  0.00     0.338 C 
ATOM     12  O   UNL     1     132.419 122.591 140.037  1.00  0.00    -0.246 OA
BRANCH  11  13
ATOM     13  O   UNL     1     132.564 124.554 141.240  1.00  0.00    -0.465 OA
ATOM     14  C   UNL     1     131.245 124.905 141.641  1.00  0.00     0.282 C 
ENDBRANCH  11  13
ENDBRANCH   6  11
TORSDOF 4
ENDMDL
