MODEL 1
REMARK VINA RESULT:    -6.395      0.000      0.000
REMARK INTER + INTRA:         -13.483
REMARK INTER:                 -10.507
REMARK INTRA:                  -2.976
REMARK UNBOUND:                -2.976
REMARK SMILES C[C@H]1O[C@H](OC[C@H]2O[C@H](Oc3c(-c4ccc(O)c(O)c4)oc4cc(O)cc(O)c4c3=O)[C@H](O)[C@@H](O)[C@H]2O)[C@@H](O)[C@H](O)[C@H]1O
REMARK SMILES IDX 7 1 36 2 34 3 32 4 9 5 8 6 6 7 5 8 4 9 1 10 2 11 42 12 3 13
REMARK SMILES IDX 40 14 38 15 43 16 41 18 39 20 37 22 35 24 10 26 11 27 12 28
REMARK SMILES IDX 30 29 21 30 29 31 31 32 22 33 27 34 23 35 26 36 24 37 13 38
REMARK SMILES IDX 20 39 14 40 18 41 15 42 16 43 19 44 17 46 28 48 25 50 33 52
REMARK H PARENT 43 17 41 19 39 21 37 23 35 25 19 45 17 47 28 49 25 51 33 53
REMARK Flexibility Score: inf
ROOT
ATOM      1  C   UNL     1      19.943  33.213  32.516  1.00  0.00     0.180 C 
ATOM      2  C   UNL     1      19.632  34.620  31.802  1.00  0.00     0.177 C 
ATOM      3  C   UNL     1      18.573  34.535  30.715  1.00  0.00     0.180 C 
ATOM      4  C   UNL     1      18.740  33.221  29.981  1.00  0.00     0.214 C 
ATOM      5  C   UNL     1      18.411  32.111  31.011  1.00  0.00     0.339 C 
ATOM      6  O   UNL     1      19.317  31.981  32.086  1.00  0.00    -0.332 OA
ENDROOT
BRANCH   1   7
ATOM      7  C   UNL     1      20.127  33.260  34.100  1.00  0.00     0.198 C 
BRANCH   7   8
ATOM      8  O   UNL     1      19.157  32.508  34.843  1.00  0.00    -0.347 OA
BRANCH   8   9
ATOM      9  C   UNL     1      18.071  33.288  35.374  1.00  0.00     0.281 C 
ATOM     10  C   UNL     1      17.737  35.128  37.556  1.00  0.00     0.041 C 
ATOM     11  C   UNL     1      17.515  35.406  36.010  1.00  0.00     0.150 C 
ATOM     12  C   UNL     1      16.057  35.316  35.469  1.00  0.00     0.174 C 
ATOM     13  O   UNL     1      18.366  34.644  35.250  1.00  0.00    -0.344 OA
ATOM     14  C   UNL     1      15.729  34.004  34.698  1.00  0.00     0.179 C 
ATOM     15  C   UNL     1      16.888  33.048  34.422  1.00  0.00     0.202 C 
BRANCH  12  16
ATOM     16  O   UNL     1      15.097  35.384  36.557  1.00  0.00    -0.388 OA
ATOM     17  H   UNL     1      15.542  35.660  37.356  1.00  0.00     0.211 HD
ENDBRANCH  12  16
BRANCH  14  18
ATOM     18  O   UNL     1      15.171  34.349  33.446  1.00  0.00    -0.387 OA
ATOM     19  H   UNL     1      14.787  33.486  33.157  1.00  0.00     0.211 HD
ENDBRANCH  14  18
BRANCH  15  20
ATOM     20  O   UNL     1      16.449  31.702  34.475  1.00  0.00    -0.385 OA
ATOM     21  H   UNL     1      16.694  31.207  33.638  1.00  0.00     0.211 HD
ENDBRANCH  15  20
ENDBRANCH   8   9
ENDBRANCH   7   8
ENDBRANCH   1   7
BRANCH   2  22
ATOM     22  O   UNL     1      19.215  35.590  32.732  1.00  0.00    -0.387 OA
ATOM     23  H   UNL     1      18.503  36.091  32.252  1.00  0.00     0.211 HD
ENDBRANCH   2  22
BRANCH   3  24
ATOM     24  O   UNL     1      17.233  34.655  31.265  1.00  0.00    -0.387 OA
ATOM     25  H   UNL     1      17.235  34.750  32.296  1.00  0.00     0.211 HD
ENDBRANCH   3  24
BRANCH   5  26
ATOM     26  O   UNL     1      18.476  30.880  30.203  1.00  0.00    -0.454 OA
BRANCH  26  27
ATOM     27  C   UNL     1      18.354  29.561  30.743  1.00  0.00     0.214 A 
ATOM     28  C   UNL     1      19.057  28.424  30.209  1.00  0.00     0.180 A 
ATOM     29  C   UNL     1      17.834  29.385  32.017  1.00  0.00     0.239 A 
ATOM     30  O   UNL     1      19.925  27.836  31.023  1.00  0.00    -0.452 OA
ATOM     31  C   UNL     1      18.598  28.578  32.903  1.00  0.00     0.111 A 
ATOM     32  O   UNL     1      16.806  29.983  32.417  1.00  0.00    -0.285 OA
ATOM     33  C   UNL     1      19.699  27.849  32.354  1.00  0.00     0.146 A 
ATOM     34  C   UNL     1      18.392  28.495  34.284  1.00  0.00     0.134 A 
ATOM     35  C   UNL     1      20.513  27.055  33.222  1.00  0.00     0.094 A 
ATOM     36  C   UNL     1      19.267  27.809  35.124  1.00  0.00     0.093 A 
ATOM     37  C   UNL     1      20.263  26.995  34.608  1.00  0.00     0.123 A 
BRANCH  28  38
ATOM     38  C   UNL     1      18.313  27.371  29.450  1.00  0.00     0.025 A 
ATOM     39  C   UNL     1      18.914  26.190  29.030  1.00  0.00     0.062 A 
ATOM     40  C   UNL     1      17.476  27.888  28.491  1.00  0.00     0.016 A 
ATOM     41  C   UNL     1      19.708  26.290  27.913  1.00  0.00     0.158 A 
ATOM     42  C   UNL     1      18.127  28.013  27.230  1.00  0.00     0.051 A 
ATOM     43  C   UNL     1      19.354  27.332  26.975  1.00  0.00     0.157 A 
BRANCH  41  44
ATOM     44  O   UNL     1      20.759  25.342  27.705  1.00  0.00    -0.504 OA
ATOM     45  H   UNL     1      20.357  24.464  27.300  1.00  0.00     0.293 HD
ENDBRANCH  41  44
BRANCH  43  46
ATOM     46  O   UNL     1      20.145  27.681  25.847  1.00  0.00    -0.504 OA
ATOM     47  H   UNL     1      19.701  28.108  24.985  1.00  0.00     0.293 HD
ENDBRANCH  43  46
ENDBRANCH  28  38
BRANCH  34  48
ATOM     48  O   UNL     1      17.397  29.206  34.915  1.00  0.00    -0.507 OA
ATOM     49  H   UNL     1      17.502  29.517  35.927  1.00  0.00     0.293 HD
ENDBRANCH  34  48
BRANCH  37  50
ATOM     50  O   UNL     1      21.182  26.313  35.387  1.00  0.00    -0.508 OA
ATOM     51  H   UNL     1      21.965  25.927  34.827  1.00  0.00     0.293 HD
ENDBRANCH  37  50
ENDBRANCH  26  27
ENDBRANCH   5  26
BRANCH   4  52
ATOM     52  O   UNL     1      20.070  33.101  29.450  1.00  0.00    -0.384 OA
ATOM     53  H   UNL     1      20.661  33.232  30.238  1.00  0.00     0.211 HD
ENDBRANCH   4  52
TORSDOF 16
ENDMDL
MODEL 2
REMARK VINA RESULT:    -6.288      1.442      1.876
REMARK INTER + INTRA:         -13.309
REMARK INTER:                 -11.340
REMARK INTRA:                  -1.969
REMARK UNBOUND:                -2.976
REMARK SMILES C[C@H]1O[C@H](OC[C@H]2O[C@H](Oc3c(-c4ccc(O)c(O)c4)oc4cc(O)cc(O)c4c3=O)[C@H](O)[C@@H](O)[C@H]2O)[C@@H](O)[C@H](O)[C@H]1O
REMARK SMILES IDX 7 1 36 2 34 3 32 4 9 5 8 6 6 7 5 8 4 9 1 10 2 11 42 12 3 13
REMARK SMILES IDX 40 14 38 15 43 16 41 18 39 20 37 22 35 24 10 26 11 27 12 28
REMARK SMILES IDX 30 29 21 30 29 31 31 32 22 33 27 34 23 35 26 36 24 37 13 38
REMARK SMILES IDX 20 39 14 40 18 41 15 42 16 43 19 44 17 46 28 48 25 50 33 52
REMARK H PARENT 43 17 41 19 39 21 37 23 35 25 19 45 17 47 28 49 25 51 33 53
REMARK Flexibility Score: inf
ROOT
ATOM      1  C   UNL     1      18.104  34.354  31.699  1.00  0.00     0.180 C 
ATOM      2  C   UNL     1      18.545  35.334  30.503  1.00  0.00     0.177 C 
ATOM      3  C   UNL     1      19.097  34.608  29.287  1.00  0.00     0.180 C 
ATOM      4  C   UNL     1      19.905  33.419  29.761  1.00  0.00     0.214 C 
ATOM      5  C   UNL     1      18.895  32.456  30.434  1.00  0.00     0.339 C 
ATOM      6  O   UNL     1      18.302  32.922  31.629  1.00  0.00    -0.332 OA
ENDROOT
BRANCH   1   7
ATOM      7  C   UNL     1      16.740  34.725  32.437  1.00  0.00     0.198 C 
BRANCH   7   8
ATOM      8  O   UNL     1      16.221  33.701  33.299  1.00  0.00    -0.347 OA
BRANCH   8   9
ATOM      9  C   UNL     1      16.311  33.996  34.703  1.00  0.00     0.281 C 
ATOM     10  C   UNL     1      16.613  36.374  36.289  1.00  0.00     0.041 C 
ATOM     11  C   UNL     1      15.420  35.328  36.326  1.00  0.00     0.150 C 
ATOM     12  C   UNL     1      15.468  34.227  37.426  1.00  0.00     0.174 C 
ATOM     13  O   UNL     1      15.219  34.773  35.088  1.00  0.00    -0.344 OA
ATOM     14  C   UNL     1      15.926  32.825  36.925  1.00  0.00     0.179 C 
ATOM     15  C   UNL     1      16.115  32.650  35.419  1.00  0.00     0.202 C 
BRANCH  12  16
ATOM     16  O   UNL     1      16.397  34.591  38.482  1.00  0.00    -0.388 OA
ATOM     17  H   UNL     1      16.779  35.444  38.288  1.00  0.00     0.211 HD
ENDBRANCH  12  16
BRANCH  14  18
ATOM     18  O   UNL     1      14.970  31.869  37.336  1.00  0.00    -0.387 OA
ATOM     19  H   UNL     1      14.143  32.233  36.934  1.00  0.00     0.211 HD
ENDBRANCH  14  18
BRANCH  15  20
ATOM     20  O   UNL     1      17.185  31.762  35.150  1.00  0.00    -0.385 OA
ATOM     21  H   UNL     1      17.806  31.694  35.935  1.00  0.00     0.211 HD
ENDBRANCH  15  20
ENDBRANCH   8   9
ENDBRANCH   7   8
ENDBRANCH   1   7
BRANCH   2  22
ATOM     22  O   UNL     1      17.475  36.139  30.072  1.00  0.00    -0.387 OA
ATOM     23  H   UNL     1      16.668  35.661  30.403  1.00  0.00     0.211 HD
ENDBRANCH   2  22
BRANCH   3  24
ATOM     24  O   UNL     1      18.034  34.187  28.389  1.00  0.00    -0.387 OA
ATOM     25  H   UNL     1      17.246  33.742  28.890  1.00  0.00     0.211 HD
ENDBRANCH   3  24
BRANCH   5  26
ATOM     26  O   UNL     1      19.723  31.281  30.761  1.00  0.00    -0.454 OA
BRANCH  26  27
ATOM     27  C   UNL     1      19.197  29.975  31.008  1.00  0.00     0.214 A 
ATOM     28  C   UNL     1      19.480  28.840  30.168  1.00  0.00     0.180 A 
ATOM     29  C   UNL     1      18.684  29.666  32.258  1.00  0.00     0.239 A 
ATOM     30  O   UNL     1      20.134  27.837  30.739  1.00  0.00    -0.452 OA
ATOM     31  C   UNL     1      19.170  28.475  32.862  1.00  0.00     0.111 A 
ATOM     32  O   UNL     1      17.914  30.436  32.884  1.00  0.00    -0.285 OA
ATOM     33  C   UNL     1      19.962  27.597  32.056  1.00  0.00     0.146 A 
ATOM     34  C   UNL     1      18.987  28.129  34.205  1.00  0.00     0.134 A 
ATOM     35  C   UNL     1      20.499  26.407  32.640  1.00  0.00     0.094 A 
ATOM     36  C   UNL     1      19.616  27.027  34.780  1.00  0.00     0.093 A 
ATOM     37  C   UNL     1      20.282  26.096  33.998  1.00  0.00     0.123 A 
BRANCH  28  38
ATOM     38  C   UNL     1      18.416  28.282  29.277  1.00  0.00     0.025 A 
ATOM     39  C   UNL     1      18.393  26.947  28.890  1.00  0.00     0.062 A 
ATOM     40  C   UNL     1      18.085  29.121  28.241  1.00  0.00     0.016 A 
ATOM     41  C   UNL     1      19.268  26.602  27.889  1.00  0.00     0.158 A 
ATOM     42  C   UNL     1      18.870  28.865  27.080  1.00  0.00     0.051 A 
ATOM     43  C   UNL     1      19.611  27.653  26.956  1.00  0.00     0.157 A 
BRANCH  41  44
ATOM     44  O   UNL     1      19.718  25.249  27.778  1.00  0.00    -0.504 OA
ATOM     45  H   UNL     1      18.972  24.606  28.132  1.00  0.00     0.293 HD
ENDBRANCH  41  44
BRANCH  43  46
ATOM     46  O   UNL     1      20.611  27.524  25.954  1.00  0.00    -0.504 OA
ATOM     47  H   UNL     1      20.981  28.377  25.446  1.00  0.00     0.293 HD
ENDBRANCH  43  46
ENDBRANCH  28  38
BRANCH  34  48
ATOM     48  O   UNL     1      18.292  28.937  35.077  1.00  0.00    -0.507 OA
ATOM     49  H   UNL     1      18.681  29.879  35.380  1.00  0.00     0.293 HD
ENDBRANCH  34  48
BRANCH  37  50
ATOM     50  O   UNL     1      20.953  24.998  34.509  1.00  0.00    -0.508 OA
ATOM     51  H   UNL     1      20.708  24.120  34.014  1.00  0.00     0.293 HD
ENDBRANCH  37  50
ENDBRANCH  26  27
ENDBRANCH   5  26
BRANCH   4  52
ATOM     52  O   UNL     1      20.947  33.838  30.659  1.00  0.00    -0.384 OA
ATOM     53  H   UNL     1      21.669  34.166  30.059  1.00  0.00     0.211 HD
ENDBRANCH   4  52
TORSDOF 16
ENDMDL
MODEL 3
REMARK VINA RESULT:    -6.142      1.862      7.118
REMARK INTER + INTRA:         -13.068
REMARK INTER:                  -9.959
REMARK INTRA:                  -3.109
REMARK UNBOUND:                -2.976
REMARK SMILES C[C@H]1O[C@H](OC[C@H]2O[C@H](Oc3c(-c4ccc(O)c(O)c4)oc4cc(O)cc(O)c4c3=O)[C@H](O)[C@@H](O)[C@H]2O)[C@@H](O)[C@H](O)[C@H]1O
REMARK SMILES IDX 7 1 36 2 34 3 32 4 9 5 8 6 6 7 5 8 4 9 1 10 2 11 42 12 3 13
REMARK SMILES IDX 40 14 38 15 43 16 41 18 39 20 37 22 35 24 10 26 11 27 12 28
REMARK SMILES IDX 30 29 21 30 29 31 31 32 22 33 27 34 23 35 26 36 24 37 13 38
REMARK SMILES IDX 20 39 14 40 18 41 15 42 16 43 19 44 17 46 28 48 25 50 33 52
REMARK H PARENT 43 17 41 19 39 21 37 23 35 25 19 45 17 47 28 49 25 51 33 53
REMARK Flexibility Score: inf
ROOT
ATOM      1  C   UNL     1      19.203  32.698  29.200  1.00  0.00     0.180 C 
ATOM      2  C   UNL     1      20.781  32.877  29.455  1.00  0.00     0.177 C 
ATOM      3  C   UNL     1      21.172  32.851  30.923  1.00  0.00     0.180 C 
ATOM      4  C   UNL     1      20.091  33.550  31.722  1.00  0.00     0.214 C 
ATOM      5  C   UNL     1      18.822  32.672  31.584  1.00  0.00     0.339 C 
ATOM      6  O   UNL     1      18.256  32.607  30.291  1.00  0.00    -0.332 OA
ENDROOT
BRANCH   1   7
ATOM      7  C   UNL     1      18.795  31.749  27.985  1.00  0.00     0.198 C 
BRANCH   7   8
ATOM      8  O   UNL     1      18.285  30.464  28.366  1.00  0.00    -0.347 OA
BRANCH   8   9
ATOM      9  C   UNL     1      19.129  29.354  28.014  1.00  0.00     0.281 C 
ATOM     10  C   UNL     1      21.896  29.018  27.313  1.00  0.00     0.041 C 
ATOM     11  C   UNL     1      21.118  28.366  28.533  1.00  0.00     0.150 C 
ATOM     12  C   UNL     1      20.584  26.914  28.346  1.00  0.00     0.174 C 
ATOM     13  O   UNL     1      20.123  29.198  28.979  1.00  0.00    -0.344 OA
ATOM     14  C   UNL     1      19.057  26.815  28.057  1.00  0.00     0.179 C 
ATOM     15  C   UNL     1      18.244  28.104  28.148  1.00  0.00     0.202 C 
BRANCH  12  16
ATOM     16  O   UNL     1      21.241  26.261  27.227  1.00  0.00    -0.388 OA
ATOM     17  H   UNL     1      20.691  26.335  26.449  1.00  0.00     0.211 HD
ENDBRANCH  12  16
BRANCH  14  18
ATOM     18  O   UNL     1      18.488  25.901  28.973  1.00  0.00    -0.387 OA
ATOM     19  H   UNL     1      17.995  25.297  28.366  1.00  0.00     0.211 HD
ENDBRANCH  14  18
BRANCH  15  20
ATOM     20  O   UNL     1      17.201  28.106  27.189  1.00  0.00    -0.385 OA
ATOM     21  H   UNL     1      17.358  27.413  26.482  1.00  0.00     0.211 HD
ENDBRANCH  15  20
ENDBRANCH   8   9
ENDBRANCH   7   8
ENDBRANCH   1   7
BRANCH   2  22
ATOM     22  O   UNL     1      21.526  31.882  28.796  1.00  0.00    -0.387 OA
ATOM     23  H   UNL     1      21.199  31.033  29.196  1.00  0.00     0.211 HD
ENDBRANCH   2  22
BRANCH   3  24
ATOM     24  O   UNL     1      21.370  31.492  31.400  1.00  0.00    -0.387 OA
ATOM     25  H   UNL     1      22.197  31.040  30.973  1.00  0.00     0.211 HD
ENDBRANCH   3  24
BRANCH   5  26
ATOM     26  O   UNL     1      17.857  33.343  32.474  1.00  0.00    -0.454 OA
BRANCH  26  27
ATOM     27  C   UNL     1      17.244  32.718  33.605  1.00  0.00     0.214 A 
ATOM     28  C   UNL     1      17.771  31.533  34.231  1.00  0.00     0.180 A 
ATOM     29  C   UNL     1      16.322  33.422  34.364  1.00  0.00     0.239 A 
ATOM     30  O   UNL     1      18.161  31.661  35.492  1.00  0.00    -0.452 OA
ATOM     31  C   UNL     1      16.539  33.432  35.769  1.00  0.00     0.111 A 
ATOM     32  O   UNL     1      15.404  34.107  33.851  1.00  0.00    -0.285 OA
ATOM     33  C   UNL     1      17.538  32.552  36.292  1.00  0.00     0.146 A 
ATOM     34  C   UNL     1      15.894  34.286  36.669  1.00  0.00     0.134 A 
ATOM     35  C   UNL     1      17.809  32.561  37.697  1.00  0.00     0.094 A 
ATOM     36  C   UNL     1      16.257  34.359  38.013  1.00  0.00     0.093 A 
ATOM     37  C   UNL     1      17.128  33.434  38.568  1.00  0.00     0.123 A 
BRANCH  28  38
ATOM     38  C   UNL     1      17.066  30.223  34.070  1.00  0.00     0.025 A 
ATOM     39  C   UNL     1      17.533  29.050  34.652  1.00  0.00     0.062 A 
ATOM     40  C   UNL     1      16.603  30.013  32.794  1.00  0.00     0.016 A 
ATOM     41  C   UNL     1      18.587  28.445  34.010  1.00  0.00     0.158 A 
ATOM     42  C   UNL     1      17.562  29.335  31.987  1.00  0.00     0.051 A 
ATOM     43  C   UNL     1      18.671  28.667  32.583  1.00  0.00     0.157 A 
BRANCH  41  44
ATOM     44  O   UNL     1      19.469  27.594  34.746  1.00  0.00    -0.504 OA
ATOM     45  H   UNL     1      19.711  28.051  35.656  1.00  0.00     0.293 HD
ENDBRANCH  41  44
BRANCH  43  46
ATOM     46  O   UNL     1      19.770  28.250  31.783  1.00  0.00    -0.504 OA
ATOM     47  H   UNL     1      20.340  27.397  32.048  1.00  0.00     0.293 HD
ENDBRANCH  43  46
ENDBRANCH  28  38
BRANCH  34  48
ATOM     48  O   UNL     1      14.962  35.210  36.256  1.00  0.00    -0.507 OA
ATOM     49  H   UNL     1      15.225  35.993  35.586  1.00  0.00     0.293 HD
ENDBRANCH  34  48
BRANCH  37  50
ATOM     50  O   UNL     1      17.552  33.470  39.886  1.00  0.00    -0.508 OA
ATOM     51  H   UNL     1      17.716  32.522  40.274  1.00  0.00     0.293 HD
ENDBRANCH  37  50
ENDBRANCH  26  27
ENDBRANCH   5  26
BRANCH   4  52
ATOM     52  O   UNL     1      19.889  34.889  31.240  1.00  0.00    -0.384 OA
ATOM     53  H   UNL     1      19.004  35.150  31.608  1.00  0.00     0.211 HD
ENDBRANCH   4  52
TORSDOF 16
ENDMDL
MODEL 4
REMARK VINA RESULT:    -5.842      2.227      4.980
REMARK INTER + INTRA:         -12.575
REMARK INTER:                  -9.328
REMARK INTRA:                  -3.247
REMARK UNBOUND:                -2.976
REMARK SMILES C[C@H]1O[C@H](OC[C@H]2O[C@H](Oc3c(-c4ccc(O)c(O)c4)oc4cc(O)cc(O)c4c3=O)[C@H](O)[C@@H](O)[C@H]2O)[C@@H](O)[C@H](O)[C@H]1O
REMARK SMILES IDX 7 1 36 2 34 3 32 4 9 5 8 6 6 7 5 8 4 9 1 10 2 11 42 12 3 13
REMARK SMILES IDX 40 14 38 15 43 16 41 18 39 20 37 22 35 24 10 26 11 27 12 28
REMARK SMILES IDX 30 29 21 30 29 31 31 32 22 33 27 34 23 35 26 36 24 37 13 38
REMARK SMILES IDX 20 39 14 40 18 41 15 42 16 43 19 44 17 46 28 48 25 50 33 52
REMARK H PARENT 43 17 41 19 39 21 37 23 35 25 19 45 17 47 28 49 25 51 33 53
REMARK Flexibility Score: inf
ROOT
ATOM      1  C   UNL     1      19.096  28.668  35.085  1.00  0.00     0.180 C 
ATOM      2  C   UNL     1      20.052  29.069  36.314  1.00  0.00     0.177 C 
ATOM      3  C   UNL     1      21.475  29.409  35.900  1.00  0.00     0.180 C 
ATOM      4  C   UNL     1      21.879  28.491  34.765  1.00  0.00     0.214 C 
ATOM      5  C   UNL     1      20.966  28.861  33.569  1.00  0.00     0.339 C 
ATOM      6  O   UNL     1      19.593  28.568  33.729  1.00  0.00    -0.332 OA
ENDROOT
BRANCH   1   7
ATOM      7  C   UNL     1      17.617  29.262  35.129  1.00  0.00     0.198 C 
BRANCH   7   8
ATOM      8  O   UNL     1      17.323  30.227  34.109  1.00  0.00    -0.347 OA
BRANCH   8   9
ATOM      9  C   UNL     1      17.412  31.598  34.535  1.00  0.00     0.281 C 
ATOM     10  C   UNL     1      15.790  33.368  36.114  1.00  0.00     0.041 C 
ATOM     11  C   UNL     1      17.287  32.921  36.389  1.00  0.00     0.150 C 
ATOM     12  C   UNL     1      18.418  33.886  35.924  1.00  0.00     0.174 C 
ATOM     13  O   UNL     1      17.510  31.649  35.924  1.00  0.00    -0.344 OA
ATOM     14  C   UNL     1      19.134  33.464  34.607  1.00  0.00     0.179 C 
ATOM     15  C   UNL     1      18.770  32.101  34.020  1.00  0.00     0.202 C 
BRANCH  12  16
ATOM     16  O   UNL     1      17.893  35.217  35.678  1.00  0.00    -0.388 OA
ATOM     17  H   UNL     1      17.712  35.320  34.745  1.00  0.00     0.211 HD
ENDBRANCH  12  16
BRANCH  14  18
ATOM     18  O   UNL     1      20.528  33.455  34.840  1.00  0.00    -0.387 OA
ATOM     19  H   UNL     1      20.605  32.766  35.545  1.00  0.00     0.211 HD
ENDBRANCH  14  18
BRANCH  15  20
ATOM     20  O   UNL     1      18.802  32.143  32.605  1.00  0.00    -0.385 OA
ATOM     21  H   UNL     1      19.743  32.215  32.265  1.00  0.00     0.211 HD
ENDBRANCH  15  20
ENDBRANCH   8   9
ENDBRANCH   7   8
ENDBRANCH   1   7
BRANCH   2  22
ATOM     22  O   UNL     1      19.540  30.166  37.030  1.00  0.00    -0.387 OA
ATOM     23  H   UNL     1      20.346  30.586  37.433  1.00  0.00     0.211 HD
ENDBRANCH   2  22
BRANCH   3  24
ATOM     24  O   UNL     1      21.597  30.803  35.506  1.00  0.00    -0.387 OA
ATOM     25  H   UNL     1      22.524  31.200  35.737  1.00  0.00     0.211 HD
ENDBRANCH   3  24
BRANCH   5  26
ATOM     26  O   UNL     1      21.491  28.021  32.478  1.00  0.00    -0.454 OA
BRANCH  26  27
ATOM     27  C   UNL     1      20.694  27.112  31.713  1.00  0.00     0.214 A 
ATOM     28  C   UNL     1      20.152  27.439  30.419  1.00  0.00     0.180 A 
ATOM     29  C   UNL     1      20.705  25.761  32.021  1.00  0.00     0.239 A 
ATOM     30  O   UNL     1      20.578  26.702  29.402  1.00  0.00    -0.452 OA
ATOM     31  C   UNL     1      20.940  24.870  30.939  1.00  0.00     0.111 A 
ATOM     32  O   UNL     1      20.621  25.334  33.198  1.00  0.00    -0.285 OA
ATOM     33  C   UNL     1      20.924  25.414  29.616  1.00  0.00     0.146 A 
ATOM     34  C   UNL     1      21.249  23.513  31.076  1.00  0.00     0.134 A 
ATOM     35  C   UNL     1      21.193  24.555  28.505  1.00  0.00     0.094 A 
ATOM     36  C   UNL     1      21.622  22.724  29.989  1.00  0.00     0.093 A 
ATOM     37  C   UNL     1      21.494  23.190  28.690  1.00  0.00     0.123 A 
BRANCH  28  38
ATOM     38  C   UNL     1      18.685  27.683  30.261  1.00  0.00     0.025 A 
ATOM     39  C   UNL     1      18.015  27.444  29.067  1.00  0.00     0.062 A 
ATOM     40  C   UNL     1      18.264  28.846  30.860  1.00  0.00     0.016 A 
ATOM     41  C   UNL     1      18.175  28.398  28.092  1.00  0.00     0.158 A 
ATOM     42  C   UNL     1      18.312  29.952  29.963  1.00  0.00     0.051 A 
ATOM     43  C   UNL     1      18.431  29.743  28.557  1.00  0.00     0.157 A 
BRANCH  41  44
ATOM     44  O   UNL     1      18.009  28.040  26.717  1.00  0.00    -0.504 OA
ATOM     45  H   UNL     1      18.852  27.512  26.393  1.00  0.00     0.293 HD
ENDBRANCH  41  44
BRANCH  43  46
ATOM     46  O   UNL     1      18.772  30.824  27.700  1.00  0.00    -0.504 OA
ATOM     47  H   UNL     1      19.782  31.118  27.573  1.00  0.00     0.293 HD
ENDBRANCH  43  46
ENDBRANCH  28  38
BRANCH  34  48
ATOM     48  O   UNL     1      21.348  22.909  32.309  1.00  0.00    -0.507 OA
ATOM     49  H   UNL     1      21.116  23.441  33.200  1.00  0.00     0.293 HD
ENDBRANCH  34  48
BRANCH  37  50
ATOM     50  O   UNL     1      21.874  22.469  27.571  1.00  0.00    -0.508 OA
ATOM     51  H   UNL     1      22.604  21.764  27.784  1.00  0.00     0.293 HD
ENDBRANCH  37  50
ENDBRANCH  26  27
ENDBRANCH   5  26
BRANCH   4  52
ATOM     52  O   UNL     1      21.745  27.114  35.154  1.00  0.00    -0.384 OA
ATOM     53  H   UNL     1      22.674  26.763  35.136  1.00  0.00     0.211 HD
ENDBRANCH   4  52
TORSDOF 16
ENDMDL
MODEL 5
REMARK VINA RESULT:    -5.786      2.215      6.346
REMARK INTER + INTRA:         -12.484
REMARK INTER:                  -9.183
REMARK INTRA:                  -3.301
REMARK UNBOUND:                -2.976
REMARK SMILES C[C@H]1O[C@H](OC[C@H]2O[C@H](Oc3c(-c4ccc(O)c(O)c4)oc4cc(O)cc(O)c4c3=O)[C@H](O)[C@@H](O)[C@H]2O)[C@@H](O)[C@H](O)[C@H]1O
REMARK SMILES IDX 7 1 36 2 34 3 32 4 9 5 8 6 6 7 5 8 4 9 1 10 2 11 42 12 3 13
REMARK SMILES IDX 40 14 38 15 43 16 41 18 39 20 37 22 35 24 10 26 11 27 12 28
REMARK SMILES IDX 30 29 21 30 29 31 31 32 22 33 27 34 23 35 26 36 24 37 13 38
REMARK SMILES IDX 20 39 14 40 18 41 15 42 16 43 19 44 17 46 28 48 25 50 33 52
REMARK H PARENT 43 17 41 19 39 21 37 23 35 25 19 45 17 47 28 49 25 51 33 53
REMARK Flexibility Score: inf
ROOT
ATOM      1  C   UNL     1      17.960  29.475  32.596  1.00  0.00     0.180 C 
ATOM      2  C   UNL     1      18.601  28.478  33.682  1.00  0.00     0.177 C 
ATOM      3  C   UNL     1      20.119  28.423  33.645  1.00  0.00     0.180 C 
ATOM      4  C   UNL     1      20.570  28.521  32.202  1.00  0.00     0.214 C 
ATOM      5  C   UNL     1      20.162  29.937  31.722  1.00  0.00     0.339 C 
ATOM      6  O   UNL     1      18.774  30.180  31.629  1.00  0.00    -0.332 OA
ENDROOT
BRANCH   1   7
ATOM      7  C   UNL     1      16.740  30.369  33.103  1.00  0.00     0.198 C 
BRANCH   7   8
ATOM      8  O   UNL     1      17.011  31.776  33.174  1.00  0.00    -0.347 OA
BRANCH   8   9
ATOM      9  C   UNL     1      17.277  32.270  34.498  1.00  0.00     0.281 C 
ATOM     10  C   UNL     1      15.684  33.009  36.774  1.00  0.00     0.041 C 
ATOM     11  C   UNL     1      16.801  31.885  36.695  1.00  0.00     0.150 C 
ATOM     12  C   UNL     1      18.228  32.259  37.195  1.00  0.00     0.174 C 
ATOM     13  O   UNL     1      16.852  31.334  35.440  1.00  0.00    -0.344 OA
ATOM     14  C   UNL     1      19.256  32.558  36.064  1.00  0.00     0.179 C 
ATOM     15  C   UNL     1      18.808  32.300  34.627  1.00  0.00     0.202 C 
BRANCH  12  16
ATOM     16  O   UNL     1      18.191  33.454  38.020  1.00  0.00    -0.388 OA
ATOM     17  H   UNL     1      17.324  33.542  38.412  1.00  0.00     0.211 HD
ENDBRANCH  12  16
BRANCH  14  18
ATOM     18  O   UNL     1      20.408  31.769  36.287  1.00  0.00    -0.387 OA
ATOM     19  H   UNL     1      20.504  31.835  37.268  1.00  0.00     0.211 HD
ENDBRANCH  14  18
BRANCH  15  20
ATOM     20  O   UNL     1      19.381  33.250  33.747  1.00  0.00    -0.385 OA
ATOM     21  H   UNL     1      18.680  33.693  33.184  1.00  0.00     0.211 HD
ENDBRANCH  15  20
ENDBRANCH   8   9
ENDBRANCH   7   8
ENDBRANCH   1   7
BRANCH   2  22
ATOM     22  O   UNL     1      18.217  28.824  34.991  1.00  0.00    -0.387 OA
ATOM     23  H   UNL     1      17.844  29.741  34.897  1.00  0.00     0.211 HD
ENDBRANCH   2  22
BRANCH   3  24
ATOM     24  O   UNL     1      20.711  29.483  34.445  1.00  0.00    -0.387 OA
ATOM     25  H   UNL     1      19.999  30.091  34.886  1.00  0.00     0.211 HD
ENDBRANCH   3  24
BRANCH   5  26
ATOM     26  O   UNL     1      20.732  30.003  30.364  1.00  0.00    -0.454 OA
BRANCH  26  27
ATOM     27  C   UNL     1      19.974  30.315  29.192  1.00  0.00     0.214 A 
ATOM     28  C   UNL     1      19.962  31.623  28.589  1.00  0.00     0.180 A 
ATOM     29  C   UNL     1      19.503  29.291  28.386  1.00  0.00     0.239 A 
ATOM     30  O   UNL     1      20.441  31.702  27.354  1.00  0.00    -0.452 OA
ATOM     31  C   UNL     1      19.784  29.403  26.996  1.00  0.00     0.111 A 
ATOM     32  O   UNL     1      18.952  28.263  28.849  1.00  0.00    -0.285 OA
ATOM     33  C   UNL     1      20.321  30.643  26.526  1.00  0.00     0.146 A 
ATOM     34  C   UNL     1      19.633  28.370  26.067  1.00  0.00     0.134 A 
ATOM     35  C   UNL     1      20.650  30.780  25.141  1.00  0.00     0.094 A 
ATOM     36  C   UNL     1      20.070  28.489  24.748  1.00  0.00     0.093 A 
ATOM     37  C   UNL     1      20.475  29.712  24.238  1.00  0.00     0.123 A 
BRANCH  28  38
ATOM     38  C   UNL     1      18.745  32.485  28.694  1.00  0.00     0.025 A 
ATOM     39  C   UNL     1      18.471  33.502  27.786  1.00  0.00     0.062 A 
ATOM     40  C   UNL     1      18.461  32.862  29.984  1.00  0.00     0.016 A 
ATOM     41  C   UNL     1      19.184  34.663  27.959  1.00  0.00     0.158 A 
ATOM     42  C   UNL     1      19.084  34.096  30.327  1.00  0.00     0.051 A 
ATOM     43  C   UNL     1      19.606  34.952  29.312  1.00  0.00     0.157 A 
BRANCH  41  44
ATOM     44  O   UNL     1      19.398  35.535  26.845  1.00  0.00    -0.504 OA
ATOM     45  H   UNL     1      19.201  36.521  27.135  1.00  0.00     0.293 HD
ENDBRANCH  41  44
BRANCH  43  46
ATOM     46  O   UNL     1      20.476  36.022  29.656  1.00  0.00    -0.504 OA
ATOM     47  H   UNL     1      20.205  36.722  30.404  1.00  0.00     0.293 HD
ENDBRANCH  43  46
ENDBRANCH  28  38
BRANCH  34  48
ATOM     48  O   UNL     1      19.181  27.122  26.431  1.00  0.00    -0.507 OA
ATOM     49  H   UNL     1      18.214  26.990  26.854  1.00  0.00     0.293 HD
ENDBRANCH  34  48
BRANCH  37  50
ATOM     50  O   UNL     1      20.948  29.891  22.949  1.00  0.00    -0.508 OA
ATOM     51  H   UNL     1      21.388  30.820  22.815  1.00  0.00     0.293 HD
ENDBRANCH  37  50
ENDBRANCH  26  27
ENDBRANCH   5  26
BRANCH   4  52
ATOM     52  O   UNL     1      19.972  27.479  31.412  1.00  0.00    -0.384 OA
ATOM     53  H   UNL     1      19.072  27.833  31.182  1.00  0.00     0.211 HD
ENDBRANCH   4  52
TORSDOF 16
ENDMDL
MODEL 6
REMARK VINA RESULT:    -5.765      1.806      5.985
REMARK INTER + INTRA:         -12.449
REMARK INTER:                  -9.497
REMARK INTRA:                  -2.953
REMARK UNBOUND:                -2.976
REMARK SMILES C[C@H]1O[C@H](OC[C@H]2O[C@H](Oc3c(-c4ccc(O)c(O)c4)oc4cc(O)cc(O)c4c3=O)[C@H](O)[C@@H](O)[C@H]2O)[C@@H](O)[C@H](O)[C@H]1O
REMARK SMILES IDX 7 1 36 2 34 3 32 4 9 5 8 6 6 7 5 8 4 9 1 10 2 11 42 12 3 13
REMARK SMILES IDX 40 14 38 15 43 16 41 18 39 20 37 22 35 24 10 26 11 27 12 28
REMARK SMILES IDX 30 29 21 30 29 31 31 32 22 33 27 34 23 35 26 36 24 37 13 38
REMARK SMILES IDX 20 39 14 40 18 41 15 42 16 43 19 44 17 46 28 48 25 50 33 52
REMARK H PARENT 43 17 41 19 39 21 37 23 35 25 19 45 17 47 28 49 25 51 33 53
REMARK Flexibility Score: inf
ROOT
ATOM      1  C   UNL     1      18.137  28.796  34.412  1.00  0.00     0.180 C 
ATOM      2  C   UNL     1      19.400  28.455  35.347  1.00  0.00     0.177 C 
ATOM      3  C   UNL     1      20.725  28.426  34.602  1.00  0.00     0.180 C 
ATOM      4  C   UNL     1      20.493  27.833  33.229  1.00  0.00     0.214 C 
ATOM      5  C   UNL     1      19.581  28.836  32.478  1.00  0.00     0.339 C 
ATOM      6  O   UNL     1      18.269  28.972  32.982  1.00  0.00    -0.332 OA
ENDROOT
BRANCH   1   7
ATOM      7  C   UNL     1      17.059  29.793  35.033  1.00  0.00     0.198 C 
BRANCH   7   8
ATOM      8  O   UNL     1      17.607  30.871  35.806  1.00  0.00    -0.347 OA
BRANCH   8   9
ATOM      9  C   UNL     1      17.605  32.147  35.143  1.00  0.00     0.281 C 
ATOM     10  C   UNL     1      15.748  33.611  33.510  1.00  0.00     0.041 C 
ATOM     11  C   UNL     1      16.372  34.051  34.901  1.00  0.00     0.150 C 
ATOM     12  C   UNL     1      17.612  34.993  34.863  1.00  0.00     0.174 C 
ATOM     13  O   UNL     1      16.614  32.958  35.694  1.00  0.00    -0.344 OA
ATOM     14  C   UNL     1      18.975  34.287  35.122  1.00  0.00     0.179 C 
ATOM     15  C   UNL     1      18.932  32.817  35.536  1.00  0.00     0.202 C 
BRANCH  12  16
ATOM     16  O   UNL     1      17.738  35.630  33.564  1.00  0.00    -0.388 OA
ATOM     17  H   UNL     1      18.581  36.076  33.510  1.00  0.00     0.211 HD
ENDBRANCH  12  16
BRANCH  14  18
ATOM     18  O   UNL     1      19.653  34.985  36.147  1.00  0.00    -0.387 OA
ATOM     19  H   UNL     1      19.352  34.494  36.951  1.00  0.00     0.211 HD
ENDBRANCH  14  18
BRANCH  15  20
ATOM     20  O   UNL     1      20.041  32.115  35.002  1.00  0.00    -0.385 OA
ATOM     21  H   UNL     1      20.797  32.077  35.659  1.00  0.00     0.211 HD
ENDBRANCH  15  20
ENDBRANCH   8   9
ENDBRANCH   7   8
ENDBRANCH   1   7
BRANCH   2  22
ATOM     22  O   UNL     1      19.524  29.375  36.404  1.00  0.00    -0.387 OA
ATOM     23  H   UNL     1      19.129  28.900  37.183  1.00  0.00     0.211 HD
ENDBRANCH   2  22
BRANCH   3  24
ATOM     24  O   UNL     1      21.310  29.753  34.501  1.00  0.00    -0.387 OA
ATOM     25  H   UNL     1      21.235  30.287  35.384  1.00  0.00     0.211 HD
ENDBRANCH   3  24
BRANCH   5  26
ATOM     26  O   UNL     1      19.497  28.258  31.125  1.00  0.00    -0.454 OA
BRANCH  26  27
ATOM     27  C   UNL     1      19.114  28.998  29.962  1.00  0.00     0.214 A 
ATOM     28  C   UNL     1      19.502  30.366  29.736  1.00  0.00     0.180 A 
ATOM     29  C   UNL     1      18.654  28.325  28.840  1.00  0.00     0.239 A 
ATOM     30  O   UNL     1      20.266  30.591  28.675  1.00  0.00    -0.452 OA
ATOM     31  C   UNL     1      19.272  28.664  27.605  1.00  0.00     0.111 A 
ATOM     32  O   UNL     1      17.817  27.392  28.906  1.00  0.00    -0.285 OA
ATOM     33  C   UNL     1      20.139  29.801  27.587  1.00  0.00     0.146 A 
ATOM     34  C   UNL     1      19.144  27.928  26.422  1.00  0.00     0.134 A 
ATOM     35  C   UNL     1      20.806  30.150  26.371  1.00  0.00     0.094 A 
ATOM     36  C   UNL     1      19.895  28.219  25.284  1.00  0.00     0.093 A 
ATOM     37  C   UNL     1      20.642  29.383  25.200  1.00  0.00     0.123 A 
BRANCH  28  38
ATOM     38  C   UNL     1      18.490  31.461  29.846  1.00  0.00     0.025 A 
ATOM     39  C   UNL     1      18.514  32.584  29.027  1.00  0.00     0.062 A 
ATOM     40  C   UNL     1      18.183  31.783  31.146  1.00  0.00     0.016 A 
ATOM     41  C   UNL     1      19.438  33.544  29.360  1.00  0.00     0.158 A 
ATOM     42  C   UNL     1      19.021  32.820  31.648  1.00  0.00     0.051 A 
ATOM     43  C   UNL     1      19.795  33.622  30.760  1.00  0.00     0.157 A 
BRANCH  41  44
ATOM     44  O   UNL     1      19.925  34.437  28.354  1.00  0.00    -0.504 OA
ATOM     45  H   UNL     1      19.833  35.423  28.693  1.00  0.00     0.293 HD
ENDBRANCH  41  44
BRANCH  43  46
ATOM     46  O   UNL     1      20.839  34.445  31.263  1.00  0.00    -0.504 OA
ATOM     47  H   UNL     1      21.287  35.186  30.653  1.00  0.00     0.293 HD
ENDBRANCH  43  46
ENDBRANCH  28  38
BRANCH  34  48
ATOM     48  O   UNL     1      18.382  26.785  26.354  1.00  0.00    -0.507 OA
ATOM     49  H   UNL     1      17.709  26.526  27.136  1.00  0.00     0.293 HD
ENDBRANCH  34  48
BRANCH  37  50
ATOM     50  O   UNL     1      21.432  29.714  24.112  1.00  0.00    -0.508 OA
ATOM     51  H   UNL     1      22.169  29.008  23.928  1.00  0.00     0.293 HD
ENDBRANCH  37  50
ENDBRANCH  26  27
ENDBRANCH   5  26
BRANCH   4  52
ATOM     52  O   UNL     1      19.902  26.526  33.333  1.00  0.00    -0.384 OA
ATOM     53  H   UNL     1      20.271  26.028  32.556  1.00  0.00     0.211 HD
ENDBRANCH   4  52
TORSDOF 16
ENDMDL
MODEL 7
REMARK VINA RESULT:    -5.604      2.043      6.932
REMARK INTER + INTRA:         -12.185
REMARK INTER:                 -10.439
REMARK INTRA:                  -1.745
REMARK UNBOUND:                -2.976
REMARK SMILES C[C@H]1O[C@H](OC[C@H]2O[C@H](Oc3c(-c4ccc(O)c(O)c4)oc4cc(O)cc(O)c4c3=O)[C@H](O)[C@@H](O)[C@H]2O)[C@@H](O)[C@H](O)[C@H]1O
REMARK SMILES IDX 7 1 36 2 34 3 32 4 9 5 8 6 6 7 5 8 4 9 1 10 2 11 42 12 3 13
REMARK SMILES IDX 40 14 38 15 43 16 41 18 39 20 37 22 35 24 10 26 11 27 12 28
REMARK SMILES IDX 30 29 21 30 29 31 31 32 22 33 27 34 23 35 26 36 24 37 13 38
REMARK SMILES IDX 20 39 14 40 18 41 15 42 16 43 19 44 17 46 28 48 25 50 33 52
REMARK H PARENT 43 17 41 19 39 21 37 23 35 25 19 45 17 47 28 49 25 51 33 53
REMARK Flexibility Score: inf
ROOT
ATOM      1  C   UNL     1      18.561  32.958  30.396  1.00  0.00     0.180 C 
ATOM      2  C   UNL     1      19.133  34.406  29.991  1.00  0.00     0.177 C 
ATOM      3  C   UNL     1      19.259  35.365  31.163  1.00  0.00     0.180 C 
ATOM      4  C   UNL     1      18.092  35.138  32.101  1.00  0.00     0.214 C 
ATOM      5  C   UNL     1      18.275  33.710  32.672  1.00  0.00     0.339 C 
ATOM      6  O   UNL     1      18.136  32.653  31.746  1.00  0.00    -0.332 OA
ENDROOT
BRANCH   1   7
ATOM      7  C   UNL     1      19.270  31.709  29.704  1.00  0.00     0.198 C 
BRANCH   7   8
ATOM      8  O   UNL     1      18.624  31.229  28.516  1.00  0.00    -0.347 OA
BRANCH   8   9
ATOM      9  C   UNL     1      18.901  29.855  28.195  1.00  0.00     0.281 C 
ATOM     10  C   UNL     1      18.015  27.298  29.163  1.00  0.00     0.041 C 
ATOM     11  C   UNL     1      17.879  27.879  27.693  1.00  0.00     0.150 C 
ATOM     12  C   UNL     1      18.955  27.448  26.652  1.00  0.00     0.174 C 
ATOM     13  O   UNL     1      17.743  29.244  27.717  1.00  0.00    -0.344 OA
ATOM     14  C   UNL     1      20.047  28.520  26.362  1.00  0.00     0.179 C 
ATOM     15  C   UNL     1      19.855  29.899  26.990  1.00  0.00     0.202 C 
BRANCH  12  16
ATOM     16  O   UNL     1      19.671  26.269  27.106  1.00  0.00    -0.388 OA
ATOM     17  H   UNL     1      19.356  26.020  27.973  1.00  0.00     0.211 HD
ENDBRANCH  12  16
BRANCH  14  18
ATOM     18  O   UNL     1      20.126  28.709  24.964  1.00  0.00    -0.387 OA
ATOM     19  H   UNL     1      20.530  27.855  24.673  1.00  0.00     0.211 HD
ENDBRANCH  14  18
BRANCH  15  20
ATOM     20  O   UNL     1      21.105  30.465  27.343  1.00  0.00    -0.385 OA
ATOM     21  H   UNL     1      21.571  29.912  28.038  1.00  0.00     0.211 HD
ENDBRANCH  15  20
ENDBRANCH   8   9
ENDBRANCH   7   8
ENDBRANCH   1   7
BRANCH   2  22
ATOM     22  O   UNL     1      20.395  34.309  29.378  1.00  0.00    -0.387 OA
ATOM     23  H   UNL     1      21.027  34.621  30.080  1.00  0.00     0.211 HD
ENDBRANCH   2  22
BRANCH   3  24
ATOM     24  O   UNL     1      20.524  35.193  31.860  1.00  0.00    -0.387 OA
ATOM     25  H   UNL     1      20.398  34.878  32.837  1.00  0.00     0.211 HD
ENDBRANCH   3  24
BRANCH   5  26
ATOM     26  O   UNL     1      17.182  33.605  33.656  1.00  0.00    -0.454 OA
BRANCH  26  27
ATOM     27  C   UNL     1      17.096  32.581  34.651  1.00  0.00     0.214 A 
ATOM     28  C   UNL     1      17.868  31.365  34.597  1.00  0.00     0.180 A 
ATOM     29  C   UNL     1      16.538  32.868  35.887  1.00  0.00     0.239 A 
ATOM     30  O   UNL     1      18.729  31.174  35.588  1.00  0.00    -0.452 OA
ATOM     31  C   UNL     1      17.303  32.495  37.025  1.00  0.00     0.111 A 
ATOM     32  O   UNL     1      15.471  33.515  36.013  1.00  0.00    -0.285 OA
ATOM     33  C   UNL     1      18.454  31.673  36.811  1.00  0.00     0.146 A 
ATOM     34  C   UNL     1      17.050  32.925  38.332  1.00  0.00     0.134 A 
ATOM     35  C   UNL     1      19.268  31.308  37.929  1.00  0.00     0.094 A 
ATOM     36  C   UNL     1      17.921  32.653  39.384  1.00  0.00     0.093 A 
ATOM     37  C   UNL     1      18.970  31.760  39.231  1.00  0.00     0.123 A 
BRANCH  28  38
ATOM     38  C   UNL     1      17.199  30.066  34.277  1.00  0.00     0.025 A 
ATOM     39  C   UNL     1      17.682  28.847  34.737  1.00  0.00     0.062 A 
ATOM     40  C   UNL     1      16.767  29.988  32.975  1.00  0.00     0.016 A 
ATOM     41  C   UNL     1      18.763  28.340  34.057  1.00  0.00     0.158 A 
ATOM     42  C   UNL     1      17.758  29.425  32.121  1.00  0.00     0.051 A 
ATOM     43  C   UNL     1      18.872  28.720  32.666  1.00  0.00     0.157 A 
BRANCH  41  44
ATOM     44  O   UNL     1      19.651  27.432  34.716  1.00  0.00    -0.504 OA
ATOM     45  H   UNL     1      20.142  26.848  34.000  1.00  0.00     0.293 HD
ENDBRANCH  41  44
BRANCH  43  46
ATOM     46  O   UNL     1      19.996  28.418  31.851  1.00  0.00    -0.504 OA
ATOM     47  H   UNL     1      20.968  28.356  32.269  1.00  0.00     0.293 HD
ENDBRANCH  43  46
ENDBRANCH  28  38
BRANCH  34  48
ATOM     48  O   UNL     1      16.002  33.766  38.631  1.00  0.00    -0.507 OA
ATOM     49  H   UNL     1      15.204  33.447  39.257  1.00  0.00     0.293 HD
ENDBRANCH  34  48
BRANCH  37  50
ATOM     50  O   UNL     1      19.889  31.471  40.226  1.00  0.00    -0.508 OA
ATOM     51  H   UNL     1      20.563  32.243  40.378  1.00  0.00     0.293 HD
ENDBRANCH  37  50
ENDBRANCH  26  27
ENDBRANCH   5  26
BRANCH   4  52
ATOM     52  O   UNL     1      16.844  35.297  31.405  1.00  0.00    -0.384 OA
ATOM     53  H   UNL     1      16.944  36.156  30.915  1.00  0.00     0.211 HD
ENDBRANCH   4  52
TORSDOF 16
ENDMDL
MODEL 8
REMARK VINA RESULT:    -5.552      1.975      8.755
REMARK INTER + INTRA:         -12.100
REMARK INTER:                  -9.233
REMARK INTRA:                  -2.867
REMARK UNBOUND:                -2.976
REMARK SMILES C[C@H]1O[C@H](OC[C@H]2O[C@H](Oc3c(-c4ccc(O)c(O)c4)oc4cc(O)cc(O)c4c3=O)[C@H](O)[C@@H](O)[C@H]2O)[C@@H](O)[C@H](O)[C@H]1O
REMARK SMILES IDX 7 1 36 2 34 3 32 4 9 5 8 6 6 7 5 8 4 9 1 10 2 11 42 12 3 13
REMARK SMILES IDX 40 14 38 15 43 16 41 18 39 20 37 22 35 24 10 26 11 27 12 28
REMARK SMILES IDX 30 29 21 30 29 31 31 32 22 33 27 34 23 35 26 36 24 37 13 38
REMARK SMILES IDX 20 39 14 40 18 41 15 42 16 43 19 44 17 46 28 48 25 50 33 52
REMARK H PARENT 43 17 41 19 39 21 37 23 35 25 19 45 17 47 28 49 25 51 33 53
REMARK Flexibility Score: inf
ROOT
ATOM      1  C   UNL     1      21.413  27.423  33.288  1.00  0.00     0.180 C 
ATOM      2  C   UNL     1      21.091  27.219  34.850  1.00  0.00     0.177 C 
ATOM      3  C   UNL     1      20.045  28.180  35.391  1.00  0.00     0.180 C 
ATOM      4  C   UNL     1      20.236  29.527  34.726  1.00  0.00     0.214 C 
ATOM      5  C   UNL     1      19.912  29.313  33.226  1.00  0.00     0.339 C 
ATOM      6  O   UNL     1      20.809  28.486  32.513  1.00  0.00    -0.332 OA
ENDROOT
BRANCH   1   7
ATOM      7  C   UNL     1      21.580  26.090  32.430  1.00  0.00     0.198 C 
BRANCH   7   8
ATOM      8  O   UNL     1      22.125  26.280  31.116  1.00  0.00    -0.347 OA
BRANCH   8   9
ATOM      9  C   UNL     1      21.247  25.902  30.041  1.00  0.00     0.281 C 
ATOM     10  C   UNL     1      20.892  23.566  28.406  1.00  0.00     0.041 C 
ATOM     11  C   UNL     1      19.830  24.246  29.369  1.00  0.00     0.150 C 
ATOM     12  C   UNL     1      18.802  25.222  28.725  1.00  0.00     0.174 C 
ATOM     13  O   UNL     1      20.451  24.831  30.444  1.00  0.00    -0.344 OA
ATOM     14  C   UNL     1      19.115  26.733  28.938  1.00  0.00     0.179 C 
ATOM     15  C   UNL     1      20.275  27.080  29.869  1.00  0.00     0.202 C 
BRANCH  12  16
ATOM     16  O   UNL     1      18.739  25.032  27.286  1.00  0.00    -0.388 OA
ATOM     17  H   UNL     1      19.536  24.598  26.988  1.00  0.00     0.211 HD
ENDBRANCH  12  16
BRANCH  14  18
ATOM     18  O   UNL     1      17.962  27.359  29.462  1.00  0.00    -0.387 OA
ATOM     19  H   UNL     1      17.260  26.701  29.234  1.00  0.00     0.211 HD
ENDBRANCH  14  18
BRANCH  15  20
ATOM     20  O   UNL     1      20.948  28.242  29.417  1.00  0.00    -0.385 OA
ATOM     21  H   UNL     1      20.834  29.001  30.061  1.00  0.00     0.211 HD
ENDBRANCH  15  20
ENDBRANCH   8   9
ENDBRANCH   7   8
ENDBRANCH   1   7
BRANCH   2  22
ATOM     22  O   UNL     1      20.651  25.910  35.120  1.00  0.00    -0.387 OA
ATOM     23  H   UNL     1      20.864  25.780  36.082  1.00  0.00     0.211 HD
ENDBRANCH   2  22
BRANCH   3  24
ATOM     24  O   UNL     1      18.697  27.681  35.170  1.00  0.00    -0.387 OA
ATOM     25  H   UNL     1      18.479  27.559  34.166  1.00  0.00     0.211 HD
ENDBRANCH   3  24
BRANCH   5  26
ATOM     26  O   UNL     1      20.003  30.675  32.670  1.00  0.00    -0.454 OA
BRANCH  26  27
ATOM     27  C   UNL     1      18.912  31.360  32.048  1.00  0.00     0.214 A 
ATOM     28  C   UNL     1      18.171  32.411  32.697  1.00  0.00     0.180 A 
ATOM     29  C   UNL     1      18.749  31.289  30.674  1.00  0.00     0.239 A 
ATOM     30  O   UNL     1      18.231  33.608  32.127  1.00  0.00    -0.452 OA
ATOM     31  C   UNL     1      18.585  32.526  29.994  1.00  0.00     0.111 A 
ATOM     32  O   UNL     1      18.846  30.213  30.035  1.00  0.00    -0.285 OA
ATOM     33  C   UNL     1      18.381  33.698  30.788  1.00  0.00     0.146 A 
ATOM     34  C   UNL     1      18.671  32.692  28.608  1.00  0.00     0.134 A 
ATOM     35  C   UNL     1      18.248  34.966  30.141  1.00  0.00     0.094 A 
ATOM     36  C   UNL     1      18.655  33.951  28.009  1.00  0.00     0.093 A 
ATOM     37  C   UNL     1      18.335  35.085  28.739  1.00  0.00     0.123 A 
BRANCH  28  38
ATOM     38  C   UNL     1      16.771  32.164  33.162  1.00  0.00     0.025 A 
ATOM     39  C   UNL     1      16.059  33.097  33.907  1.00  0.00     0.062 A 
ATOM     40  C   UNL     1      16.573  30.884  33.620  1.00  0.00     0.016 A 
ATOM     41  C   UNL     1      16.381  33.166  35.241  1.00  0.00     0.158 A 
ATOM     42  C   UNL     1      16.813  30.778  35.020  1.00  0.00     0.051 A 
ATOM     43  C   UNL     1      16.880  31.946  35.836  1.00  0.00     0.157 A 
BRANCH  41  44
ATOM     44  O   UNL     1      16.141  34.375  35.965  1.00  0.00    -0.504 OA
ATOM     45  H   UNL     1      15.775  34.141  36.918  1.00  0.00     0.293 HD
ENDBRANCH  41  44
BRANCH  43  46
ATOM     46  O   UNL     1      17.404  31.868  37.155  1.00  0.00    -0.504 OA
ATOM     47  H   UNL     1      17.007  32.469  37.932  1.00  0.00     0.293 HD
ENDBRANCH  43  46
ENDBRANCH  28  38
BRANCH  34  48
ATOM     48  O   UNL     1      18.924  31.636  27.762  1.00  0.00    -0.507 OA
ATOM     49  H   UNL     1      19.592  31.738  26.941  1.00  0.00     0.293 HD
ENDBRANCH  34  48
BRANCH  37  50
ATOM     50  O   UNL     1      18.332  36.365  28.211  1.00  0.00    -0.508 OA
ATOM     51  H   UNL     1      17.609  36.969  28.645  1.00  0.00     0.293 HD
ENDBRANCH  37  50
ENDBRANCH  26  27
ENDBRANCH   5  26
BRANCH   4  52
ATOM     52  O   UNL     1      21.574  30.011  34.935  1.00  0.00    -0.384 OA
ATOM     53  H   UNL     1      21.758  30.575  34.138  1.00  0.00     0.211 HD
ENDBRANCH   4  52
TORSDOF 16
ENDMDL
MODEL 9
REMARK VINA RESULT:    -5.551      1.806      7.830
REMARK INTER + INTRA:         -12.097
REMARK INTER:                  -9.686
REMARK INTRA:                  -2.411
REMARK UNBOUND:                -2.976
REMARK SMILES C[C@H]1O[C@H](OC[C@H]2O[C@H](Oc3c(-c4ccc(O)c(O)c4)oc4cc(O)cc(O)c4c3=O)[C@H](O)[C@@H](O)[C@H]2O)[C@@H](O)[C@H](O)[C@H]1O
REMARK SMILES IDX 7 1 36 2 34 3 32 4 9 5 8 6 6 7 5 8 4 9 1 10 2 11 42 12 3 13
REMARK SMILES IDX 40 14 38 15 43 16 41 18 39 20 37 22 35 24 10 26 11 27 12 28
REMARK SMILES IDX 30 29 21 30 29 31 31 32 22 33 27 34 23 35 26 36 24 37 13 38
REMARK SMILES IDX 20 39 14 40 18 41 15 42 16 43 19 44 17 46 28 48 25 50 33 52
REMARK H PARENT 43 17 41 19 39 21 37 23 35 25 19 45 17 47 28 49 25 51 33 53
REMARK Flexibility Score: inf
ROOT
ATOM      1  C   UNL     1      19.019  32.109  29.690  1.00  0.00     0.180 C 
ATOM      2  C   UNL     1      20.137  33.162  29.215  1.00  0.00     0.177 C 
ATOM      3  C   UNL     1      20.264  34.375  30.123  1.00  0.00     0.180 C 
ATOM      4  C   UNL     1      18.882  34.756  30.613  1.00  0.00     0.214 C 
ATOM      5  C   UNL     1      18.404  33.581  31.502  1.00  0.00     0.339 C 
ATOM      6  O   UNL     1      18.168  32.359  30.835  1.00  0.00    -0.332 OA
ENDROOT
BRANCH   1   7
ATOM      7  C   UNL     1      19.417  30.569  29.577  1.00  0.00     0.198 C 
BRANCH   7   8
ATOM      8  O   UNL     1      18.320  29.651  29.690  1.00  0.00    -0.347 OA
BRANCH   8   9
ATOM      9  C   UNL     1      18.554  28.360  29.103  1.00  0.00     0.281 C 
ATOM     10  C   UNL     1      17.625  26.966  26.767  1.00  0.00     0.041 C 
ATOM     11  C   UNL     1      19.120  27.349  27.138  1.00  0.00     0.150 C 
ATOM     12  C   UNL     1      19.992  26.250  27.815  1.00  0.00     0.174 C 
ATOM     13  O   UNL     1      19.161  28.516  27.858  1.00  0.00    -0.344 OA
ATOM     14  C   UNL     1      20.170  26.415  29.353  1.00  0.00     0.179 C 
ATOM     15  C   UNL     1      19.621  27.693  29.986  1.00  0.00     0.202 C 
BRANCH  12  16
ATOM     16  O   UNL     1      19.406  24.935  27.625  1.00  0.00    -0.388 OA
ATOM     17  H   UNL     1      19.549  24.650  26.724  1.00  0.00     0.211 HD
ENDBRANCH  12  16
BRANCH  14  18
ATOM     18  O   UNL     1      21.551  26.367  29.650  1.00  0.00    -0.387 OA
ATOM     19  H   UNL     1      21.538  26.090  30.599  1.00  0.00     0.211 HD
ENDBRANCH  14  18
BRANCH  15  20
ATOM     20  O   UNL     1      19.125  27.432  31.286  1.00  0.00    -0.385 OA
ATOM     21  H   UNL     1      19.873  27.273  31.935  1.00  0.00     0.211 HD
ENDBRANCH  15  20
ENDBRANCH   8   9
ENDBRANCH   7   8
ENDBRANCH   1   7
BRANCH   2  22
ATOM     22  O   UNL     1      21.406  32.561  29.124  1.00  0.00    -0.387 OA
ATOM     23  H   UNL     1      21.959  33.070  29.775  1.00  0.00     0.211 HD
ENDBRANCH   2  22
BRANCH   3  24
ATOM     24  O   UNL     1      21.156  34.114  31.241  1.00  0.00    -0.387 OA
ATOM     25  H   UNL     1      20.681  33.625  32.020  1.00  0.00     0.211 HD
ENDBRANCH   3  24
BRANCH   5  26
ATOM     26  O   UNL     1      17.119  34.069  32.034  1.00  0.00    -0.454 OA
BRANCH  26  27
ATOM     27  C   UNL     1      16.612  33.739  33.330  1.00  0.00     0.214 A 
ATOM     28  C   UNL     1      17.294  32.853  34.239  1.00  0.00     0.180 A 
ATOM     29  C   UNL     1      15.630  34.530  33.906  1.00  0.00     0.239 A 
ATOM     30  O   UNL     1      17.694  33.386  35.386  1.00  0.00    -0.452 OA
ATOM     31  C   UNL     1      15.877  34.973  35.234  1.00  0.00     0.111 A 
ATOM     32  O   UNL     1      14.625  34.931  33.271  1.00  0.00    -0.285 OA
ATOM     33  C   UNL     1      16.986  34.398  35.930  1.00  0.00     0.146 A 
ATOM     34  C   UNL     1      15.154  35.977  35.887  1.00  0.00     0.134 A 
ATOM     35  C   UNL     1      17.287  34.846  37.255  1.00  0.00     0.094 A 
ATOM     36  C   UNL     1      15.537  36.478  37.129  1.00  0.00     0.093 A 
ATOM     37  C   UNL     1      16.525  35.857  37.877  1.00  0.00     0.123 A 
BRANCH  28  38
ATOM     38  C   UNL     1      16.748  31.485  34.502  1.00  0.00     0.025 A 
ATOM     39  C   UNL     1      17.238  30.671  35.516  1.00  0.00     0.062 A 
ATOM     40  C   UNL     1      16.495  30.776  33.353  1.00  0.00     0.016 A 
ATOM     41  C   UNL     1      18.426  30.034  35.249  1.00  0.00     0.158 A 
ATOM     42  C   UNL     1      17.620  30.000  32.950  1.00  0.00     0.051 A 
ATOM     43  C   UNL     1      18.692  29.749  33.856  1.00  0.00     0.157 A 
BRANCH  41  44
ATOM     44  O   UNL     1      19.272  29.631  36.329  1.00  0.00    -0.504 OA
ATOM     45  H   UNL     1      20.273  29.748  36.046  1.00  0.00     0.293 HD
ENDBRANCH  41  44
BRANCH  43  46
ATOM     46  O   UNL     1      19.928  29.237  33.377  1.00  0.00    -0.504 OA
ATOM     47  H   UNL     1      20.077  28.194  33.268  1.00  0.00     0.293 HD
ENDBRANCH  43  46
ENDBRANCH  28  38
BRANCH  34  48
ATOM     48  O   UNL     1      14.108  36.633  35.279  1.00  0.00    -0.507 OA
ATOM     49  H   UNL     1      14.046  36.704  34.220  1.00  0.00     0.293 HD
ENDBRANCH  34  48
BRANCH  37  50
ATOM     50  O   UNL     1      16.972  36.321  39.102  1.00  0.00    -0.508 OA
ATOM     51  H   UNL     1      17.735  37.017  39.006  1.00  0.00     0.293 HD
ENDBRANCH  37  50
ENDBRANCH  26  27
ENDBRANCH   5  26
BRANCH   4  52
ATOM     52  O   UNL     1      18.000  35.000  29.504  1.00  0.00    -0.384 OA
ATOM     53  H   UNL     1      18.305  35.872  29.136  1.00  0.00     0.211 HD
ENDBRANCH   4  52
TORSDOF 16
ENDMDL
