MODEL 1
REMARK VINA RESULT:    -3.397      0.000      0.000
REMARK INTER + INTRA:          -7.506
REMARK INTER:                  -5.779
REMARK INTRA:                  -1.726
REMARK UNBOUND:                -1.726
REMARK SMILES CCCCCCCCCCCCCC(=O)[O-]
REMARK SMILES IDX 8 1 9 2 10 3 11 4 12 5 13 6 14 7 15 8 16 9 7 10 6 11 5 12
REMARK SMILES IDX 4 13 3 14 2 15 1 16
REMARK H PARENT
REMARK Flexibility Score: inf
ROOT
ATOM      1  C   UNL     1       6.012 -32.546  14.456  1.00  0.00     0.000 C 
ENDROOT
BRANCH   1   2
ATOM      2  C   UNL     1       7.167 -33.144  15.275  1.00  0.00     0.000 C 
BRANCH   2   3
ATOM      3  C   UNL     1       7.543 -32.274  16.485  1.00  0.00     0.000 C 
BRANCH   3   4
ATOM      4  C   UNL     1       6.532 -31.142  16.743  1.00  0.00     0.000 C 
BRANCH   4   5
ATOM      5  C   UNL     1       7.165 -29.874  17.354  1.00  0.00     0.006 C 
BRANCH   5   6
ATOM      6  C   UNL     1       8.581 -29.618  16.820  1.00  0.00     0.053 C 
BRANCH   6   7
ATOM      7  C   UNL     1       9.385 -28.850  17.820  1.00  0.00     0.041 C 
ATOM      8  O   UNL     1      10.276 -28.048  17.434  1.00  0.00    -0.550 OA
ATOM      9  O   UNL     1       9.185 -29.053  19.179  1.00  0.00    -0.550 OA
ENDBRANCH   6   7
ENDBRANCH   5   6
ENDBRANCH   4   5
ENDBRANCH   3   4
ENDBRANCH   2   3
ENDBRANCH   1   2
BRANCH   1  10
ATOM     10  C   UNL     1       6.401 -32.268  12.996  1.00  0.00     0.000 C 
BRANCH  10  11
ATOM     11  C   UNL     1       6.175 -30.794  12.639  1.00  0.00    -0.000 C 
BRANCH  11  12
ATOM     12  C   UNL     1       7.169 -29.889  13.376  1.00  0.00    -0.000 C 
BRANCH  12  13
ATOM     13  C   UNL     1       8.545 -29.912  12.694  1.00  0.00    -0.000 C 
BRANCH  13  14
ATOM     14  C   UNL     1       9.588 -30.713  13.491  1.00  0.00    -0.000 C 
BRANCH  14  15
ATOM     15  C   UNL     1      11.011 -30.164  13.319  1.00  0.00    -0.003 C 
ATOM     16  C   UNL     1      11.182 -28.840  14.059  1.00  0.00     0.004 C 
ENDBRANCH  14  15
ENDBRANCH  13  14
ENDBRANCH  12  13
ENDBRANCH  11  12
ENDBRANCH  10  11
ENDBRANCH   1  10
TORSDOF 12
ENDMDL
MODEL 2
REMARK VINA RESULT:    -3.307      1.645      3.277
REMARK INTER + INTRA:          -7.354
REMARK INTER:                  -5.281
REMARK INTRA:                  -2.073
REMARK UNBOUND:                -1.726
REMARK SMILES CCCCCCCCCCCCCC(=O)[O-]
REMARK SMILES IDX 8 1 9 2 10 3 11 4 12 5 13 6 14 7 15 8 16 9 7 10 6 11 5 12
REMARK SMILES IDX 4 13 3 14 2 15 1 16
REMARK H PARENT
REMARK Flexibility Score: inf
ROOT
ATOM      1  C   UNL     1       7.647 -29.366  11.924  1.00  0.00     0.000 C 
ENDROOT
BRANCH   1   2
ATOM      2  C   UNL     1       9.095 -29.875  12.021  1.00  0.00     0.000 C 
BRANCH   2   3
ATOM      3  C   UNL     1       9.886 -29.189  13.147  1.00  0.00     0.000 C 
BRANCH   3   4
ATOM      4  C   UNL     1       9.820 -29.962  14.477  1.00  0.00     0.000 C 
BRANCH   4   5
ATOM      5  C   UNL     1       8.735 -29.441  15.442  1.00  0.00     0.006 C 
BRANCH   5   6
ATOM      6  C   UNL     1       8.467 -30.419  16.594  1.00  0.00     0.053 C 
BRANCH   6   7
ATOM      7  C   UNL     1       8.451 -29.694  17.902  1.00  0.00     0.041 C 
ATOM      8  O   UNL     1       7.462 -29.801  18.675  1.00  0.00    -0.550 OA
ATOM      9  O   UNL     1       9.507 -28.861  18.250  1.00  0.00    -0.550 OA
ENDBRANCH   6   7
ENDBRANCH   5   6
ENDBRANCH   4   5
ENDBRANCH   3   4
ENDBRANCH   2   3
ENDBRANCH   1   2
BRANCH   1  10
ATOM     10  C   UNL     1       6.634 -30.340  12.543  1.00  0.00     0.000 C 
BRANCH  10  11
ATOM     11  C   UNL     1       7.087 -31.794  12.360  1.00  0.00    -0.000 C 
BRANCH  11  12
ATOM     12  C   UNL     1       6.876 -32.604  13.644  1.00  0.00    -0.000 C 
BRANCH  12  13
ATOM     13  C   UNL     1       8.208 -33.157  14.172  1.00  0.00    -0.000 C 
BRANCH  13  14
ATOM     14  C   UNL     1       9.212 -33.457  13.047  1.00  0.00    -0.000 C 
BRANCH  14  15
ATOM     15  C   UNL     1      10.658 -33.555  13.556  1.00  0.00    -0.003 C 
ATOM     16  C   UNL     1      11.581 -32.629  12.769  1.00  0.00     0.004 C 
ENDBRANCH  14  15
ENDBRANCH  13  14
ENDBRANCH  12  13
ENDBRANCH  11  12
ENDBRANCH  10  11
ENDBRANCH   1  10
TORSDOF 12
ENDMDL
MODEL 3
REMARK VINA RESULT:    -3.264      1.662      3.843
REMARK INTER + INTRA:          -7.281
REMARK INTER:                  -5.417
REMARK INTRA:                  -1.864
REMARK UNBOUND:                -1.726
REMARK SMILES CCCCCCCCCCCCCC(=O)[O-]
REMARK SMILES IDX 8 1 9 2 10 3 11 4 12 5 13 6 14 7 15 8 16 9 7 10 6 11 5 12
REMARK SMILES IDX 4 13 3 14 2 15 1 16
REMARK H PARENT
REMARK Flexibility Score: inf
ROOT
ATOM      1  C   UNL     1       8.907 -29.509  13.278  1.00  0.00     0.000 C 
ENDROOT
BRANCH   1   2
ATOM      2  C   UNL     1       7.508 -29.757  12.691  1.00  0.00     0.000 C 
BRANCH   2   3
ATOM      3  C   UNL     1       6.503 -30.246  13.747  1.00  0.00     0.000 C 
BRANCH   3   4
ATOM      4  C   UNL     1       6.996 -30.021  15.187  1.00  0.00     0.000 C 
BRANCH   4   5
ATOM      5  C   UNL     1       6.516 -31.100  16.182  1.00  0.00     0.006 C 
BRANCH   5   6
ATOM      6  C   UNL     1       7.386 -31.151  17.445  1.00  0.00     0.053 C 
BRANCH   6   7
ATOM      7  C   UNL     1       7.285 -29.866  18.202  1.00  0.00     0.041 C 
ATOM      8  O   UNL     1       6.156 -29.363  18.449  1.00  0.00    -0.550 OA
ATOM      9  O   UNL     1       8.436 -29.196  18.595  1.00  0.00    -0.550 OA
ENDBRANCH   6   7
ENDBRANCH   5   6
ENDBRANCH   4   5
ENDBRANCH   3   4
ENDBRANCH   2   3
ENDBRANCH   1   2
BRANCH   1  10
ATOM     10  C   UNL     1      10.033 -29.843  12.289  1.00  0.00     0.000 C 
BRANCH  10  11
ATOM     11  C   UNL     1      11.102 -30.721  12.951  1.00  0.00    -0.000 C 
BRANCH  11  12
ATOM     12  C   UNL     1      10.853 -32.206  12.662  1.00  0.00    -0.000 C 
BRANCH  12  13
ATOM     13  C   UNL     1      10.573 -32.980  13.959  1.00  0.00    -0.000 C 
BRANCH  13  14
ATOM     14  C   UNL     1       9.072 -33.097  14.267  1.00  0.00    -0.000 C 
BRANCH  14  15
ATOM     15  C   UNL     1       8.241 -33.464  13.029  1.00  0.00    -0.003 C 
ATOM     16  C   UNL     1       6.835 -33.909  13.424  1.00  0.00     0.004 C 
ENDBRANCH  14  15
ENDBRANCH  13  14
ENDBRANCH  12  13
ENDBRANCH  11  12
ENDBRANCH  10  11
ENDBRANCH   1  10
TORSDOF 12
ENDMDL
MODEL 4
REMARK VINA RESULT:    -3.257      1.495      2.566
REMARK INTER + INTRA:          -7.268
REMARK INTER:                  -5.546
REMARK INTRA:                  -1.722
REMARK UNBOUND:                -1.726
REMARK SMILES CCCCCCCCCCCCCC(=O)[O-]
REMARK SMILES IDX 8 1 9 2 10 3 11 4 12 5 13 6 14 7 15 8 16 9 7 10 6 11 5 12
REMARK SMILES IDX 4 13 3 14 2 15 1 16
REMARK H PARENT
REMARK Flexibility Score: inf
ROOT
ATOM      1  C   UNL     1       7.103 -33.085  13.845  1.00  0.00     0.000 C 
ENDROOT
BRANCH   1   2
ATOM      2  C   UNL     1       6.874 -31.910  12.880  1.00  0.00     0.000 C 
BRANCH   2   3
ATOM      3  C   UNL     1       6.191 -30.713  13.562  1.00  0.00     0.000 C 
BRANCH   3   4
ATOM      4  C   UNL     1       7.176 -29.839  14.359  1.00  0.00     0.000 C 
BRANCH   4   5
ATOM      5  C   UNL     1       7.115 -30.070  15.884  1.00  0.00     0.006 C 
BRANCH   5   6
ATOM      6  C   UNL     1       8.506 -30.045  16.530  1.00  0.00     0.053 C 
BRANCH   6   7
ATOM      7  C   UNL     1       8.411 -29.619  17.960  1.00  0.00     0.041 C 
ATOM      8  O   UNL     1       9.232 -28.788  18.430  1.00  0.00    -0.550 OA
ATOM      9  O   UNL     1       7.444 -30.174  18.789  1.00  0.00    -0.550 OA
ENDBRANCH   6   7
ENDBRANCH   5   6
ENDBRANCH   4   5
ENDBRANCH   3   4
ENDBRANCH   2   3
ENDBRANCH   1   2
BRANCH   1  10
ATOM     10  C   UNL     1       8.497 -33.712  13.695  1.00  0.00     0.000 C 
BRANCH  10  11
ATOM     11  C   UNL     1       9.587 -32.750  14.185  1.00  0.00    -0.000 C 
BRANCH  11  12
ATOM     12  C   UNL     1      10.891 -32.952  13.405  1.00  0.00    -0.000 C 
BRANCH  12  13
ATOM     13  C   UNL     1      11.457 -31.608  12.922  1.00  0.00    -0.000 C 
BRANCH  13  14
ATOM     14  C   UNL     1      10.472 -30.838  12.027  1.00  0.00    -0.000 C 
BRANCH  14  15
ATOM     15  C   UNL     1      10.074 -29.478  12.620  1.00  0.00    -0.003 C 
ATOM     16  C   UNL     1      10.947 -29.126  13.822  1.00  0.00     0.004 C 
ENDBRANCH  14  15
ENDBRANCH  13  14
ENDBRANCH  12  13
ENDBRANCH  11  12
ENDBRANCH  10  11
ENDBRANCH   1  10
TORSDOF 12
ENDMDL
MODEL 5
REMARK VINA RESULT:    -3.246      1.675      4.072
REMARK INTER + INTRA:          -7.250
REMARK INTER:                  -5.100
REMARK INTRA:                  -2.150
REMARK UNBOUND:                -1.726
REMARK SMILES CCCCCCCCCCCCCC(=O)[O-]
REMARK SMILES IDX 8 1 9 2 10 3 11 4 12 5 13 6 14 7 15 8 16 9 7 10 6 11 5 12
REMARK SMILES IDX 4 13 3 14 2 15 1 16
REMARK H PARENT
REMARK Flexibility Score: inf
ROOT
ATOM      1  C   UNL     1      10.326 -30.243  11.958  1.00  0.00     0.000 C 
ENDROOT
BRANCH   1   2
ATOM      2  C   UNL     1       9.375 -29.420  12.842  1.00  0.00     0.000 C 
BRANCH   2   3
ATOM      3  C   UNL     1       9.672 -29.586  14.341  1.00  0.00     0.000 C 
BRANCH   3   4
ATOM      4  C   UNL     1       8.395 -29.702  15.192  1.00  0.00     0.000 C 
BRANCH   4   5
ATOM      5  C   UNL     1       8.456 -30.823  16.252  1.00  0.00     0.006 C 
BRANCH   5   6
ATOM      6  C   UNL     1       7.173 -30.898  17.091  1.00  0.00     0.053 C 
BRANCH   6   7
ATOM      7  C   UNL     1       7.155 -29.809  18.116  1.00  0.00     0.041 C 
ATOM      8  O   UNL     1       6.117 -29.115  18.284  1.00  0.00    -0.550 OA
ATOM      9  O   UNL     1       8.297 -29.527  18.853  1.00  0.00    -0.550 OA
ENDBRANCH   6   7
ENDBRANCH   5   6
ENDBRANCH   4   5
ENDBRANCH   3   4
ENDBRANCH   2   3
ENDBRANCH   1   2
BRANCH   1  10
ATOM     10  C   UNL     1      11.129 -31.281  12.757  1.00  0.00     0.000 C 
BRANCH  10  11
ATOM     11  C   UNL     1      10.557 -32.690  12.557  1.00  0.00    -0.000 C 
BRANCH  11  12
ATOM     12  C   UNL     1      10.137 -33.309  13.894  1.00  0.00    -0.000 C 
BRANCH  12  13
ATOM     13  C   UNL     1       8.618 -33.533  13.944  1.00  0.00    -0.000 C 
BRANCH  13  14
ATOM     14  C   UNL     1       7.927 -33.212  12.609  1.00  0.00    -0.000 C 
BRANCH  14  15
ATOM     15  C   UNL     1       6.895 -32.082  12.734  1.00  0.00    -0.003 C 
ATOM     16  C   UNL     1       5.920 -32.354  13.876  1.00  0.00     0.004 C 
ENDBRANCH  14  15
ENDBRANCH  13  14
ENDBRANCH  12  13
ENDBRANCH  11  12
ENDBRANCH  10  11
ENDBRANCH   1  10
TORSDOF 12
ENDMDL
MODEL 6
REMARK VINA RESULT:    -3.204      2.648      5.754
REMARK INTER + INTRA:          -7.178
REMARK INTER:                  -5.763
REMARK INTRA:                  -1.415
REMARK UNBOUND:                -1.726
REMARK SMILES CCCCCCCCCCCCCC(=O)[O-]
REMARK SMILES IDX 8 1 9 2 10 3 11 4 12 5 13 6 14 7 15 8 16 9 7 10 6 11 5 12
REMARK SMILES IDX 4 13 3 14 2 15 1 16
REMARK H PARENT
REMARK Flexibility Score: inf
ROOT
ATOM      1  C   UNL     1      10.244 -28.072  17.505  1.00  0.00     0.000 C 
ENDROOT
BRANCH   1   2
ATOM      2  C   UNL     1      10.018 -28.663  16.104  1.00  0.00     0.000 C 
BRANCH   2   3
ATOM      3  C   UNL     1      11.213 -28.430  15.166  1.00  0.00     0.000 C 
BRANCH   3   4
ATOM      4  C   UNL     1      11.022 -29.078  13.784  1.00  0.00     0.000 C 
BRANCH   4   5
ATOM      5  C   UNL     1       9.841 -30.071  13.723  1.00  0.00     0.006 C 
BRANCH   5   6
ATOM      6  C   UNL     1       9.300 -30.241  12.297  1.00  0.00     0.053 C 
BRANCH   6   7
ATOM      7  C   UNL     1       7.806 -30.320  12.311  1.00  0.00     0.041 C 
ATOM      8  O   UNL     1       7.116 -29.267  12.287  1.00  0.00    -0.550 OA
ATOM      9  O   UNL     1       7.175 -31.554  12.398  1.00  0.00    -0.550 OA
ENDBRANCH   6   7
ENDBRANCH   5   6
ENDBRANCH   4   5
ENDBRANCH   3   4
ENDBRANCH   2   3
ENDBRANCH   1   2
BRANCH   1  10
ATOM     10  C   UNL     1       9.244 -28.604  18.542  1.00  0.00     0.000 C 
BRANCH  10  11
ATOM     11  C   UNL     1       8.416 -29.759  17.965  1.00  0.00    -0.000 C 
BRANCH  11  12
ATOM     12  C   UNL     1       6.943 -29.641  18.374  1.00  0.00    -0.000 C 
BRANCH  12  13
ATOM     13  C   UNL     1       6.045 -29.445  17.143  1.00  0.00    -0.000 C 
BRANCH  13  14
ATOM     14  C   UNL     1       6.609 -30.119  15.883  1.00  0.00    -0.000 C 
BRANCH  14  15
ATOM     15  C   UNL     1       6.059 -31.538  15.676  1.00  0.00    -0.003 C 
ATOM     16  C   UNL     1       7.107 -32.590  16.028  1.00  0.00     0.004 C 
ENDBRANCH  14  15
ENDBRANCH  13  14
ENDBRANCH  12  13
ENDBRANCH  11  12
ENDBRANCH  10  11
ENDBRANCH   1  10
TORSDOF 12
ENDMDL
MODEL 7
REMARK VINA RESULT:    -3.152      2.533      5.534
REMARK INTER + INTRA:          -7.089
REMARK INTER:                  -5.698
REMARK INTRA:                  -1.391
REMARK UNBOUND:                -1.726
REMARK SMILES CCCCCCCCCCCCCC(=O)[O-]
REMARK SMILES IDX 8 1 9 2 10 3 11 4 12 5 13 6 14 7 15 8 16 9 7 10 6 11 5 12
REMARK SMILES IDX 4 13 3 14 2 15 1 16
REMARK H PARENT
REMARK Flexibility Score: inf
ROOT
ATOM      1  C   UNL     1      10.116 -28.387  16.792  1.00  0.00     0.000 C 
ENDROOT
BRANCH   1   2
ATOM      2  C   UNL     1       9.627 -29.180  15.569  1.00  0.00     0.000 C 
BRANCH   2   3
ATOM      3  C   UNL     1      10.644 -29.172  14.416  1.00  0.00     0.000 C 
BRANCH   3   4
ATOM      4  C   UNL     1       9.977 -29.239  13.031  1.00  0.00     0.000 C 
BRANCH   4   5
ATOM      5  C   UNL     1      10.149 -30.601  12.326  1.00  0.00     0.006 C 
BRANCH   5   6
ATOM      6  C   UNL     1      11.184 -31.491  13.029  1.00  0.00     0.053 C 
BRANCH   6   7
ATOM      7  C   UNL     1      10.524 -32.700  13.611  1.00  0.00     0.041 C 
ATOM      8  O   UNL     1      10.908 -33.853  13.277  1.00  0.00    -0.550 OA
ATOM      9  O   UNL     1       9.455 -32.558  14.485  1.00  0.00    -0.550 OA
ENDBRANCH   6   7
ENDBRANCH   5   6
ENDBRANCH   4   5
ENDBRANCH   3   4
ENDBRANCH   2   3
ENDBRANCH   1   2
BRANCH   1  10
ATOM     10  C   UNL     1       9.354 -28.748  18.076  1.00  0.00     0.000 C 
BRANCH  10  11
ATOM     11  C   UNL     1       8.444 -29.962  17.852  1.00  0.00    -0.000 C 
BRANCH  11  12
ATOM     12  C   UNL     1       6.976 -29.608  18.115  1.00  0.00    -0.000 C 
BRANCH  12  13
ATOM     13  C   UNL     1       6.118 -29.852  16.865  1.00  0.00    -0.000 C 
BRANCH  13  14
ATOM     14  C   UNL     1       6.384 -31.223  16.222  1.00  0.00    -0.000 C 
BRANCH  14  15
ATOM     15  C   UNL     1       5.875 -31.307  14.776  1.00  0.00    -0.003 C 
ATOM     16  C   UNL     1       6.604 -30.309  13.879  1.00  0.00     0.004 C 
ENDBRANCH  14  15
ENDBRANCH  13  14
ENDBRANCH  12  13
ENDBRANCH  11  12
ENDBRANCH  10  11
ENDBRANCH   1  10
TORSDOF 12
ENDMDL
MODEL 8
REMARK VINA RESULT:    -3.120      1.843      4.226
REMARK INTER + INTRA:          -7.035
REMARK INTER:                  -5.448
REMARK INTRA:                  -1.586
REMARK UNBOUND:                -1.726
REMARK SMILES CCCCCCCCCCCCCC(=O)[O-]
REMARK SMILES IDX 8 1 9 2 10 3 11 4 12 5 13 6 14 7 15 8 16 9 7 10 6 11 5 12
REMARK SMILES IDX 4 13 3 14 2 15 1 16
REMARK H PARENT
REMARK Flexibility Score: inf
ROOT
ATOM      1  C   UNL     1       8.113 -33.169  14.618  1.00  0.00     0.000 C 
ENDROOT
BRANCH   1   2
ATOM      2  C   UNL     1       7.683 -32.825  13.183  1.00  0.00     0.000 C 
BRANCH   2   3
ATOM      3  C   UNL     1       6.650 -31.687  13.134  1.00  0.00     0.000 C 
BRANCH   3   4
ATOM      4  C   UNL     1       7.301 -30.295  13.040  1.00  0.00     0.000 C 
BRANCH   4   5
ATOM      5  C   UNL     1       8.592 -30.271  12.195  1.00  0.00     0.006 C 
BRANCH   5   6
ATOM      6  C   UNL     1       9.523 -29.118  12.594  1.00  0.00     0.053 C 
BRANCH   6   7
ATOM      7  C   UNL     1      10.713 -29.640  13.335  1.00  0.00     0.041 C 
ATOM      8  O   UNL     1      11.010 -30.862  13.277  1.00  0.00    -0.550 OA
ATOM      9  O   UNL     1      11.469 -28.787  14.130  1.00  0.00    -0.550 OA
ENDBRANCH   6   7
ENDBRANCH   5   6
ENDBRANCH   4   5
ENDBRANCH   3   4
ENDBRANCH   2   3
ENDBRANCH   1   2
BRANCH   1  10
ATOM     10  C   UNL     1       6.918 -33.404  15.554  1.00  0.00     0.000 C 
BRANCH  10  11
ATOM     11  C   UNL     1       7.074 -32.607  16.855  1.00  0.00    -0.000 C 
BRANCH  11  12
ATOM     12  C   UNL     1       6.469 -31.205  16.719  1.00  0.00    -0.000 C 
BRANCH  12  13
ATOM     13  C   UNL     1       7.369 -30.150  17.380  1.00  0.00    -0.000 C 
BRANCH  13  14
ATOM     14  C   UNL     1       8.520 -29.698  16.468  1.00  0.00    -0.000 C 
BRANCH  14  15
ATOM     15  C   UNL     1       9.553 -28.833  17.205  1.00  0.00    -0.003 C 
ATOM     16  C   UNL     1       9.301 -28.840  18.710  1.00  0.00     0.004 C 
ENDBRANCH  14  15
ENDBRANCH  13  14
ENDBRANCH  12  13
ENDBRANCH  11  12
ENDBRANCH  10  11
ENDBRANCH   1  10
TORSDOF 12
ENDMDL
MODEL 9
REMARK VINA RESULT:    -3.012      1.231      2.477
REMARK INTER + INTRA:          -6.851
REMARK INTER:                  -5.177
REMARK INTRA:                  -1.674
REMARK UNBOUND:                -1.726
REMARK SMILES CCCCCCCCCCCCCC(=O)[O-]
REMARK SMILES IDX 8 1 9 2 10 3 11 4 12 5 13 6 14 7 15 8 16 9 7 10 6 11 5 12
REMARK SMILES IDX 4 13 3 14 2 15 1 16
REMARK H PARENT
REMARK Flexibility Score: inf
ROOT
ATOM      1  C   UNL     1       6.693 -33.318  14.463  1.00  0.00     0.000 C 
ENDROOT
BRANCH   1   2
ATOM      2  C   UNL     1       6.286 -33.443  15.940  1.00  0.00     0.000 C 
BRANCH   2   3
ATOM      3  C   UNL     1       6.754 -32.246  16.784  1.00  0.00     0.000 C 
BRANCH   3   4
ATOM      4  C   UNL     1       6.469 -30.893  16.108  1.00  0.00     0.000 C 
BRANCH   4   5
ATOM      5  C   UNL     1       7.415 -29.762  16.565  1.00  0.00     0.006 C 
BRANCH   5   6
ATOM      6  C   UNL     1       8.307 -30.191  17.738  1.00  0.00     0.053 C 
BRANCH   6   7
ATOM      7  C   UNL     1       9.192 -29.063  18.161  1.00  0.00     0.041 C 
ATOM      8  O   UNL     1       9.196 -28.675  19.360  1.00  0.00    -0.550 OA
ATOM      9  O   UNL     1       9.980 -28.406  17.224  1.00  0.00    -0.550 OA
ENDBRANCH   6   7
ENDBRANCH   5   6
ENDBRANCH   4   5
ENDBRANCH   3   4
ENDBRANCH   2   3
ENDBRANCH   1   2
BRANCH   1  10
ATOM     10  C   UNL     1       8.080 -33.914  14.177  1.00  0.00     0.000 C 
BRANCH  10  11
ATOM     11  C   UNL     1       9.184 -32.877  14.417  1.00  0.00    -0.000 C 
BRANCH  11  12
ATOM     12  C   UNL     1       9.984 -32.618  13.135  1.00  0.00    -0.000 C 
BRANCH  12  13
ATOM     13  C   UNL     1       9.371 -31.465  12.327  1.00  0.00    -0.000 C 
BRANCH  13  14
ATOM     14  C   UNL     1       8.892 -30.306  13.215  1.00  0.00    -0.000 C 
BRANCH  14  15
ATOM     15  C   UNL     1       7.670 -29.581  12.634  1.00  0.00    -0.003 C 
ATOM     16  C   UNL     1       6.586 -30.574  12.223  1.00  0.00     0.004 C 
ENDBRANCH  14  15
ENDBRANCH  13  14
ENDBRANCH  12  13
ENDBRANCH  11  12
ENDBRANCH  10  11
ENDBRANCH   1  10
TORSDOF 12
ENDMDL
