MODEL 1
REMARK VINA RESULT:    -4.051      0.000      0.000
REMARK INTER + INTRA:          -6.729
REMARK INTER:                  -6.182
REMARK INTRA:                  -0.547
REMARK UNBOUND:                -0.547
REMARK SMILES CC1=CCC[C@@H](C)C(=O)C[C@@H](C(C)C)C(=O)C1
REMARK SMILES IDX 8 1 9 2 6 3 7 4 5 5 4 6 3 7 2 8 1 9 10 11 11 12 15 13 16 14
REMARK SMILES IDX 17 15 12 17 13 18 14 19
REMARK H PARENT
REMARK Flexibility Score: 70.00
ROOT
ATOM      1  C   UNL     1      16.936 -32.802  23.439  1.00  0.00     0.136 C 
ATOM      2  O   UNL     1      17.131 -32.696  24.641  1.00  0.00    -0.299 OA
ENDROOT
BRANCH   1   3
ATOM      3  C   UNL     1      15.583 -32.343  22.879  1.00  0.00     0.053 C 
ATOM      4  C   UNL     1      14.724 -31.721  23.983  1.00  0.00     0.016 C 
BRANCH   3   5
ATOM      5  C   UNL     1      14.929 -33.566  22.273  1.00  0.00     0.015 C 
BRANCH   5   6
ATOM      6  C   UNL     1      14.743 -33.828  20.802  1.00  0.00     0.028 C 
BRANCH   6   7
ATOM      7  C   UNL     1      15.415 -35.159  20.458  1.00  0.00    -0.028 C 
ATOM      8  C   UNL     1      16.596 -35.389  19.785  1.00  0.00    -0.070 CG0
ATOM      9  C   UNL     1      17.055 -36.826  19.717  1.00  0.00     0.039 C 
ATOM     10  G   UNL     1      17.481 -34.338  19.076  1.00  0.00     0.000 G0
ENDBRANCH   6   7
ENDBRANCH   5   6
ENDBRANCH   3   5
ENDBRANCH   1   3
BRANCH   1  11
ATOM     11  C   UNL     1      18.061 -33.383  22.559  1.00  0.00     0.087 C 
BRANCH  11  12
ATOM     12  C   UNL     1      18.229 -32.721  21.132  1.00  0.00     0.066 C 
BRANCH  12  13
ATOM     13  C   UNL     1      18.564 -33.741  20.017  1.00  0.00     0.140 C 
ATOM     14  O   UNL     1      19.726 -34.076  19.842  1.00  0.00    -0.299 OA
BRANCH  13  15
ATOM     15  C   UNL     1      17.487 -34.350  19.110  1.00  0.00     0.106 CG0
ATOM     16  G   UNL     1      16.581 -35.396  19.801  1.00  0.00     0.000 G0
ENDBRANCH  13  15
ENDBRANCH  12  13
BRANCH  12  17
ATOM     17  C   UNL     1      19.260 -31.550  21.160  1.00  0.00    -0.006 C 
ATOM     18  C   UNL     1      20.287 -31.729  22.289  1.00  0.00     0.008 C 
ATOM     19  C   UNL     1      18.614 -30.155  21.249  1.00  0.00     0.008 C 
ENDBRANCH  12  17
ENDBRANCH  11  12
ENDBRANCH   1  11
TORSDOF 1
ENDMDL
MODEL 2
REMARK VINA RESULT:    -3.964      2.113      4.759
REMARK INTER + INTRA:          -6.596
REMARK INTER:                  -6.219
REMARK INTRA:                  -0.377
REMARK UNBOUND:                -0.547
REMARK SMILES CC1=CCC[C@@H](C)C(=O)C[C@@H](C(C)C)C(=O)C1
REMARK SMILES IDX 8 1 9 2 6 3 7 4 5 5 4 6 3 7 2 8 1 9 10 11 11 12 15 13 16 14
REMARK SMILES IDX 17 15 12 17 13 18 14 19
REMARK H PARENT
REMARK Flexibility Score: 70.00
ROOT
ATOM      1  C   UNL     1      15.698 -34.462  20.341  1.00  0.00     0.136 C 
ATOM      2  O   UNL     1      14.567 -34.271  19.923  1.00  0.00    -0.299 OA
ENDROOT
BRANCH   1   3
ATOM      3  C   UNL     1      16.717 -35.130  19.407  1.00  0.00     0.053 C 
ATOM      4  C   UNL     1      17.079 -36.528  19.915  1.00  0.00     0.016 C 
BRANCH   3   5
ATOM      5  C   UNL     1      17.921 -34.215  19.356  1.00  0.00     0.015 C 
BRANCH   5   6
ATOM      6  C   UNL     1      19.300 -34.543  19.863  1.00  0.00     0.028 C 
BRANCH   6   7
ATOM      7  C   UNL     1      19.962 -33.249  20.342  1.00  0.00    -0.028 C 
ATOM      8  C   UNL     1      19.760 -32.551  21.513  1.00  0.00    -0.070 CG0
ATOM      9  C   UNL     1      20.670 -31.368  21.748  1.00  0.00     0.039 C 
ATOM     10  G   UNL     1      18.691 -32.835  22.593  1.00  0.00     0.000 G0
ENDBRANCH   6   7
ENDBRANCH   5   6
ENDBRANCH   3   5
ENDBRANCH   1   3
BRANCH   1  11
ATOM     11  C   UNL     1      16.038 -34.014  21.778  1.00  0.00     0.087 C 
BRANCH  11  12
ATOM     12  C   UNL     1      16.080 -32.450  22.019  1.00  0.00     0.066 C 
BRANCH  12  13
ATOM     13  C   UNL     1      17.448 -31.945  22.537  1.00  0.00     0.140 C 
ATOM     14  O   UNL     1      17.554 -30.788  22.914  1.00  0.00    -0.299 OA
BRANCH  13  15
ATOM     15  C   UNL     1      18.688 -32.846  22.593  1.00  0.00     0.106 CG0
ATOM     16  G   UNL     1      19.747 -32.549  21.506  1.00  0.00     0.000 G0
ENDBRANCH  13  15
ENDBRANCH  12  13
BRANCH  12  17
ATOM     17  C   UNL     1      14.912 -31.981  22.942  1.00  0.00    -0.006 C 
ATOM     18  C   UNL     1      14.762 -32.893  24.170  1.00  0.00     0.008 C 
ATOM     19  C   UNL     1      13.561 -31.845  22.217  1.00  0.00     0.008 C 
ENDBRANCH  12  17
ENDBRANCH  11  12
ENDBRANCH   1  11
TORSDOF 1
ENDMDL
MODEL 3
REMARK VINA RESULT:    -3.838      2.697      4.879
REMARK INTER + INTRA:          -6.404
REMARK INTER:                  -5.890
REMARK INTRA:                  -0.515
REMARK UNBOUND:                -0.547
REMARK SMILES CC1=CCC[C@@H](C)C(=O)C[C@@H](C(C)C)C(=O)C1
REMARK SMILES IDX 8 1 9 2 6 3 7 4 5 5 4 6 3 7 2 8 1 9 10 11 11 12 15 13 16 14
REMARK SMILES IDX 17 15 12 17 13 18 14 19
REMARK H PARENT
REMARK Flexibility Score: 70.00
ROOT
ATOM      1  C   UNL     1      16.070 -34.468  21.100  1.00  0.00     0.136 C 
ATOM      2  O   UNL     1      15.310 -33.915  20.320  1.00  0.00    -0.299 OA
ENDROOT
BRANCH   1   3
ATOM      3  C   UNL     1      17.425 -34.960  20.570  1.00  0.00     0.053 C 
ATOM      4  C   UNL     1      17.680 -34.423  19.160  1.00  0.00     0.016 C 
BRANCH   3   5
ATOM      5  C   UNL     1      17.376 -36.473  20.602  1.00  0.00     0.015 C 
BRANCH   5   6
ATOM      6  C   UNL     1      18.261 -37.366  21.429  1.00  0.00     0.028 C 
BRANCH   6   7
ATOM      7  C   UNL     1      19.189 -36.486  22.269  1.00  0.00    -0.028 C 
ATOM      8  C   UNL     1      19.011 -36.008  23.550  1.00  0.00    -0.070 CG0
ATOM      9  C   UNL     1      20.180 -35.264  24.152  1.00  0.00     0.039 C 
ATOM     10  G   UNL     1      17.739 -36.131  24.420  1.00  0.00     0.000 G0
ENDBRANCH   6   7
ENDBRANCH   5   6
ENDBRANCH   3   5
ENDBRANCH   1   3
BRANCH   1  11
ATOM     11  C   UNL     1      15.628 -34.631  22.569  1.00  0.00     0.087 C 
BRANCH  11  12
ATOM     12  C   UNL     1      16.495 -33.850  23.638  1.00  0.00     0.066 C 
BRANCH  12  13
ATOM     13  C   UNL     1      17.076 -34.764  24.744  1.00  0.00     0.140 C 
ATOM     14  O   UNL     1      17.008 -34.408  25.910  1.00  0.00    -0.299 OA
BRANCH  13  15
ATOM     15  C   UNL     1      17.745 -36.108  24.430  1.00  0.00     0.106 CG0
ATOM     16  G   UNL     1      19.003 -36.007  23.536  1.00  0.00     0.000 G0
ENDBRANCH  13  15
ENDBRANCH  12  13
BRANCH  12  17
ATOM     17  C   UNL     1      15.706 -32.649  24.249  1.00  0.00    -0.006 C 
ATOM     18  C   UNL     1      14.194 -32.922  24.276  1.00  0.00     0.008 C 
ATOM     19  C   UNL     1      15.988 -31.303  23.557  1.00  0.00     0.008 C 
ENDBRANCH  12  17
ENDBRANCH  11  12
ENDBRANCH   1  11
TORSDOF 1
ENDMDL
MODEL 4
REMARK VINA RESULT:    -3.828      2.087      4.706
REMARK INTER + INTRA:          -6.389
REMARK INTER:                  -5.957
REMARK INTRA:                  -0.432
REMARK UNBOUND:                -0.547
REMARK SMILES CC1=CCC[C@@H](C)C(=O)C[C@@H](C(C)C)C(=O)C1
REMARK SMILES IDX 8 1 9 2 6 3 7 4 5 5 4 6 3 7 2 8 1 9 10 11 11 12 15 13 16 14
REMARK SMILES IDX 17 15 12 17 13 18 14 19
REMARK H PARENT
REMARK Flexibility Score: 70.00
ROOT
ATOM      1  C   UNL     1      16.824 -35.548  21.578  1.00  0.00     0.136 C 
ATOM      2  O   UNL     1      17.547 -36.139  22.367  1.00  0.00    -0.299 OA
ENDROOT
BRANCH   1   3
ATOM      3  C   UNL     1      17.035 -35.789  20.077  1.00  0.00     0.053 C 
ATOM      4  C   UNL     1      16.979 -37.286  19.757  1.00  0.00     0.016 C 
BRANCH   3   5
ATOM      5  C   UNL     1      18.377 -35.184  19.727  1.00  0.00     0.015 C 
BRANCH   5   6
ATOM      6  C   UNL     1      18.739 -33.726  19.822  1.00  0.00     0.028 C 
BRANCH   6   7
ATOM      7  C   UNL     1      19.619 -33.523  21.057  1.00  0.00    -0.028 C 
ATOM      8  C   UNL     1      19.392 -32.738  22.167  1.00  0.00    -0.070 CG0
ATOM      9  C   UNL     1      20.405 -32.854  23.282  1.00  0.00     0.039 C 
ATOM     10  G   UNL     1      18.231 -31.740  22.378  1.00  0.00     0.000 G0
ENDBRANCH   6   7
ENDBRANCH   5   6
ENDBRANCH   3   5
ENDBRANCH   1   3
BRANCH   1  11
ATOM     11  C   UNL     1      15.741 -34.604  22.138  1.00  0.00     0.087 C 
BRANCH  11  12
ATOM     12  C   UNL     1      15.942 -33.066  21.826  1.00  0.00     0.066 C 
BRANCH  12  13
ATOM     13  C   UNL     1      16.894 -32.357  22.819  1.00  0.00     0.140 C 
ATOM     14  O   UNL     1      16.581 -32.282  23.998  1.00  0.00    -0.299 OA
BRANCH  13  15
ATOM     15  C   UNL     1      18.225 -31.734  22.379  1.00  0.00     0.106 CG0
ATOM     16  G   UNL     1      19.376 -32.748  22.185  1.00  0.00     0.000 G0
ENDBRANCH  13  15
ENDBRANCH  12  13
BRANCH  12  17
ATOM     17  C   UNL     1      14.576 -32.319  21.716  1.00  0.00    -0.006 C 
ATOM     18  C   UNL     1      13.791 -32.758  20.470  1.00  0.00     0.008 C 
ATOM     19  C   UNL     1      14.701 -30.785  21.748  1.00  0.00     0.008 C 
ENDBRANCH  12  17
ENDBRANCH  11  12
ENDBRANCH   1  11
TORSDOF 1
ENDMDL
MODEL 5
REMARK VINA RESULT:    -3.827      1.791      4.003
REMARK INTER + INTRA:          -6.388
REMARK INTER:                  -6.019
REMARK INTRA:                  -0.369
REMARK UNBOUND:                -0.547
REMARK SMILES CC1=CCC[C@@H](C)C(=O)C[C@@H](C(C)C)C(=O)C1
REMARK SMILES IDX 8 1 9 2 6 3 7 4 5 5 4 6 3 7 2 8 1 9 10 11 11 12 15 13 16 14
REMARK SMILES IDX 17 15 12 17 13 18 14 19
REMARK H PARENT
REMARK Flexibility Score: 70.00
ROOT
ATOM      1  C   UNL     1      17.610 -30.980  22.501  1.00  0.00     0.136 C 
ATOM      2  O   UNL     1      17.507 -30.801  23.705  1.00  0.00    -0.299 OA
ENDROOT
BRANCH   1   3
ATOM      3  C   UNL     1      18.921 -30.572  21.814  1.00  0.00     0.053 C 
ATOM      4  C   UNL     1      18.759 -29.230  21.096  1.00  0.00     0.016 C 
BRANCH   3   5
ATOM      5  C   UNL     1      19.272 -31.690  20.856  1.00  0.00     0.015 C 
BRANCH   5   6
ATOM      6  C   UNL     1      19.856 -33.025  21.234  1.00  0.00     0.028 C 
BRANCH   6   7
ATOM      7  C   UNL     1      19.221 -34.100  20.350  1.00  0.00    -0.028 C 
ATOM      8  C   UNL     1      18.099 -34.866  20.581  1.00  0.00    -0.070 CG0
ATOM      9  C   UNL     1      17.655 -35.758  19.445  1.00  0.00     0.039 C 
ATOM     10  G   UNL     1      17.266 -34.925  21.883  1.00  0.00     0.000 G0
ENDBRANCH   6   7
ENDBRANCH   5   6
ENDBRANCH   3   5
ENDBRANCH   1   3
BRANCH   1  11
ATOM     11  C   UNL     1      16.422 -31.612  21.746  1.00  0.00     0.087 C 
BRANCH  11  12
ATOM     12  C   UNL     1      15.698 -32.810  22.483  1.00  0.00     0.066 C 
BRANCH  12  13
ATOM     13  C   UNL     1      15.927 -34.180  21.800  1.00  0.00     0.140 C 
ATOM     14  O   UNL     1      15.012 -34.698  21.178  1.00  0.00    -0.299 OA
BRANCH  13  15
ATOM     15  C   UNL     1      17.267 -34.922  21.876  1.00  0.00     0.106 CG0
ATOM     16  G   UNL     1      18.098 -34.885  20.572  1.00  0.00     0.000 G0
ENDBRANCH  13  15
ENDBRANCH  12  13
BRANCH  12  17
ATOM     17  C   UNL     1      14.178 -32.523  22.687  1.00  0.00    -0.006 C 
ATOM     18  C   UNL     1      13.642 -31.542  21.633  1.00  0.00     0.008 C 
ATOM     19  C   UNL     1      13.823 -32.026  24.100  1.00  0.00     0.008 C 
ENDBRANCH  12  17
ENDBRANCH  11  12
ENDBRANCH   1  11
TORSDOF 1
ENDMDL
MODEL 6
REMARK VINA RESULT:    -3.820      2.640      4.969
REMARK INTER + INTRA:          -6.377
REMARK INTER:                  -5.827
REMARK INTRA:                  -0.550
REMARK UNBOUND:                -0.547
REMARK SMILES CC1=CCC[C@@H](C)C(=O)C[C@@H](C(C)C)C(=O)C1
REMARK SMILES IDX 8 1 9 2 6 3 7 4 5 5 4 6 3 7 2 8 1 9 10 11 11 12 15 13 16 14
REMARK SMILES IDX 17 15 12 17 13 18 14 19
REMARK H PARENT
REMARK Flexibility Score: 70.00
ROOT
ATOM      1  C   UNL     1      18.572 -36.135  20.818  1.00  0.00     0.136 C 
ATOM      2  O   UNL     1      19.242 -35.381  20.128  1.00  0.00    -0.299 OA
ENDROOT
BRANCH   1   3
ATOM      3  C   UNL     1      17.289 -36.725  20.217  1.00  0.00     0.053 C 
ATOM      4  C   UNL     1      17.615 -37.614  19.014  1.00  0.00     0.016 C 
BRANCH   3   5
ATOM      5  C   UNL     1      16.413 -35.551  19.834  1.00  0.00     0.015 C 
BRANCH   5   6
ATOM      6  C   UNL     1      15.384 -34.895  20.715  1.00  0.00     0.028 C 
BRANCH   6   7
ATOM      7  C   UNL     1      15.832 -33.461  21.001  1.00  0.00    -0.028 C 
ATOM      8  C   UNL     1      16.435 -32.945  22.128  1.00  0.00    -0.070 CG0
ATOM      9  C   UNL     1      16.874 -31.502  22.048  1.00  0.00     0.039 C 
ATOM     10  G   UNL     1      16.684 -33.678  23.467  1.00  0.00     0.000 G0
ENDBRANCH   6   7
ENDBRANCH   5   6
ENDBRANCH   3   5
ENDBRANCH   1   3
BRANCH   1  11
ATOM     11  C   UNL     1      19.060 -36.454  22.246  1.00  0.00     0.087 C 
BRANCH  11  12
ATOM     12  C   UNL     1      18.117 -35.965  23.419  1.00  0.00     0.066 C 
BRANCH  12  13
ATOM     13  C   UNL     1      18.026 -34.424  23.532  1.00  0.00     0.140 C 
ATOM     14  O   UNL     1      19.049 -33.774  23.679  1.00  0.00    -0.299 OA
BRANCH  13  15
ATOM     15  C   UNL     1      16.690 -33.674  23.470  1.00  0.00     0.106 CG0
ATOM     16  G   UNL     1      16.425 -32.939  22.136  1.00  0.00     0.000 G0
ENDBRANCH  13  15
ENDBRANCH  12  13
BRANCH  12  17
ATOM     17  C   UNL     1      18.516 -36.613  24.783  1.00  0.00    -0.006 C 
ATOM     18  C   UNL     1      19.416 -37.842  24.582  1.00  0.00     0.008 C 
ATOM     19  C   UNL     1      17.314 -36.977  25.673  1.00  0.00     0.008 C 
ENDBRANCH  12  17
ENDBRANCH  11  12
ENDBRANCH   1  11
TORSDOF 1
ENDMDL
MODEL 7
REMARK VINA RESULT:    -3.790      2.564      4.331
REMARK INTER + INTRA:          -6.330
REMARK INTER:                  -5.814
REMARK INTRA:                  -0.516
REMARK UNBOUND:                -0.547
REMARK SMILES CC1=CCC[C@@H](C)C(=O)C[C@@H](C(C)C)C(=O)C1
REMARK SMILES IDX 8 1 9 2 6 3 7 4 5 5 4 6 3 7 2 8 1 9 10 11 11 12 15 13 16 14
REMARK SMILES IDX 17 15 12 17 13 18 14 19
REMARK H PARENT
REMARK Flexibility Score: 70.00
ROOT
ATOM      1  C   UNL     1      18.051 -35.394  23.339  1.00  0.00     0.136 C 
ATOM      2  O   UNL     1      19.200 -35.730  23.096  1.00  0.00    -0.299 OA
ENDROOT
BRANCH   1   3
ATOM      3  C   UNL     1      17.723 -34.897  24.755  1.00  0.00     0.053 C 
ATOM      4  C   UNL     1      17.388 -36.073  25.676  1.00  0.00     0.016 C 
BRANCH   3   5
ATOM      5  C   UNL     1      16.561 -33.936  24.616  1.00  0.00     0.015 C 
BRANCH   5   6
ATOM      6  C   UNL     1      16.668 -32.454  24.374  1.00  0.00     0.028 C 
BRANCH   6   7
ATOM      7  C   UNL     1      15.321 -31.950  23.849  1.00  0.00    -0.028 C 
ATOM      8  C   UNL     1      14.872 -31.862  22.549  1.00  0.00    -0.070 CG0
ATOM      9  C   UNL     1      13.434 -31.438  22.368  1.00  0.00     0.039 C 
ATOM     10  G   UNL     1      15.690 -32.127  21.263  1.00  0.00     0.000 G0
ENDBRANCH   6   7
ENDBRANCH   5   6
ENDBRANCH   3   5
ENDBRANCH   1   3
BRANCH   1  11
ATOM     11  C   UNL     1      17.003 -35.481  22.211  1.00  0.00     0.087 C 
BRANCH  11  12
ATOM     12  C   UNL     1      17.132 -34.395  21.068  1.00  0.00     0.066 C 
BRANCH  12  13
ATOM     13  C   UNL     1      15.830 -33.589  20.836  1.00  0.00     0.140 C 
ATOM     14  O   UNL     1      14.876 -34.135  20.304  1.00  0.00    -0.299 OA
BRANCH  13  15
ATOM     15  C   UNL     1      15.691 -32.118  21.248  1.00  0.00     0.106 CG0
ATOM     16  G   UNL     1      14.876 -31.886  22.541  1.00  0.00     0.000 G0
ENDBRANCH  13  15
ENDBRANCH  12  13
BRANCH  12  17
ATOM     17  C   UNL     1      17.657 -35.021  19.738  1.00  0.00    -0.006 C 
ATOM     18  C   UNL     1      17.460 -36.545  19.716  1.00  0.00     0.008 C 
ATOM     19  C   UNL     1      19.123 -34.673  19.423  1.00  0.00     0.008 C 
ENDBRANCH  12  17
ENDBRANCH  11  12
ENDBRANCH   1  11
TORSDOF 1
ENDMDL
MODEL 8
REMARK VINA RESULT:    -3.682      2.010      4.305
REMARK INTER + INTRA:          -6.166
REMARK INTER:                  -5.755
REMARK INTRA:                  -0.411
REMARK UNBOUND:                -0.547
REMARK SMILES CC1=CCC[C@@H](C)C(=O)C[C@@H](C(C)C)C(=O)C1
REMARK SMILES IDX 8 1 9 2 6 3 7 4 5 5 4 6 3 7 2 8 1 9 10 11 11 12 15 13 16 14
REMARK SMILES IDX 17 15 12 17 13 18 14 19
REMARK H PARENT
REMARK Flexibility Score: 70.00
ROOT
ATOM      1  C   UNL     1      18.846 -31.325  22.075  1.00  0.00     0.136 C 
ATOM      2  O   UNL     1      19.475 -30.901  23.033  1.00  0.00    -0.299 OA
ENDROOT
BRANCH   1   3
ATOM      3  C   UNL     1      18.016 -30.330  21.251  1.00  0.00     0.053 C 
ATOM      4  C   UNL     1      18.834 -29.074  20.938  1.00  0.00     0.016 C 
BRANCH   3   5
ATOM      5  C   UNL     1      16.783 -30.014  22.071  1.00  0.00     0.015 C 
BRANCH   5   6
ATOM      6  C   UNL     1      15.363 -30.333  21.687  1.00  0.00     0.028 C 
BRANCH   6   7
ATOM      7  C   UNL     1      14.667 -30.974  22.889  1.00  0.00    -0.028 C 
ATOM      8  C   UNL     1      14.596 -32.303  23.247  1.00  0.00    -0.070 CG0
ATOM      9  C   UNL     1      13.936 -32.601  24.573  1.00  0.00     0.039 C 
ATOM     10  G   UNL     1      15.095 -33.514  22.427  1.00  0.00     0.000 G0
ENDBRANCH   6   7
ENDBRANCH   5   6
ENDBRANCH   3   5
ENDBRANCH   1   3
BRANCH   1  11
ATOM     11  C   UNL     1      18.929 -32.830  21.746  1.00  0.00     0.087 C 
BRANCH  11  12
ATOM     12  C   UNL     1      17.565 -33.521  21.338  1.00  0.00     0.066 C 
BRANCH  12  13
ATOM     13  C   UNL     1      16.611 -33.750  22.535  1.00  0.00     0.140 C 
ATOM     14  O   UNL     1      17.070 -34.132  23.601  1.00  0.00    -0.299 OA
BRANCH  13  15
ATOM     15  C   UNL     1      15.098 -33.520  22.435  1.00  0.00     0.106 CG0
ATOM     16  G   UNL     1      14.577 -32.308  23.241  1.00  0.00     0.000 G0
ENDBRANCH  13  15
ENDBRANCH  12  13
BRANCH  12  17
ATOM     17  C   UNL     1      17.807 -34.841  20.542  1.00  0.00    -0.006 C 
ATOM     18  C   UNL     1      19.142 -34.805  19.781  1.00  0.00     0.008 C 
ATOM     19  C   UNL     1      16.661 -35.207  19.581  1.00  0.00     0.008 C 
ENDBRANCH  12  17
ENDBRANCH  11  12
ENDBRANCH   1  11
TORSDOF 1
ENDMDL
MODEL 9
REMARK VINA RESULT:    -3.669      2.166      2.938
REMARK INTER + INTRA:          -6.146
REMARK INTER:                  -5.612
REMARK INTRA:                  -0.534
REMARK UNBOUND:                -0.547
REMARK SMILES CC1=CCC[C@@H](C)C(=O)C[C@@H](C(C)C)C(=O)C1
REMARK SMILES IDX 8 1 9 2 6 3 7 4 5 5 4 6 3 7 2 8 1 9 10 11 11 12 15 13 16 14
REMARK SMILES IDX 17 15 12 17 13 18 14 19
REMARK H PARENT
REMARK Flexibility Score: 70.00
ROOT
ATOM      1  C   UNL     1      16.200 -30.677  22.780  1.00  0.00     0.136 C 
ATOM      2  O   UNL     1      16.977 -30.189  21.973  1.00  0.00    -0.299 OA
ENDROOT
BRANCH   1   3
ATOM      3  C   UNL     1      14.762 -30.139  22.822  1.00  0.00     0.053 C 
ATOM      4  C   UNL     1      14.063 -30.569  24.115  1.00  0.00     0.016 C 
BRANCH   3   5
ATOM      5  C   UNL     1      14.063 -30.678  21.592  1.00  0.00     0.015 C 
BRANCH   5   6
ATOM      6  C   UNL     1      13.353 -32.001  21.491  1.00  0.00     0.028 C 
BRANCH   6   7
ATOM      7  C   UNL     1      14.204 -32.945  20.638  1.00  0.00    -0.028 C 
ATOM      8  C   UNL     1      15.030 -33.973  21.038  1.00  0.00    -0.070 CG0
ATOM      9  C   UNL     1      15.637 -34.807  19.934  1.00  0.00     0.039 C 
ATOM     10  G   UNL     1      15.416 -34.345  22.488  1.00  0.00     0.000 G0
ENDBRANCH   6   7
ENDBRANCH   5   6
ENDBRANCH   3   5
ENDBRANCH   1   3
BRANCH   1  11
ATOM     11  C   UNL     1      16.706 -31.807  23.700  1.00  0.00     0.087 C 
BRANCH  11  12
ATOM     12  C   UNL     1      17.634 -32.889  23.013  1.00  0.00     0.066 C 
BRANCH  12  13
ATOM     13  C   UNL     1      16.927 -34.246  22.781  1.00  0.00     0.140 C 
ATOM     14  O   UNL     1      17.581 -35.277  22.829  1.00  0.00    -0.299 OA
BRANCH  13  15
ATOM     15  C   UNL     1      15.426 -34.350  22.484  1.00  0.00     0.106 CG0
ATOM     16  G   UNL     1      15.029 -33.976  21.037  1.00  0.00     0.000 G0
ENDBRANCH  13  15
ENDBRANCH  12  13
BRANCH  12  17
ATOM     17  C   UNL     1      18.975 -33.071  23.792  1.00  0.00    -0.006 C 
ATOM     18  C   UNL     1      19.033 -32.170  25.035  1.00  0.00     0.008 C 
ATOM     19  C   UNL     1      20.230 -32.861  22.927  1.00  0.00     0.008 C 
ENDBRANCH  12  17
ENDBRANCH  11  12
ENDBRANCH   1  11
TORSDOF 1
ENDMDL
