MODEL 1
REMARK VINA RESULT:    -3.301      0.000      0.000
REMARK INTER + INTRA:          -3.590
REMARK INTER:                  -3.590
REMARK INTRA:                   0.000
REMARK UNBOUND:                 0.000
REMARK SMILES [NH3+]CC(=O)[O-]
REMARK SMILES IDX 2 1 1 2 3 6 4 7 5 8
REMARK H PARENT 1 3 1 4 1 5
REMARK Flexibility Score: inf
ROOT
ATOM      1  C   UNL     1     117.753 102.144 132.248  1.00  0.00     0.312 C 
ENDROOT
BRANCH   1   2
ATOM      2  N   UNL     1     117.123 103.026 133.228  1.00  0.00    -0.353 N 
ATOM      3  H   UNL     1     117.691 103.897 133.345  1.00  0.00     0.344 HD
ATOM      4  H   UNL     1     116.155 103.274 132.919  1.00  0.00     0.344 HD
ATOM      5  H   UNL     1     117.069 102.532 134.148  1.00  0.00     0.344 HD
ENDBRANCH   1   2
BRANCH   1   6
ATOM      6  C   UNL     1     116.828 101.884 131.099  1.00  0.00     0.096 C 
ATOM      7  O   UNL     1     116.022 100.918 131.140  1.00  0.00    -0.544 OA
ATOM      8  O   UNL     1     116.821 102.741 130.006  1.00  0.00    -0.544 OA
ENDBRANCH   1   6
TORSDOF 2
ENDMDL
MODEL 2
REMARK VINA RESULT:    -3.275      0.092      1.449
REMARK INTER + INTRA:          -3.563
REMARK INTER:                  -3.563
REMARK INTRA:                   0.000
REMARK UNBOUND:                 0.000
REMARK SMILES [NH3+]CC(=O)[O-]
REMARK SMILES IDX 2 1 1 2 3 6 4 7 5 8
REMARK H PARENT 1 3 1 4 1 5
REMARK Flexibility Score: inf
ROOT
ATOM      1  C   UNL     1     117.740 102.205 132.286  1.00  0.00     0.312 C 
ENDROOT
BRANCH   1   2
ATOM      2  N   UNL     1     117.070 103.052 133.271  1.00  0.00    -0.353 N 
ATOM      3  H   UNL     1     116.564 102.459 133.969  1.00  0.00     0.344 HD
ATOM      4  H   UNL     1     117.769 103.657 133.760  1.00  0.00     0.344 HD
ATOM      5  H   UNL     1     116.376 103.663 132.781  1.00  0.00     0.344 HD
ENDBRANCH   1   2
BRANCH   1   6
ATOM      6  C   UNL     1     116.851 101.960 131.107  1.00  0.00     0.096 C 
ATOM      7  O   UNL     1     116.879 102.738 130.119  1.00  0.00    -0.544 OA
ATOM      8  O   UNL     1     116.028 100.841 131.079  1.00  0.00    -0.544 OA
ENDBRANCH   1   6
TORSDOF 2
ENDMDL
MODEL 3
REMARK VINA RESULT:    -3.215     14.687     15.053
REMARK INTER + INTRA:          -3.496
REMARK INTER:                  -3.496
REMARK INTRA:                   0.000
REMARK UNBOUND:                 0.000
REMARK SMILES [NH3+]CC(=O)[O-]
REMARK SMILES IDX 2 1 1 2 3 6 4 7 5 8
REMARK H PARENT 1 3 1 4 1 5
REMARK Flexibility Score: inf
ROOT
ATOM      1  C   UNL     1     125.772 102.083 118.810  1.00  0.00     0.312 C 
ENDROOT
BRANCH   1   2
ATOM      2  N   UNL     1     124.591 102.887 119.118  1.00  0.00    -0.353 N 
ATOM      3  H   UNL     1     123.866 102.296 119.586  1.00  0.00     0.344 HD
ATOM      4  H   UNL     1     124.853 103.686 119.741  1.00  0.00     0.344 HD
ATOM      5  H   UNL     1     124.195 103.267 118.228  1.00  0.00     0.344 HD
ENDBRANCH   1   2
BRANCH   1   6
ATOM      6  C   UNL     1     126.484 101.687 120.067  1.00  0.00     0.096 C 
ATOM      7  O   UNL     1     127.723 101.467 120.051  1.00  0.00    -0.544 OA
ATOM      8  O   UNL     1     125.787 101.612 121.266  1.00  0.00    -0.544 OA
ENDBRANCH   1   6
TORSDOF 2
ENDMDL
MODEL 4
REMARK VINA RESULT:    -3.200     10.707     11.033
REMARK INTER + INTRA:          -3.480
REMARK INTER:                  -3.480
REMARK INTRA:                   0.000
REMARK UNBOUND:                 0.000
REMARK SMILES [NH3+]CC(=O)[O-]
REMARK SMILES IDX 2 1 1 2 3 6 4 7 5 8
REMARK H PARENT 1 3 1 4 1 5
REMARK Flexibility Score: inf
ROOT
ATOM      1  C   UNL     1     127.487 105.242 127.963  1.00  0.00     0.312 C 
ENDROOT
BRANCH   1   2
ATOM      2  N   UNL     1     127.976 105.706 126.666  1.00  0.00    -0.353 N 
ATOM      3  H   UNL     1     128.712 106.437 126.801  1.00  0.00     0.344 HD
ATOM      4  H   UNL     1     128.368 104.904 126.122  1.00  0.00     0.344 HD
ATOM      5  H   UNL     1     127.180 106.122 126.130  1.00  0.00     0.344 HD
ENDBRANCH   1   2
BRANCH   1   6
ATOM      6  C   UNL     1     126.469 104.158 127.787  1.00  0.00     0.096 C 
ATOM      7  O   UNL     1     126.740 102.974 128.118  1.00  0.00    -0.544 OA
ATOM      8  O   UNL     1     125.203 104.466 127.306  1.00  0.00    -0.544 OA
ENDBRANCH   1   6
TORSDOF 2
ENDMDL
MODEL 5
REMARK VINA RESULT:    -3.193     10.801     11.174
REMARK INTER + INTRA:          -3.473
REMARK INTER:                  -3.473
REMARK INTRA:                   0.000
REMARK UNBOUND:                 0.000
REMARK SMILES [NH3+]CC(=O)[O-]
REMARK SMILES IDX 2 1 1 2 3 6 4 7 5 8
REMARK H PARENT 1 3 1 4 1 5
REMARK Flexibility Score: inf
ROOT
ATOM      1  C   UNL     1     127.634 105.225 127.957  1.00  0.00     0.312 C 
ENDROOT
BRANCH   1   2
ATOM      2  N   UNL     1     128.002 105.770 126.651  1.00  0.00    -0.353 N 
ATOM      3  H   UNL     1     127.144 106.073 126.135  1.00  0.00     0.344 HD
ATOM      4  H   UNL     1     128.649 106.583 126.771  1.00  0.00     0.344 HD
ATOM      5  H   UNL     1     128.487 105.029 126.096  1.00  0.00     0.344 HD
ENDBRANCH   1   2
BRANCH   1   6
ATOM      6  C   UNL     1     126.551 104.201 127.816  1.00  0.00     0.096 C 
ATOM      7  O   UNL     1     125.442 104.517 127.313  1.00  0.00    -0.544 OA
ATOM      8  O   UNL     1     126.786 102.885 128.194  1.00  0.00    -0.544 OA
ENDBRANCH   1   6
TORSDOF 2
ENDMDL
MODEL 6
REMARK VINA RESULT:    -3.170     15.051     15.358
REMARK INTER + INTRA:          -3.448
REMARK INTER:                  -3.448
REMARK INTRA:                   0.000
REMARK UNBOUND:                 0.000
REMARK SMILES [NH3+]CC(=O)[O-]
REMARK SMILES IDX 2 1 1 2 3 6 4 7 5 8
REMARK H PARENT 1 3 1 4 1 5
REMARK Flexibility Score: inf
ROOT
ATOM      1  C   UNL     1     126.504 102.432 119.015  1.00  0.00     0.312 C 
ENDROOT
BRANCH   1   2
ATOM      2  N   UNL     1     127.923 102.655 119.288  1.00  0.00    -0.353 N 
ATOM      3  H   UNL     1     128.386 101.751 119.541  1.00  0.00     0.344 HD
ATOM      4  H   UNL     1     128.389 103.068 118.449  1.00  0.00     0.344 HD
ATOM      5  H   UNL     1     128.017 103.319 120.090  1.00  0.00     0.344 HD
ENDBRANCH   1   2
BRANCH   1   6
ATOM      6  C   UNL     1     126.001 101.241 119.771  1.00  0.00     0.096 C 
ATOM      7  O   UNL     1     125.799 101.316 121.011  1.00  0.00    -0.544 OA
ATOM      8  O   UNL     1     125.707 100.064 119.095  1.00  0.00    -0.544 OA
ENDBRANCH   1   6
TORSDOF 2
ENDMDL
MODEL 7
REMARK VINA RESULT:    -3.129      2.579      2.814
REMARK INTER + INTRA:          -3.403
REMARK INTER:                  -3.403
REMARK INTRA:                   0.000
REMARK UNBOUND:                 0.000
REMARK SMILES [NH3+]CC(=O)[O-]
REMARK SMILES IDX 2 1 1 2 3 6 4 7 5 8
REMARK H PARENT 1 3 1 4 1 5
REMARK Flexibility Score: inf
ROOT
ATOM      1  C   UNL     1     116.419 102.437 129.456  1.00  0.00     0.312 C 
ENDROOT
BRANCH   1   2
ATOM      2  N   UNL     1     116.288 101.398 128.437  1.00  0.00    -0.353 N 
ATOM      3  H   UNL     1     115.320 101.403 128.040  1.00  0.00     0.344 HD
ATOM      4  H   UNL     1     116.985 101.555 127.673  1.00  0.00     0.344 HD
ATOM      5  H   UNL     1     116.469 100.465 128.874  1.00  0.00     0.344 HD
ENDBRANCH   1   2
BRANCH   1   6
ATOM      6  C   UNL     1     116.695 101.830 130.797  1.00  0.00     0.096 C 
ATOM      7  O   UNL     1     115.998 100.868 131.213  1.00  0.00    -0.544 OA
ATOM      8  O   UNL     1     117.756 102.294 131.563  1.00  0.00    -0.544 OA
ENDBRANCH   1   6
TORSDOF 2
ENDMDL
MODEL 8
REMARK VINA RESULT:    -3.060      9.720     10.052
REMARK INTER + INTRA:          -3.329
REMARK INTER:                  -3.329
REMARK INTRA:                   0.000
REMARK UNBOUND:                 0.000
REMARK SMILES [NH3+]CC(=O)[O-]
REMARK SMILES IDX 2 1 1 2 3 6 4 7 5 8
REMARK H PARENT 1 3 1 4 1 5
REMARK Flexibility Score: inf
ROOT
ATOM      1  C   UNL     1     127.053 104.134 128.129  1.00  0.00     0.312 C 
ENDROOT
BRANCH   1   2
ATOM      2  N   UNL     1     127.558 102.786 127.879  1.00  0.00    -0.353 N 
ATOM      3  H   UNL     1     128.481 102.654 128.353  1.00  0.00     0.344 HD
ATOM      4  H   UNL     1     126.875 102.076 128.230  1.00  0.00     0.344 HD
ATOM      5  H   UNL     1     127.685 102.654 126.849  1.00  0.00     0.344 HD
ENDBRANCH   1   2
BRANCH   1   6
ATOM      6  C   UNL     1     125.557 104.155 128.088  1.00  0.00     0.096 C 
ATOM      7  O   UNL     1     124.892 103.997 129.145  1.00  0.00    -0.544 OA
ATOM      8  O   UNL     1     124.898 104.400 126.890  1.00  0.00    -0.544 OA
ENDBRANCH   1   6
TORSDOF 2
ENDMDL
MODEL 9
REMARK VINA RESULT:    -2.983     10.419     10.849
REMARK INTER + INTRA:          -3.245
REMARK INTER:                  -3.245
REMARK INTRA:                   0.000
REMARK UNBOUND:                 0.000
REMARK SMILES [NH3+]CC(=O)[O-]
REMARK SMILES IDX 2 1 1 2 3 6 4 7 5 8
REMARK H PARENT 1 3 1 4 1 5
REMARK Flexibility Score: inf
ROOT
ATOM      1  C   UNL     1     126.826 103.180 128.510  1.00  0.00     0.312 C 
ENDROOT
BRANCH   1   2
ATOM      2  N   UNL     1     128.267 102.994 128.356  1.00  0.00    -0.353 N 
ATOM      3  H   UNL     1     128.491 101.975 128.283  1.00  0.00     0.344 HD
ATOM      4  H   UNL     1     128.604 103.493 127.501  1.00  0.00     0.344 HD
ATOM      5  H   UNL     1     128.754 103.389 129.193  1.00  0.00     0.344 HD
ENDBRANCH   1   2
BRANCH   1   6
ATOM      6  C   UNL     1     126.355 104.350 127.702  1.00  0.00     0.096 C 
ATOM      7  O   UNL     1     127.164 105.250 127.357  1.00  0.00    -0.544 OA
ATOM      8  O   UNL     1     125.031 104.419 127.286  1.00  0.00    -0.544 OA
ENDBRANCH   1   6
TORSDOF 2
ENDMDL
