MODEL 1
REMARK VINA RESULT:    -7.478      0.000      0.000
REMARK INTER + INTRA:          -9.793
REMARK INTER:                 -10.102
REMARK INTRA:                   0.309
REMARK UNBOUND:                 0.309
REMARK SMILES O=c1c(-c2ccc(O)cc2)coc2c([C@@H]3O[C@@H](CO)[C@H](O)[C@@H](O)[C@H]3O)c(O)ccc12
REMARK SMILES IDX 3 1 11 2 12 3 13 4 30 5 2 6 1 7 29 8 28 9 26 10 14 11 4 12
REMARK SMILES IDX 5 13 6 14 7 15 10 16 9 17 8 18 15 20 24 21 16 22 22 23 17 24
REMARK SMILES IDX 20 25 25 26 23 28 18 30 19 31 21 33 27 35
REMARK H PARENT 8 19 25 27 23 29 19 32 21 34 27 36
REMARK Flexibility Score: inf
ROOT
ATOM      1  C   UNL     1     -25.243  -1.498   8.292  1.00  0.00     0.065 A 
ATOM      2  C   UNL     1     -24.114  -2.001   8.951  1.00  0.00     0.208 A 
ATOM      3  O   UNL     1     -23.747  -1.523  10.133  1.00  0.00    -0.463 OA
ATOM      4  C   UNL     1     -24.404  -0.554  10.770  1.00  0.00     0.147 A 
ATOM      5  C   UNL     1     -25.543   0.024  10.163  1.00  0.00     0.066 A 
ATOM      6  C   UNL     1     -25.962  -0.459   8.909  1.00  0.00     0.200 A 
ATOM      7  O   UNL     1     -26.961   0.051   8.331  1.00  0.00    -0.288 OA
ATOM      8  C   UNL     1     -26.218   1.065  10.809  1.00  0.00     0.020 A 
ATOM      9  C   UNL     1     -25.756   1.544  12.028  1.00  0.00     0.047 A 
ATOM     10  C   UNL     1     -24.627   0.989  12.644  1.00  0.00     0.125 A 
ATOM     11  C   UNL     1     -23.954  -0.114  12.045  1.00  0.00     0.069 A 
ENDROOT
BRANCH   1  12
ATOM     12  C   UNL     1     -25.643  -2.059   6.977  1.00  0.00    -0.011 A 
ATOM     13  C   UNL     1     -24.851  -1.831   5.838  1.00  0.00     0.013 A 
ATOM     14  C   UNL     1     -25.220  -2.365   4.600  1.00  0.00     0.047 A 
ATOM     15  C   UNL     1     -26.380  -3.136   4.484  1.00  0.00     0.115 A 
ATOM     16  C   UNL     1     -26.806  -2.841   6.855  1.00  0.00     0.013 A 
ATOM     17  C   UNL     1     -27.172  -3.374   5.615  1.00  0.00     0.047 A 
BRANCH  15  18
ATOM     18  O   UNL     1     -26.737  -3.662   3.243  1.00  0.00    -0.508 OA
ATOM     19  H   UNL     1     -26.309  -3.334   2.387  1.00  0.00     0.293 HD
ENDBRANCH  15  18
ENDBRANCH   1  12
BRANCH  11  20
ATOM     20  C   UNL     1     -22.716  -0.825  12.644  1.00  0.00     0.188 C 
ATOM     21  C   UNL     1     -22.298  -0.560  14.116  1.00  0.00     0.179 C 
ATOM     22  O   UNL     1     -22.770  -2.231  12.427  1.00  0.00    -0.362 OA
ATOM     23  C   UNL     1     -23.295  -1.225  15.081  1.00  0.00     0.177 C 
ATOM     24  C   UNL     1     -23.785  -2.852  13.204  1.00  0.00     0.176 C 
ATOM     25  C   UNL     1     -23.474  -2.712  14.715  1.00  0.00     0.177 C 
BRANCH  21  26
ATOM     26  O   UNL     1     -21.023  -1.114  14.338  1.00  0.00    -0.387 OA
ATOM     27  H   UNL     1     -20.726  -1.518  13.481  1.00  0.00     0.211 HD
ENDBRANCH  21  26
BRANCH  23  28
ATOM     28  O   UNL     1     -22.823  -1.100  16.398  1.00  0.00    -0.387 OA
ATOM     29  H   UNL     1     -22.866  -0.136  16.630  1.00  0.00     0.211 HD
ENDBRANCH  23  28
BRANCH  24  30
ATOM     30  C   UNL     1     -23.863  -4.327  12.779  1.00  0.00     0.191 C 
BRANCH  30  31
ATOM     31  O   UNL     1     -24.077  -4.451  11.398  1.00  0.00    -0.394 OA
ATOM     32  H   UNL     1     -23.447  -5.146  11.074  1.00  0.00     0.210 HD
ENDBRANCH  30  31
ENDBRANCH  24  30
BRANCH  25  33
ATOM     33  O   UNL     1     -24.482  -3.295  15.505  1.00  0.00    -0.388 OA
ATOM     34  H   UNL     1     -25.061  -2.562  15.843  1.00  0.00     0.211 HD
ENDBRANCH  25  33
ENDBRANCH  11  20
BRANCH  10  35
ATOM     35  O   UNL     1     -24.194   1.559  13.837  1.00  0.00    -0.507 OA
ATOM     36  H   UNL     1     -23.746   2.468  13.869  1.00  0.00     0.293 HD
ENDBRANCH  10  35
TORSDOF 9
ENDMDL
MODEL 2
REMARK VINA RESULT:    -7.067      2.014      7.674
REMARK INTER + INTRA:          -9.237
REMARK INTER:                  -9.496
REMARK INTRA:                   0.259
REMARK UNBOUND:                 0.309
REMARK SMILES O=c1c(-c2ccc(O)cc2)coc2c([C@@H]3O[C@@H](CO)[C@H](O)[C@@H](O)[C@H]3O)c(O)ccc12
REMARK SMILES IDX 3 1 11 2 12 3 13 4 30 5 2 6 1 7 29 8 28 9 26 10 14 11 4 12
REMARK SMILES IDX 5 13 6 14 7 15 10 16 9 17 8 18 15 20 24 21 16 22 22 23 17 24
REMARK SMILES IDX 20 25 25 26 23 28 18 30 19 31 21 33 27 35
REMARK H PARENT 8 19 25 27 23 29 19 32 21 34 27 36
REMARK Flexibility Score: inf
ROOT
ATOM      1  C   UNL     1     -24.170  -0.734  12.122  1.00  0.00     0.065 A 
ATOM      2  C   UNL     1     -24.749  -1.764  11.370  1.00  0.00     0.208 A 
ATOM      3  O   UNL     1     -25.642  -1.497  10.426  1.00  0.00    -0.463 OA
ATOM      4  C   UNL     1     -26.049  -0.264  10.126  1.00  0.00     0.147 A 
ATOM      5  C   UNL     1     -25.530   0.831  10.854  1.00  0.00     0.066 A 
ATOM      6  C   UNL     1     -24.579   0.586  11.862  1.00  0.00     0.200 A 
ATOM      7  O   UNL     1     -24.114   1.540  12.545  1.00  0.00    -0.288 OA
ATOM      8  C   UNL     1     -25.977   2.126  10.569  1.00  0.00     0.020 A 
ATOM      9  C   UNL     1     -26.945   2.330   9.594  1.00  0.00     0.047 A 
ATOM     10  C   UNL     1     -27.475   1.258   8.865  1.00  0.00     0.125 A 
ATOM     11  C   UNL     1     -26.996  -0.065   9.084  1.00  0.00     0.069 A 
ENDROOT
BRANCH   1  12
ATOM     12  C   UNL     1     -23.162  -1.055  13.164  1.00  0.00    -0.011 A 
ATOM     13  C   UNL     1     -21.807  -1.204  12.818  1.00  0.00     0.013 A 
ATOM     14  C   UNL     1     -20.854  -1.498  13.797  1.00  0.00     0.047 A 
ATOM     15  C   UNL     1     -21.239  -1.640  15.133  1.00  0.00     0.115 A 
ATOM     16  C   UNL     1     -23.542  -1.192  14.511  1.00  0.00     0.013 A 
ATOM     17  C   UNL     1     -22.586  -1.485  15.489  1.00  0.00     0.047 A 
BRANCH  15  18
ATOM     18  O   UNL     1     -20.279  -1.933  16.100  1.00  0.00    -0.508 OA
ATOM     19  H   UNL     1     -19.760  -1.201  16.569  1.00  0.00     0.293 HD
ENDBRANCH  15  18
ENDBRANCH   1  12
BRANCH  11  20
ATOM     20  C   UNL     1     -27.486  -1.321   8.323  1.00  0.00     0.188 C 
ATOM     21  C   UNL     1     -28.274  -1.171   6.992  1.00  0.00     0.179 C 
ATOM     22  O   UNL     1     -26.430  -2.256   8.130  1.00  0.00    -0.362 OA
ATOM     23  C   UNL     1     -27.333  -0.708   5.865  1.00  0.00     0.177 C 
ATOM     24  C   UNL     1     -25.467  -1.786   7.196  1.00  0.00     0.176 C 
ATOM     25  C   UNL     1     -26.102  -1.635   5.790  1.00  0.00     0.177 C 
BRANCH  21  26
ATOM     26  O   UNL     1     -28.817  -2.420   6.638  1.00  0.00    -0.387 OA
ATOM     27  H   UNL     1     -28.227  -3.118   7.027  1.00  0.00     0.211 HD
ENDBRANCH  21  26
BRANCH  23  28
ATOM     28  O   UNL     1     -28.027  -0.720   4.645  1.00  0.00    -0.387 OA
ATOM     29  H   UNL     1     -28.207  -1.670   4.424  1.00  0.00     0.211 HD
ENDBRANCH  23  28
BRANCH  24  30
ATOM     30  C   UNL     1     -24.301  -2.789   7.182  1.00  0.00     0.191 C 
BRANCH  30  31
ATOM     31  O   UNL     1     -24.109  -3.367   8.445  1.00  0.00    -0.394 OA
ATOM     32  H   UNL     1     -23.459  -2.792   8.925  1.00  0.00     0.210 HD
ENDBRANCH  30  31
ENDBRANCH  24  30
BRANCH  25  33
ATOM     33  O   UNL     1     -25.173  -1.143   4.855  1.00  0.00    -0.388 OA
ATOM     34  H   UNL     1     -25.068  -0.169   5.018  1.00  0.00     0.211 HD
ENDBRANCH  25  33
ENDBRANCH  11  20
BRANCH  10  35
ATOM     35  O   UNL     1     -28.480   1.536   7.942  1.00  0.00    -0.507 OA
ATOM     36  H   UNL     1     -29.463   1.471   8.181  1.00  0.00     0.293 HD
ENDBRANCH  10  35
TORSDOF 9
ENDMDL
MODEL 3
REMARK VINA RESULT:    -7.049      2.102      7.899
REMARK INTER + INTRA:          -9.213
REMARK INTER:                  -9.577
REMARK INTRA:                   0.364
REMARK UNBOUND:                 0.309
REMARK SMILES O=c1c(-c2ccc(O)cc2)coc2c([C@@H]3O[C@@H](CO)[C@H](O)[C@@H](O)[C@H]3O)c(O)ccc12
REMARK SMILES IDX 3 1 11 2 12 3 13 4 30 5 2 6 1 7 29 8 28 9 26 10 14 11 4 12
REMARK SMILES IDX 5 13 6 14 7 15 10 16 9 17 8 18 15 20 24 21 16 22 22 23 17 24
REMARK SMILES IDX 20 25 25 26 23 28 18 30 19 31 21 33 27 35
REMARK H PARENT 8 19 25 27 23 29 19 32 21 34 27 36
REMARK Flexibility Score: inf
ROOT
ATOM      1  C   UNL     1     -24.645  -0.614  10.896  1.00  0.00     0.065 A 
ATOM      2  C   UNL     1     -25.064  -1.639  10.038  1.00  0.00     0.208 A 
ATOM      3  O   UNL     1     -25.974  -1.412   9.100  1.00  0.00    -0.463 OA
ATOM      4  C   UNL     1     -26.546  -0.224   8.904  1.00  0.00     0.147 A 
ATOM      5  C   UNL     1     -26.195   0.859   9.743  1.00  0.00     0.066 A 
ATOM      6  C   UNL     1     -25.232   0.654  10.748  1.00  0.00     0.200 A 
ATOM      7  O   UNL     1     -24.914   1.595  11.527  1.00  0.00    -0.288 OA
ATOM      8  C   UNL     1     -26.817   2.100   9.566  1.00  0.00     0.020 A 
ATOM      9  C   UNL     1     -27.791   2.259   8.589  1.00  0.00     0.047 A 
ATOM     10  C   UNL     1     -28.156   1.197   7.751  1.00  0.00     0.125 A 
ATOM     11  C   UNL     1     -27.498  -0.061   7.861  1.00  0.00     0.069 A 
ENDROOT
BRANCH   1  12
ATOM     12  C   UNL     1     -23.615  -0.889  11.929  1.00  0.00    -0.011 A 
ATOM     13  C   UNL     1     -22.251  -0.711  11.636  1.00  0.00     0.013 A 
ATOM     14  C   UNL     1     -21.279  -0.961  12.610  1.00  0.00     0.047 A 
ATOM     15  C   UNL     1     -21.655  -1.384  13.887  1.00  0.00     0.115 A 
ATOM     16  C   UNL     1     -23.987  -1.309  13.219  1.00  0.00     0.013 A 
ATOM     17  C   UNL     1     -23.012  -1.557  14.191  1.00  0.00     0.047 A 
BRANCH  15  18
ATOM     18  O   UNL     1     -20.676  -1.629  14.848  1.00  0.00    -0.508 OA
ATOM     19  H   UNL     1     -20.735  -1.230  15.777  1.00  0.00     0.293 HD
ENDBRANCH  15  18
ENDBRANCH   1  12
BRANCH  11  20
ATOM     20  C   UNL     1     -27.798  -1.296   6.975  1.00  0.00     0.188 C 
ATOM     21  C   UNL     1     -28.479  -1.118   5.591  1.00  0.00     0.179 C 
ATOM     22  O   UNL     1     -26.643  -2.114   6.818  1.00  0.00    -0.362 OA
ATOM     23  C   UNL     1     -27.494  -0.488   4.589  1.00  0.00     0.177 C 
ATOM     24  C   UNL     1     -25.654  -1.490   6.011  1.00  0.00     0.176 C 
ATOM     25  C   UNL     1     -26.178  -1.291   4.566  1.00  0.00     0.177 C 
BRANCH  21  26
ATOM     26  O   UNL     1     -28.867  -2.380   5.105  1.00  0.00    -0.387 OA
ATOM     27  H   UNL     1     -29.693  -2.248   4.570  1.00  0.00     0.211 HD
ENDBRANCH  21  26
BRANCH  23  28
ATOM     28  O   UNL     1     -28.077  -0.471   3.311  1.00  0.00    -0.387 OA
ATOM     29  H   UNL     1     -27.345  -0.304   2.662  1.00  0.00     0.211 HD
ENDBRANCH  23  28
BRANCH  24  30
ATOM     30  C   UNL     1     -24.400  -2.379   6.038  1.00  0.00     0.191 C 
BRANCH  30  31
ATOM     31  O   UNL     1     -24.504  -3.380   7.015  1.00  0.00    -0.394 OA
ATOM     32  H   UNL     1     -24.122  -4.205   6.618  1.00  0.00     0.210 HD
ENDBRANCH  30  31
ENDBRANCH  24  30
BRANCH  25  33
ATOM     33  O   UNL     1     -25.224  -0.648   3.756  1.00  0.00    -0.388 OA
ATOM     34  H   UNL     1     -25.210   0.311   4.010  1.00  0.00     0.211 HD
ENDBRANCH  25  33
ENDBRANCH  11  20
BRANCH  10  35
ATOM     35  O   UNL     1     -29.179   1.419   6.833  1.00  0.00    -0.507 OA
ATOM     36  H   UNL     1     -30.064   1.832   7.101  1.00  0.00     0.293 HD
ENDBRANCH  10  35
TORSDOF 9
ENDMDL
MODEL 4
REMARK VINA RESULT:    -6.898      3.075      8.849
REMARK INTER + INTRA:          -9.009
REMARK INTER:                  -9.673
REMARK INTRA:                   0.664
REMARK UNBOUND:                 0.309
REMARK SMILES O=c1c(-c2ccc(O)cc2)coc2c([C@@H]3O[C@@H](CO)[C@H](O)[C@@H](O)[C@H]3O)c(O)ccc12
REMARK SMILES IDX 3 1 11 2 12 3 13 4 30 5 2 6 1 7 29 8 28 9 26 10 14 11 4 12
REMARK SMILES IDX 5 13 6 14 7 15 10 16 9 17 8 18 15 20 24 21 16 22 22 23 17 24
REMARK SMILES IDX 20 25 25 26 23 28 18 30 19 31 21 33 27 35
REMARK H PARENT 8 19 25 27 23 29 19 32 21 34 27 36
REMARK Flexibility Score: inf
ROOT
ATOM      1  C   UNL     1     -21.021  -2.357  15.573  1.00  0.00     0.065 A 
ATOM      2  C   UNL     1     -20.965  -1.705  14.334  1.00  0.00     0.208 A 
ATOM      3  O   UNL     1     -21.995  -1.741  13.499  1.00  0.00    -0.463 OA
ATOM      4  C   UNL     1     -23.134  -2.380  13.764  1.00  0.00     0.147 A 
ATOM      5  C   UNL     1     -23.264  -3.083  14.985  1.00  0.00     0.066 A 
ATOM      6  C   UNL     1     -22.191  -3.066  15.895  1.00  0.00     0.200 A 
ATOM      7  O   UNL     1     -22.268  -3.702  16.983  1.00  0.00    -0.288 OA
ATOM      8  C   UNL     1     -24.443  -3.786  15.256  1.00  0.00     0.020 A 
ATOM      9  C   UNL     1     -25.469  -3.814  14.319  1.00  0.00     0.047 A 
ATOM     10  C   UNL     1     -25.358  -3.128  13.103  1.00  0.00     0.125 A 
ATOM     11  C   UNL     1     -24.198  -2.351  12.822  1.00  0.00     0.069 A 
ENDROOT
BRANCH   1  12
ATOM     12  C   UNL     1     -19.861  -2.292  16.497  1.00  0.00    -0.011 A 
ATOM     13  C   UNL     1     -18.578  -2.661  16.053  1.00  0.00     0.013 A 
ATOM     14  C   UNL     1     -17.483  -2.592  16.918  1.00  0.00     0.047 A 
ATOM     15  C   UNL     1     -17.651  -2.149  18.233  1.00  0.00     0.115 A 
ATOM     16  C   UNL     1     -20.022  -1.841  17.819  1.00  0.00     0.013 A 
ATOM     17  C   UNL     1     -18.924  -1.772  18.682  1.00  0.00     0.047 A 
BRANCH  15  18
ATOM     18  O   UNL     1     -16.550  -2.086  19.085  1.00  0.00    -0.508 OA
ATOM     19  H   UNL     1     -16.316  -2.851  19.705  1.00  0.00     0.293 HD
ENDBRANCH  15  18
ENDBRANCH   1  12
BRANCH  11  20
ATOM     20  C   UNL     1     -23.975  -1.532  11.527  1.00  0.00     0.188 C 
ATOM     21  C   UNL     1     -24.897  -1.749  10.296  1.00  0.00     0.179 C 
ATOM     22  O   UNL     1     -23.895  -0.137  11.802  1.00  0.00    -0.362 OA
ATOM     23  C   UNL     1     -26.295  -1.164  10.568  1.00  0.00     0.177 C 
ATOM     24  C   UNL     1     -25.150   0.401  12.197  1.00  0.00     0.176 C 
ATOM     25  C   UNL     1     -26.173   0.300  11.037  1.00  0.00     0.177 C 
BRANCH  21  26
ATOM     26  O   UNL     1     -24.343  -1.087   9.185  1.00  0.00    -0.387 OA
ATOM     27  H   UNL     1     -25.097  -0.693   8.672  1.00  0.00     0.211 HD
ENDBRANCH  21  26
BRANCH  23  28
ATOM     28  O   UNL     1     -27.066  -1.238   9.396  1.00  0.00    -0.387 OA
ATOM     29  H   UNL     1     -26.442  -1.434   8.651  1.00  0.00     0.211 HD
ENDBRANCH  23  28
BRANCH  24  30
ATOM     30  C   UNL     1     -24.921   1.861  12.620  1.00  0.00     0.191 C 
BRANCH  30  31
ATOM     31  O   UNL     1     -25.290   2.752  11.602  1.00  0.00    -0.394 OA
ATOM     32  H   UNL     1     -26.211   3.055  11.810  1.00  0.00     0.210 HD
ENDBRANCH  30  31
ENDBRANCH  24  30
BRANCH  25  33
ATOM     33  O   UNL     1     -27.432   0.801  11.416  1.00  0.00    -0.388 OA
ATOM     34  H   UNL     1     -27.686   0.363  12.270  1.00  0.00     0.211 HD
ENDBRANCH  25  33
ENDBRANCH  11  20
BRANCH  10  35
ATOM     35  O   UNL     1     -26.405  -3.248  12.193  1.00  0.00    -0.507 OA
ATOM     36  H   UNL     1     -27.108  -2.527  12.082  1.00  0.00     0.293 HD
ENDBRANCH  10  35
TORSDOF 9
ENDMDL
MODEL 5
REMARK VINA RESULT:    -6.883      2.953      3.775
REMARK INTER + INTRA:          -8.989
REMARK INTER:                  -9.606
REMARK INTRA:                   0.617
REMARK UNBOUND:                 0.309
REMARK SMILES O=c1c(-c2ccc(O)cc2)coc2c([C@@H]3O[C@@H](CO)[C@H](O)[C@@H](O)[C@H]3O)c(O)ccc12
REMARK SMILES IDX 3 1 11 2 12 3 13 4 30 5 2 6 1 7 29 8 28 9 26 10 14 11 4 12
REMARK SMILES IDX 5 13 6 14 7 15 10 16 9 17 8 18 15 20 24 21 16 22 22 23 17 24
REMARK SMILES IDX 20 25 25 26 23 28 18 30 19 31 21 33 27 35
REMARK H PARENT 8 19 25 27 23 29 19 32 21 34 27 36
REMARK Flexibility Score: inf
ROOT
ATOM      1  C   UNL     1     -26.974   0.922   8.666  1.00  0.00     0.065 A 
ATOM      2  C   UNL     1     -26.592  -0.425   8.715  1.00  0.00     0.208 A 
ATOM      3  O   UNL     1     -25.871  -0.891   9.727  1.00  0.00    -0.463 OA
ATOM      4  C   UNL     1     -25.464  -0.137  10.748  1.00  0.00     0.147 A 
ATOM      5  C   UNL     1     -25.790   1.239  10.764  1.00  0.00     0.066 A 
ATOM      6  C   UNL     1     -26.554   1.768   9.707  1.00  0.00     0.200 A 
ATOM      7  O   UNL     1     -26.841   2.997   9.681  1.00  0.00    -0.288 OA
ATOM      8  C   UNL     1     -25.338   2.045  11.815  1.00  0.00     0.020 A 
ATOM      9  C   UNL     1     -24.552   1.499  12.823  1.00  0.00     0.047 A 
ATOM     10  C   UNL     1     -24.216   0.140  12.823  1.00  0.00     0.125 A 
ATOM     11  C   UNL     1     -24.712  -0.721  11.803  1.00  0.00     0.069 A 
ENDROOT
BRANCH   1  12
ATOM     12  C   UNL     1     -27.793   1.418   7.531  1.00  0.00    -0.011 A 
ATOM     13  C   UNL     1     -28.904   2.248   7.766  1.00  0.00     0.013 A 
ATOM     14  C   UNL     1     -29.671   2.724   6.699  1.00  0.00     0.047 A 
ATOM     15  C   UNL     1     -29.338   2.382   5.386  1.00  0.00     0.115 A 
ATOM     16  C   UNL     1     -27.459   1.084   6.206  1.00  0.00     0.013 A 
ATOM     17  C   UNL     1     -28.229   1.562   5.141  1.00  0.00     0.047 A 
BRANCH  15  18
ATOM     18  O   UNL     1     -30.112   2.863   4.331  1.00  0.00    -0.508 OA
ATOM     19  H   UNL     1     -29.753   3.554   3.684  1.00  0.00     0.293 HD
ENDBRANCH  15  18
ENDBRANCH   1  12
BRANCH  11  20
ATOM     20  C   UNL     1     -24.429  -2.241  11.714  1.00  0.00     0.188 C 
ATOM     21  C   UNL     1     -23.781  -2.987  12.912  1.00  0.00     0.179 C 
ATOM     22  O   UNL     1     -25.585  -2.960  11.295  1.00  0.00    -0.362 OA
ATOM     23  C   UNL     1     -24.790  -3.121  14.067  1.00  0.00     0.177 C 
ATOM     24  C   UNL     1     -26.594  -2.975  12.295  1.00  0.00     0.176 C 
ATOM     25  C   UNL     1     -26.104  -3.741  13.551  1.00  0.00     0.177 C 
BRANCH  21  26
ATOM     26  O   UNL     1     -23.401  -4.277  12.498  1.00  0.00    -0.387 OA
ATOM     27  H   UNL     1     -23.367  -4.848  13.310  1.00  0.00     0.211 HD
ENDBRANCH  21  26
BRANCH  23  28
ATOM     28  O   UNL     1     -24.237  -3.922  15.079  1.00  0.00    -0.387 OA
ATOM     29  H   UNL     1     -23.310  -4.139  14.802  1.00  0.00     0.211 HD
ENDBRANCH  23  28
BRANCH  24  30
ATOM     30  C   UNL     1     -27.845  -3.632  11.687  1.00  0.00     0.191 C 
BRANCH  30  31
ATOM     31  O   UNL     1     -29.020  -3.093  12.229  1.00  0.00    -0.394 OA
ATOM     32  H   UNL     1     -29.491  -3.837  12.685  1.00  0.00     0.210 HD
ENDBRANCH  30  31
ENDBRANCH  24  30
BRANCH  25  33
ATOM     33  O   UNL     1     -27.078  -3.744  14.566  1.00  0.00    -0.388 OA
ATOM     34  H   UNL     1     -27.878  -4.217  14.214  1.00  0.00     0.211 HD
ENDBRANCH  25  33
ENDBRANCH  11  20
BRANCH  10  35
ATOM     35  O   UNL     1     -23.381  -0.321  13.837  1.00  0.00    -0.507 OA
ATOM     36  H   UNL     1     -23.295  -1.306  14.059  1.00  0.00     0.293 HD
ENDBRANCH  10  35
TORSDOF 9
ENDMDL
MODEL 6
REMARK VINA RESULT:    -6.820      3.363      5.403
REMARK INTER + INTRA:          -8.903
REMARK INTER:                  -9.323
REMARK INTRA:                   0.420
REMARK UNBOUND:                 0.309
REMARK SMILES O=c1c(-c2ccc(O)cc2)coc2c([C@@H]3O[C@@H](CO)[C@H](O)[C@@H](O)[C@H]3O)c(O)ccc12
REMARK SMILES IDX 3 1 11 2 12 3 13 4 30 5 2 6 1 7 29 8 28 9 26 10 14 11 4 12
REMARK SMILES IDX 5 13 6 14 7 15 10 16 9 17 8 18 15 20 24 21 16 22 22 23 17 24
REMARK SMILES IDX 20 25 25 26 23 28 18 30 19 31 21 33 27 35
REMARK H PARENT 8 19 25 27 23 29 19 32 21 34 27 36
REMARK Flexibility Score: inf
ROOT
ATOM      1  C   UNL     1     -25.838  -1.308  12.055  1.00  0.00     0.065 A 
ATOM      2  C   UNL     1     -24.589  -1.412  12.681  1.00  0.00     0.208 A 
ATOM      3  O   UNL     1     -24.267  -2.490  13.384  1.00  0.00    -0.463 OA
ATOM      4  C   UNL     1     -25.083  -3.531  13.547  1.00  0.00     0.147 A 
ATOM      5  C   UNL     1     -26.372  -3.497  12.965  1.00  0.00     0.066 A 
ATOM      6  C   UNL     1     -26.747  -2.369  12.212  1.00  0.00     0.200 A 
ATOM      7  O   UNL     1     -27.898  -2.299  11.699  1.00  0.00    -0.288 OA
ATOM      8  C   UNL     1     -27.247  -4.571  13.160  1.00  0.00     0.020 A 
ATOM      9  C   UNL     1     -26.860  -5.652  13.942  1.00  0.00     0.047 A 
ATOM     10  C   UNL     1     -25.590  -5.703  14.530  1.00  0.00     0.125 A 
ATOM     11  C   UNL     1     -24.651  -4.657  14.299  1.00  0.00     0.069 A 
ENDROOT
BRANCH   1  12
ATOM     12  C   UNL     1     -26.170  -0.098  11.261  1.00  0.00    -0.011 A 
ATOM     13  C   UNL     1     -26.159   1.172  11.864  1.00  0.00     0.013 A 
ATOM     14  C   UNL     1     -26.462   2.314  11.118  1.00  0.00     0.047 A 
ATOM     15  C   UNL     1     -26.775   2.204   9.760  1.00  0.00     0.115 A 
ATOM     16  C   UNL     1     -26.479  -0.201   9.893  1.00  0.00     0.013 A 
ATOM     17  C   UNL     1     -26.782   0.943   9.148  1.00  0.00     0.047 A 
BRANCH  15  18
ATOM     18  O   UNL     1     -27.077   3.350   9.027  1.00  0.00    -0.508 OA
ATOM     19  H   UNL     1     -27.526   3.296   8.121  1.00  0.00     0.293 HD
ENDBRANCH  15  18
ENDBRANCH   1  12
BRANCH  11  20
ATOM     20  C   UNL     1     -23.213  -4.617  14.873  1.00  0.00     0.188 C 
ATOM     21  C   UNL     1     -22.515  -3.255  15.137  1.00  0.00     0.179 C 
ATOM     22  O   UNL     1     -23.097  -5.428  16.037  1.00  0.00    -0.362 OA
ATOM     23  C   UNL     1     -23.148  -2.559  16.355  1.00  0.00     0.177 C 
ATOM     24  C   UNL     1     -23.797  -4.876  17.143  1.00  0.00     0.176 C 
ATOM     25  C   UNL     1     -23.173  -3.521  17.561  1.00  0.00     0.177 C 
BRANCH  21  26
ATOM     26  O   UNL     1     -21.153  -3.483  15.410  1.00  0.00    -0.387 OA
ATOM     27  H   UNL     1     -20.775  -3.967  14.629  1.00  0.00     0.211 HD
ENDBRANCH  21  26
BRANCH  23  28
ATOM     28  O   UNL     1     -22.412  -1.405  16.667  1.00  0.00    -0.387 OA
ATOM     29  H   UNL     1     -21.497  -1.538  16.306  1.00  0.00     0.211 HD
ENDBRANCH  23  28
BRANCH  24  30
ATOM     30  C   UNL     1     -23.740  -5.899  18.290  1.00  0.00     0.191 C 
BRANCH  30  31
ATOM     31  O   UNL     1     -22.802  -5.524  19.263  1.00  0.00    -0.394 OA
ATOM     32  H   UNL     1     -22.561  -6.349  19.759  1.00  0.00     0.210 HD
ENDBRANCH  30  31
ENDBRANCH  24  30
BRANCH  25  33
ATOM     33  O   UNL     1     -23.869  -2.942  18.637  1.00  0.00    -0.388 OA
ATOM     34  H   UNL     1     -24.454  -2.228  18.269  1.00  0.00     0.211 HD
ENDBRANCH  25  33
ENDBRANCH  11  20
BRANCH  10  35
ATOM     35  O   UNL     1     -25.296  -6.793  15.343  1.00  0.00    -0.507 OA
ATOM     36  H   UNL     1     -24.344  -7.105  15.504  1.00  0.00     0.293 HD
ENDBRANCH  10  35
TORSDOF 9
ENDMDL
MODEL 7
REMARK VINA RESULT:    -6.766      2.198      7.477
REMARK INTER + INTRA:          -8.830
REMARK INTER:                  -9.105
REMARK INTRA:                   0.275
REMARK UNBOUND:                 0.309
REMARK SMILES O=c1c(-c2ccc(O)cc2)coc2c([C@@H]3O[C@@H](CO)[C@H](O)[C@@H](O)[C@H]3O)c(O)ccc12
REMARK SMILES IDX 3 1 11 2 12 3 13 4 30 5 2 6 1 7 29 8 28 9 26 10 14 11 4 12
REMARK SMILES IDX 5 13 6 14 7 15 10 16 9 17 8 18 15 20 24 21 16 22 22 23 17 24
REMARK SMILES IDX 20 25 25 26 23 28 18 30 19 31 21 33 27 35
REMARK H PARENT 8 19 25 27 23 29 19 32 21 34 27 36
REMARK Flexibility Score: inf
ROOT
ATOM      1  C   UNL     1     -23.396  -1.183  12.898  1.00  0.00     0.065 A 
ATOM      2  C   UNL     1     -23.469  -2.165  11.902  1.00  0.00     0.208 A 
ATOM      3  O   UNL     1     -24.175  -1.963  10.797  1.00  0.00    -0.463 OA
ATOM      4  C   UNL     1     -24.852  -0.841  10.552  1.00  0.00     0.147 A 
ATOM      5  C   UNL     1     -24.848   0.193  11.518  1.00  0.00     0.066 A 
ATOM      6  C   UNL     1     -24.110   0.013  12.702  1.00  0.00     0.200 A 
ATOM      7  O   UNL     1     -24.105   0.907  13.592  1.00  0.00    -0.288 OA
ATOM      8  C   UNL     1     -25.585   1.359  11.284  1.00  0.00     0.020 A 
ATOM      9  C   UNL     1     -26.334   1.489  10.121  1.00  0.00     0.047 A 
ATOM     10  C   UNL     1     -26.354   0.475   9.156  1.00  0.00     0.125 A 
ATOM     11  C   UNL     1     -25.566  -0.698   9.332  1.00  0.00     0.069 A 
ENDROOT
BRANCH   1  12
ATOM     12  C   UNL     1     -22.589  -1.425  14.120  1.00  0.00    -0.011 A 
ATOM     13  C   UNL     1     -23.221  -1.647  15.356  1.00  0.00     0.013 A 
ATOM     14  C   UNL     1     -22.464  -1.885  16.507  1.00  0.00     0.047 A 
ATOM     15  C   UNL     1     -21.068  -1.910  16.437  1.00  0.00     0.115 A 
ATOM     16  C   UNL     1     -21.184  -1.459  14.056  1.00  0.00     0.013 A 
ATOM     17  C   UNL     1     -20.429  -1.698  15.209  1.00  0.00     0.047 A 
BRANCH  15  18
ATOM     18  O   UNL     1     -20.325  -2.148  17.592  1.00  0.00    -0.508 OA
ATOM     19  H   UNL     1     -20.480  -2.970  18.161  1.00  0.00     0.293 HD
ENDBRANCH  15  18
ENDBRANCH   1  12
BRANCH  11  20
ATOM     20  C   UNL     1     -25.488  -1.870   8.323  1.00  0.00     0.188 C 
ATOM     21  C   UNL     1     -25.121  -3.299   8.811  1.00  0.00     0.179 C 
ATOM     22  O   UNL     1     -26.662  -1.945   7.522  1.00  0.00    -0.362 OA
ATOM     23  C   UNL     1     -26.290  -3.905   9.609  1.00  0.00     0.177 C 
ATOM     24  C   UNL     1     -27.793  -2.367   8.272  1.00  0.00     0.176 C 
ATOM     25  C   UNL     1     -27.593  -3.814   8.789  1.00  0.00     0.177 C 
BRANCH  21  26
ATOM     26  O   UNL     1     -24.870  -4.115   7.693  1.00  0.00    -0.387 OA
ATOM     27  H   UNL     1     -25.602  -3.953   7.041  1.00  0.00     0.211 HD
ENDBRANCH  21  26
BRANCH  23  28
ATOM     28  O   UNL     1     -25.999  -5.245   9.915  1.00  0.00    -0.387 OA
ATOM     29  H   UNL     1     -25.121  -5.452   9.502  1.00  0.00     0.211 HD
ENDBRANCH  23  28
BRANCH  24  30
ATOM     30  C   UNL     1     -29.026  -2.260   7.359  1.00  0.00     0.191 C 
BRANCH  30  31
ATOM     31  O   UNL     1     -28.940  -1.144   6.514  1.00  0.00    -0.394 OA
ATOM     32  H   UNL     1     -28.554  -0.407   7.053  1.00  0.00     0.210 HD
ENDBRANCH  30  31
ENDBRANCH  24  30
BRANCH  25  33
ATOM     33  O   UNL     1     -28.689  -4.242   9.559  1.00  0.00    -0.388 OA
ATOM     34  H   UNL     1     -29.512  -3.867   9.148  1.00  0.00     0.211 HD
ENDBRANCH  25  33
ENDBRANCH  11  20
BRANCH  10  35
ATOM     35  O   UNL     1     -27.172   0.655   8.044  1.00  0.00    -0.507 OA
ATOM     36  H   UNL     1     -28.164   0.449   8.065  1.00  0.00     0.293 HD
ENDBRANCH  10  35
TORSDOF 9
ENDMDL
MODEL 8
REMARK VINA RESULT:    -6.736      2.693      8.143
REMARK INTER + INTRA:          -8.790
REMARK INTER:                  -8.966
REMARK INTRA:                   0.176
REMARK UNBOUND:                 0.309
REMARK SMILES O=c1c(-c2ccc(O)cc2)coc2c([C@@H]3O[C@@H](CO)[C@H](O)[C@@H](O)[C@H]3O)c(O)ccc12
REMARK SMILES IDX 3 1 11 2 12 3 13 4 30 5 2 6 1 7 29 8 28 9 26 10 14 11 4 12
REMARK SMILES IDX 5 13 6 14 7 15 10 16 9 17 8 18 15 20 24 21 16 22 22 23 17 24
REMARK SMILES IDX 20 25 25 26 23 28 18 30 19 31 21 33 27 35
REMARK H PARENT 8 19 25 27 23 29 19 32 21 34 27 36
REMARK Flexibility Score: inf
ROOT
ATOM      1  C   UNL     1     -23.743  -2.945  14.919  1.00  0.00     0.065 A 
ATOM      2  C   UNL     1     -23.711  -1.974  13.909  1.00  0.00     0.208 A 
ATOM      3  O   UNL     1     -24.658  -1.926  12.982  1.00  0.00    -0.463 OA
ATOM      4  C   UNL     1     -25.687  -2.772  12.937  1.00  0.00     0.147 A 
ATOM      5  C   UNL     1     -25.781  -3.797  13.907  1.00  0.00     0.066 A 
ATOM      6  C   UNL     1     -24.794  -3.878  14.907  1.00  0.00     0.200 A 
ATOM      7  O   UNL     1     -24.839  -4.795  15.773  1.00  0.00    -0.288 OA
ATOM      8  C   UNL     1     -26.839  -4.711  13.846  1.00  0.00     0.020 A 
ATOM      9  C   UNL     1     -27.775  -4.626  12.823  1.00  0.00     0.047 A 
ATOM     10  C   UNL     1     -27.697  -3.622  11.851  1.00  0.00     0.125 A 
ATOM     11  C   UNL     1     -26.670  -2.637  11.919  1.00  0.00     0.069 A 
ENDROOT
BRANCH   1  12
ATOM     12  C   UNL     1     -22.679  -2.971  15.955  1.00  0.00    -0.011 A 
ATOM     13  C   UNL     1     -21.504  -3.715  15.747  1.00  0.00     0.013 A 
ATOM     14  C   UNL     1     -20.498  -3.734  16.716  1.00  0.00     0.047 A 
ATOM     15  C   UNL     1     -20.648  -3.009  17.902  1.00  0.00     0.115 A 
ATOM     16  C   UNL     1     -22.822  -2.238  17.146  1.00  0.00     0.013 A 
ATOM     17  C   UNL     1     -21.812  -2.259  18.114  1.00  0.00     0.047 A 
BRANCH  15  18
ATOM     18  O   UNL     1     -19.637  -3.037  18.860  1.00  0.00    -0.508 OA
ATOM     19  H   UNL     1     -19.064  -3.860  19.001  1.00  0.00     0.293 HD
ENDBRANCH  15  18
ENDBRANCH   1  12
BRANCH  11  20
ATOM     20  C   UNL     1     -26.499  -1.467  10.919  1.00  0.00     0.188 C 
ATOM     21  C   UNL     1     -25.104  -0.818  10.707  1.00  0.00     0.179 C 
ATOM     22  O   UNL     1     -27.057  -1.785   9.649  1.00  0.00    -0.362 OA
ATOM     23  C   UNL     1     -24.183  -1.775   9.929  1.00  0.00     0.177 C 
ATOM     24  C   UNL     1     -26.301  -2.778   8.968  1.00  0.00     0.176 C 
ATOM     25  C   UNL     1     -24.882  -2.249   8.638  1.00  0.00     0.177 C 
BRANCH  21  26
ATOM     26  O   UNL     1     -25.257   0.363   9.958  1.00  0.00    -0.387 OA
ATOM     27  H   UNL     1     -25.021   0.147   9.018  1.00  0.00     0.211 HD
ENDBRANCH  21  26
BRANCH  23  28
ATOM     28  O   UNL     1     -22.982  -1.118   9.620  1.00  0.00    -0.387 OA
ATOM     29  H   UNL     1     -23.178  -0.145   9.611  1.00  0.00     0.211 HD
ENDBRANCH  23  28
BRANCH  24  30
ATOM     30  C   UNL     1     -27.071  -3.158   7.693  1.00  0.00     0.191 C 
BRANCH  30  31
ATOM     31  O   UNL     1     -26.710  -4.436   7.240  1.00  0.00    -0.394 OA
ATOM     32  H   UNL     1     -27.340  -5.075   7.663  1.00  0.00     0.210 HD
ENDBRANCH  30  31
ENDBRANCH  24  30
BRANCH  25  33
ATOM     33  O   UNL     1     -24.106  -3.226   7.989  1.00  0.00    -0.388 OA
ATOM     34  H   UNL     1     -23.396  -2.756   7.478  1.00  0.00     0.211 HD
ENDBRANCH  25  33
ENDBRANCH  11  20
BRANCH  10  35
ATOM     35  O   UNL     1     -28.640  -3.635  10.827  1.00  0.00    -0.507 OA
ATOM     36  H   UNL     1     -29.126  -4.482  10.554  1.00  0.00     0.293 HD
ENDBRANCH  10  35
TORSDOF 9
ENDMDL
