MODEL 1
REMARK VINA RESULT:    -3.904      0.000      0.000
REMARK INTER + INTRA:          -4.446
REMARK INTER:                  -4.246
REMARK INTRA:                  -0.200
REMARK UNBOUND:                -0.200
REMARK SMILES C=C(C)[C@H]1CC[C@H](C)C[C@@H]1O
REMARK SMILES IDX 8 1 7 2 6 3 5 4 4 5 10 6 9 7 11 8 2 10 1 11 3 12
REMARK H PARENT 11 9
REMARK Flexibility Score: inf
ROOT
ATOM      1  C   UNL     1     -40.125  26.780   3.057  1.00  0.00     0.008 C 
ATOM      2  C   UNL     1     -39.397  26.001   4.157  1.00  0.00    -0.012 C 
ATOM      3  C   UNL     1     -40.101  26.195   5.513  1.00  0.00     0.004 C 
ATOM      4  C   UNL     1     -39.390  25.405   6.619  1.00  0.00     0.011 C 
ATOM      5  C   UNL     1     -39.307  23.908   6.261  1.00  0.00     0.043 C 
ATOM      6  C   UNL     1     -38.603  23.702   4.900  1.00  0.00     0.121 C 
ATOM      7  C   UNL     1     -39.319  24.503   3.798  1.00  0.00     0.035 C 
ENDROOT
BRANCH   6   8
ATOM      8  O   UNL     1     -38.616  22.337   4.571  1.00  0.00    -0.392 OA
ATOM      9  H   UNL     1     -37.674  22.024   4.607  1.00  0.00     0.210 HD
ENDBRANCH   6   8
BRANCH   5  10
ATOM     10  C   UNL     1     -38.619  23.124   7.372  1.00  0.00    -0.075 C 
ATOM     11  C   UNL     1     -37.369  23.442   7.746  1.00  0.00     0.008 C 
ATOM     12  C   UNL     1     -39.312  21.983   8.075  1.00  0.00     0.039 C 
ENDBRANCH   5  10
TORSDOF 2
ENDMDL
MODEL 2
REMARK VINA RESULT:    -2.141      1.549      2.050
REMARK INTER + INTRA:          -2.528
REMARK INTER:                  -2.577
REMARK INTRA:                   0.049
REMARK UNBOUND:                -0.200
REMARK SMILES C=C(C)[C@H]1CC[C@H](C)C[C@@H]1O
REMARK SMILES IDX 8 1 7 2 6 3 5 4 4 5 10 6 9 7 11 8 2 10 1 11 3 12
REMARK H PARENT 11 9
REMARK Flexibility Score: inf
ROOT
ATOM      1  C   UNL     1     -40.103  26.266   3.063  1.00  0.00     0.008 C 
ATOM      2  C   UNL     1     -40.125  25.404   4.330  1.00  0.00    -0.012 C 
ATOM      3  C   UNL     1     -39.936  23.917   3.974  1.00  0.00     0.004 C 
ATOM      4  C   UNL     1     -39.939  23.046   5.237  1.00  0.00     0.011 C 
ATOM      5  C   UNL     1     -38.854  23.509   6.229  1.00  0.00     0.043 C 
ATOM      6  C   UNL     1     -39.035  25.000   6.591  1.00  0.00     0.121 C 
ATOM      7  C   UNL     1     -39.036  25.867   5.318  1.00  0.00     0.035 C 
ENDROOT
BRANCH   6   8
ATOM      8  O   UNL     1     -37.986  25.406   7.433  1.00  0.00    -0.392 OA
ATOM      9  H   UNL     1     -38.336  26.148   7.992  1.00  0.00     0.210 HD
ENDBRANCH   6   8
BRANCH   5  10
ATOM     10  C   UNL     1     -38.849  22.627   7.472  1.00  0.00    -0.075 C 
ATOM     11  C   UNL     1     -37.699  22.389   8.125  1.00  0.00     0.008 C 
ATOM     12  C   UNL     1     -40.118  22.004   8.000  1.00  0.00     0.039 C 
ENDBRANCH   5  10
TORSDOF 2
ENDMDL
MODEL 3
REMARK VINA RESULT:    -1.656      1.164      4.203
REMARK INTER + INTRA:          -2.001
REMARK INTER:                  -2.416
REMARK INTRA:                   0.415
REMARK UNBOUND:                -0.200
REMARK SMILES C=C(C)[C@H]1CC[C@H](C)C[C@@H]1O
REMARK SMILES IDX 8 1 7 2 6 3 5 4 4 5 10 6 9 7 11 8 2 10 1 11 3 12
REMARK H PARENT 11 9
REMARK Flexibility Score: inf
ROOT
ATOM      1  C   UNL     1     -37.774  21.636   8.115  1.00  0.00     0.008 C 
ATOM      2  C   UNL     1     -38.581  22.744   7.430  1.00  0.00    -0.012 C 
ATOM      3  C   UNL     1     -37.763  24.047   7.366  1.00  0.00     0.004 C 
ATOM      4  C   UNL     1     -38.554  25.159   6.666  1.00  0.00     0.011 C 
ATOM      5  C   UNL     1     -38.989  24.721   5.254  1.00  0.00     0.043 C 
ATOM      6  C   UNL     1     -39.811  23.413   5.308  1.00  0.00     0.121 C 
ATOM      7  C   UNL     1     -39.011  22.305   6.016  1.00  0.00     0.035 C 
ENDROOT
BRANCH   6   8
ATOM      8  O   UNL     1     -40.122  23.004   4.000  1.00  0.00    -0.392 OA
ATOM      9  H   UNL     1     -41.084  22.758   3.997  1.00  0.00     0.210 HD
ENDBRANCH   6   8
BRANCH   5  10
ATOM     10  C   UNL     1     -39.758  25.837   4.556  1.00  0.00    -0.075 C 
ATOM     11  C   UNL     1     -40.125  25.701   3.270  1.00  0.00     0.008 C 
ATOM     12  C   UNL     1     -40.124  27.110   5.278  1.00  0.00     0.039 C 
ENDBRANCH   5  10
TORSDOF 2
ENDMDL
MODEL 4
REMARK VINA RESULT:    -1.607      1.834      4.615
REMARK INTER + INTRA:          -1.948
REMARK INTER:                  -2.377
REMARK INTRA:                   0.429
REMARK UNBOUND:                -0.200
REMARK SMILES C=C(C)[C@H]1CC[C@H](C)C[C@@H]1O
REMARK SMILES IDX 8 1 7 2 6 3 5 4 4 5 10 6 9 7 11 8 2 10 1 11 3 12
REMARK H PARENT 11 9
REMARK Flexibility Score: inf
ROOT
ATOM      1  C   UNL     1     -38.734  21.820   8.120  1.00  0.00     0.008 C 
ATOM      2  C   UNL     1     -38.751  22.820   6.958  1.00  0.00    -0.012 C 
ATOM      3  C   UNL     1     -39.932  22.529   6.013  1.00  0.00     0.004 C 
ATOM      4  C   UNL     1     -39.970  23.535   4.856  1.00  0.00     0.011 C 
ATOM      5  C   UNL     1     -40.040  24.981   5.384  1.00  0.00     0.043 C 
ATOM      6  C   UNL     1     -38.858  25.282   6.333  1.00  0.00     0.121 C 
ATOM      7  C   UNL     1     -38.825  24.265   7.489  1.00  0.00     0.035 C 
ENDROOT
BRANCH   6   8
ATOM      8  O   UNL     1     -38.998  26.579   6.855  1.00  0.00    -0.392 OA
ATOM      9  H   UNL     1     -39.030  27.198   6.079  1.00  0.00     0.210 HD
ENDBRANCH   6   8
BRANCH   5  10
ATOM     10  C   UNL     1     -40.097  25.975   4.229  1.00  0.00    -0.075 C 
ATOM     11  C   UNL     1     -40.125  25.534   2.961  1.00  0.00     0.008 C 
ATOM     12  C   UNL     1     -40.125  27.464   4.474  1.00  0.00     0.039 C 
ENDBRANCH   5  10
TORSDOF 2
ENDMDL
