MODEL 1
REMARK VINA RESULT:    -4.170      0.000      0.000
REMARK INTER + INTRA:          -5.955
REMARK INTER:                  -5.633
REMARK INTRA:                  -0.322
REMARK UNBOUND:                -0.322
REMARK SMILES CCCCCCC=CC(=O)[O-]
REMARK SMILES IDX 5 1 6 2 7 3 8 4 9 5 10 6 11 7 4 8 3 9 2 10 1 11
REMARK H PARENT
REMARK Flexibility Score: inf
ROOT
ATOM      1  C   UNL     1     -20.030   1.309   7.609  1.00  0.00     0.004 C 
ENDROOT
BRANCH   1   2
ATOM      2  C   UNL     1     -20.482   0.110   6.754  1.00  0.00     0.027 C 
BRANCH   2   3
ATOM      3  C   UNL     1     -20.347  -1.205   7.469  1.00  0.00    -0.025 C 
ATOM      4  C   UNL     1     -19.990  -1.271   8.756  1.00  0.00     0.020 C 
BRANCH   4   5
ATOM      5  C   UNL     1     -19.860  -2.549   9.474  1.00  0.00     0.064 C 
ATOM      6  O   UNL     1     -20.303  -2.686  10.645  1.00  0.00    -0.545 OA
ATOM      7  O   UNL     1     -19.241  -3.623   8.848  1.00  0.00    -0.545 OA
ENDBRANCH   4   5
ENDBRANCH   2   3
ENDBRANCH   1   2
BRANCH   1   8
ATOM      8  C   UNL     1     -21.111   2.392   7.790  1.00  0.00     0.000 C 
BRANCH   8   9
ATOM      9  C   UNL     1     -21.482   2.632   9.264  1.00  0.00    -0.000 C 
BRANCH   9  10
ATOM     10  C   UNL     1     -21.440   1.342  10.098  1.00  0.00    -0.003 C 
ATOM     11  C   UNL     1     -21.432   1.608  11.603  1.00  0.00     0.004 C 
ENDBRANCH   9  10
ENDBRANCH   8   9
ENDBRANCH   1   8
TORSDOF 6
ENDMDL
MODEL 2
REMARK VINA RESULT:    -3.989      1.216      1.870
REMARK INTER + INTRA:          -5.710
REMARK INTER:                  -5.409
REMARK INTRA:                  -0.301
REMARK UNBOUND:                -0.322
REMARK SMILES CCCCCCC=CC(=O)[O-]
REMARK SMILES IDX 5 1 6 2 7 3 8 4 9 5 10 6 11 7 4 8 3 9 2 10 1 11
REMARK H PARENT
REMARK Flexibility Score: inf
ROOT
ATOM      1  C   UNL     1     -20.791   1.768   7.648  1.00  0.00     0.004 C 
ENDROOT
BRANCH   1   2
ATOM      2  C   UNL     1     -20.485   0.362   7.098  1.00  0.00     0.027 C 
BRANCH   2   3
ATOM      3  C   UNL     1     -20.145  -0.629   8.175  1.00  0.00    -0.025 C 
ATOM      4  C   UNL     1     -19.944  -1.922   7.901  1.00  0.00     0.020 C 
BRANCH   4   5
ATOM      5  C   UNL     1     -19.604  -2.905   8.942  1.00  0.00     0.064 C 
ATOM      6  O   UNL     1     -19.742  -2.633  10.164  1.00  0.00    -0.545 OA
ATOM      7  O   UNL     1     -19.125  -4.155   8.570  1.00  0.00    -0.545 OA
ENDBRANCH   4   5
ENDBRANCH   2   3
ENDBRANCH   1   2
BRANCH   1   8
ATOM      8  C   UNL     1     -21.141   1.791   9.148  1.00  0.00     0.000 C 
BRANCH   8   9
ATOM      9  C   UNL     1     -22.011   2.997   9.544  1.00  0.00    -0.000 C 
BRANCH   9  10
ATOM     10  C   UNL     1     -21.900   4.156   8.541  1.00  0.00    -0.003 C 
ATOM     11  C   UNL     1     -21.568   5.490   9.211  1.00  0.00     0.004 C 
ENDBRANCH   9  10
ENDBRANCH   8   9
ENDBRANCH   1   8
TORSDOF 6
ENDMDL
MODEL 3
REMARK VINA RESULT:    -3.983      2.940      5.323
REMARK INTER + INTRA:          -5.701
REMARK INTER:                  -5.395
REMARK INTRA:                  -0.306
REMARK UNBOUND:                -0.322
REMARK SMILES CCCCCCC=CC(=O)[O-]
REMARK SMILES IDX 5 1 6 2 7 3 8 4 9 5 10 6 11 7 4 8 3 9 2 10 1 11
REMARK H PARENT
REMARK Flexibility Score: inf
ROOT
ATOM      1  C   UNL     1     -19.962  -1.681   7.546  1.00  0.00     0.004 C 
ENDROOT
BRANCH   1   2
ATOM      2  C   UNL     1     -20.250  -0.244   7.073  1.00  0.00     0.027 C 
BRANCH   2   3
ATOM      3  C   UNL     1     -20.720   0.655   8.181  1.00  0.00    -0.025 C 
ATOM      4  C   UNL     1     -21.044   1.934   7.959  1.00  0.00     0.020 C 
BRANCH   4   5
ATOM      5  C   UNL     1     -21.512   2.826   9.031  1.00  0.00     0.064 C 
ATOM      6  O   UNL     1     -21.856   4.013   8.786  1.00  0.00    -0.545 OA
ATOM      7  O   UNL     1     -21.579   2.351  10.334  1.00  0.00    -0.545 OA
ENDBRANCH   4   5
ENDBRANCH   2   3
ENDBRANCH   1   2
BRANCH   1   8
ATOM      8  C   UNL     1     -20.066  -1.872   9.071  1.00  0.00     0.000 C 
BRANCH   8   9
ATOM      9  C   UNL     1     -19.364  -3.149   9.566  1.00  0.00    -0.000 C 
BRANCH   9  10
ATOM     10  C   UNL     1     -19.071  -4.138   8.427  1.00  0.00    -0.003 C 
ATOM     11  C   UNL     1     -19.550  -5.556   8.735  1.00  0.00     0.004 C 
ENDBRANCH   9  10
ENDBRANCH   8   9
ENDBRANCH   1   8
TORSDOF 6
ENDMDL
MODEL 4
REMARK VINA RESULT:    -3.892      2.630      4.365
REMARK INTER + INTRA:          -5.579
REMARK INTER:                  -5.380
REMARK INTRA:                  -0.199
REMARK UNBOUND:                -0.322
REMARK SMILES CCCCCCC=CC(=O)[O-]
REMARK SMILES IDX 5 1 6 2 7 3 8 4 9 5 10 6 11 7 4 8 3 9 2 10 1 11
REMARK H PARENT
REMARK Flexibility Score: inf
ROOT
ATOM      1  C   UNL     1     -20.666  -1.222   7.249  1.00  0.00     0.004 C 
ENDROOT
BRANCH   1   2
ATOM      2  C   UNL     1     -20.027   0.095   6.770  1.00  0.00     0.027 C 
BRANCH   2   3
ATOM      3  C   UNL     1     -20.382   1.269   7.638  1.00  0.00    -0.025 C 
ATOM      4  C   UNL     1     -21.039   1.116   8.792  1.00  0.00     0.020 C 
BRANCH   4   5
ATOM      5  C   UNL     1     -21.388   2.254   9.658  1.00  0.00     0.064 C 
ATOM      6  O   UNL     1     -21.859   3.318   9.176  1.00  0.00    -0.545 OA
ATOM      7  O   UNL     1     -21.198   2.152  11.030  1.00  0.00    -0.545 OA
ENDBRANCH   4   5
ENDBRANCH   2   3
ENDBRANCH   1   2
BRANCH   1   8
ATOM      8  C   UNL     1     -19.645  -2.310   7.635  1.00  0.00     0.000 C 
BRANCH   8   9
ATOM      9  C   UNL     1     -19.763  -2.752   9.104  1.00  0.00    -0.000 C 
BRANCH   9  10
ATOM     10  C   UNL     1     -20.032  -1.574  10.052  1.00  0.00    -0.003 C 
ATOM     11  C   UNL     1     -20.073  -1.992  11.522  1.00  0.00     0.004 C 
ENDBRANCH   9  10
ENDBRANCH   8   9
ENDBRANCH   1   8
TORSDOF 6
ENDMDL
MODEL 5
REMARK VINA RESULT:    -3.649     12.684     13.960
REMARK INTER + INTRA:          -5.250
REMARK INTER:                  -4.620
REMARK INTRA:                  -0.630
REMARK UNBOUND:                -0.322
REMARK SMILES CCCCCCC=CC(=O)[O-]
REMARK SMILES IDX 5 1 6 2 7 3 8 4 9 5 10 6 11 7 4 8 3 9 2 10 1 11
REMARK H PARENT
REMARK Flexibility Score: inf
ROOT
ATOM      1  C   UNL     1     -13.014  10.258  14.243  1.00  0.00     0.004 C 
ENDROOT
BRANCH   1   2
ATOM      2  C   UNL     1     -14.272  11.109  13.987  1.00  0.00     0.027 C 
BRANCH   2   3
ATOM      3  C   UNL     1     -14.688  11.124  12.544  1.00  0.00    -0.025 C 
ATOM      4  C   UNL     1     -14.734  10.004  11.814  1.00  0.00     0.020 C 
BRANCH   4   5
ATOM      5  C   UNL     1     -15.145   9.999  10.402  1.00  0.00     0.064 C 
ATOM      6  O   UNL     1     -14.495  10.638   9.532  1.00  0.00    -0.545 OA
ATOM      7  O   UNL     1     -16.268   9.277  10.020  1.00  0.00    -0.545 OA
ENDBRANCH   4   5
ENDBRANCH   2   3
ENDBRANCH   1   2
BRANCH   1   8
ATOM      8  C   UNL     1     -11.691  11.030  14.076  1.00  0.00     0.000 C 
BRANCH   8   9
ATOM      9  C   UNL     1     -10.665  10.284  13.205  1.00  0.00    -0.000 C 
BRANCH   9  10
ATOM     10  C   UNL     1     -10.195  11.121  12.004  1.00  0.00    -0.003 C 
ATOM     11  C   UNL     1     -11.167  11.064  10.826  1.00  0.00     0.004 C 
ENDBRANCH   9  10
ENDBRANCH   8   9
ENDBRANCH   1   8
TORSDOF 6
ENDMDL
MODEL 6
REMARK VINA RESULT:    -3.615      2.783      4.518
REMARK INTER + INTRA:          -5.205
REMARK INTER:                  -4.951
REMARK INTRA:                  -0.254
REMARK UNBOUND:                -0.322
REMARK SMILES CCCCCCC=CC(=O)[O-]
REMARK SMILES IDX 5 1 6 2 7 3 8 4 9 5 10 6 11 7 4 8 3 9 2 10 1 11
REMARK H PARENT
REMARK Flexibility Score: inf
ROOT
ATOM      1  C   UNL     1     -19.680  -2.175   9.337  1.00  0.00     0.004 C 
ENDROOT
BRANCH   1   2
ATOM      2  C   UNL     1     -19.997  -2.604  10.782  1.00  0.00     0.027 C 
BRANCH   2   3
ATOM      3  C   UNL     1     -20.381  -1.453  11.666  1.00  0.00    -0.025 C 
ATOM      4  C   UNL     1     -20.761  -1.638  12.935  1.00  0.00     0.020 C 
BRANCH   4   5
ATOM      5  C   UNL     1     -21.134  -0.521  13.817  1.00  0.00     0.064 C 
ATOM      6  O   UNL     1     -21.386  -0.710  15.037  1.00  0.00    -0.545 OA
ATOM      7  O   UNL     1     -21.208   0.765  13.297  1.00  0.00    -0.545 OA
ENDBRANCH   4   5
ENDBRANCH   2   3
ENDBRANCH   1   2
BRANCH   1   8
ATOM      8  C   UNL     1     -20.387  -0.877   8.900  1.00  0.00     0.000 C 
BRANCH   8   9
ATOM      9  C   UNL     1     -20.641  -0.813   7.384  1.00  0.00    -0.000 C 
BRANCH   9  10
ATOM     10  C   UNL     1     -20.250   0.545   6.780  1.00  0.00    -0.003 C 
ATOM     11  C   UNL     1     -20.627   1.724   7.677  1.00  0.00     0.004 C 
ENDBRANCH   9  10
ENDBRANCH   8   9
ENDBRANCH   1   8
TORSDOF 6
ENDMDL
MODEL 7
REMARK VINA RESULT:    -3.497      2.168      4.438
REMARK INTER + INTRA:          -5.046
REMARK INTER:                  -4.748
REMARK INTRA:                  -0.297
REMARK UNBOUND:                -0.322
REMARK SMILES CCCCCCC=CC(=O)[O-]
REMARK SMILES IDX 5 1 6 2 7 3 8 4 9 5 10 6 11 7 4 8 3 9 2 10 1 11
REMARK H PARENT
REMARK Flexibility Score: inf
ROOT
ATOM      1  C   UNL     1     -21.349   1.943   9.264  1.00  0.00     0.004 C 
ENDROOT
BRANCH   1   2
ATOM      2  C   UNL     1     -21.797   2.090  10.731  1.00  0.00     0.027 C 
BRANCH   2   3
ATOM      3  C   UNL     1     -21.473   0.886  11.567  1.00  0.00    -0.025 C 
ATOM      4  C   UNL     1     -21.191   0.991  12.871  1.00  0.00     0.020 C 
BRANCH   4   5
ATOM      5  C   UNL     1     -20.879  -0.179  13.706  1.00  0.00     0.064 C 
ATOM      6  O   UNL     1     -20.703  -1.317  13.195  1.00  0.00    -0.545 OA
ATOM      7  O   UNL     1     -20.774  -0.026  15.083  1.00  0.00    -0.545 OA
ENDBRANCH   4   5
ENDBRANCH   2   3
ENDBRANCH   1   2
BRANCH   1   8
ATOM      8  C   UNL     1     -20.660   0.601   8.951  1.00  0.00     0.000 C 
BRANCH   8   9
ATOM      9  C   UNL     1     -20.358   0.415   7.454  1.00  0.00    -0.000 C 
BRANCH   9  10
ATOM     10  C   UNL     1     -20.324  -1.065   7.041  1.00  0.00    -0.003 C 
ATOM     11  C   UNL     1     -20.001  -1.999   8.207  1.00  0.00     0.004 C 
ENDBRANCH   9  10
ENDBRANCH   8   9
ENDBRANCH   1   8
TORSDOF 6
ENDMDL
MODEL 8
REMARK VINA RESULT:    -3.321      2.157      4.294
REMARK INTER + INTRA:          -4.808
REMARK INTER:                  -4.311
REMARK INTRA:                  -0.497
REMARK UNBOUND:                -0.322
REMARK SMILES CCCCCCC=CC(=O)[O-]
REMARK SMILES IDX 5 1 6 2 7 3 8 4 9 5 10 6 11 7 4 8 3 9 2 10 1 11
REMARK H PARENT
REMARK Flexibility Score: inf
ROOT
ATOM      1  C   UNL     1     -20.881   2.120   8.014  1.00  0.00     0.004 C 
ENDROOT
BRANCH   1   2
ATOM      2  C   UNL     1     -21.839   2.179   9.219  1.00  0.00     0.027 C 
BRANCH   2   3
ATOM      3  C   UNL     1     -21.171   1.825  10.517  1.00  0.00    -0.025 C 
ATOM      4  C   UNL     1     -21.872   1.402  11.575  1.00  0.00     0.020 C 
BRANCH   4   5
ATOM      5  C   UNL     1     -21.234   1.045  12.852  1.00  0.00     0.064 C 
ATOM      6  O   UNL     1     -21.106  -0.158  13.202  1.00  0.00    -0.545 OA
ATOM      7  O   UNL     1     -20.763   2.052  13.685  1.00  0.00    -0.545 OA
ENDBRANCH   4   5
ENDBRANCH   2   3
ENDBRANCH   1   2
BRANCH   1   8
ATOM      8  C   UNL     1     -19.981   0.869   7.989  1.00  0.00     0.000 C 
BRANCH   8   9
ATOM      9  C   UNL     1     -20.456  -0.193   6.982  1.00  0.00    -0.000 C 
BRANCH   9  10
ATOM     10  C   UNL     1     -20.340  -1.621   7.537  1.00  0.00    -0.003 C 
ATOM     11  C   UNL     1     -20.048  -1.653   9.037  1.00  0.00     0.004 C 
ENDBRANCH   9  10
ENDBRANCH   8   9
ENDBRANCH   1   8
TORSDOF 6
ENDMDL
MODEL 9
REMARK VINA RESULT:    -3.280      3.178      4.573
REMARK INTER + INTRA:          -4.753
REMARK INTER:                  -4.378
REMARK INTRA:                  -0.375
REMARK UNBOUND:                -0.322
REMARK SMILES CCCCCCC=CC(=O)[O-]
REMARK SMILES IDX 5 1 6 2 7 3 8 4 9 5 10 6 11 7 4 8 3 9 2 10 1 11
REMARK H PARENT
REMARK Flexibility Score: inf
ROOT
ATOM      1  C   UNL     1     -19.701  -1.850  10.873  1.00  0.00     0.004 C 
ENDROOT
BRANCH   1   2
ATOM      2  C   UNL     1     -19.949  -1.972   9.358  1.00  0.00     0.027 C 
BRANCH   2   3
ATOM      3  C   UNL     1     -20.335  -0.668   8.720  1.00  0.00    -0.025 C 
ATOM      4  C   UNL     1     -20.723   0.384   9.450  1.00  0.00     0.020 C 
BRANCH   4   5
ATOM      5  C   UNL     1     -21.098   1.670   8.842  1.00  0.00     0.064 C 
ATOM      6  O   UNL     1     -21.783   2.515   9.477  1.00  0.00    -0.545 OA
ATOM      7  O   UNL     1     -20.688   1.959   7.547  1.00  0.00    -0.545 OA
ENDBRANCH   4   5
ENDBRANCH   2   3
ENDBRANCH   1   2
BRANCH   1   8
ATOM      8  C   UNL     1     -20.771  -2.541  11.740  1.00  0.00     0.000 C 
BRANCH   8   9
ATOM      9  C   UNL     1     -20.725  -2.102  13.215  1.00  0.00    -0.000 C 
BRANCH   9  10
ATOM     10  C   UNL     1     -21.058  -0.613  13.395  1.00  0.00    -0.003 C 
ATOM     11  C   UNL     1     -20.713  -0.093  14.790  1.00  0.00     0.004 C 
ENDBRANCH   9  10
ENDBRANCH   8   9
ENDBRANCH   1   8
TORSDOF 6
ENDMDL
