MODEL 1
REMARK VINA RESULT:    15.168      0.000      0.000
REMARK INTER + INTRA:          32.930
REMARK INTER:                  34.676
REMARK INTRA:                  -1.746
REMARK UNBOUND:                -1.746
REMARK SMILES CCCCCCCCCCCCCCCCCCCCCCCC(=O)[O-]
REMARK SMILES IDX 13 1 14 2 15 3 16 4 17 5 18 6 19 7 20 8 21 9 22 10 23 11
REMARK SMILES IDX 24 12 25 13 26 14 12 15 11 16 10 17 9 18 8 19 7 20 6 21 5 22
REMARK SMILES IDX 4 23 3 24 2 25 1 26
REMARK H PARENT
REMARK Flexibility Score: inf
ROOT
ATOM      1  C   UNL     1     -27.531  19.766 -13.261  1.00  0.00     0.000 C 
ENDROOT
BRANCH   1   2
ATOM      2  C   UNL     1     -28.822  19.091 -12.772  1.00  0.00     0.000 C 
BRANCH   2   3
ATOM      3  C   UNL     1     -28.628  17.601 -12.443  1.00  0.00     0.000 C 
BRANCH   3   4
ATOM      4  C   UNL     1     -29.112  17.217 -11.027  1.00  0.00     0.000 C 
BRANCH   4   5
ATOM      5  C   UNL     1     -30.175  16.105 -11.059  1.00  0.00     0.000 C 
BRANCH   5   6
ATOM      6  C   UNL     1     -31.508  16.544 -10.432  1.00  0.00     0.000 C 
BRANCH   6   7
ATOM      7  C   UNL     1     -31.495  18.013  -9.983  1.00  0.00     0.000 C 
BRANCH   7   8
ATOM      8  C   UNL     1     -32.536  18.833 -10.761  1.00  0.00     0.000 C 
BRANCH   8   9
ATOM      9  C   UNL     1     -32.544  20.321 -10.371  1.00  0.00     0.000 C 
BRANCH   9  10
ATOM     10  C   UNL     1     -31.167  21.008 -10.402  1.00  0.00     0.006 C 
BRANCH  10  11
ATOM     11  C   UNL     1     -31.235  22.466 -10.875  1.00  0.00     0.053 C 
BRANCH  11  12
ATOM     12  C   UNL     1     -32.112  23.269  -9.966  1.00  0.00     0.041 C 
ATOM     13  O   UNL     1     -31.669  23.685  -8.863  1.00  0.00    -0.550 OA
ATOM     14  O   UNL     1     -33.405  23.591 -10.356  1.00  0.00    -0.550 OA
ENDBRANCH  11  12
ENDBRANCH  10  11
ENDBRANCH   9  10
ENDBRANCH   8   9
ENDBRANCH   7   8
ENDBRANCH   6   7
ENDBRANCH   5   6
ENDBRANCH   4   5
ENDBRANCH   3   4
ENDBRANCH   2   3
ENDBRANCH   1   2
BRANCH   1  15
ATOM     15  C   UNL     1     -27.667  21.292 -13.395  1.00  0.00     0.000 C 
BRANCH  15  16
ATOM     16  C   UNL     1     -26.379  22.088 -13.103  1.00  0.00     0.000 C 
BRANCH  16  17
ATOM     17  C   UNL     1     -26.523  23.215 -12.064  1.00  0.00     0.000 C 
BRANCH  17  18
ATOM     18  C   UNL     1     -25.212  23.987 -11.832  1.00  0.00    -0.000 C 
BRANCH  18  19
ATOM     19  C   UNL     1     -24.752  23.953 -10.363  1.00  0.00    -0.000 C 
BRANCH  19  20
ATOM     20  C   UNL     1     -25.747  23.302  -9.384  1.00  0.00    -0.000 C 
BRANCH  20  21
ATOM     21  C   UNL     1     -25.595  21.776  -9.302  1.00  0.00    -0.000 C 
BRANCH  21  22
ATOM     22  C   UNL     1     -24.358  21.387  -8.483  1.00  0.00    -0.000 C 
BRANCH  22  23
ATOM     23  C   UNL     1     -24.461  21.917  -7.048  1.00  0.00    -0.000 C 
BRANCH  23  24
ATOM     24  C   UNL     1     -23.209  21.563  -6.237  1.00  0.00    -0.000 C 
BRANCH  24  25
ATOM     25  C   UNL     1     -22.115  22.620  -6.428  1.00  0.00    -0.003 C 
ATOM     26  C   UNL     1     -22.340  23.818  -5.510  1.00  0.00     0.004 C 
ENDBRANCH  24  25
ENDBRANCH  23  24
ENDBRANCH  22  23
ENDBRANCH  21  22
ENDBRANCH  20  21
ENDBRANCH  19  20
ENDBRANCH  18  19
ENDBRANCH  17  18
ENDBRANCH  16  17
ENDBRANCH  15  16
ENDBRANCH   1  15
TORSDOF 22
ENDMDL
MODEL 2
REMARK VINA RESULT:    15.302      3.128      8.103
REMARK INTER + INTRA:          33.236
REMARK INTER:                  34.134
REMARK INTRA:                  -0.899
REMARK UNBOUND:                -1.746
REMARK SMILES CCCCCCCCCCCCCCCCCCCCCCCC(=O)[O-]
REMARK SMILES IDX 13 1 14 2 15 3 16 4 17 5 18 6 19 7 20 8 21 9 22 10 23 11
REMARK SMILES IDX 24 12 25 13 26 14 12 15 11 16 10 17 9 18 8 19 7 20 6 21 5 22
REMARK SMILES IDX 4 23 3 24 2 25 1 26
REMARK H PARENT
REMARK Flexibility Score: inf
ROOT
ATOM      1  C   UNL     1     -28.693  18.067 -13.315  1.00  0.00     0.000 C 
ENDROOT
BRANCH   1   2
ATOM      2  C   UNL     1     -28.091  19.285 -12.597  1.00  0.00     0.000 C 
BRANCH   2   3
ATOM      3  C   UNL     1     -28.078  20.549 -13.474  1.00  0.00     0.000 C 
BRANCH   3   4
ATOM      4  C   UNL     1     -26.763  21.353 -13.375  1.00  0.00     0.000 C 
BRANCH   4   5
ATOM      5  C   UNL     1     -26.827  22.436 -12.285  1.00  0.00     0.000 C 
BRANCH   5   6
ATOM      6  C   UNL     1     -25.451  23.050 -11.982  1.00  0.00     0.000 C 
BRANCH   6   7
ATOM      7  C   UNL     1     -25.493  24.053 -10.819  1.00  0.00     0.000 C 
BRANCH   7   8
ATOM      8  C   UNL     1     -24.554  23.617  -9.684  1.00  0.00     0.000 C 
BRANCH   8   9
ATOM      9  C   UNL     1     -25.161  22.526  -8.784  1.00  0.00     0.000 C 
BRANCH   9  10
ATOM     10  C   UNL     1     -24.155  21.490  -8.251  1.00  0.00     0.006 C 
BRANCH  10  11
ATOM     11  C   UNL     1     -23.858  21.658  -6.756  1.00  0.00     0.053 C 
BRANCH  11  12
ATOM     12  C   UNL     1     -22.567  22.386  -6.558  1.00  0.00     0.041 C 
ATOM     13  O   UNL     1     -21.533  22.026  -7.181  1.00  0.00    -0.550 OA
ATOM     14  O   UNL     1     -22.513  23.489  -5.715  1.00  0.00    -0.550 OA
ENDBRANCH  11  12
ENDBRANCH  10  11
ENDBRANCH   9  10
ENDBRANCH   8   9
ENDBRANCH   7   8
ENDBRANCH   6   7
ENDBRANCH   5   6
ENDBRANCH   4   5
ENDBRANCH   3   4
ENDBRANCH   2   3
ENDBRANCH   1   2
BRANCH   1  15
ATOM     15  C   UNL     1     -29.253  17.016 -12.342  1.00  0.00     0.000 C 
BRANCH  15  16
ATOM     16  C   UNL     1     -29.108  17.370 -10.848  1.00  0.00     0.000 C 
BRANCH  16  17
ATOM     17  C   UNL     1     -30.154  18.358 -10.300  1.00  0.00     0.000 C 
BRANCH  17  18
ATOM     18  C   UNL     1     -31.591  17.816 -10.381  1.00  0.00    -0.000 C 
BRANCH  18  19
ATOM     19  C   UNL     1     -32.642  18.931 -10.528  1.00  0.00    -0.000 C 
BRANCH  19  20
ATOM     20  C   UNL     1     -32.182  20.325 -10.059  1.00  0.00    -0.000 C 
BRANCH  20  21
ATOM     21  C   UNL     1     -30.957  20.840 -10.830  1.00  0.00    -0.000 C 
BRANCH  21  22
ATOM     22  C   UNL     1     -30.412  22.129 -10.204  1.00  0.00    -0.000 C 
BRANCH  22  23
ATOM     23  C   UNL     1     -31.286  23.333 -10.576  1.00  0.00    -0.000 C 
BRANCH  23  24
ATOM     24  C   UNL     1     -31.695  24.125  -9.329  1.00  0.00    -0.000 C 
BRANCH  24  25
ATOM     25  C   UNL     1     -33.216  24.083  -9.127  1.00  0.00    -0.003 C 
ATOM     26  C   UNL     1     -33.945  23.974 -10.463  1.00  0.00     0.004 C 
ENDBRANCH  24  25
ENDBRANCH  23  24
ENDBRANCH  22  23
ENDBRANCH  21  22
ENDBRANCH  20  21
ENDBRANCH  19  20
ENDBRANCH  18  19
ENDBRANCH  17  18
ENDBRANCH  16  17
ENDBRANCH  15  16
ENDBRANCH   1  15
TORSDOF 22
ENDMDL
MODEL 3
REMARK VINA RESULT:    15.337      2.274      4.067
REMARK INTER + INTRA:          33.317
REMARK INTER:                  33.687
REMARK INTRA:                  -0.369
REMARK UNBOUND:                -1.746
REMARK SMILES CCCCCCCCCCCCCCCCCCCCCCCC(=O)[O-]
REMARK SMILES IDX 13 1 14 2 15 3 16 4 17 5 18 6 19 7 20 8 21 9 22 10 23 11
REMARK SMILES IDX 24 12 25 13 26 14 12 15 11 16 10 17 9 18 8 19 7 20 6 21 5 22
REMARK SMILES IDX 4 23 3 24 2 25 1 26
REMARK H PARENT
REMARK Flexibility Score: inf
ROOT
ATOM      1  C   UNL     1     -28.414  20.936 -11.142  1.00  0.00     0.000 C 
ENDROOT
BRANCH   1   2
ATOM      2  C   UNL     1     -29.465  21.624 -10.258  1.00  0.00     0.000 C 
BRANCH   2   3
ATOM      3  C   UNL     1     -30.451  22.487 -11.065  1.00  0.00     0.000 C 
BRANCH   3   4
ATOM      4  C   UNL     1     -31.295  23.439 -10.189  1.00  0.00     0.000 C 
BRANCH   4   5
ATOM      5  C   UNL     1     -32.721  22.908  -9.963  1.00  0.00     0.000 C 
BRANCH   5   6
ATOM      6  C   UNL     1     -32.742  21.425  -9.561  1.00  0.00     0.000 C 
BRANCH   6   7
ATOM      7  C   UNL     1     -32.486  20.485 -10.750  1.00  0.00     0.000 C 
BRANCH   7   8
ATOM      8  C   UNL     1     -32.610  19.015 -10.323  1.00  0.00     0.000 C 
BRANCH   8   9
ATOM      9  C   UNL     1     -31.272  18.257 -10.380  1.00  0.00     0.000 C 
BRANCH   9  10
ATOM     10  C   UNL     1     -31.395  16.722 -10.376  1.00  0.00     0.006 C 
BRANCH  10  11
ATOM     11  C   UNL     1     -30.257  16.028 -11.136  1.00  0.00     0.053 C 
BRANCH  11  12
ATOM     12  C   UNL     1     -29.227  17.027 -11.560  1.00  0.00     0.041 C 
ATOM     13  O   UNL     1     -28.903  17.128 -12.773  1.00  0.00    -0.550 OA
ATOM     14  O   UNL     1     -28.653  17.875 -10.622  1.00  0.00    -0.550 OA
ENDBRANCH  11  12
ENDBRANCH  10  11
ENDBRANCH   9  10
ENDBRANCH   8   9
ENDBRANCH   7   8
ENDBRANCH   6   7
ENDBRANCH   5   6
ENDBRANCH   4   5
ENDBRANCH   3   4
ENDBRANCH   2   3
ENDBRANCH   1   2
BRANCH   1  15
ATOM     15  C   UNL     1     -28.240  21.621 -12.508  1.00  0.00     0.000 C 
BRANCH  15  16
ATOM     16  C   UNL     1     -26.798  22.060 -12.836  1.00  0.00     0.000 C 
BRANCH  16  17
ATOM     17  C   UNL     1     -26.525  23.570 -12.713  1.00  0.00     0.000 C 
BRANCH  17  18
ATOM     18  C   UNL     1     -25.214  23.884 -11.972  1.00  0.00    -0.000 C 
BRANCH  18  19
ATOM     19  C   UNL     1     -25.422  24.116 -10.463  1.00  0.00    -0.000 C 
BRANCH  19  20
ATOM     20  C   UNL     1     -25.047  22.923  -9.564  1.00  0.00    -0.000 C 
BRANCH  20  21
ATOM     21  C   UNL     1     -26.267  22.267  -8.901  1.00  0.00    -0.000 C 
BRANCH  21  22
ATOM     22  C   UNL     1     -25.838  21.205  -7.881  1.00  0.00    -0.000 C 
BRANCH  22  23
ATOM     23  C   UNL     1     -24.312  21.066  -7.841  1.00  0.00    -0.000 C 
BRANCH  23  24
ATOM     24  C   UNL     1     -23.748  21.558  -6.504  1.00  0.00    -0.000 C 
BRANCH  24  25
ATOM     25  C   UNL     1     -22.633  22.589  -6.724  1.00  0.00    -0.003 C 
ATOM     26  C   UNL     1     -21.570  22.492  -5.634  1.00  0.00     0.004 C 
ENDBRANCH  24  25
ENDBRANCH  23  24
ENDBRANCH  22  23
ENDBRANCH  21  22
ENDBRANCH  20  21
ENDBRANCH  19  20
ENDBRANCH  18  19
ENDBRANCH  17  18
ENDBRANCH  16  17
ENDBRANCH  15  16
ENDBRANCH   1  15
TORSDOF 22
ENDMDL
MODEL 4
REMARK VINA RESULT:    15.439      3.223      8.356
REMARK INTER + INTRA:          33.550
REMARK INTER:                  34.344
REMARK INTRA:                  -0.794
REMARK UNBOUND:                -1.746
REMARK SMILES CCCCCCCCCCCCCCCCCCCCCCCC(=O)[O-]
REMARK SMILES IDX 13 1 14 2 15 3 16 4 17 5 18 6 19 7 20 8 21 9 22 10 23 11
REMARK SMILES IDX 24 12 25 13 26 14 12 15 11 16 10 17 9 18 8 19 7 20 6 21 5 22
REMARK SMILES IDX 4 23 3 24 2 25 1 26
REMARK H PARENT
REMARK Flexibility Score: inf
ROOT
ATOM      1  C   UNL     1     -28.467  21.255 -11.148  1.00  0.00     0.000 C 
ENDROOT
BRANCH   1   2
ATOM      2  C   UNL     1     -28.318  21.130 -12.673  1.00  0.00     0.000 C 
BRANCH   2   3
ATOM      3  C   UNL     1     -27.099  21.894 -13.217  1.00  0.00     0.000 C 
BRANCH   3   4
ATOM      4  C   UNL     1     -26.981  23.333 -12.669  1.00  0.00     0.000 C 
BRANCH   4   5
ATOM      5  C   UNL     1     -25.518  23.736 -12.410  1.00  0.00     0.000 C 
BRANCH   5   6
ATOM      6  C   UNL     1     -25.207  23.899 -10.914  1.00  0.00     0.000 C 
BRANCH   6   7
ATOM      7  C   UNL     1     -25.052  22.552 -10.191  1.00  0.00     0.000 C 
BRANCH   7   8
ATOM      8  C   UNL     1     -25.784  22.567  -8.841  1.00  0.00     0.000 C 
BRANCH   8   9
ATOM      9  C   UNL     1     -25.407  21.379  -7.938  1.00  0.00     0.000 C 
BRANCH   9  10
ATOM     10  C   UNL     1     -23.923  21.315  -7.535  1.00  0.00     0.006 C 
BRANCH  10  11
ATOM     11  C   UNL     1     -23.649  21.931  -6.157  1.00  0.00     0.053 C 
BRANCH  11  12
ATOM     12  C   UNL     1     -22.327  22.631  -6.150  1.00  0.00     0.041 C 
ATOM     13  O   UNL     1     -21.326  22.102  -6.703  1.00  0.00    -0.550 OA
ATOM     14  O   UNL     1     -22.208  23.886  -5.567  1.00  0.00    -0.550 OA
ENDBRANCH  11  12
ENDBRANCH  10  11
ENDBRANCH   9  10
ENDBRANCH   8   9
ENDBRANCH   7   8
ENDBRANCH   6   7
ENDBRANCH   5   6
ENDBRANCH   4   5
ENDBRANCH   3   4
ENDBRANCH   2   3
ENDBRANCH   1   2
BRANCH   1  15
ATOM     15  C   UNL     1     -29.929  21.157 -10.680  1.00  0.00     0.000 C 
BRANCH  15  16
ATOM     16  C   UNL     1     -30.826  22.340 -11.097  1.00  0.00     0.000 C 
BRANCH  16  17
ATOM     17  C   UNL     1     -32.067  22.568 -10.215  1.00  0.00     0.000 C 
BRANCH  17  18
ATOM     18  C   UNL     1     -32.726  21.255  -9.756  1.00  0.00    -0.000 C 
BRANCH  18  19
ATOM     19  C   UNL     1     -32.100  20.012 -10.415  1.00  0.00    -0.000 C 
BRANCH  19  20
ATOM     20  C   UNL     1     -32.742  18.671 -10.014  1.00  0.00    -0.000 C 
BRANCH  20  21
ATOM     21  C   UNL     1     -31.825  17.466 -10.278  1.00  0.00    -0.000 C 
BRANCH  21  22
ATOM     22  C   UNL     1     -30.421  17.921 -10.693  1.00  0.00    -0.000 C 
BRANCH  22  23
ATOM     23  C   UNL     1     -29.671  16.796 -11.417  1.00  0.00    -0.000 C 
BRANCH  23  24
ATOM     24  C   UNL     1     -28.598  17.362 -12.354  1.00  0.00    -0.000 C 
BRANCH  24  25
ATOM     25  C   UNL     1     -28.911  17.019 -13.816  1.00  0.00    -0.003 C 
ATOM     26  C   UNL     1     -28.825  15.515 -14.060  1.00  0.00     0.004 C 
ENDBRANCH  24  25
ENDBRANCH  23  24
ENDBRANCH  22  23
ENDBRANCH  21  22
ENDBRANCH  20  21
ENDBRANCH  19  20
ENDBRANCH  18  19
ENDBRANCH  17  18
ENDBRANCH  16  17
ENDBRANCH  15  16
ENDBRANCH   1  15
TORSDOF 22
ENDMDL
MODEL 5
REMARK VINA RESULT:    15.578      2.561      4.019
REMARK INTER + INTRA:          33.867
REMARK INTER:                  35.288
REMARK INTRA:                  -1.421
REMARK UNBOUND:                -1.746
REMARK SMILES CCCCCCCCCCCCCCCCCCCCCCCC(=O)[O-]
REMARK SMILES IDX 13 1 14 2 15 3 16 4 17 5 18 6 19 7 20 8 21 9 22 10 23 11
REMARK SMILES IDX 24 12 25 13 26 14 12 15 11 16 10 17 9 18 8 19 7 20 6 21 5 22
REMARK SMILES IDX 4 23 3 24 2 25 1 26
REMARK H PARENT
REMARK Flexibility Score: inf
ROOT
ATOM      1  C   UNL     1     -28.456  20.712 -11.142  1.00  0.00     0.000 C 
ENDROOT
BRANCH   1   2
ATOM      2  C   UNL     1     -29.461  21.455 -10.248  1.00  0.00     0.000 C 
BRANCH   2   3
ATOM      3  C   UNL     1     -30.346  22.437 -11.035  1.00  0.00     0.000 C 
BRANCH   3   4
ATOM      4  C   UNL     1     -31.606  22.885 -10.261  1.00  0.00     0.000 C 
BRANCH   4   5
ATOM      5  C   UNL     1     -32.636  21.750 -10.122  1.00  0.00     0.000 C 
BRANCH   5   6
ATOM      6  C   UNL     1     -32.031  20.366 -10.402  1.00  0.00     0.000 C 
BRANCH   6   7
ATOM      7  C   UNL     1     -32.948  19.217  -9.957  1.00  0.00     0.000 C 
BRANCH   7   8
ATOM      8  C   UNL     1     -32.243  17.861 -10.110  1.00  0.00     0.000 C 
BRANCH   8   9
ATOM      9  C   UNL     1     -31.079  17.897 -11.116  1.00  0.00     0.000 C 
BRANCH   9  10
ATOM     10  C   UNL     1     -29.694  17.588 -10.518  1.00  0.00     0.006 C 
BRANCH  10  11
ATOM     11  C   UNL     1     -28.910  16.550 -11.331  1.00  0.00     0.053 C 
BRANCH  11  12
ATOM     12  C   UNL     1     -28.843  16.955 -12.770  1.00  0.00     0.041 C 
ATOM     13  O   UNL     1     -28.474  18.117 -13.086  1.00  0.00    -0.550 OA
ATOM     14  O   UNL     1     -29.151  16.035 -13.764  1.00  0.00    -0.550 OA
ENDBRANCH  11  12
ENDBRANCH  10  11
ENDBRANCH   9  10
ENDBRANCH   8   9
ENDBRANCH   7   8
ENDBRANCH   6   7
ENDBRANCH   5   6
ENDBRANCH   4   5
ENDBRANCH   3   4
ENDBRANCH   2   3
ENDBRANCH   1   2
BRANCH   1  15
ATOM     15  C   UNL     1     -28.314  21.345 -12.536  1.00  0.00     0.000 C 
BRANCH  15  16
ATOM     16  C   UNL     1     -26.915  21.913 -12.852  1.00  0.00     0.000 C 
BRANCH  16  17
ATOM     17  C   UNL     1     -26.801  23.448 -12.800  1.00  0.00     0.000 C 
BRANCH  17  18
ATOM     18  C   UNL     1     -25.458  23.930 -12.225  1.00  0.00    -0.000 C 
BRANCH  18  19
ATOM     19  C   UNL     1     -25.483  24.073 -10.692  1.00  0.00    -0.000 C 
BRANCH  19  20
ATOM     20  C   UNL     1     -24.867  22.892  -9.918  1.00  0.00    -0.000 C 
BRANCH  20  21
ATOM     21  C   UNL     1     -25.663  22.523  -8.657  1.00  0.00    -0.000 C 
BRANCH  21  22
ATOM     22  C   UNL     1     -25.237  21.153  -8.115  1.00  0.00    -0.000 C 
BRANCH  22  23
ATOM     23  C   UNL     1     -23.753  21.152  -7.731  1.00  0.00    -0.000 C 
BRANCH  23  24
ATOM     24  C   UNL     1     -23.523  21.899  -6.412  1.00  0.00    -0.000 C 
BRANCH  24  25
ATOM     25  C   UNL     1     -22.150  22.582  -6.400  1.00  0.00    -0.003 C 
ATOM     26  C   UNL     1     -22.164  23.834  -5.528  1.00  0.00     0.004 C 
ENDBRANCH  24  25
ENDBRANCH  23  24
ENDBRANCH  22  23
ENDBRANCH  21  22
ENDBRANCH  20  21
ENDBRANCH  19  20
ENDBRANCH  18  19
ENDBRANCH  17  18
ENDBRANCH  16  17
ENDBRANCH  15  16
ENDBRANCH   1  15
TORSDOF 22
ENDMDL
MODEL 6
REMARK VINA RESULT:    16.176      2.437      4.340
REMARK INTER + INTRA:          35.236
REMARK INTER:                  35.840
REMARK INTRA:                  -0.604
REMARK UNBOUND:                -1.746
REMARK SMILES CCCCCCCCCCCCCCCCCCCCCCCC(=O)[O-]
REMARK SMILES IDX 13 1 14 2 15 3 16 4 17 5 18 6 19 7 20 8 21 9 22 10 23 11
REMARK SMILES IDX 24 12 25 13 26 14 12 15 11 16 10 17 9 18 8 19 7 20 6 21 5 22
REMARK SMILES IDX 4 23 3 24 2 25 1 26
REMARK H PARENT
REMARK Flexibility Score: inf
ROOT
ATOM      1  C   UNL     1     -30.045  22.336 -10.356  1.00  0.00     0.000 C 
ENDROOT
BRANCH   1   2
ATOM      2  C   UNL     1     -30.819  23.571 -10.843  1.00  0.00     0.000 C 
BRANCH   2   3
ATOM      3  C   UNL     1     -32.021  23.913  -9.947  1.00  0.00     0.000 C 
BRANCH   3   4
ATOM      4  C   UNL     1     -32.963  22.715  -9.698  1.00  0.00     0.000 C 
BRANCH   4   5
ATOM      5  C   UNL     1     -32.610  21.506 -10.582  1.00  0.00     0.000 C 
BRANCH   5   6
ATOM      6  C   UNL     1     -32.626  20.181  -9.805  1.00  0.00     0.000 C 
BRANCH   6   7
ATOM      7  C   UNL     1     -32.346  18.965 -10.701  1.00  0.00     0.000 C 
BRANCH   7   8
ATOM      8  C   UNL     1     -31.457  17.943  -9.976  1.00  0.00     0.000 C 
BRANCH   8   9
ATOM      9  C   UNL     1     -31.408  16.577 -10.685  1.00  0.00     0.000 C 
BRANCH   9  10
ATOM     10  C   UNL     1     -29.996  16.089 -11.056  1.00  0.00     0.006 C 
BRANCH  10  11
ATOM     11  C   UNL     1     -28.994  17.237 -11.238  1.00  0.00     0.053 C 
BRANCH  11  12
ATOM     12  C   UNL     1     -28.754  17.496 -12.692  1.00  0.00     0.041 C 
ATOM     13  O   UNL     1     -28.316  18.613 -13.073  1.00  0.00    -0.550 OA
ATOM     14  O   UNL     1     -28.978  16.489 -13.622  1.00  0.00    -0.550 OA
ENDBRANCH  11  12
ENDBRANCH  10  11
ENDBRANCH   9  10
ENDBRANCH   8   9
ENDBRANCH   7   8
ENDBRANCH   6   7
ENDBRANCH   5   6
ENDBRANCH   4   5
ENDBRANCH   3   4
ENDBRANCH   2   3
ENDBRANCH   1   2
BRANCH   1  15
ATOM     15  C   UNL     1     -29.328  21.592 -11.496  1.00  0.00     0.000 C 
BRANCH  15  16
ATOM     16  C   UNL     1     -27.791  21.548 -11.378  1.00  0.00     0.000 C 
BRANCH  16  17
ATOM     17  C   UNL     1     -27.021  22.064 -12.607  1.00  0.00     0.000 C 
BRANCH  17  18
ATOM     18  C   UNL     1     -26.384  23.446 -12.378  1.00  0.00    -0.000 C 
BRANCH  18  19
ATOM     19  C   UNL     1     -25.087  23.375 -11.549  1.00  0.00    -0.000 C 
BRANCH  19  20
ATOM     20  C   UNL     1     -25.249  23.719 -10.057  1.00  0.00    -0.000 C 
BRANCH  20  21
ATOM     21  C   UNL     1     -25.393  22.474  -9.168  1.00  0.00    -0.000 C 
BRANCH  21  22
ATOM     22  C   UNL     1     -24.089  22.178  -8.417  1.00  0.00    -0.000 C 
BRANCH  22  23
ATOM     23  C   UNL     1     -24.372  21.491  -7.076  1.00  0.00    -0.000 C 
BRANCH  23  24
ATOM     24  C   UNL     1     -23.099  21.393  -6.227  1.00  0.00    -0.000 C 
BRANCH  24  25
ATOM     25  C   UNL     1     -22.105  22.500  -6.600  1.00  0.00    -0.003 C 
ATOM     26  C   UNL     1     -22.373  23.772  -5.802  1.00  0.00     0.004 C 
ENDBRANCH  24  25
ENDBRANCH  23  24
ENDBRANCH  22  23
ENDBRANCH  21  22
ENDBRANCH  20  21
ENDBRANCH  19  20
ENDBRANCH  18  19
ENDBRANCH  17  18
ENDBRANCH  16  17
ENDBRANCH  15  16
ENDBRANCH   1  15
TORSDOF 22
ENDMDL
MODEL 7
REMARK VINA RESULT:    16.803      2.891      8.292
REMARK INTER + INTRA:          36.669
REMARK INTER:                  36.872
REMARK INTRA:                  -0.203
REMARK UNBOUND:                -1.746
REMARK SMILES CCCCCCCCCCCCCCCCCCCCCCCC(=O)[O-]
REMARK SMILES IDX 13 1 14 2 15 3 16 4 17 5 18 6 19 7 20 8 21 9 22 10 23 11
REMARK SMILES IDX 24 12 25 13 26 14 12 15 11 16 10 17 9 18 8 19 7 20 6 21 5 22
REMARK SMILES IDX 4 23 3 24 2 25 1 26
REMARK H PARENT
REMARK Flexibility Score: inf
ROOT
ATOM      1  C   UNL     1     -30.621  22.526 -10.963  1.00  0.00     0.000 C 
ENDROOT
BRANCH   1   2
ATOM      2  C   UNL     1     -29.402  21.821 -10.348  1.00  0.00     0.000 C 
BRANCH   2   3
ATOM      3  C   UNL     1     -28.720  20.848 -11.326  1.00  0.00     0.000 C 
BRANCH   3   4
ATOM      4  C   UNL     1     -28.306  21.507 -12.660  1.00  0.00     0.000 C 
BRANCH   4   5
ATOM      5  C   UNL     1     -26.791  21.766 -12.735  1.00  0.00     0.000 C 
BRANCH   5   6
ATOM      6  C   UNL     1     -26.446  23.263 -12.709  1.00  0.00     0.000 C 
BRANCH   6   7
ATOM      7  C   UNL     1     -25.548  23.643 -11.522  1.00  0.00     0.000 C 
BRANCH   7   8
ATOM      8  C   UNL     1     -25.699  22.634 -10.374  1.00  0.00     0.000 C 
BRANCH   8   9
ATOM      9  C   UNL     1     -24.708  22.878  -9.222  1.00  0.00     0.000 C 
BRANCH   9  10
ATOM     10  C   UNL     1     -24.586  21.720  -8.215  1.00  0.00     0.006 C 
BRANCH  10  11
ATOM     11  C   UNL     1     -23.147  21.497  -7.731  1.00  0.00     0.053 C 
BRANCH  11  12
ATOM     12  C   UNL     1     -22.968  22.051  -6.352  1.00  0.00     0.041 C 
ATOM     13  O   UNL     1     -23.948  22.118  -5.564  1.00  0.00    -0.550 OA
ATOM     14  O   UNL     1     -21.710  22.456  -5.925  1.00  0.00    -0.550 OA
ENDBRANCH  11  12
ENDBRANCH  10  11
ENDBRANCH   9  10
ENDBRANCH   8   9
ENDBRANCH   7   8
ENDBRANCH   6   7
ENDBRANCH   5   6
ENDBRANCH   4   5
ENDBRANCH   3   4
ENDBRANCH   2   3
ENDBRANCH   1   2
BRANCH   1  15
ATOM     15  C   UNL     1     -31.178  23.645 -10.068  1.00  0.00     0.000 C 
BRANCH  15  16
ATOM     16  C   UNL     1     -32.691  23.557  -9.782  1.00  0.00     0.000 C 
BRANCH  16  17
ATOM     17  C   UNL     1     -33.263  22.129  -9.697  1.00  0.00     0.000 C 
BRANCH  17  18
ATOM     18  C   UNL     1     -32.435  21.104 -10.490  1.00  0.00    -0.000 C 
BRANCH  18  19
ATOM     19  C   UNL     1     -32.600  19.667  -9.961  1.00  0.00    -0.000 C 
BRANCH  19  20
ATOM     20  C   UNL     1     -32.011  18.569 -10.866  1.00  0.00    -0.000 C 
BRANCH  20  21
ATOM     21  C   UNL     1     -31.656  17.287 -10.098  1.00  0.00    -0.000 C 
BRANCH  21  22
ATOM     22  C   UNL     1     -30.556  16.497 -10.817  1.00  0.00    -0.000 C 
BRANCH  22  23
ATOM     23  C   UNL     1     -29.323  17.374 -11.066  1.00  0.00    -0.000 C 
BRANCH  23  24
ATOM     24  C   UNL     1     -28.887  17.311 -12.534  1.00  0.00    -0.000 C 
BRANCH  24  25
ATOM     25  C   UNL     1     -29.256  15.959 -13.157  1.00  0.00    -0.003 C 
ATOM     26  C   UNL     1     -28.627  15.799 -14.538  1.00  0.00     0.004 C 
ENDBRANCH  24  25
ENDBRANCH  23  24
ENDBRANCH  22  23
ENDBRANCH  21  22
ENDBRANCH  20  21
ENDBRANCH  19  20
ENDBRANCH  18  19
ENDBRANCH  17  18
ENDBRANCH  16  17
ENDBRANCH  15  16
ENDBRANCH   1  15
TORSDOF 22
ENDMDL
MODEL 8
REMARK VINA RESULT:    17.150      7.003     10.058
REMARK INTER + INTRA:          37.462
REMARK INTER:                  38.210
REMARK INTRA:                  -0.748
REMARK UNBOUND:                -1.746
REMARK SMILES CCCCCCCCCCCCCCCCCCCCCCCC(=O)[O-]
REMARK SMILES IDX 13 1 14 2 15 3 16 4 17 5 18 6 19 7 20 8 21 9 22 10 23 11
REMARK SMILES IDX 24 12 25 13 26 14 12 15 11 16 10 17 9 18 8 19 7 20 6 21 5 22
REMARK SMILES IDX 4 23 3 24 2 25 1 26
REMARK H PARENT
REMARK Flexibility Score: inf
ROOT
ATOM      1  C   UNL     1     -27.284  13.259 -15.196  1.00  0.00     0.000 C 
ENDROOT
BRANCH   1   2
ATOM      2  C   UNL     1     -28.017  14.154 -14.184  1.00  0.00     0.000 C 
BRANCH   2   3
ATOM      3  C   UNL     1     -28.451  15.502 -14.785  1.00  0.00     0.000 C 
BRANCH   3   4
ATOM      4  C   UNL     1     -28.704  16.595 -13.724  1.00  0.00     0.000 C 
BRANCH   4   5
ATOM      5  C   UNL     1     -29.445  16.047 -12.492  1.00  0.00     0.000 C 
BRANCH   5   6
ATOM      6  C   UNL     1     -28.895  16.611 -11.172  1.00  0.00     0.000 C 
BRANCH   6   7
ATOM      7  C   UNL     1     -29.614  17.896 -10.732  1.00  0.00     0.000 C 
BRANCH   7   8
ATOM      8  C   UNL     1     -31.129  17.781 -10.957  1.00  0.00     0.000 C 
BRANCH   8   9
ATOM      9  C   UNL     1     -31.940  18.805 -10.142  1.00  0.00     0.000 C 
BRANCH   9  10
ATOM     10  C   UNL     1     -32.053  20.200 -10.783  1.00  0.00     0.006 C 
BRANCH  10  11
ATOM     11  C   UNL     1     -32.535  21.273  -9.798  1.00  0.00     0.053 C 
BRANCH  11  12
ATOM     12  C   UNL     1     -32.193  22.639 -10.305  1.00  0.00     0.041 C 
ATOM     13  O   UNL     1     -31.030  22.888 -10.720  1.00  0.00    -0.550 OA
ATOM     14  O   UNL     1     -33.169  23.625 -10.355  1.00  0.00    -0.550 OA
ENDBRANCH  11  12
ENDBRANCH  10  11
ENDBRANCH   9  10
ENDBRANCH   8   9
ENDBRANCH   7   8
ENDBRANCH   6   7
ENDBRANCH   5   6
ENDBRANCH   4   5
ENDBRANCH   3   4
ENDBRANCH   2   3
ENDBRANCH   1   2
BRANCH   1  15
ATOM     15  C   UNL     1     -25.815  13.665 -15.399  1.00  0.00     0.000 C 
BRANCH  15  16
ATOM     16  C   UNL     1     -25.433  14.020 -16.851  1.00  0.00     0.000 C 
BRANCH  16  17
ATOM     17  C   UNL     1     -24.288  13.184 -17.453  1.00  0.00     0.000 C 
BRANCH  17  18
ATOM     18  C   UNL     1     -24.211  13.290 -18.986  1.00  0.00    -0.000 C 
BRANCH  18  19
ATOM     19  C   UNL     1     -23.286  12.229 -19.611  1.00  0.00    -0.000 C 
BRANCH  19  20
ATOM     20  C   UNL     1     -23.929  10.845 -19.817  1.00  0.00    -0.000 C 
BRANCH  20  21
ATOM     21  C   UNL     1     -22.905   9.700 -19.795  1.00  0.00    -0.000 C 
BRANCH  21  22
ATOM     22  C   UNL     1     -22.762   9.113 -18.386  1.00  0.00    -0.000 C 
BRANCH  22  23
ATOM     23  C   UNL     1     -23.630   9.879 -17.381  1.00  0.00    -0.000 C 
BRANCH  23  24
ATOM     24  C   UNL     1     -23.365   9.404 -15.948  1.00  0.00    -0.000 C 
BRANCH  24  25
ATOM     25  C   UNL     1     -21.863   9.204 -15.706  1.00  0.00    -0.003 C 
ATOM     26  C   UNL     1     -21.066  10.428 -16.147  1.00  0.00     0.004 C 
ENDBRANCH  24  25
ENDBRANCH  23  24
ENDBRANCH  22  23
ENDBRANCH  21  22
ENDBRANCH  20  21
ENDBRANCH  19  20
ENDBRANCH  18  19
ENDBRANCH  17  18
ENDBRANCH  16  17
ENDBRANCH  15  16
ENDBRANCH   1  15
TORSDOF 22
ENDMDL
MODEL 9
REMARK VINA RESULT:    17.164      9.214     12.159
REMARK INTER + INTRA:          37.493
REMARK INTER:                  38.246
REMARK INTRA:                  -0.753
REMARK UNBOUND:                -1.746
REMARK SMILES CCCCCCCCCCCCCCCCCCCCCCCC(=O)[O-]
REMARK SMILES IDX 13 1 14 2 15 3 16 4 17 5 18 6 19 7 20 8 21 9 22 10 23 11
REMARK SMILES IDX 24 12 25 13 26 14 12 15 11 16 10 17 9 18 8 19 7 20 6 21 5 22
REMARK SMILES IDX 4 23 3 24 2 25 1 26
REMARK H PARENT
REMARK Flexibility Score: inf
ROOT
ATOM      1  C   UNL     1     -26.253  13.844 -15.285  1.00  0.00     0.000 C 
ENDROOT
BRANCH   1   2
ATOM      2  C   UNL     1     -27.731  13.865 -14.863  1.00  0.00     0.000 C 
BRANCH   2   3
ATOM      3  C   UNL     1     -28.310  15.288 -14.790  1.00  0.00     0.000 C 
BRANCH   3   4
ATOM      4  C   UNL     1     -29.319  15.483 -13.636  1.00  0.00     0.000 C 
BRANCH   4   5
ATOM      5  C   UNL     1     -29.032  16.758 -12.823  1.00  0.00     0.000 C 
BRANCH   5   6
ATOM      6  C   UNL     1     -29.192  16.541 -11.310  1.00  0.00     0.000 C 
BRANCH   6   7
ATOM      7  C   UNL     1     -29.652  17.810 -10.576  1.00  0.00     0.000 C 
BRANCH   7   8
ATOM      8  C   UNL     1     -31.162  18.029 -10.753  1.00  0.00     0.000 C 
BRANCH   8   9
ATOM      9  C   UNL     1     -31.705  19.196  -9.909  1.00  0.00     0.000 C 
BRANCH   9  10
ATOM     10  C   UNL     1     -31.970  20.495 -10.691  1.00  0.00     0.006 C 
BRANCH  10  11
ATOM     11  C   UNL     1     -31.229  21.706 -10.109  1.00  0.00     0.053 C 
BRANCH  11  12
ATOM     12  C   UNL     1     -32.149  22.881 -10.007  1.00  0.00     0.041 C 
ATOM     13  O   UNL     1     -33.381  22.744 -10.227  1.00  0.00    -0.550 OA
ATOM     14  O   UNL     1     -31.650  24.122  -9.630  1.00  0.00    -0.550 OA
ENDBRANCH  11  12
ENDBRANCH  10  11
ENDBRANCH   9  10
ENDBRANCH   8   9
ENDBRANCH   7   8
ENDBRANCH   6   7
ENDBRANCH   5   6
ENDBRANCH   4   5
ENDBRANCH   3   4
ENDBRANCH   2   3
ENDBRANCH   1   2
BRANCH   1  15
ATOM     15  C   UNL     1     -25.668  12.424 -15.341  1.00  0.00     0.000 C 
BRANCH  15  16
ATOM     16  C   UNL     1     -24.127  12.356 -15.366  1.00  0.00     0.000 C 
BRANCH  16  17
ATOM     17  C   UNL     1     -23.529  11.306 -16.321  1.00  0.00     0.000 C 
BRANCH  17  18
ATOM     18  C   UNL     1     -23.267   9.953 -15.637  1.00  0.00    -0.000 C 
BRANCH  18  19
ATOM     19  C   UNL     1     -21.965   9.285 -16.116  1.00  0.00    -0.000 C 
BRANCH  19  20
ATOM     20  C   UNL     1     -21.928   8.933 -17.615  1.00  0.00    -0.000 C 
BRANCH  20  21
ATOM     21  C   UNL     1     -21.466   7.492 -17.879  1.00  0.00    -0.000 C 
BRANCH  21  22
ATOM     22  C   UNL     1     -20.216   7.466 -18.766  1.00  0.00    -0.000 C 
BRANCH  22  23
ATOM     23  C   UNL     1     -20.199   6.217 -19.656  1.00  0.00    -0.000 C 
BRANCH  23  24
ATOM     24  C   UNL     1     -20.261   4.938 -18.814  1.00  0.00    -0.000 C 
BRANCH  24  25
ATOM     25  C   UNL     1     -19.285   3.882 -19.347  1.00  0.00    -0.003 C 
ATOM     26  C   UNL     1     -17.936   4.505 -19.695  1.00  0.00     0.004 C 
ENDBRANCH  24  25
ENDBRANCH  23  24
ENDBRANCH  22  23
ENDBRANCH  21  22
ENDBRANCH  20  21
ENDBRANCH  19  20
ENDBRANCH  18  19
ENDBRANCH  17  18
ENDBRANCH  16  17
ENDBRANCH  15  16
ENDBRANCH   1  15
TORSDOF 22
ENDMDL
