MODEL 1
REMARK VINA RESULT:    -5.147      0.000      0.000
REMARK INTER + INTRA:         -11.351
REMARK INTER:                  -9.360
REMARK INTRA:                  -1.991
REMARK UNBOUND:                -1.991
REMARK SMILES CCCCCC=CCC=CCCCCCCCC(=O)[O-]
REMARK SMILES IDX 11 1 12 2 13 3 14 4 15 5 16 6 17 7 18 8 19 9 20 10 10 11
REMARK SMILES IDX 9 12 8 13 7 14 6 15 5 16 4 17 3 18 2 19 1 20
REMARK H PARENT
REMARK Flexibility Score: inf
ROOT
ATOM      1  C   UNL     1      -7.364  11.336  -6.288  1.00  0.00     0.027 C 
ENDROOT
BRANCH   1   2
ATOM      2  C   UNL     1      -7.689  10.418  -5.098  1.00  0.00     0.004 C 
BRANCH   2   3
ATOM      3  C   UNL     1      -7.400   8.925  -5.350  1.00  0.00     0.000 C 
BRANCH   3   4
ATOM      4  C   UNL     1      -6.460   8.288  -4.303  1.00  0.00     0.000 C 
BRANCH   4   5
ATOM      5  C   UNL     1      -5.345   9.251  -3.855  1.00  0.00     0.000 C 
BRANCH   5   6
ATOM      6  C   UNL     1      -5.105   9.208  -2.338  1.00  0.00     0.006 C 
BRANCH   6   7
ATOM      7  C   UNL     1      -6.140   8.345  -1.603  1.00  0.00     0.053 C 
BRANCH   7   8
ATOM      8  C   UNL     1      -5.472   7.188  -0.930  1.00  0.00     0.041 C 
ATOM      9  O   UNL     1      -5.041   6.220  -1.612  1.00  0.00    -0.550 OA
ATOM     10  O   UNL     1      -5.289   7.196   0.448  1.00  0.00    -0.550 OA
ENDBRANCH   7   8
ENDBRANCH   6   7
ENDBRANCH   5   6
ENDBRANCH   4   5
ENDBRANCH   3   4
ENDBRANCH   2   3
ENDBRANCH   1   2
BRANCH   1  11
ATOM     11  C   UNL     1      -6.280  12.331  -5.968  1.00  0.00    -0.031 C 
ATOM     12  C   UNL     1      -5.852  12.525  -4.714  1.00  0.00    -0.027 C 
BRANCH  12  13
ATOM     13  C   UNL     1      -4.752  13.511  -4.424  1.00  0.00     0.054 C 
BRANCH  13  14
ATOM     14  C   UNL     1      -4.457  13.598  -2.952  1.00  0.00    -0.027 C 
ATOM     15  C   UNL     1      -3.583  12.769  -2.359  1.00  0.00    -0.031 C 
BRANCH  15  16
ATOM     16  C   UNL     1      -3.258  12.876  -0.893  1.00  0.00     0.027 C 
BRANCH  16  17
ATOM     17  C   UNL     1      -4.524  12.892  -0.018  1.00  0.00     0.004 C 
BRANCH  17  18
ATOM     18  C   UNL     1      -4.484  11.886   1.149  1.00  0.00     0.000 C 
BRANCH  18  19
ATOM     19  C   UNL     1      -3.867  10.536   0.756  1.00  0.00    -0.003 C 
ATOM     20  C   UNL     1      -2.787  10.116   1.749  1.00  0.00     0.004 C 
ENDBRANCH  18  19
ENDBRANCH  17  18
ENDBRANCH  16  17
ENDBRANCH  15  16
ENDBRANCH  13  14
ENDBRANCH  12  13
ENDBRANCH   1  11
TORSDOF 14
ENDMDL
MODEL 2
REMARK VINA RESULT:    -5.039      0.991      5.031
REMARK INTER + INTRA:         -11.154
REMARK INTER:                  -8.877
REMARK INTRA:                  -2.277
REMARK UNBOUND:                -1.991
REMARK SMILES CCCCCC=CCC=CCCCCCCCC(=O)[O-]
REMARK SMILES IDX 11 1 12 2 13 3 14 4 15 5 16 6 17 7 18 8 19 9 20 10 10 11
REMARK SMILES IDX 9 12 8 13 7 14 6 15 5 16 4 17 3 18 2 19 1 20
REMARK H PARENT
REMARK Flexibility Score: inf
ROOT
ATOM      1  C   UNL     1      -3.239  12.295  -1.171  1.00  0.00     0.027 C 
ENDROOT
BRANCH   1   2
ATOM      2  C   UNL     1      -3.997  13.092  -0.097  1.00  0.00     0.004 C 
BRANCH   2   3
ATOM      3  C   UNL     1      -4.557  12.233   1.054  1.00  0.00     0.000 C 
BRANCH   3   4
ATOM      4  C   UNL     1      -4.808  10.760   0.667  1.00  0.00     0.000 C 
BRANCH   4   5
ATOM      5  C   UNL     1      -6.255  10.516   0.201  1.00  0.00     0.000 C 
BRANCH   5   6
ATOM      6  C   UNL     1      -6.325   9.717  -1.109  1.00  0.00     0.006 C 
BRANCH   6   7
ATOM      7  C   UNL     1      -5.137   8.759  -1.277  1.00  0.00     0.053 C 
BRANCH   7   8
ATOM      8  C   UNL     1      -5.542   7.361  -0.931  1.00  0.00     0.041 C 
ATOM      9  O   UNL     1      -4.973   6.381  -1.481  1.00  0.00    -0.550 OA
ATOM     10  O   UNL     1      -6.522   7.138   0.030  1.00  0.00    -0.550 OA
ENDBRANCH   7   8
ENDBRANCH   6   7
ENDBRANCH   5   6
ENDBRANCH   4   5
ENDBRANCH   3   4
ENDBRANCH   2   3
ENDBRANCH   1   2
BRANCH   1  11
ATOM     11  C   UNL     1      -3.954  12.292  -2.497  1.00  0.00    -0.031 C 
ATOM     12  C   UNL     1      -4.317  13.431  -3.101  1.00  0.00    -0.027 C 
BRANCH  12  13
ATOM     13  C   UNL     1      -5.012  13.401  -4.436  1.00  0.00     0.054 C 
BRANCH  13  14
ATOM     14  C   UNL     1      -5.835  12.154  -4.608  1.00  0.00    -0.027 C 
ATOM     15  C   UNL     1      -6.434  11.861  -5.773  1.00  0.00    -0.031 C 
BRANCH  15  16
ATOM     16  C   UNL     1      -7.229  10.597  -5.960  1.00  0.00     0.027 C 
BRANCH  16  17
ATOM     17  C   UNL     1      -7.809  10.075  -4.633  1.00  0.00     0.004 C 
BRANCH  17  18
ATOM     18  C   UNL     1      -7.555   8.575  -4.392  1.00  0.00     0.000 C 
BRANCH  18  19
ATOM     19  C   UNL     1      -6.114   8.152  -4.711  1.00  0.00    -0.003 C 
ATOM     20  C   UNL     1      -6.038   6.664  -5.041  1.00  0.00     0.004 C 
ENDBRANCH  18  19
ENDBRANCH  17  18
ENDBRANCH  16  17
ENDBRANCH  15  16
ENDBRANCH  13  14
ENDBRANCH  12  13
ENDBRANCH   1  11
TORSDOF 14
ENDMDL
MODEL 3
REMARK VINA RESULT:    -4.965      1.244      2.086
REMARK INTER + INTRA:         -11.020
REMARK INTER:                  -8.624
REMARK INTRA:                  -2.397
REMARK UNBOUND:                -1.991
REMARK SMILES CCCCCC=CCC=CCCCCCCCC(=O)[O-]
REMARK SMILES IDX 11 1 12 2 13 3 14 4 15 5 16 6 17 7 18 8 19 9 20 10 10 11
REMARK SMILES IDX 9 12 8 13 7 14 6 15 5 16 4 17 3 18 2 19 1 20
REMARK H PARENT
REMARK Flexibility Score: inf
ROOT
ATOM      1  C   UNL     1      -6.668  12.242  -5.250  1.00  0.00     0.027 C 
ENDROOT
BRANCH   1   2
ATOM      2  C   UNL     1      -7.610  11.107  -4.815  1.00  0.00     0.004 C 
BRANCH   2   3
ATOM      3  C   UNL     1      -7.820  10.013  -5.879  1.00  0.00     0.000 C 
BRANCH   3   4
ATOM      4  C   UNL     1      -7.450   8.595  -5.395  1.00  0.00     0.000 C 
BRANCH   4   5
ATOM      5  C   UNL     1      -6.022   8.525  -4.824  1.00  0.00     0.000 C 
BRANCH   5   6
ATOM      6  C   UNL     1      -5.921   7.605  -3.598  1.00  0.00     0.006 C 
BRANCH   6   7
ATOM      7  C   UNL     1      -5.732   8.387  -2.291  1.00  0.00     0.053 C 
BRANCH   7   8
ATOM      8  C   UNL     1      -5.763   7.458  -1.118  1.00  0.00     0.041 C 
ATOM      9  O   UNL     1      -5.140   6.364  -1.159  1.00  0.00    -0.550 OA
ATOM     10  O   UNL     1      -6.449   7.818   0.036  1.00  0.00    -0.550 OA
ENDBRANCH   7   8
ENDBRANCH   6   7
ENDBRANCH   5   6
ENDBRANCH   4   5
ENDBRANCH   3   4
ENDBRANCH   2   3
ENDBRANCH   1   2
BRANCH   1  11
ATOM     11  C   UNL     1      -5.481  12.386  -4.334  1.00  0.00    -0.031 C 
ATOM     12  C   UNL     1      -4.756  13.512  -4.296  1.00  0.00    -0.027 C 
BRANCH  12  13
ATOM     13  C   UNL     1      -3.587  13.638  -3.356  1.00  0.00     0.054 C 
BRANCH  13  14
ATOM     14  C   UNL     1      -3.724  12.723  -2.170  1.00  0.00    -0.027 C 
ATOM     15  C   UNL     1      -3.479  13.148  -0.921  1.00  0.00    -0.031 C 
BRANCH  15  16
ATOM     16  C   UNL     1      -3.649  12.246   0.272  1.00  0.00     0.027 C 
BRANCH  16  17
ATOM     17  C   UNL     1      -4.600  11.072  -0.021  1.00  0.00     0.004 C 
BRANCH  17  18
ATOM     18  C   UNL     1      -6.065  11.348   0.367  1.00  0.00     0.000 C 
BRANCH  18  19
ATOM     19  C   UNL     1      -6.969  11.605  -0.848  1.00  0.00    -0.003 C 
ATOM     20  C   UNL     1      -7.185  13.100  -1.064  1.00  0.00     0.004 C 
ENDBRANCH  18  19
ENDBRANCH  17  18
ENDBRANCH  16  17
ENDBRANCH  15  16
ENDBRANCH  13  14
ENDBRANCH  12  13
ENDBRANCH   1  11
TORSDOF 14
ENDMDL
MODEL 4
REMARK VINA RESULT:    -4.933      2.878      5.541
REMARK INTER + INTRA:         -10.962
REMARK INTER:                  -8.389
REMARK INTRA:                  -2.573
REMARK UNBOUND:                -1.991
REMARK SMILES CCCCCC=CCC=CCCCCCCCC(=O)[O-]
REMARK SMILES IDX 11 1 12 2 13 3 14 4 15 5 16 6 17 7 18 8 19 9 20 10 10 11
REMARK SMILES IDX 9 12 8 13 7 14 6 15 5 16 4 17 3 18 2 19 1 20
REMARK H PARENT
REMARK Flexibility Score: inf
ROOT
ATOM      1  C   UNL     1      -4.332  13.789  -3.279  1.00  0.00     0.027 C 
ENDROOT
BRANCH   1   2
ATOM      2  C   UNL     1      -3.348  13.176  -2.269  1.00  0.00     0.004 C 
BRANCH   2   3
ATOM      3  C   UNL     1      -3.527  11.662  -2.045  1.00  0.00     0.000 C 
BRANCH   3   4
ATOM      4  C   UNL     1      -3.649  11.263  -0.559  1.00  0.00     0.000 C 
BRANCH   4   5
ATOM      5  C   UNL     1      -3.610  12.483   0.380  1.00  0.00     0.000 C 
BRANCH   5   6
ATOM      6  C   UNL     1      -4.983  12.799   0.993  1.00  0.00     0.006 C 
BRANCH   6   7
ATOM      7  C   UNL     1      -5.184  14.301   1.239  1.00  0.00     0.053 C 
BRANCH   7   8
ATOM      8  C   UNL     1      -6.290  14.827   0.379  1.00  0.00     0.041 C 
ATOM      9  O   UNL     1      -6.603  14.232  -0.686  1.00  0.00    -0.550 OA
ATOM     10  O   UNL     1      -7.002  15.953   0.773  1.00  0.00    -0.550 OA
ENDBRANCH   7   8
ENDBRANCH   6   7
ENDBRANCH   5   6
ENDBRANCH   4   5
ENDBRANCH   3   4
ENDBRANCH   2   3
ENDBRANCH   1   2
BRANCH   1  11
ATOM     11  C   UNL     1      -5.281  12.767  -3.849  1.00  0.00    -0.031 C 
ATOM     12  C   UNL     1      -5.613  12.764  -5.146  1.00  0.00    -0.027 C 
BRANCH  12  13
ATOM     13  C   UNL     1      -6.548  11.719  -5.695  1.00  0.00     0.054 C 
BRANCH  13  14
ATOM     14  C   UNL     1      -6.686  10.550  -4.759  1.00  0.00    -0.027 C 
ATOM     15  C   UNL     1      -5.942   9.442  -4.903  1.00  0.00    -0.031 C 
BRANCH  15  16
ATOM     16  C   UNL     1      -6.051   8.284  -3.948  1.00  0.00     0.027 C 
BRANCH  16  17
ATOM     17  C   UNL     1      -5.599   8.661  -2.526  1.00  0.00     0.004 C 
BRANCH  17  18
ATOM     18  C   UNL     1      -6.637   8.330  -1.437  1.00  0.00     0.000 C 
BRANCH  18  19
ATOM     19  C   UNL     1      -6.899   9.503  -0.482  1.00  0.00    -0.003 C 
ATOM     20  C   UNL     1      -7.252  10.772  -1.254  1.00  0.00     0.004 C 
ENDBRANCH  18  19
ENDBRANCH  17  18
ENDBRANCH  16  17
ENDBRANCH  15  16
ENDBRANCH  13  14
ENDBRANCH  12  13
ENDBRANCH   1  11
TORSDOF 14
ENDMDL
MODEL 5
REMARK VINA RESULT:    -4.900      1.378      4.985
REMARK INTER + INTRA:         -10.901
REMARK INTER:                  -8.597
REMARK INTRA:                  -2.304
REMARK UNBOUND:                -1.991
REMARK SMILES CCCCCC=CCC=CCCCCCCCC(=O)[O-]
REMARK SMILES IDX 11 1 12 2 13 3 14 4 15 5 16 6 17 7 18 8 19 9 20 10 10 11
REMARK SMILES IDX 9 12 8 13 7 14 6 15 5 16 4 17 3 18 2 19 1 20
REMARK H PARENT
REMARK Flexibility Score: inf
ROOT
ATOM      1  C   UNL     1      -4.410  13.702  -3.529  1.00  0.00     0.027 C 
ENDROOT
BRANCH   1   2
ATOM      2  C   UNL     1      -3.241  13.113  -2.721  1.00  0.00     0.004 C 
BRANCH   2   3
ATOM      3  C   UNL     1      -3.373  13.287  -1.196  1.00  0.00     0.000 C 
BRANCH   3   4
ATOM      4  C   UNL     1      -4.695  13.951  -0.756  1.00  0.00     0.000 C 
BRANCH   4   5
ATOM      5  C   UNL     1      -5.438  13.125   0.310  1.00  0.00     0.000 C 
BRANCH   5   6
ATOM      6  C   UNL     1      -4.487  12.269   1.161  1.00  0.00     0.006 C 
BRANCH   6   7
ATOM      7  C   UNL     1      -5.070  10.886   1.482  1.00  0.00     0.053 C 
BRANCH   7   8
ATOM      8  C   UNL     1      -3.989   9.852   1.486  1.00  0.00     0.041 C 
ATOM      9  O   UNL     1      -2.791  10.186   1.282  1.00  0.00    -0.550 OA
ATOM     10  O   UNL     1      -4.297   8.524   1.753  1.00  0.00    -0.550 OA
ENDBRANCH   7   8
ENDBRANCH   6   7
ENDBRANCH   5   6
ENDBRANCH   4   5
ENDBRANCH   3   4
ENDBRANCH   2   3
ENDBRANCH   1   2
BRANCH   1  11
ATOM     11  C   UNL     1      -5.207  12.642  -4.243  1.00  0.00    -0.031 C 
ATOM     12  C   UNL     1      -5.832  12.894  -5.401  1.00  0.00    -0.027 C 
BRANCH  12  13
ATOM     13  C   UNL     1      -6.605  11.810  -6.105  1.00  0.00     0.054 C 
BRANCH  13  14
ATOM     14  C   UNL     1      -6.441  10.479  -5.426  1.00  0.00    -0.027 C 
ATOM     15  C   UNL     1      -7.391   9.533  -5.493  1.00  0.00    -0.031 C 
BRANCH  15  16
ATOM     16  C   UNL     1      -7.217   8.186  -4.845  1.00  0.00     0.027 C 
BRANCH  16  17
ATOM     17  C   UNL     1      -5.893   8.084  -4.067  1.00  0.00     0.004 C 
BRANCH  17  18
ATOM     18  C   UNL     1      -6.060   8.194  -2.540  1.00  0.00     0.000 C 
BRANCH  18  19
ATOM     19  C   UNL     1      -5.554   9.529  -1.975  1.00  0.00    -0.003 C 
ATOM     20  C   UNL     1      -4.059   9.702  -2.230  1.00  0.00     0.004 C 
ENDBRANCH  18  19
ENDBRANCH  17  18
ENDBRANCH  16  17
ENDBRANCH  15  16
ENDBRANCH  13  14
ENDBRANCH  12  13
ENDBRANCH   1  11
TORSDOF 14
ENDMDL
MODEL 6
REMARK VINA RESULT:    -4.800      1.080      2.168
REMARK INTER + INTRA:         -10.719
REMARK INTER:                  -8.733
REMARK INTRA:                  -1.986
REMARK UNBOUND:                -1.991
REMARK SMILES CCCCCC=CCC=CCCCCCCCC(=O)[O-]
REMARK SMILES IDX 11 1 12 2 13 3 14 4 15 5 16 6 17 7 18 8 19 9 20 10 10 11
REMARK SMILES IDX 9 12 8 13 7 14 6 15 5 16 4 17 3 18 2 19 1 20
REMARK H PARENT
REMARK Flexibility Score: inf
ROOT
ATOM      1  C   UNL     1      -6.435   8.554  -5.071  1.00  0.00     0.027 C 
ENDROOT
BRANCH   1   2
ATOM      2  C   UNL     1      -7.680   8.213  -4.235  1.00  0.00     0.004 C 
BRANCH   2   3
ATOM      3  C   UNL     1      -8.095   9.312  -3.238  1.00  0.00     0.000 C 
BRANCH   3   4
ATOM      4  C   UNL     1      -7.673   9.022  -1.781  1.00  0.00     0.000 C 
BRANCH   4   5
ATOM      5  C   UNL     1      -6.324   9.671  -1.423  1.00  0.00     0.000 C 
BRANCH   5   6
ATOM      6  C   UNL     1      -5.154   8.678  -1.499  1.00  0.00     0.006 C 
BRANCH   6   7
ATOM      7  C   UNL     1      -5.587   7.237  -1.197  1.00  0.00     0.053 C 
BRANCH   7   8
ATOM      8  C   UNL     1      -5.734   7.034   0.279  1.00  0.00     0.041 C 
ATOM      9  O   UNL     1      -6.639   6.282   0.728  1.00  0.00    -0.550 OA
ATOM     10  O   UNL     1      -4.847   7.646   1.156  1.00  0.00    -0.550 OA
ENDBRANCH   7   8
ENDBRANCH   6   7
ENDBRANCH   5   6
ENDBRANCH   4   5
ENDBRANCH   3   4
ENDBRANCH   2   3
ENDBRANCH   1   2
BRANCH   1  11
ATOM     11  C   UNL     1      -6.067  10.011  -4.988  1.00  0.00    -0.031 C 
ATOM     12  C   UNL     1      -6.608  10.921  -5.809  1.00  0.00    -0.027 C 
BRANCH  12  13
ATOM     13  C   UNL     1      -6.238  12.376  -5.690  1.00  0.00     0.054 C 
BRANCH  13  14
ATOM     14  C   UNL     1      -5.594  12.680  -4.366  1.00  0.00    -0.027 C 
ATOM     15  C   UNL     1      -4.543  13.510  -4.269  1.00  0.00    -0.031 C 
BRANCH  15  16
ATOM     16  C   UNL     1      -3.917  13.845  -2.941  1.00  0.00     0.027 C 
BRANCH  16  17
ATOM     17  C   UNL     1      -3.825  12.617  -2.018  1.00  0.00     0.004 C 
BRANCH  17  18
ATOM     18  C   UNL     1      -3.450  12.961  -0.563  1.00  0.00     0.000 C 
BRANCH  18  19
ATOM     19  C   UNL     1      -4.163  12.072   0.466  1.00  0.00    -0.003 C 
ATOM     20  C   UNL     1      -3.334  10.832   0.787  1.00  0.00     0.004 C 
ENDBRANCH  18  19
ENDBRANCH  17  18
ENDBRANCH  16  17
ENDBRANCH  15  16
ENDBRANCH  13  14
ENDBRANCH  12  13
ENDBRANCH   1  11
TORSDOF 14
ENDMDL
MODEL 7
REMARK VINA RESULT:    -4.737      1.432      4.897
REMARK INTER + INTRA:         -10.605
REMARK INTER:                  -8.564
REMARK INTRA:                  -2.041
REMARK UNBOUND:                -1.991
REMARK SMILES CCCCCC=CCC=CCCCCCCCC(=O)[O-]
REMARK SMILES IDX 11 1 12 2 13 3 14 4 15 5 16 6 17 7 18 8 19 9 20 10 10 11
REMARK SMILES IDX 9 12 8 13 7 14 6 15 5 16 4 17 3 18 2 19 1 20
REMARK H PARENT
REMARK Flexibility Score: inf
ROOT
ATOM      1  C   UNL     1      -3.597  12.153  -0.379  1.00  0.00     0.027 C 
ENDROOT
BRANCH   1   2
ATOM      2  C   UNL     1      -4.255  10.772  -0.227  1.00  0.00     0.004 C 
BRANCH   2   3
ATOM      3  C   UNL     1      -3.931   9.785  -1.365  1.00  0.00     0.000 C 
BRANCH   3   4
ATOM      4  C   UNL     1      -5.145   9.441  -2.255  1.00  0.00     0.000 C 
BRANCH   4   5
ATOM      5  C   UNL     1      -6.097   8.436  -1.582  1.00  0.00     0.000 C 
BRANCH   5   6
ATOM      6  C   UNL     1      -5.349   7.265  -0.926  1.00  0.00     0.006 C 
BRANCH   6   7
ATOM      7  C   UNL     1      -6.027   6.784   0.364  1.00  0.00     0.053 C 
BRANCH   7   8
ATOM      8  C   UNL     1      -5.729   7.723   1.491  1.00  0.00     0.041 C 
ATOM      9  O   UNL     1      -6.666   8.319   2.085  1.00  0.00    -0.550 OA
ATOM     10  O   UNL     1      -4.418   7.910   1.912  1.00  0.00    -0.550 OA
ENDBRANCH   7   8
ENDBRANCH   6   7
ENDBRANCH   5   6
ENDBRANCH   4   5
ENDBRANCH   3   4
ENDBRANCH   2   3
ENDBRANCH   1   2
BRANCH   1  11
ATOM     11  C   UNL     1      -3.426  12.553  -1.821  1.00  0.00    -0.031 C 
ATOM     12  C   UNL     1      -4.337  13.303  -2.454  1.00  0.00    -0.027 C 
BRANCH  12  13
ATOM     13  C   UNL     1      -4.132  13.707  -3.890  1.00  0.00     0.054 C 
BRANCH  13  14
ATOM     14  C   UNL     1      -5.233  13.191  -4.776  1.00  0.00    -0.027 C 
ATOM     15  C   UNL     1      -5.843  12.021  -4.531  1.00  0.00    -0.031 C 
BRANCH  15  16
ATOM     16  C   UNL     1      -6.969  11.518  -5.394  1.00  0.00     0.027 C 
BRANCH  16  17
ATOM     17  C   UNL     1      -7.636  10.264  -4.802  1.00  0.00     0.004 C 
BRANCH  17  18
ATOM     18  C   UNL     1      -7.515   9.016  -5.698  1.00  0.00     0.000 C 
BRANCH  18  19
ATOM     19  C   UNL     1      -7.495   7.704  -4.899  1.00  0.00    -0.003 C 
ATOM     20  C   UNL     1      -6.172   6.967  -5.086  1.00  0.00     0.004 C 
ENDBRANCH  18  19
ENDBRANCH  17  18
ENDBRANCH  16  17
ENDBRANCH  15  16
ENDBRANCH  13  14
ENDBRANCH  12  13
ENDBRANCH   1  11
TORSDOF 14
ENDMDL
MODEL 8
REMARK VINA RESULT:    -4.704      1.907      4.319
REMARK INTER + INTRA:         -10.546
REMARK INTER:                  -7.885
REMARK INTRA:                  -2.661
REMARK UNBOUND:                -1.991
REMARK SMILES CCCCCC=CCC=CCCCCCCCC(=O)[O-]
REMARK SMILES IDX 11 1 12 2 13 3 14 4 15 5 16 6 17 7 18 8 19 9 20 10 10 11
REMARK SMILES IDX 9 12 8 13 7 14 6 15 5 16 4 17 3 18 2 19 1 20
REMARK H PARENT
REMARK Flexibility Score: inf
ROOT
ATOM      1  C   UNL     1      -3.051  13.168  -2.584  1.00  0.00     0.027 C 
ENDROOT
BRANCH   1   2
ATOM      2  C   UNL     1      -4.314  13.898  -3.071  1.00  0.00     0.004 C 
BRANCH   2   3
ATOM      3  C   UNL     1      -4.856  13.396  -4.423  1.00  0.00     0.000 C 
BRANCH   3   4
ATOM      4  C   UNL     1      -5.959  12.323  -4.292  1.00  0.00     0.000 C 
BRANCH   4   5
ATOM      5  C   UNL     1      -6.253  11.621  -5.630  1.00  0.00     0.000 C 
BRANCH   5   6
ATOM      6  C   UNL     1      -6.512  10.116  -5.461  1.00  0.00     0.006 C 
BRANCH   6   7
ATOM      7  C   UNL     1      -6.463   9.673  -3.993  1.00  0.00     0.053 C 
BRANCH   7   8
ATOM      8  C   UNL     1      -6.010   8.250  -3.892  1.00  0.00     0.041 C 
ATOM      9  O   UNL     1      -5.909   7.695  -2.765  1.00  0.00    -0.550 OA
ATOM     10  O   UNL     1      -5.736   7.524  -5.045  1.00  0.00    -0.550 OA
ENDBRANCH   7   8
ENDBRANCH   6   7
ENDBRANCH   5   6
ENDBRANCH   4   5
ENDBRANCH   3   4
ENDBRANCH   2   3
ENDBRANCH   1   2
BRANCH   1  11
ATOM     11  C   UNL     1      -3.359  12.102  -1.565  1.00  0.00    -0.031 C 
ATOM     12  C   UNL     1      -3.655  10.847  -1.928  1.00  0.00    -0.027 C 
BRANCH  12  13
ATOM     13  C   UNL     1      -3.938   9.796  -0.889  1.00  0.00     0.054 C 
BRANCH  13  14
ATOM     14  C   UNL     1      -5.054  10.209   0.030  1.00  0.00    -0.027 C 
ATOM     15  C   UNL     1      -6.272  10.522  -0.439  1.00  0.00    -0.031 C 
BRANCH  15  16
ATOM     16  C   UNL     1      -7.403  10.902   0.480  1.00  0.00     0.027 C 
BRANCH  16  17
ATOM     17  C   UNL     1      -7.611  12.425   0.544  1.00  0.00     0.004 C 
BRANCH  17  18
ATOM     18  C   UNL     1      -6.896  13.197  -0.582  1.00  0.00     0.000 C 
BRANCH  18  19
ATOM     19  C   UNL     1      -6.050  14.368  -0.062  1.00  0.00    -0.003 C 
ATOM     20  C   UNL     1      -5.157  13.931   1.096  1.00  0.00     0.004 C 
ENDBRANCH  18  19
ENDBRANCH  17  18
ENDBRANCH  16  17
ENDBRANCH  15  16
ENDBRANCH  13  14
ENDBRANCH  12  13
ENDBRANCH   1  11
TORSDOF 14
ENDMDL
MODEL 9
REMARK VINA RESULT:    -4.639      2.846      5.700
REMARK INTER + INTRA:         -10.426
REMARK INTER:                  -7.850
REMARK INTRA:                  -2.576
REMARK UNBOUND:                -1.991
REMARK SMILES CCCCCC=CCC=CCCCCCCCC(=O)[O-]
REMARK SMILES IDX 11 1 12 2 13 3 14 4 15 5 16 6 17 7 18 8 19 9 20 10 10 11
REMARK SMILES IDX 9 12 8 13 7 14 6 15 5 16 4 17 3 18 2 19 1 20
REMARK H PARENT
REMARK Flexibility Score: inf
ROOT
ATOM      1  C   UNL     1      -3.622  10.869  -0.411  1.00  0.00     0.027 C 
ENDROOT
BRANCH   1   2
ATOM      2  C   UNL     1      -4.516   9.775  -1.018  1.00  0.00     0.004 C 
BRANCH   2   3
ATOM      3  C   UNL     1      -5.949   9.740  -0.451  1.00  0.00     0.000 C 
BRANCH   3   4
ATOM      4  C   UNL     1      -7.048   9.801  -1.534  1.00  0.00     0.000 C 
BRANCH   4   5
ATOM      5  C   UNL     1      -7.621  11.220  -1.706  1.00  0.00     0.000 C 
BRANCH   5   6
ATOM      6  C   UNL     1      -7.492  12.066  -0.431  1.00  0.00     0.006 C 
BRANCH   6   7
ATOM      7  C   UNL     1      -7.431  13.571  -0.728  1.00  0.00     0.053 C 
BRANCH   7   8
ATOM      8  C   UNL     1      -6.495  14.253   0.219  1.00  0.00     0.041 C 
ATOM      9  O   UNL     1      -6.485  15.509   0.308  1.00  0.00    -0.550 OA
ATOM     10  O   UNL     1      -5.658  13.498   1.034  1.00  0.00    -0.550 OA
ENDBRANCH   7   8
ENDBRANCH   6   7
ENDBRANCH   5   6
ENDBRANCH   4   5
ENDBRANCH   3   4
ENDBRANCH   2   3
ENDBRANCH   1   2
BRANCH   1  11
ATOM     11  C   UNL     1      -3.325  11.977  -1.387  1.00  0.00    -0.031 C 
ATOM     12  C   UNL     1      -4.285  12.520  -2.147  1.00  0.00    -0.027 C 
BRANCH  12  13
ATOM     13  C   UNL     1      -3.964  13.641  -3.100  1.00  0.00     0.054 C 
BRANCH  13  14
ATOM     14  C   UNL     1      -4.744  13.523  -4.380  1.00  0.00    -0.027 C 
ATOM     15  C   UNL     1      -5.617  12.523  -4.582  1.00  0.00    -0.031 C 
BRANCH  15  16
ATOM     16  C   UNL     1      -6.426  12.421  -5.847  1.00  0.00     0.027 C 
BRANCH  16  17
ATOM     17  C   UNL     1      -6.982  11.002  -6.066  1.00  0.00     0.004 C 
BRANCH  17  18
ATOM     18  C   UNL     1      -6.320   9.932  -5.177  1.00  0.00     0.000 C 
BRANCH  18  19
ATOM     19  C   UNL     1      -7.126   8.627  -5.109  1.00  0.00    -0.003 C 
ATOM     20  C   UNL     1      -6.219   7.436  -4.812  1.00  0.00     0.004 C 
ENDBRANCH  18  19
ENDBRANCH  17  18
ENDBRANCH  16  17
ENDBRANCH  15  16
ENDBRANCH  13  14
ENDBRANCH  12  13
ENDBRANCH   1  11
TORSDOF 14
ENDMDL
