MODEL 1
REMARK VINA RESULT:    -4.591      0.000      0.000
REMARK INTER + INTRA:          -8.027
REMARK INTER:                  -7.006
REMARK INTRA:                  -1.020
REMARK UNBOUND:                -1.020
REMARK SMILES O=C([O-])CCCCCCCCC(=O)[O-]
REMARK SMILES IDX 7 1 6 2 5 3 4 4 2 5 1 6 3 7 8 8 9 9 10 10 11 11 12 12 13 13
REMARK SMILES IDX 14 14
REMARK H PARENT
REMARK Flexibility Score: inf
ROOT
ATOM      1  C   UNL     1      61.125   3.637  21.002  1.00  0.00     0.000 C 
ENDROOT
BRANCH   1   2
ATOM      2  C   UNL     1      61.376   2.904  22.331  1.00  0.00     0.000 C 
BRANCH   2   3
ATOM      3  C   UNL     1      62.371   3.646  23.241  1.00  0.00     0.006 C 
BRANCH   3   4
ATOM      4  C   UNL     1      63.676   4.059  22.543  1.00  0.00     0.053 C 
BRANCH   4   5
ATOM      5  C   UNL     1      64.818   3.162  22.911  1.00  0.00     0.041 C 
ATOM      6  O   UNL     1      65.954   3.339  22.396  1.00  0.00    -0.550 OA
ATOM      7  O   UNL     1      64.637   2.154  23.851  1.00  0.00    -0.550 OA
ENDBRANCH   4   5
ENDBRANCH   3   4
ENDBRANCH   2   3
ENDBRANCH   1   2
BRANCH   1   8
ATOM      8  C   UNL     1      60.956   2.669  19.821  1.00  0.00     0.000 C 
BRANCH   8   9
ATOM      9  C   UNL     1      61.721   1.350  20.026  1.00  0.00     0.000 C 
BRANCH   9  10
ATOM     10  C   UNL     1      62.923   1.205  19.076  1.00  0.00     0.006 C 
BRANCH  10  11
ATOM     11  C   UNL     1      64.259   1.673  19.673  1.00  0.00     0.053 C 
BRANCH  11  12
ATOM     12  C   UNL     1      64.781   2.898  18.987  1.00  0.00     0.041 C 
ATOM     13  O   UNL     1      65.969   2.935  18.573  1.00  0.00    -0.550 OA
ATOM     14  O   UNL     1      63.964   4.011  18.837  1.00  0.00    -0.550 OA
ENDBRANCH  11  12
ENDBRANCH  10  11
ENDBRANCH   9  10
ENDBRANCH   8   9
ENDBRANCH   1   8
TORSDOF 9
ENDMDL
MODEL 2
REMARK VINA RESULT:    -4.560      1.583      3.722
REMARK INTER + INTRA:          -7.980
REMARK INTER:                  -7.018
REMARK INTRA:                  -0.961
REMARK UNBOUND:                -1.020
REMARK SMILES O=C([O-])CCCCCCCCC(=O)[O-]
REMARK SMILES IDX 7 1 6 2 5 3 4 4 2 5 1 6 3 7 8 8 9 9 10 10 11 11 12 12 13 13
REMARK SMILES IDX 14 14
REMARK H PARENT
REMARK Flexibility Score: inf
ROOT
ATOM      1  C   UNL     1      60.945   3.588  21.208  1.00  0.00     0.000 C 
ENDROOT
BRANCH   1   2
ATOM      2  C   UNL     1      61.529   3.101  19.870  1.00  0.00     0.000 C 
BRANCH   2   3
ATOM      3  C   UNL     1      61.636   1.568  19.792  1.00  0.00     0.006 C 
BRANCH   3   4
ATOM      4  C   UNL     1      62.966   1.057  19.216  1.00  0.00     0.053 C 
BRANCH   4   5
ATOM      5  C   UNL     1      64.148   1.677  19.895  1.00  0.00     0.041 C 
ATOM      6  O   UNL     1      64.404   1.402  21.097  1.00  0.00    -0.550 OA
ATOM      7  O   UNL     1      64.989   2.530  19.189  1.00  0.00    -0.550 OA
ENDBRANCH   4   5
ENDBRANCH   3   4
ENDBRANCH   2   3
ENDBRANCH   1   2
BRANCH   1   8
ATOM      8  C   UNL     1      61.852   4.613  21.906  1.00  0.00     0.000 C 
BRANCH   8   9
ATOM      9  C   UNL     1      62.703   3.981  23.023  1.00  0.00     0.000 C 
BRANCH   9  10
ATOM     10  C   UNL     1      64.202   4.305  22.884  1.00  0.00     0.006 C 
BRANCH  10  11
ATOM     11  C   UNL     1      64.565   5.071  21.603  1.00  0.00     0.053 C 
BRANCH  11  12
ATOM     12  C   UNL     1      66.035   5.027  21.321  1.00  0.00     0.041 C 
ATOM     13  O   UNL     1      66.585   5.957  20.674  1.00  0.00    -0.550 OA
ATOM     14  O   UNL     1      66.791   3.941  21.743  1.00  0.00    -0.550 OA
ENDBRANCH  11  12
ENDBRANCH  10  11
ENDBRANCH   9  10
ENDBRANCH   8   9
ENDBRANCH   1   8
TORSDOF 9
ENDMDL
MODEL 3
REMARK VINA RESULT:    -4.527      1.405      3.990
REMARK INTER + INTRA:          -7.930
REMARK INTER:                  -6.819
REMARK INTRA:                  -1.111
REMARK UNBOUND:                -1.020
REMARK SMILES O=C([O-])CCCCCCCCC(=O)[O-]
REMARK SMILES IDX 7 1 6 2 5 3 4 4 2 5 1 6 3 7 8 8 9 9 10 10 11 11 12 12 13 13
REMARK SMILES IDX 14 14
REMARK H PARENT
REMARK Flexibility Score: inf
ROOT
ATOM      1  C   UNL     1      62.019   2.955  19.642  1.00  0.00     0.000 C 
ENDROOT
BRANCH   1   2
ATOM      2  C   UNL     1      63.106   1.867  19.600  1.00  0.00     0.000 C 
BRANCH   2   3
ATOM      3  C   UNL     1      64.472   2.409  19.138  1.00  0.00     0.006 C 
BRANCH   3   4
ATOM      4  C   UNL     1      64.494   3.923  18.878  1.00  0.00     0.053 C 
BRANCH   4   5
ATOM      5  C   UNL     1      65.388   4.645  19.838  1.00  0.00     0.041 C 
ATOM      6  O   UNL     1      66.171   3.999  20.584  1.00  0.00    -0.550 OA
ATOM      7  O   UNL     1      65.384   6.034  19.883  1.00  0.00    -0.550 OA
ENDBRANCH   4   5
ENDBRANCH   3   4
ENDBRANCH   2   3
ENDBRANCH   1   2
BRANCH   1   8
ATOM      8  C   UNL     1      61.400   3.113  21.039  1.00  0.00     0.000 C 
BRANCH   8   9
ATOM      9  C   UNL     1      61.893   4.378  21.762  1.00  0.00     0.000 C 
BRANCH   9  10
ATOM     10  C   UNL     1      63.122   4.115  22.652  1.00  0.00     0.006 C 
BRANCH  10  11
ATOM     11  C   UNL     1      63.176   2.700  23.248  1.00  0.00     0.053 C 
BRANCH  11  12
ATOM     12  C   UNL     1      64.579   2.186  23.346  1.00  0.00     0.041 C 
ATOM     13  O   UNL     1      65.394   2.714  24.148  1.00  0.00    -0.550 OA
ATOM     14  O   UNL     1      64.997   1.146  22.526  1.00  0.00    -0.550 OA
ENDBRANCH  11  12
ENDBRANCH  10  11
ENDBRANCH   9  10
ENDBRANCH   8   9
ENDBRANCH   1   8
TORSDOF 9
ENDMDL
MODEL 4
REMARK VINA RESULT:    -4.525      1.477      2.515
REMARK INTER + INTRA:          -7.927
REMARK INTER:                  -7.024
REMARK INTRA:                  -0.902
REMARK UNBOUND:                -1.020
REMARK SMILES O=C([O-])CCCCCCCCC(=O)[O-]
REMARK SMILES IDX 7 1 6 2 5 3 4 4 2 5 1 6 3 7 8 8 9 9 10 10 11 11 12 12 13 13
REMARK SMILES IDX 14 14
REMARK H PARENT
REMARK Flexibility Score: inf
ROOT
ATOM      1  C   UNL     1      63.020   4.210  22.362  1.00  0.00     0.000 C 
ENDROOT
BRANCH   1   2
ATOM      2  C   UNL     1      63.106   2.889  23.146  1.00  0.00     0.000 C 
BRANCH   2   3
ATOM      3  C   UNL     1      64.426   2.137  22.901  1.00  0.00     0.006 C 
BRANCH   3   4
ATOM      4  C   UNL     1      65.462   2.299  24.024  1.00  0.00     0.053 C 
BRANCH   4   5
ATOM      5  C   UNL     1      66.486   3.342  23.699  1.00  0.00     0.041 C 
ATOM      6  O   UNL     1      66.205   4.564  23.819  1.00  0.00    -0.550 OA
ATOM      7  O   UNL     1      67.762   2.965  23.299  1.00  0.00    -0.550 OA
ENDBRANCH   4   5
ENDBRANCH   3   4
ENDBRANCH   2   3
ENDBRANCH   1   2
BRANCH   1   8
ATOM      8  C   UNL     1      61.624   4.452  21.769  1.00  0.00     0.000 C 
BRANCH   8   9
ATOM      9  C   UNL     1      60.925   3.144  21.356  1.00  0.00     0.000 C 
BRANCH   9  10
ATOM     10  C   UNL     1      61.169   2.779  19.881  1.00  0.00     0.006 C 
BRANCH  10  11
ATOM     11  C   UNL     1      61.900   1.443  19.675  1.00  0.00     0.053 C 
BRANCH  11  12
ATOM     12  C   UNL     1      63.372   1.634  19.475  1.00  0.00     0.041 C 
ATOM     13  O   UNL     1      63.831   2.773  19.198  1.00  0.00    -0.550 OA
ATOM     14  O   UNL     1      64.232   0.547  19.562  1.00  0.00    -0.550 OA
ENDBRANCH  11  12
ENDBRANCH  10  11
ENDBRANCH   9  10
ENDBRANCH   8   9
ENDBRANCH   1   8
TORSDOF 9
ENDMDL
MODEL 5
REMARK VINA RESULT:    -4.501      1.351      4.190
REMARK INTER + INTRA:          -7.890
REMARK INTER:                  -7.033
REMARK INTRA:                  -0.857
REMARK UNBOUND:                -1.020
REMARK SMILES O=C([O-])CCCCCCCCC(=O)[O-]
REMARK SMILES IDX 7 1 6 2 5 3 4 4 2 5 1 6 3 7 8 8 9 9 10 10 11 11 12 12 13 13
REMARK SMILES IDX 14 14
REMARK H PARENT
REMARK Flexibility Score: inf
ROOT
ATOM      1  C   UNL     1      61.556   3.262  22.380  1.00  0.00     0.000 C 
ENDROOT
BRANCH   1   2
ATOM      2  C   UNL     1      61.548   3.174  20.844  1.00  0.00     0.000 C 
BRANCH   2   3
ATOM      3  C   UNL     1      61.475   1.724  20.332  1.00  0.00     0.006 C 
BRANCH   3   4
ATOM      4  C   UNL     1      62.640   1.319  19.416  1.00  0.00     0.053 C 
BRANCH   4   5
ATOM      5  C   UNL     1      63.970   1.664  20.012  1.00  0.00     0.041 C 
ATOM      6  O   UNL     1      64.319   1.164  21.115  1.00  0.00    -0.550 OA
ATOM      7  O   UNL     1      64.839   2.508  19.333  1.00  0.00    -0.550 OA
ENDBRANCH   4   5
ENDBRANCH   3   4
ENDBRANCH   2   3
ENDBRANCH   1   2
BRANCH   1   8
ATOM      8  C   UNL     1      62.801   3.982  22.920  1.00  0.00     0.000 C 
BRANCH   8   9
ATOM      9  C   UNL     1      63.546   4.770  21.828  1.00  0.00     0.000 C 
BRANCH   9  10
ATOM     10  C   UNL     1      65.067   4.817  22.061  1.00  0.00     0.006 C 
BRANCH  10  11
ATOM     11  C   UNL     1      65.488   4.588  23.521  1.00  0.00     0.053 C 
BRANCH  11  12
ATOM     12  C   UNL     1      66.235   3.302  23.694  1.00  0.00     0.041 C 
ATOM     13  O   UNL     1      67.370   3.153  23.169  1.00  0.00    -0.550 OA
ATOM     14  O   UNL     1      65.663   2.256  24.406  1.00  0.00    -0.550 OA
ENDBRANCH  11  12
ENDBRANCH  10  11
ENDBRANCH   9  10
ENDBRANCH   8   9
ENDBRANCH   1   8
TORSDOF 9
ENDMDL
MODEL 6
REMARK VINA RESULT:    -4.455     10.935     12.974
REMARK INTER + INTRA:          -7.819
REMARK INTER:                  -7.098
REMARK INTRA:                  -0.720
REMARK UNBOUND:                -1.020
REMARK SMILES O=C([O-])CCCCCCCCC(=O)[O-]
REMARK SMILES IDX 7 1 6 2 5 3 4 4 2 5 1 6 3 7 8 8 9 9 10 10 11 11 12 12 13 13
REMARK SMILES IDX 14 14
REMARK H PARENT
REMARK Flexibility Score: inf
ROOT
ATOM      1  C   UNL     1      77.733   2.878  21.366  1.00  0.00     0.000 C 
ENDROOT
BRANCH   1   2
ATOM      2  C   UNL     1      76.238   2.660  21.656  1.00  0.00     0.000 C 
BRANCH   2   3
ATOM      3  C   UNL     1      75.374   2.703  20.383  1.00  0.00     0.006 C 
BRANCH   3   4
ATOM      4  C   UNL     1      73.963   2.118  20.557  1.00  0.00     0.053 C 
BRANCH   4   5
ATOM      5  C   UNL     1      73.077   3.019  21.360  1.00  0.00     0.041 C 
ATOM      6  O   UNL     1      72.858   4.198  20.976  1.00  0.00    -0.550 OA
ATOM      7  O   UNL     1      72.462   2.545  22.513  1.00  0.00    -0.550 OA
ENDBRANCH   4   5
ENDBRANCH   3   4
ENDBRANCH   2   3
ENDBRANCH   1   2
BRANCH   1   8
ATOM      8  C   UNL     1      78.296   4.113  22.085  1.00  0.00     0.000 C 
BRANCH   8   9
ATOM      9  C   UNL     1      78.329   5.358  21.181  1.00  0.00     0.000 C 
BRANCH   9  10
ATOM     10  C   UNL     1      77.335   6.445  21.628  1.00  0.00     0.006 C 
BRANCH  10  11
ATOM     11  C   UNL     1      75.968   6.375  20.928  1.00  0.00     0.053 C 
BRANCH  11  12
ATOM     12  C   UNL     1      75.083   7.521  21.312  1.00  0.00     0.041 C 
ATOM     13  O   UNL     1      75.523   8.442  22.049  1.00  0.00    -0.550 OA
ATOM     14  O   UNL     1      73.763   7.552  20.883  1.00  0.00    -0.550 OA
ENDBRANCH  11  12
ENDBRANCH  10  11
ENDBRANCH   9  10
ENDBRANCH   8   9
ENDBRANCH   1   8
TORSDOF 9
ENDMDL
MODEL 7
REMARK VINA RESULT:    -4.439     12.360     14.544
REMARK INTER + INTRA:          -7.795
REMARK INTER:                  -7.046
REMARK INTRA:                  -0.749
REMARK UNBOUND:                -1.020
REMARK SMILES O=C([O-])CCCCCCCCC(=O)[O-]
REMARK SMILES IDX 7 1 6 2 5 3 4 4 2 5 1 6 3 7 8 8 9 9 10 10 11 11 12 12 13 13
REMARK SMILES IDX 14 14
REMARK H PARENT
REMARK Flexibility Score: inf
ROOT
ATOM      1  C   UNL     1      78.466   3.938  22.111  1.00  0.00     0.000 C 
ENDROOT
BRANCH   1   2
ATOM      2  C   UNL     1      77.648   2.891  21.335  1.00  0.00     0.000 C 
BRANCH   2   3
ATOM      3  C   UNL     1      76.226   2.713  21.896  1.00  0.00     0.006 C 
BRANCH   3   4
ATOM      4  C   UNL     1      75.150   3.522  21.155  1.00  0.00     0.053 C 
BRANCH   4   5
ATOM      5  C   UNL     1      73.940   2.696  20.843  1.00  0.00     0.041 C 
ATOM      6  O   UNL     1      73.982   1.833  19.927  1.00  0.00    -0.550 OA
ATOM      7  O   UNL     1      72.778   2.854  21.589  1.00  0.00    -0.550 OA
ENDBRANCH   4   5
ENDBRANCH   3   4
ENDBRANCH   2   3
ENDBRANCH   1   2
BRANCH   1   8
ATOM      8  C   UNL     1      79.173   4.937  21.182  1.00  0.00     0.000 C 
BRANCH   8   9
ATOM      9  C   UNL     1      78.258   6.102  20.766  1.00  0.00     0.000 C 
BRANCH   9  10
ATOM     10  C   UNL     1      77.402   6.632  21.930  1.00  0.00     0.006 C 
BRANCH  10  11
ATOM     11  C   UNL     1      78.119   7.655  22.826  1.00  0.00     0.053 C 
BRANCH  11  12
ATOM     12  C   UNL     1      78.482   7.075  24.158  1.00  0.00     0.041 C 
ATOM     13  O   UNL     1      77.701   6.272  24.734  1.00  0.00    -0.550 OA
ATOM     14  O   UNL     1      79.666   7.449  24.779  1.00  0.00    -0.550 OA
ENDBRANCH  11  12
ENDBRANCH  10  11
ENDBRANCH   9  10
ENDBRANCH   8   9
ENDBRANCH   1   8
TORSDOF 9
ENDMDL
MODEL 8
REMARK VINA RESULT:    -4.376     11.259     13.213
REMARK INTER + INTRA:          -7.699
REMARK INTER:                  -6.885
REMARK INTRA:                  -0.815
REMARK UNBOUND:                -1.020
REMARK SMILES O=C([O-])CCCCCCCCC(=O)[O-]
REMARK SMILES IDX 7 1 6 2 5 3 4 4 2 5 1 6 3 7 8 8 9 9 10 10 11 11 12 12 13 13
REMARK SMILES IDX 14 14
REMARK H PARENT
REMARK Flexibility Score: inf
ROOT
ATOM      1  C   UNL     1      76.112   7.175  21.724  1.00  0.00     0.000 C 
ENDROOT
BRANCH   1   2
ATOM      2  C   UNL     1      75.394   6.077  20.920  1.00  0.00     0.000 C 
BRANCH   2   3
ATOM      3  C   UNL     1      74.427   5.245  21.782  1.00  0.00     0.006 C 
BRANCH   3   4
ATOM      4  C   UNL     1      73.191   4.732  21.027  1.00  0.00     0.053 C 
BRANCH   4   5
ATOM      5  C   UNL     1      72.966   3.268  21.248  1.00  0.00     0.041 C 
ATOM      6  O   UNL     1      73.410   2.427  20.422  1.00  0.00    -0.550 OA
ATOM      7  O   UNL     1      72.296   2.830  22.384  1.00  0.00    -0.550 OA
ENDBRANCH   4   5
ENDBRANCH   3   4
ENDBRANCH   2   3
ENDBRANCH   1   2
BRANCH   1   8
ATOM      8  C   UNL     1      77.629   6.944  21.807  1.00  0.00     0.000 C 
BRANCH   8   9
ATOM      9  C   UNL     1      78.111   5.841  20.847  1.00  0.00     0.000 C 
BRANCH   9  10
ATOM     10  C   UNL     1      79.048   4.828  21.528  1.00  0.00     0.006 C 
BRANCH  10  11
ATOM     11  C   UNL     1      78.591   3.366  21.406  1.00  0.00     0.053 C 
BRANCH  11  12
ATOM     12  C   UNL     1      77.344   3.101  22.193  1.00  0.00     0.041 C 
ATOM     13  O   UNL     1      76.424   2.395  21.704  1.00  0.00    -0.550 OA
ATOM     14  O   UNL     1      77.185   3.663  23.453  1.00  0.00    -0.550 OA
ENDBRANCH  11  12
ENDBRANCH  10  11
ENDBRANCH   9  10
ENDBRANCH   8   9
ENDBRANCH   1   8
TORSDOF 9
ENDMDL
MODEL 9
REMARK VINA RESULT:    -4.351     11.592     13.581
REMARK INTER + INTRA:          -7.661
REMARK INTER:                  -6.853
REMARK INTRA:                  -0.808
REMARK UNBOUND:                -1.020
REMARK SMILES O=C([O-])CCCCCCCCC(=O)[O-]
REMARK SMILES IDX 7 1 6 2 5 3 4 4 2 5 1 6 3 7 8 8 9 9 10 10 11 11 12 12 13 13
REMARK SMILES IDX 14 14
REMARK H PARENT
REMARK Flexibility Score: inf
ROOT
ATOM      1  C   UNL     1      78.229   6.217  20.788  1.00  0.00     0.000 C 
ENDROOT
BRANCH   1   2
ATOM      2  C   UNL     1      79.208   5.051  21.010  1.00  0.00     0.000 C 
BRANCH   2   3
ATOM      3  C   UNL     1      78.701   4.041  22.056  1.00  0.00     0.006 C 
BRANCH   3   4
ATOM      4  C   UNL     1      77.889   2.877  21.468  1.00  0.00     0.053 C 
BRANCH   4   5
ATOM      5  C   UNL     1      76.419   3.043  21.702  1.00  0.00     0.041 C 
ATOM      6  O   UNL     1      75.588   2.530  20.906  1.00  0.00    -0.550 OA
ATOM      7  O   UNL     1      75.965   3.734  22.819  1.00  0.00    -0.550 OA
ENDBRANCH   4   5
ENDBRANCH   3   4
ENDBRANCH   2   3
ENDBRANCH   1   2
BRANCH   1   8
ATOM      8  C   UNL     1      77.880   6.947  22.094  1.00  0.00     0.000 C 
BRANCH   8   9
ATOM      9  C   UNL     1      76.432   7.468  22.109  1.00  0.00     0.000 C 
BRANCH   9  10
ATOM     10  C   UNL     1      75.539   6.774  21.064  1.00  0.00     0.006 C 
BRANCH  10  11
ATOM     11  C   UNL     1      74.122   7.358  20.958  1.00  0.00     0.053 C 
BRANCH  11  12
ATOM     12  C   UNL     1      73.119   6.325  20.547  1.00  0.00     0.041 C 
ATOM     13  O   UNL     1      72.158   6.637  19.796  1.00  0.00    -0.550 OA
ATOM     14  O   UNL     1      73.227   5.024  21.022  1.00  0.00    -0.550 OA
ENDBRANCH  11  12
ENDBRANCH  10  11
ENDBRANCH   9  10
ENDBRANCH   8   9
ENDBRANCH   1   8
TORSDOF 9
ENDMDL
