MODEL 1
REMARK VINA RESULT:    -2.965      0.000      0.000
REMARK INTER + INTRA:          -3.224
REMARK INTER:                  -3.224
REMARK INTRA:                   0.000
REMARK UNBOUND:                 0.000
REMARK SMILES [NH3+]CC(=O)[O-]
REMARK SMILES IDX 2 1 1 2 3 6 4 7 5 8
REMARK H PARENT 1 3 1 4 1 5
REMARK Flexibility Score: inf
ROOT
ATOM      1  C   UNL     1     156.097 165.012 231.603  1.00  0.00     0.312 C 
ENDROOT
BRANCH   1   2
ATOM      2  N   UNL     1     154.821 165.714 231.484  1.00  0.00    -0.353 N 
ATOM      3  H   UNL     1     154.172 165.374 232.228  1.00  0.00     0.344 HD
ATOM      4  H   UNL     1     154.393 165.523 230.548  1.00  0.00     0.344 HD
ATOM      5  H   UNL     1     154.965 166.743 231.602  1.00  0.00     0.344 HD
ENDBRANCH   1   2
BRANCH   1   6
ATOM      6  C   UNL     1     157.237 165.929 231.282  1.00  0.00     0.096 C 
ATOM      7  O   UNL     1     157.100 166.831 230.414  1.00  0.00    -0.544 OA
ATOM      8  O   UNL     1     158.434 165.821 231.979  1.00  0.00    -0.544 OA
ENDBRANCH   1   6
TORSDOF 2
ENDMDL
MODEL 2
REMARK VINA RESULT:    -2.963     14.373     14.718
REMARK INTER + INTRA:          -3.223
REMARK INTER:                  -3.223
REMARK INTRA:                   0.000
REMARK UNBOUND:                 0.000
REMARK SMILES [NH3+]CC(=O)[O-]
REMARK SMILES IDX 2 1 1 2 3 6 4 7 5 8
REMARK H PARENT 1 3 1 4 1 5
REMARK Flexibility Score: inf
ROOT
ATOM      1  C   UNL     1     161.895 152.977 231.602  1.00  0.00     0.312 C 
ENDROOT
BRANCH   1   2
ATOM      2  N   UNL     1     163.182 152.296 231.478  1.00  0.00    -0.353 N 
ATOM      3  H   UNL     1     163.100 151.532 230.770  1.00  0.00     0.344 HD
ATOM      4  H   UNL     1     163.456 151.878 232.397  1.00  0.00     0.344 HD
ATOM      5  H   UNL     1     163.917 152.972 231.165  1.00  0.00     0.344 HD
ENDBRANCH   1   2
BRANCH   1   6
ATOM      6  C   UNL     1     160.770 152.042 231.279  1.00  0.00     0.096 C 
ATOM      7  O   UNL     1     160.909 151.166 230.386  1.00  0.00    -0.544 OA
ATOM      8  O   UNL     1     159.585 152.105 232.002  1.00  0.00    -0.544 OA
ENDBRANCH   1   6
TORSDOF 2
ENDMDL
MODEL 3
REMARK VINA RESULT:    -2.941     13.920     14.317
REMARK INTER + INTRA:          -3.199
REMARK INTER:                  -3.199
REMARK INTRA:                   0.000
REMARK UNBOUND:                 0.000
REMARK SMILES [NH3+]CC(=O)[O-]
REMARK SMILES IDX 2 1 1 2 3 6 4 7 5 8
REMARK H PARENT 1 3 1 4 1 5
REMARK Flexibility Score: inf
ROOT
ATOM      1  C   UNL     1     160.836 151.916 231.096  1.00  0.00     0.312 C 
ENDROOT
BRANCH   1   2
ATOM      2  N   UNL     1     161.640 150.926 230.383  1.00  0.00    -0.353 N 
ATOM      3  H   UNL     1     161.927 150.174 231.049  1.00  0.00     0.344 HD
ATOM      4  H   UNL     1     162.499 151.377 229.991  1.00  0.00     0.344 HD
ATOM      5  H   UNL     1     161.081 150.499 229.608  1.00  0.00     0.344 HD
ENDBRANCH   1   2
BRANCH   1   6
ATOM      6  C   UNL     1     161.705 152.994 231.664  1.00  0.00     0.096 C 
ATOM      7  O   UNL     1     162.624 152.706 232.475  1.00  0.00    -0.544 OA
ATOM      8  O   UNL     1     161.535 154.312 231.257  1.00  0.00    -0.544 OA
ENDBRANCH   1   6
TORSDOF 2
ENDMDL
MODEL 4
REMARK VINA RESULT:    -2.934      2.132      2.197
REMARK INTER + INTRA:          -3.192
REMARK INTER:                  -3.192
REMARK INTRA:                   0.000
REMARK UNBOUND:                 0.000
REMARK SMILES [NH3+]CC(=O)[O-]
REMARK SMILES IDX 2 1 1 2 3 6 4 7 5 8
REMARK H PARENT 1 3 1 4 1 5
REMARK Flexibility Score: inf
ROOT
ATOM      1  C   UNL     1     157.743 166.675 230.919  1.00  0.00     0.312 C 
ENDROOT
BRANCH   1   2
ATOM      2  N   UNL     1     156.394 166.993 230.457  1.00  0.00    -0.353 N 
ATOM      3  H   UNL     1     156.345 168.010 230.217  1.00  0.00     0.344 HD
ATOM      4  H   UNL     1     155.699 166.789 231.212  1.00  0.00     0.344 HD
ATOM      5  H   UNL     1     156.164 166.432 229.604  1.00  0.00     0.344 HD
ENDBRANCH   1   2
BRANCH   1   6
ATOM      6  C   UNL     1     157.830 166.780 232.410  1.00  0.00     0.096 C 
ATOM      7  O   UNL     1     156.830 166.504 233.125  1.00  0.00    -0.544 OA
ATOM      8  O   UNL     1     159.031 167.132 233.014  1.00  0.00    -0.544 OA
ENDBRANCH   1   6
TORSDOF 2
ENDMDL
MODEL 5
REMARK VINA RESULT:    -2.928     14.802     15.227
REMARK INTER + INTRA:          -3.185
REMARK INTER:                  -3.185
REMARK INTRA:                   0.000
REMARK UNBOUND:                 0.000
REMARK SMILES [NH3+]CC(=O)[O-]
REMARK SMILES IDX 2 1 1 2 3 6 4 7 5 8
REMARK H PARENT 1 3 1 4 1 5
REMARK Flexibility Score: inf
ROOT
ATOM      1  C   UNL     1     160.226 151.410 230.764  1.00  0.00     0.312 C 
ENDROOT
BRANCH   1   2
ATOM      2  N   UNL     1     161.608 151.012 230.503  1.00  0.00    -0.353 N 
ATOM      3  H   UNL     1     161.787 150.083 230.947  1.00  0.00     0.344 HD
ATOM      4  H   UNL     1     162.267 151.716 230.911  1.00  0.00     0.344 HD
ATOM      5  H   UNL     1     161.770 150.933 229.472  1.00  0.00     0.344 HD
ENDBRANCH   1   2
BRANCH   1   6
ATOM      6  C   UNL     1     159.918 151.320 232.227  1.00  0.00     0.096 C 
ATOM      7  O   UNL     1     160.485 150.453 232.943  1.00  0.00    -0.544 OA
ATOM      8  O   UNL     1     159.043 152.229 232.810  1.00  0.00    -0.544 OA
ENDBRANCH   1   6
TORSDOF 2
ENDMDL
MODEL 6
REMARK VINA RESULT:    -2.866      1.833      2.313
REMARK INTER + INTRA:          -3.117
REMARK INTER:                  -3.117
REMARK INTRA:                   0.000
REMARK UNBOUND:                 0.000
REMARK SMILES [NH3+]CC(=O)[O-]
REMARK SMILES IDX 2 1 1 2 3 6 4 7 5 8
REMARK H PARENT 1 3 1 4 1 5
REMARK Flexibility Score: inf
ROOT
ATOM      1  C   UNL     1     157.748 166.565 230.742  1.00  0.00     0.312 C 
ENDROOT
BRANCH   1   2
ATOM      2  N   UNL     1     156.370 166.984 230.491  1.00  0.00    -0.353 N 
ATOM      3  H   UNL     1     155.809 166.860 231.364  1.00  0.00     0.344 HD
ATOM      4  H   UNL     1     155.951 166.397 229.732  1.00  0.00     0.344 HD
ATOM      5  H   UNL     1     156.346 167.991 230.211  1.00  0.00     0.344 HD
ENDBRANCH   1   2
BRANCH   1   6
ATOM      6  C   UNL     1     157.780 165.216 231.392  1.00  0.00     0.096 C 
ATOM      7  O   UNL     1     158.791 164.853 232.049  1.00  0.00    -0.544 OA
ATOM      8  O   UNL     1     156.673 164.380 231.315  1.00  0.00    -0.544 OA
ENDBRANCH   1   6
TORSDOF 2
ENDMDL
MODEL 7
REMARK VINA RESULT:    -2.722     14.452     14.788
REMARK INTER + INTRA:          -2.961
REMARK INTER:                  -2.961
REMARK INTRA:                   0.000
REMARK UNBOUND:                 0.000
REMARK SMILES [NH3+]CC(=O)[O-]
REMARK SMILES IDX 2 1 1 2 3 6 4 7 5 8
REMARK H PARENT 1 3 1 4 1 5
REMARK Flexibility Score: inf
ROOT
ATOM      1  C   UNL     1     160.012 151.075 232.683  1.00  0.00     0.312 C 
ENDROOT
BRANCH   1   2
ATOM      2  N   UNL     1     158.620 150.664 232.861  1.00  0.00    -0.353 N 
ATOM      3  H   UNL     1     158.199 150.466 231.926  1.00  0.00     0.344 HD
ATOM      4  H   UNL     1     158.077 151.431 233.322  1.00  0.00     0.344 HD
ATOM      5  H   UNL     1     158.574 149.798 233.446  1.00  0.00     0.344 HD
ENDBRANCH   1   2
BRANCH   1   6
ATOM      6  C   UNL     1     160.207 151.714 231.343  1.00  0.00     0.096 C 
ATOM      7  O   UNL     1     159.669 152.823 231.085  1.00  0.00    -0.544 OA
ATOM      8  O   UNL     1     161.026 151.109 230.396  1.00  0.00    -0.544 OA
ENDBRANCH   1   6
TORSDOF 2
ENDMDL
MODEL 8
REMARK VINA RESULT:    -2.687      2.514      2.652
REMARK INTER + INTRA:          -2.923
REMARK INTER:                  -2.923
REMARK INTRA:                   0.000
REMARK UNBOUND:                 0.000
REMARK SMILES [NH3+]CC(=O)[O-]
REMARK SMILES IDX 2 1 1 2 3 6 4 7 5 8
REMARK H PARENT 1 3 1 4 1 5
REMARK Flexibility Score: inf
ROOT
ATOM      1  C   UNL     1     158.030 166.736 232.723  1.00  0.00     0.312 C 
ENDROOT
BRANCH   1   2
ATOM      2  N   UNL     1     159.361 167.333 232.824  1.00  0.00    -0.353 N 
ATOM      3  H   UNL     1     159.546 167.906 231.970  1.00  0.00     0.344 HD
ATOM      4  H   UNL     1     160.086 166.581 232.892  1.00  0.00     0.344 HD
ATOM      5  H   UNL     1     159.414 167.951 233.666  1.00  0.00     0.344 HD
ENDBRANCH   1   2
BRANCH   1   6
ATOM      6  C   UNL     1     157.786 166.222 231.338  1.00  0.00     0.096 C 
ATOM      7  O   UNL     1     157.169 166.929 230.498  1.00  0.00    -0.544 OA
ATOM      8  O   UNL     1     158.285 164.982 230.958  1.00  0.00    -0.544 OA
ENDBRANCH   1   6
TORSDOF 2
ENDMDL
MODEL 9
REMARK VINA RESULT:    -2.605     14.810     15.002
REMARK INTER + INTRA:          -2.834
REMARK INTER:                  -2.834
REMARK INTRA:                   0.000
REMARK UNBOUND:                 0.000
REMARK SMILES [NH3+]CC(=O)[O-]
REMARK SMILES IDX 2 1 1 2 3 6 4 7 5 8
REMARK H PARENT 1 3 1 4 1 5
REMARK Flexibility Score: inf
ROOT
ATOM      1  C   UNL     1     159.899 151.157 232.345  1.00  0.00     0.312 C 
ENDROOT
BRANCH   1   2
ATOM      2  N   UNL     1     158.730 150.696 233.092  1.00  0.00    -0.353 N 
ATOM      3  H   UNL     1     157.968 151.406 233.007  1.00  0.00     0.344 HD
ATOM      4  H   UNL     1     158.974 150.580 234.102  1.00  0.00     0.344 HD
ATOM      5  H   UNL     1     158.393 149.786 232.703  1.00  0.00     0.344 HD
ENDBRANCH   1   2
BRANCH   1   6
ATOM      6  C   UNL     1     160.937 151.706 233.274  1.00  0.00     0.096 C 
ATOM      7  O   UNL     1     161.890 152.396 232.825  1.00  0.00    -0.544 OA
ATOM      8  O   UNL     1     160.824 151.499 234.644  1.00  0.00    -0.544 OA
ENDBRANCH   1   6
TORSDOF 2
ENDMDL
