MODEL 1
REMARK VINA RESULT:    -4.209      0.000      0.000
REMARK INTER + INTRA:         -14.150
REMARK INTER:                  -9.623
REMARK INTRA:                  -4.527
REMARK UNBOUND:                -4.527
REMARK SMILES CCCCCCCCCCCCCCCCCCCCCCCC(=O)[O-]
REMARK SMILES IDX 13 1 14 2 15 3 16 4 17 5 18 6 19 7 20 8 21 9 22 10 23 11
REMARK SMILES IDX 24 12 25 13 26 14 12 15 11 16 10 17 9 18 8 19 7 20 6 21 5 22
REMARK SMILES IDX 4 23 3 24 2 25 1 26
REMARK H PARENT
REMARK Flexibility Score: inf
ROOT
ATOM      1  C   UNL     1       6.610  34.092  70.525  1.00  0.00     0.000 C 
ENDROOT
BRANCH   1   2
ATOM      2  C   UNL     1       6.758  34.758  69.147  1.00  0.00     0.000 C 
BRANCH   2   3
ATOM      3  C   UNL     1       7.909  34.156  68.325  1.00  0.00     0.000 C 
BRANCH   3   4
ATOM      4  C   UNL     1       7.414  33.255  67.180  1.00  0.00     0.000 C 
BRANCH   4   5
ATOM      5  C   UNL     1       8.365  32.068  66.919  1.00  0.00     0.000 C 
BRANCH   5   6
ATOM      6  C   UNL     1       8.728  31.279  68.190  1.00  0.00     0.000 C 
BRANCH   6   7
ATOM      7  C   UNL     1       7.516  30.570  68.817  1.00  0.00     0.000 C 
BRANCH   7   8
ATOM      8  C   UNL     1       7.625  30.450  70.345  1.00  0.00     0.000 C 
BRANCH   8   9
ATOM      9  C   UNL     1       6.254  30.290  71.023  1.00  0.00     0.000 C 
BRANCH   9  10
ATOM     10  C   UNL     1       6.263  30.713  72.504  1.00  0.00     0.006 C 
BRANCH  10  11
ATOM     11  C   UNL     1       7.640  31.173  73.015  1.00  0.00     0.053 C 
BRANCH  11  12
ATOM     12  C   UNL     1       7.569  32.439  73.812  1.00  0.00     0.041 C 
ATOM     13  O   UNL     1       6.468  32.833  74.280  1.00  0.00    -0.550 OA
ATOM     14  O   UNL     1       8.721  33.175  74.057  1.00  0.00    -0.550 OA
ENDBRANCH  11  12
ENDBRANCH  10  11
ENDBRANCH   9  10
ENDBRANCH   8   9
ENDBRANCH   7   8
ENDBRANCH   6   7
ENDBRANCH   5   6
ENDBRANCH   4   5
ENDBRANCH   3   4
ENDBRANCH   2   3
ENDBRANCH   1   2
BRANCH   1  15
ATOM     15  C   UNL     1       5.205  34.273  71.130  1.00  0.00     0.000 C 
BRANCH  15  16
ATOM     16  C   UNL     1       4.441  35.528  70.658  1.00  0.00     0.000 C 
BRANCH  16  17
ATOM     17  C   UNL     1       2.917  35.486  70.870  1.00  0.00     0.000 C 
BRANCH  17  18
ATOM     18  C   UNL     1       2.147  36.327  69.842  1.00  0.00    -0.000 C 
BRANCH  18  19
ATOM     19  C   UNL     1       0.718  35.799  69.663  1.00  0.00    -0.000 C 
BRANCH  19  20
ATOM     20  C   UNL     1       0.725  34.355  69.148  1.00  0.00    -0.000 C 
BRANCH  20  21
ATOM     21  C   UNL     1       1.223  34.292  67.697  1.00  0.00    -0.000 C 
BRANCH  21  22
ATOM     22  C   UNL     1       2.043  33.024  67.400  1.00  0.00    -0.000 C 
BRANCH  22  23
ATOM     23  C   UNL     1       3.546  33.128  67.731  1.00  0.00    -0.000 C 
BRANCH  23  24
ATOM     24  C   UNL     1       4.119  31.955  68.550  1.00  0.00    -0.000 C 
BRANCH  24  25
ATOM     25  C   UNL     1       3.070  31.126  69.313  1.00  0.00    -0.003 C 
ATOM     26  C   UNL     1       2.799  31.658  70.719  1.00  0.00     0.004 C 
ENDBRANCH  24  25
ENDBRANCH  23  24
ENDBRANCH  22  23
ENDBRANCH  21  22
ENDBRANCH  20  21
ENDBRANCH  19  20
ENDBRANCH  18  19
ENDBRANCH  17  18
ENDBRANCH  16  17
ENDBRANCH  15  16
ENDBRANCH   1  15
TORSDOF 22
ENDMDL
MODEL 2
REMARK VINA RESULT:    -4.165      1.047      2.871
REMARK INTER + INTRA:         -14.049
REMARK INTER:                  -9.717
REMARK INTRA:                  -4.331
REMARK UNBOUND:                -4.527
REMARK SMILES CCCCCCCCCCCCCCCCCCCCCCCC(=O)[O-]
REMARK SMILES IDX 13 1 14 2 15 3 16 4 17 5 18 6 19 7 20 8 21 9 22 10 23 11
REMARK SMILES IDX 24 12 25 13 26 14 12 15 11 16 10 17 9 18 8 19 7 20 6 21 5 22
REMARK SMILES IDX 4 23 3 24 2 25 1 26
REMARK H PARENT
REMARK Flexibility Score: inf
ROOT
ATOM      1  C   UNL     1       6.567  34.466  66.879  1.00  0.00     0.000 C 
ENDROOT
BRANCH   1   2
ATOM      2  C   UNL     1       7.272  34.492  68.245  1.00  0.00     0.000 C 
BRANCH   2   3
ATOM      3  C   UNL     1       8.344  33.398  68.374  1.00  0.00     0.000 C 
BRANCH   3   4
ATOM      4  C   UNL     1       8.441  32.510  67.121  1.00  0.00     0.000 C 
BRANCH   4   5
ATOM      5  C   UNL     1       7.809  31.119  67.341  1.00  0.00     0.000 C 
BRANCH   5   6
ATOM      6  C   UNL     1       8.096  30.525  68.731  1.00  0.00     0.000 C 
BRANCH   6   7
ATOM      7  C   UNL     1       6.829  30.005  69.430  1.00  0.00     0.000 C 
BRANCH   7   8
ATOM      8  C   UNL     1       6.825  30.292  70.940  1.00  0.00     0.000 C 
BRANCH   8   9
ATOM      9  C   UNL     1       5.594  31.100  71.382  1.00  0.00     0.000 C 
BRANCH   9  10
ATOM     10  C   UNL     1       5.919  32.575  71.682  1.00  0.00     0.006 C 
BRANCH  10  11
ATOM     11  C   UNL     1       7.390  32.828  72.057  1.00  0.00     0.053 C 
BRANCH  11  12
ATOM     12  C   UNL     1       7.619  32.820  73.538  1.00  0.00     0.041 C 
ATOM     13  O   UNL     1       6.652  32.665  74.328  1.00  0.00    -0.550 OA
ATOM     14  O   UNL     1       8.905  32.963  74.045  1.00  0.00    -0.550 OA
ENDBRANCH  11  12
ENDBRANCH  10  11
ENDBRANCH   9  10
ENDBRANCH   8   9
ENDBRANCH   7   8
ENDBRANCH   6   7
ENDBRANCH   5   6
ENDBRANCH   4   5
ENDBRANCH   3   4
ENDBRANCH   2   3
ENDBRANCH   1   2
BRANCH   1  15
ATOM     15  C   UNL     1       5.093  34.033  66.974  1.00  0.00     0.000 C 
BRANCH  15  16
ATOM     16  C   UNL     1       4.743  33.143  68.185  1.00  0.00     0.000 C 
BRANCH  16  17
ATOM     17  C   UNL     1       3.866  31.919  67.868  1.00  0.00     0.000 C 
BRANCH  17  18
ATOM     18  C   UNL     1       3.018  31.465  69.065  1.00  0.00    -0.000 C 
BRANCH  18  19
ATOM     19  C   UNL     1       1.556  31.895  68.893  1.00  0.00    -0.000 C 
BRANCH  19  20
ATOM     20  C   UNL     1       1.337  32.575  67.537  1.00  0.00    -0.000 C 
BRANCH  20  21
ATOM     21  C   UNL     1       1.128  34.087  67.708  1.00  0.00    -0.000 C 
BRANCH  21  22
ATOM     22  C   UNL     1       0.658  34.470  69.123  1.00  0.00    -0.000 C 
BRANCH  22  23
ATOM     23  C   UNL     1       1.612  35.404  69.895  1.00  0.00    -0.000 C 
BRANCH  23  24
ATOM     24  C   UNL     1       2.483  34.713  70.962  1.00  0.00    -0.000 C 
BRANCH  24  25
ATOM     25  C   UNL     1       3.572  35.605  71.584  1.00  0.00    -0.003 C 
ATOM     26  C   UNL     1       4.770  35.814  70.660  1.00  0.00     0.004 C 
ENDBRANCH  24  25
ENDBRANCH  23  24
ENDBRANCH  22  23
ENDBRANCH  21  22
ENDBRANCH  20  21
ENDBRANCH  19  20
ENDBRANCH  18  19
ENDBRANCH  17  18
ENDBRANCH  16  17
ENDBRANCH  15  16
ENDBRANCH   1  15
TORSDOF 22
ENDMDL
MODEL 3
REMARK VINA RESULT:    -4.032      2.156      5.982
REMARK INTER + INTRA:         -13.744
REMARK INTER:                  -9.481
REMARK INTRA:                  -4.263
REMARK UNBOUND:                -4.527
REMARK SMILES CCCCCCCCCCCCCCCCCCCCCCCC(=O)[O-]
REMARK SMILES IDX 13 1 14 2 15 3 16 4 17 5 18 6 19 7 20 8 21 9 22 10 23 11
REMARK SMILES IDX 24 12 25 13 26 14 12 15 11 16 10 17 9 18 8 19 7 20 6 21 5 22
REMARK SMILES IDX 4 23 3 24 2 25 1 26
REMARK H PARENT
REMARK Flexibility Score: inf
ROOT
ATOM      1  C   UNL     1       1.846  36.267  69.318  1.00  0.00     0.000 C 
ENDROOT
BRANCH   1   2
ATOM      2  C   UNL     1       0.595  35.583  68.744  1.00  0.00     0.000 C 
BRANCH   2   3
ATOM      3  C   UNL     1       0.935  34.563  67.645  1.00  0.00     0.000 C 
BRANCH   3   4
ATOM      4  C   UNL     1       0.438  33.144  67.975  1.00  0.00     0.000 C 
BRANCH   4   5
ATOM      5  C   UNL     1       0.843  32.700  69.396  1.00  0.00     0.000 C 
BRANCH   5   6
ATOM      6  C   UNL     1       2.365  32.606  69.602  1.00  0.00     0.000 C 
BRANCH   6   7
ATOM      7  C   UNL     1       2.990  31.399  68.884  1.00  0.00     0.000 C 
BRANCH   7   8
ATOM      8  C   UNL     1       4.162  31.793  67.971  1.00  0.00     0.000 C 
BRANCH   8   9
ATOM      9  C   UNL     1       4.181  33.298  67.653  1.00  0.00     0.000 C 
BRANCH   9  10
ATOM     10  C   UNL     1       5.515  33.766  67.041  1.00  0.00     0.006 C 
BRANCH  10  11
ATOM     11  C   UNL     1       6.612  32.686  67.031  1.00  0.00     0.053 C 
BRANCH  11  12
ATOM     12  C   UNL     1       7.952  33.218  67.436  1.00  0.00     0.041 C 
ATOM     13  O   UNL     1       8.987  32.520  67.275  1.00  0.00    -0.550 OA
ATOM     14  O   UNL     1       8.061  34.494  67.974  1.00  0.00    -0.550 OA
ENDBRANCH  11  12
ENDBRANCH  10  11
ENDBRANCH   9  10
ENDBRANCH   8   9
ENDBRANCH   7   8
ENDBRANCH   6   7
ENDBRANCH   5   6
ENDBRANCH   4   5
ENDBRANCH   3   4
ENDBRANCH   2   3
ENDBRANCH   1   2
BRANCH   1  15
ATOM     15  C   UNL     1       2.014  36.038  70.831  1.00  0.00     0.000 C 
BRANCH  15  16
ATOM     16  C   UNL     1       3.430  35.623  71.283  1.00  0.00     0.000 C 
BRANCH  16  17
ATOM     17  C   UNL     1       4.549  35.892  70.261  1.00  0.00     0.000 C 
BRANCH  17  18
ATOM     18  C   UNL     1       5.824  35.086  70.545  1.00  0.00    -0.000 C 
BRANCH  18  19
ATOM     19  C   UNL     1       5.481  33.695  71.093  1.00  0.00    -0.000 C 
BRANCH  19  20
ATOM     20  C   UNL     1       6.561  32.674  70.719  1.00  0.00    -0.000 C 
BRANCH  20  21
ATOM     21  C   UNL     1       6.138  31.254  71.122  1.00  0.00    -0.000 C 
BRANCH  21  22
ATOM     22  C   UNL     1       7.332  30.353  71.486  1.00  0.00    -0.000 C 
BRANCH  22  23
ATOM     23  C   UNL     1       7.854  30.516  72.927  1.00  0.00    -0.000 C 
BRANCH  23  24
ATOM     24  C   UNL     1       6.844  31.114  73.926  1.00  0.00    -0.000 C 
BRANCH  24  25
ATOM     25  C   UNL     1       7.086  32.590  74.285  1.00  0.00    -0.003 C 
ATOM     26  C   UNL     1       8.501  33.060  73.951  1.00  0.00     0.004 C 
ENDBRANCH  24  25
ENDBRANCH  23  24
ENDBRANCH  22  23
ENDBRANCH  21  22
ENDBRANCH  20  21
ENDBRANCH  19  20
ENDBRANCH  18  19
ENDBRANCH  17  18
ENDBRANCH  16  17
ENDBRANCH  15  16
ENDBRANCH   1  15
TORSDOF 22
ENDMDL
MODEL 4
REMARK VINA RESULT:    -3.941      2.181      5.971
REMARK INTER + INTRA:         -13.536
REMARK INTER:                  -8.827
REMARK INTRA:                  -4.710
REMARK UNBOUND:                -4.527
REMARK SMILES CCCCCCCCCCCCCCCCCCCCCCCC(=O)[O-]
REMARK SMILES IDX 13 1 14 2 15 3 16 4 17 5 18 6 19 7 20 8 21 9 22 10 23 11
REMARK SMILES IDX 24 12 25 13 26 14 12 15 11 16 10 17 9 18 8 19 7 20 6 21 5 22
REMARK SMILES IDX 4 23 3 24 2 25 1 26
REMARK H PARENT
REMARK Flexibility Score: inf
ROOT
ATOM      1  C   UNL     1       5.038  32.778  71.426  1.00  0.00     0.000 C 
ENDROOT
BRANCH   1   2
ATOM      2  C   UNL     1       4.131  31.544  71.285  1.00  0.00     0.000 C 
BRANCH   2   3
ATOM      3  C   UNL     1       2.687  31.915  70.917  1.00  0.00     0.000 C 
BRANCH   3   4
ATOM      4  C   UNL     1       1.975  30.813  70.112  1.00  0.00     0.000 C 
BRANCH   4   5
ATOM      5  C   UNL     1       0.459  31.071  69.982  1.00  0.00     0.000 C 
BRANCH   5   6
ATOM      6  C   UNL     1       0.051  31.678  68.628  1.00  0.00     0.000 C 
BRANCH   6   7
ATOM      7  C   UNL     1       1.187  31.644  67.594  1.00  0.00     0.000 C 
BRANCH   7   8
ATOM      8  C   UNL     1       1.699  33.047  67.229  1.00  0.00     0.000 C 
BRANCH   8   9
ATOM      9  C   UNL     1       1.031  34.153  68.062  1.00  0.00     0.000 C 
BRANCH   9  10
ATOM     10  C   UNL     1       2.046  35.078  68.760  1.00  0.00     0.006 C 
BRANCH  10  11
ATOM     11  C   UNL     1       1.681  35.424  70.214  1.00  0.00     0.053 C 
BRANCH  11  12
ATOM     12  C   UNL     1       2.872  35.823  71.031  1.00  0.00     0.041 C 
ATOM     13  O   UNL     1       3.965  36.095  70.468  1.00  0.00    -0.550 OA
ATOM     14  O   UNL     1       2.770  35.914  72.413  1.00  0.00    -0.550 OA
ENDBRANCH  11  12
ENDBRANCH  10  11
ENDBRANCH   9  10
ENDBRANCH   8   9
ENDBRANCH   7   8
ENDBRANCH   6   7
ENDBRANCH   5   6
ENDBRANCH   4   5
ENDBRANCH   3   4
ENDBRANCH   2   3
ENDBRANCH   1   2
BRANCH   1  15
ATOM     15  C   UNL     1       6.534  32.443  71.285  1.00  0.00     0.000 C 
BRANCH  15  16
ATOM     16  C   UNL     1       7.414  33.579  70.722  1.00  0.00     0.000 C 
BRANCH  16  17
ATOM     17  C   UNL     1       6.741  34.463  69.656  1.00  0.00     0.000 C 
BRANCH  17  18
ATOM     18  C   UNL     1       7.663  34.772  68.468  1.00  0.00    -0.000 C 
BRANCH  18  19
ATOM     19  C   UNL     1       6.920  34.591  67.138  1.00  0.00    -0.000 C 
BRANCH  19  20
ATOM     20  C   UNL     1       5.489  34.094  67.370  1.00  0.00    -0.000 C 
BRANCH  20  21
ATOM     21  C   UNL     1       5.301  32.677  66.808  1.00  0.00    -0.000 C 
BRANCH  21  22
ATOM     22  C   UNL     1       5.016  31.633  67.902  1.00  0.00    -0.000 C 
BRANCH  22  23
ATOM     23  C   UNL     1       6.159  30.628  68.156  1.00  0.00    -0.000 C 
BRANCH  23  24
ATOM     24  C   UNL     1       7.417  30.835  67.290  1.00  0.00    -0.000 C 
BRANCH  24  25
ATOM     25  C   UNL     1       8.683  31.226  68.073  1.00  0.00    -0.003 C 
ATOM     26  C   UNL     1       9.681  32.020  67.231  1.00  0.00     0.004 C 
ENDBRANCH  24  25
ENDBRANCH  23  24
ENDBRANCH  22  23
ENDBRANCH  21  22
ENDBRANCH  20  21
ENDBRANCH  19  20
ENDBRANCH  18  19
ENDBRANCH  17  18
ENDBRANCH  16  17
ENDBRANCH  15  16
ENDBRANCH   1  15
TORSDOF 22
ENDMDL
MODEL 5
REMARK VINA RESULT:    -3.933      2.020      6.166
REMARK INTER + INTRA:         -13.518
REMARK INTER:                  -9.269
REMARK INTRA:                  -4.249
REMARK UNBOUND:                -4.527
REMARK SMILES CCCCCCCCCCCCCCCCCCCCCCCC(=O)[O-]
REMARK SMILES IDX 13 1 14 2 15 3 16 4 17 5 18 6 19 7 20 8 21 9 22 10 23 11
REMARK SMILES IDX 24 12 25 13 26 14 12 15 11 16 10 17 9 18 8 19 7 20 6 21 5 22
REMARK SMILES IDX 4 23 3 24 2 25 1 26
REMARK H PARENT
REMARK Flexibility Score: inf
ROOT
ATOM      1  C   UNL     1       4.593  35.919  70.607  1.00  0.00     0.000 C 
ENDROOT
BRANCH   1   2
ATOM      2  C   UNL     1       3.682  35.223  71.632  1.00  0.00     0.000 C 
BRANCH   2   3
ATOM      3  C   UNL     1       2.216  35.169  71.173  1.00  0.00     0.000 C 
BRANCH   3   4
ATOM      4  C   UNL     1       1.906  36.174  70.049  1.00  0.00     0.000 C 
BRANCH   4   5
ATOM      5  C   UNL     1       0.477  36.006  69.493  1.00  0.00     0.000 C 
BRANCH   5   6
ATOM      6  C   UNL     1       0.437  35.604  68.008  1.00  0.00     0.000 C 
BRANCH   6   7
ATOM      7  C   UNL     1       1.780  35.051  67.505  1.00  0.00     0.000 C 
BRANCH   7   8
ATOM      8  C   UNL     1       1.874  33.521  67.625  1.00  0.00     0.000 C 
BRANCH   8   9
ATOM      9  C   UNL     1       3.215  33.058  68.219  1.00  0.00     0.000 C 
BRANCH   9  10
ATOM     10  C   UNL     1       3.050  31.978  69.305  1.00  0.00     0.006 C 
BRANCH  10  11
ATOM     11  C   UNL     1       1.626  31.881  69.879  1.00  0.00     0.053 C 
BRANCH  11  12
ATOM     12  C   UNL     1       1.609  31.459  71.316  1.00  0.00     0.041 C 
ATOM     13  O   UNL     1       0.693  31.857  72.083  1.00  0.00    -0.550 OA
ATOM     14  O   UNL     1       2.593  30.608  71.804  1.00  0.00    -0.550 OA
ENDBRANCH  11  12
ENDBRANCH  10  11
ENDBRANCH   9  10
ENDBRANCH   8   9
ENDBRANCH   7   8
ENDBRANCH   6   7
ENDBRANCH   5   6
ENDBRANCH   4   5
ENDBRANCH   3   4
ENDBRANCH   2   3
ENDBRANCH   1   2
BRANCH   1  15
ATOM     15  C   UNL     1       5.889  35.137  70.329  1.00  0.00     0.000 C 
BRANCH  15  16
ATOM     16  C   UNL     1       5.889  33.670  70.808  1.00  0.00     0.000 C 
BRANCH  16  17
ATOM     17  C   UNL     1       7.180  33.210  71.510  1.00  0.00     0.000 C 
BRANCH  17  18
ATOM     18  C   UNL     1       7.436  31.703  71.361  1.00  0.00    -0.000 C 
BRANCH  18  19
ATOM     19  C   UNL     1       6.128  30.911  71.480  1.00  0.00    -0.000 C 
BRANCH  19  20
ATOM     20  C   UNL     1       5.952  29.956  70.294  1.00  0.00    -0.000 C 
BRANCH  20  21
ATOM     21  C   UNL     1       7.002  30.230  69.208  1.00  0.00    -0.000 C 
BRANCH  21  22
ATOM     22  C   UNL     1       6.426  30.979  67.993  1.00  0.00    -0.000 C 
BRANCH  22  23
ATOM     23  C   UNL     1       7.423  31.215  66.841  1.00  0.00    -0.000 C 
BRANCH  23  24
ATOM     24  C   UNL     1       8.484  32.300  67.105  1.00  0.00    -0.000 C 
BRANCH  24  25
ATOM     25  C   UNL     1       7.968  33.541  67.855  1.00  0.00    -0.003 C 
ATOM     26  C   UNL     1       7.060  34.420  66.996  1.00  0.00     0.004 C 
ENDBRANCH  24  25
ENDBRANCH  23  24
ENDBRANCH  22  23
ENDBRANCH  21  22
ENDBRANCH  20  21
ENDBRANCH  19  20
ENDBRANCH  18  19
ENDBRANCH  17  18
ENDBRANCH  16  17
ENDBRANCH  15  16
ENDBRANCH   1  15
TORSDOF 22
ENDMDL
MODEL 6
REMARK VINA RESULT:    -3.902      2.135      4.897
REMARK INTER + INTRA:         -13.447
REMARK INTER:                  -9.495
REMARK INTRA:                  -3.952
REMARK UNBOUND:                -4.527
REMARK SMILES CCCCCCCCCCCCCCCCCCCCCCCC(=O)[O-]
REMARK SMILES IDX 13 1 14 2 15 3 16 4 17 5 18 6 19 7 20 8 21 9 22 10 23 11
REMARK SMILES IDX 24 12 25 13 26 14 12 15 11 16 10 17 9 18 8 19 7 20 6 21 5 22
REMARK SMILES IDX 4 23 3 24 2 25 1 26
REMARK H PARENT
REMARK Flexibility Score: inf
ROOT
ATOM      1  C   UNL     1       8.066  32.128  67.062  1.00  0.00     0.000 C 
ENDROOT
BRANCH   1   2
ATOM      2  C   UNL     1       8.278  31.283  68.329  1.00  0.00     0.000 C 
BRANCH   2   3
ATOM      3  C   UNL     1       7.263  30.135  68.446  1.00  0.00     0.000 C 
BRANCH   3   4
ATOM      4  C   UNL     1       6.644  30.029  69.852  1.00  0.00     0.000 C 
BRANCH   4   5
ATOM      5  C   UNL     1       7.367  30.927  70.877  1.00  0.00     0.000 C 
BRANCH   5   6
ATOM      6  C   UNL     1       6.422  31.566  71.911  1.00  0.00     0.000 C 
BRANCH   6   7
ATOM      7  C   UNL     1       6.515  33.100  71.933  1.00  0.00     0.000 C 
BRANCH   7   8
ATOM      8  C   UNL     1       6.578  33.711  70.524  1.00  0.00     0.000 C 
BRANCH   8   9
ATOM      9  C   UNL     1       6.202  35.202  70.511  1.00  0.00     0.000 C 
BRANCH   9  10
ATOM     10  C   UNL     1       4.814  35.477  71.118  1.00  0.00     0.006 C 
BRANCH  10  11
ATOM     11  C   UNL     1       3.723  35.775  70.074  1.00  0.00     0.053 C 
BRANCH  11  12
ATOM     12  C   UNL     1       2.348  35.434  70.560  1.00  0.00     0.041 C 
ATOM     13  O   UNL     1       2.115  34.304  71.064  1.00  0.00    -0.550 OA
ATOM     14  O   UNL     1       1.326  36.372  70.475  1.00  0.00    -0.550 OA
ENDBRANCH  11  12
ENDBRANCH  10  11
ENDBRANCH   9  10
ENDBRANCH   8   9
ENDBRANCH   7   8
ENDBRANCH   6   7
ENDBRANCH   5   6
ENDBRANCH   4   5
ENDBRANCH   3   4
ENDBRANCH   2   3
ENDBRANCH   1   2
BRANCH   1  15
ATOM     15  C   UNL     1       7.921  33.631  67.361  1.00  0.00     0.000 C 
BRANCH  15  16
ATOM     16  C   UNL     1       6.585  34.265  66.917  1.00  0.00     0.000 C 
BRANCH  16  17
ATOM     17  C   UNL     1       5.480  33.265  66.535  1.00  0.00     0.000 C 
BRANCH  17  18
ATOM     18  C   UNL     1       4.215  33.416  67.392  1.00  0.00    -0.000 C 
BRANCH  18  19
ATOM     19  C   UNL     1       4.226  32.424  68.562  1.00  0.00    -0.000 C 
BRANCH  19  20
ATOM     20  C   UNL     1       2.863  31.739  68.716  1.00  0.00    -0.000 C 
BRANCH  20  21
ATOM     21  C   UNL     1       2.130  31.666  67.369  1.00  0.00    -0.000 C 
BRANCH  21  22
ATOM     22  C   UNL     1       0.602  31.788  67.511  1.00  0.00    -0.000 C 
BRANCH  22  23
ATOM     23  C   UNL     1       0.126  32.725  68.640  1.00  0.00    -0.000 C 
BRANCH  23  24
ATOM     24  C   UNL     1      -0.125  34.185  68.217  1.00  0.00    -0.000 C 
BRANCH  24  25
ATOM     25  C   UNL     1       0.882  34.745  67.196  1.00  0.00    -0.003 C 
ATOM     26  C   UNL     1       0.673  36.231  66.907  1.00  0.00     0.004 C 
ENDBRANCH  24  25
ENDBRANCH  23  24
ENDBRANCH  22  23
ENDBRANCH  21  22
ENDBRANCH  20  21
ENDBRANCH  19  20
ENDBRANCH  18  19
ENDBRANCH  17  18
ENDBRANCH  16  17
ENDBRANCH  15  16
ENDBRANCH   1  15
TORSDOF 22
ENDMDL
MODEL 7
REMARK VINA RESULT:    -3.895      2.786      6.510
REMARK INTER + INTRA:         -13.432
REMARK INTER:                  -9.156
REMARK INTRA:                  -4.276
REMARK UNBOUND:                -4.527
REMARK SMILES CCCCCCCCCCCCCCCCCCCCCCCC(=O)[O-]
REMARK SMILES IDX 13 1 14 2 15 3 16 4 17 5 18 6 19 7 20 8 21 9 22 10 23 11
REMARK SMILES IDX 24 12 25 13 26 14 12 15 11 16 10 17 9 18 8 19 7 20 6 21 5 22
REMARK SMILES IDX 4 23 3 24 2 25 1 26
REMARK H PARENT
REMARK Flexibility Score: inf
ROOT
ATOM      1  C   UNL     1       7.196  34.025  68.057  1.00  0.00     0.000 C 
ENDROOT
BRANCH   1   2
ATOM      2  C   UNL     1       6.354  34.471  66.850  1.00  0.00     0.000 C 
BRANCH   2   3
ATOM      3  C   UNL     1       5.205  33.497  66.544  1.00  0.00     0.000 C 
BRANCH   3   4
ATOM      4  C   UNL     1       4.461  33.037  67.811  1.00  0.00     0.000 C 
BRANCH   4   5
ATOM      5  C   UNL     1       3.206  32.203  67.480  1.00  0.00     0.000 C 
BRANCH   5   6
ATOM      6  C   UNL     1       3.035  30.965  68.380  1.00  0.00     0.000 C 
BRANCH   6   7
ATOM      7  C   UNL     1       1.997  31.177  69.493  1.00  0.00     0.000 C 
BRANCH   7   8
ATOM      8  C   UNL     1       0.818  32.057  69.045  1.00  0.00     0.000 C 
BRANCH   8   9
ATOM      9  C   UNL     1       0.768  33.400  69.792  1.00  0.00     0.000 C 
BRANCH   9  10
ATOM     10  C   UNL     1      -0.031  34.479  69.036  1.00  0.00     0.006 C 
BRANCH  10  11
ATOM     11  C   UNL     1       0.456  34.724  67.596  1.00  0.00     0.053 C 
BRANCH  11  12
ATOM     12  C   UNL     1       1.375  35.901  67.489  1.00  0.00     0.041 C 
ATOM     13  O   UNL     1       1.858  36.229  66.373  1.00  0.00    -0.550 OA
ATOM     14  O   UNL     1       1.682  36.651  68.617  1.00  0.00    -0.550 OA
ENDBRANCH  11  12
ENDBRANCH  10  11
ENDBRANCH   9  10
ENDBRANCH   8   9
ENDBRANCH   7   8
ENDBRANCH   6   7
ENDBRANCH   5   6
ENDBRANCH   4   5
ENDBRANCH   3   4
ENDBRANCH   2   3
ENDBRANCH   1   2
BRANCH   1  15
ATOM     15  C   UNL     1       8.542  33.398  67.650  1.00  0.00     0.000 C 
BRANCH  15  16
ATOM     16  C   UNL     1       8.466  31.938  67.156  1.00  0.00     0.000 C 
BRANCH  16  17
ATOM     17  C   UNL     1       8.398  30.873  68.265  1.00  0.00     0.000 C 
BRANCH  17  18
ATOM     18  C   UNL     1       6.989  30.295  68.452  1.00  0.00    -0.000 C 
BRANCH  18  19
ATOM     19  C   UNL     1       6.532  30.427  69.911  1.00  0.00    -0.000 C 
BRANCH  19  20
ATOM     20  C   UNL     1       7.423  31.410  70.680  1.00  0.00    -0.000 C 
BRANCH  20  21
ATOM     21  C   UNL     1       6.599  32.225  71.687  1.00  0.00    -0.000 C 
BRANCH  21  22
ATOM     22  C   UNL     1       5.084  31.982  71.558  1.00  0.00    -0.000 C 
BRANCH  22  23
ATOM     23  C   UNL     1       4.236  33.253  71.349  1.00  0.00    -0.000 C 
BRANCH  23  24
ATOM     24  C   UNL     1       5.029  34.509  70.938  1.00  0.00    -0.000 C 
BRANCH  24  25
ATOM     25  C   UNL     1       4.203  35.806  70.884  1.00  0.00    -0.003 C 
ATOM     26  C   UNL     1       2.962  35.760  71.775  1.00  0.00     0.004 C 
ENDBRANCH  24  25
ENDBRANCH  23  24
ENDBRANCH  22  23
ENDBRANCH  21  22
ENDBRANCH  20  21
ENDBRANCH  19  20
ENDBRANCH  18  19
ENDBRANCH  17  18
ENDBRANCH  16  17
ENDBRANCH  15  16
ENDBRANCH   1  15
TORSDOF 22
ENDMDL
MODEL 8
REMARK VINA RESULT:    -3.847      2.006      6.427
REMARK INTER + INTRA:         -13.322
REMARK INTER:                  -9.485
REMARK INTRA:                  -3.837
REMARK UNBOUND:                -4.527
REMARK SMILES CCCCCCCCCCCCCCCCCCCCCCCC(=O)[O-]
REMARK SMILES IDX 13 1 14 2 15 3 16 4 17 5 18 6 19 7 20 8 21 9 22 10 23 11
REMARK SMILES IDX 24 12 25 13 26 14 12 15 11 16 10 17 9 18 8 19 7 20 6 21 5 22
REMARK SMILES IDX 4 23 3 24 2 25 1 26
REMARK H PARENT
REMARK Flexibility Score: inf
ROOT
ATOM      1  C   UNL     1       5.632  35.249  70.259  1.00  0.00     0.000 C 
ENDROOT
BRANCH   1   2
ATOM      2  C   UNL     1       4.473  34.730  71.127  1.00  0.00     0.000 C 
BRANCH   2   3
ATOM      3  C   UNL     1       3.504  35.847  71.542  1.00  0.00     0.000 C 
BRANCH   3   4
ATOM      4  C   UNL     1       2.192  35.828  70.736  1.00  0.00     0.000 C 
BRANCH   4   5
ATOM      5  C   UNL     1       1.757  34.395  70.364  1.00  0.00     0.000 C 
BRANCH   5   6
ATOM      6  C   UNL     1       0.652  34.345  69.294  1.00  0.00     0.000 C 
BRANCH   6   7
ATOM      7  C   UNL     1       1.194  34.527  67.868  1.00  0.00     0.000 C 
BRANCH   7   8
ATOM      8  C   UNL     1       2.602  33.935  67.689  1.00  0.00     0.000 C 
BRANCH   8   9
ATOM      9  C   UNL     1       2.579  32.413  67.477  1.00  0.00     0.000 C 
BRANCH   9  10
ATOM     10  C   UNL     1       3.517  31.658  68.438  1.00  0.00     0.006 C 
BRANCH  10  11
ATOM     11  C   UNL     1       2.887  30.403  69.070  1.00  0.00     0.053 C 
BRANCH  11  12
ATOM     12  C   UNL     1       1.989  30.725  70.224  1.00  0.00     0.041 C 
ATOM     13  O   UNL     1       0.738  30.728  70.073  1.00  0.00    -0.550 OA
ATOM     14  O   UNL     1       2.531  31.001  71.473  1.00  0.00    -0.550 OA
ENDBRANCH  11  12
ENDBRANCH  10  11
ENDBRANCH   9  10
ENDBRANCH   8   9
ENDBRANCH   7   8
ENDBRANCH   6   7
ENDBRANCH   5   6
ENDBRANCH   4   5
ENDBRANCH   3   4
ENDBRANCH   2   3
ENDBRANCH   1   2
BRANCH   1  15
ATOM     15  C   UNL     1       5.885  34.379  69.014  1.00  0.00     0.000 C 
BRANCH  15  16
ATOM     16  C   UNL     1       7.348  34.344  68.521  1.00  0.00     0.000 C 
BRANCH  16  17
ATOM     17  C   UNL     1       7.607  33.443  67.301  1.00  0.00     0.000 C 
BRANCH  17  18
ATOM     18  C   UNL     1       8.928  32.667  67.402  1.00  0.00    -0.000 C 
BRANCH  18  19
ATOM     19  C   UNL     1       8.742  31.375  68.208  1.00  0.00    -0.000 C 
BRANCH  19  20
ATOM     20  C   UNL     1       7.409  30.699  67.868  1.00  0.00    -0.000 C 
BRANCH  20  21
ATOM     21  C   UNL     1       6.655  30.299  69.144  1.00  0.00    -0.000 C 
BRANCH  21  22
ATOM     22  C   UNL     1       7.394  30.711  70.431  1.00  0.00    -0.000 C 
BRANCH  22  23
ATOM     23  C   UNL     1       6.573  31.584  71.401  1.00  0.00    -0.000 C 
BRANCH  23  24
ATOM     24  C   UNL     1       7.363  32.708  72.098  1.00  0.00    -0.000 C 
BRANCH  24  25
ATOM     25  C   UNL     1       7.558  32.519  73.613  1.00  0.00    -0.003 C 
ATOM     26  C   UNL     1       8.795  33.238  74.149  1.00  0.00     0.004 C 
ENDBRANCH  24  25
ENDBRANCH  23  24
ENDBRANCH  22  23
ENDBRANCH  21  22
ENDBRANCH  20  21
ENDBRANCH  19  20
ENDBRANCH  18  19
ENDBRANCH  17  18
ENDBRANCH  16  17
ENDBRANCH  15  16
ENDBRANCH   1  15
TORSDOF 22
ENDMDL
MODEL 9
REMARK VINA RESULT:    -3.784      2.861      5.271
REMARK INTER + INTRA:         -13.177
REMARK INTER:                  -8.747
REMARK INTRA:                  -4.430
REMARK UNBOUND:                -4.527
REMARK SMILES CCCCCCCCCCCCCCCCCCCCCCCC(=O)[O-]
REMARK SMILES IDX 13 1 14 2 15 3 16 4 17 5 18 6 19 7 20 8 21 9 22 10 23 11
REMARK SMILES IDX 24 12 25 13 26 14 12 15 11 16 10 17 9 18 8 19 7 20 6 21 5 22
REMARK SMILES IDX 4 23 3 24 2 25 1 26
REMARK H PARENT
REMARK Flexibility Score: inf
ROOT
ATOM      1  C   UNL     1       8.330  32.513  67.303  1.00  0.00     0.000 C 
ENDROOT
BRANCH   1   2
ATOM      2  C   UNL     1       8.651  31.390  68.304  1.00  0.00     0.000 C 
BRANCH   2   3
ATOM      3  C   UNL     1       7.458  30.449  68.533  1.00  0.00     0.000 C 
BRANCH   3   4
ATOM      4  C   UNL     1       7.026  30.384  70.010  1.00  0.00     0.000 C 
BRANCH   4   5
ATOM      5  C   UNL     1       7.417  31.657  70.789  1.00  0.00     0.000 C 
BRANCH   5   6
ATOM      6  C   UNL     1       6.250  32.277  71.579  1.00  0.00     0.000 C 
BRANCH   6   7
ATOM      7  C   UNL     1       6.017  33.757  71.233  1.00  0.00     0.000 C 
BRANCH   7   8
ATOM      8  C   UNL     1       4.529  34.143  71.254  1.00  0.00     0.000 C 
BRANCH   8   9
ATOM      9  C   UNL     1       4.279  35.555  70.698  1.00  0.00     0.000 C 
BRANCH   9  10
ATOM     10  C   UNL     1       2.784  35.922  70.641  1.00  0.00     0.006 C 
BRANCH  10  11
ATOM     11  C   UNL     1       1.956  35.028  69.701  1.00  0.00     0.053 C 
BRANCH  11  12
ATOM     12  C   UNL     1       1.328  35.795  68.578  1.00  0.00     0.041 C 
ATOM     13  O   UNL     1       1.754  35.658  67.400  1.00  0.00    -0.550 OA
ATOM     14  O   UNL     1       0.258  36.645  68.827  1.00  0.00    -0.550 OA
ENDBRANCH  11  12
ENDBRANCH  10  11
ENDBRANCH   9  10
ENDBRANCH   8   9
ENDBRANCH   7   8
ENDBRANCH   6   7
ENDBRANCH   5   6
ENDBRANCH   4   5
ENDBRANCH   3   4
ENDBRANCH   2   3
ENDBRANCH   1   2
BRANCH   1  15
ATOM     15  C   UNL     1       8.047  33.863  67.988  1.00  0.00     0.000 C 
BRANCH  15  16
ATOM     16  C   UNL     1       6.629  34.431  67.764  1.00  0.00     0.000 C 
BRANCH  16  17
ATOM     17  C   UNL     1       5.722  33.587  66.850  1.00  0.00     0.000 C 
BRANCH  17  18
ATOM     18  C   UNL     1       4.324  33.359  67.443  1.00  0.00    -0.000 C 
BRANCH  18  19
ATOM     19  C   UNL     1       4.300  32.099  68.318  1.00  0.00    -0.000 C 
BRANCH  19  20
ATOM     20  C   UNL     1       3.087  31.222  67.987  1.00  0.00    -0.000 C 
BRANCH  20  21
ATOM     21  C   UNL     1       2.001  32.034  67.268  1.00  0.00    -0.000 C 
BRANCH  21  22
ATOM     22  C   UNL     1       0.662  32.047  68.025  1.00  0.00    -0.000 C 
BRANCH  22  23
ATOM     23  C   UNL     1       0.188  30.670  68.533  1.00  0.00    -0.000 C 
BRANCH  23  24
ATOM     24  C   UNL     1      -0.124  30.599  70.040  1.00  0.00    -0.000 C 
BRANCH  24  25
ATOM     25  C   UNL     1       0.425  31.773  70.870  1.00  0.00    -0.003 C 
ATOM     26  C   UNL     1       1.853  31.538  71.361  1.00  0.00     0.004 C 
ENDBRANCH  24  25
ENDBRANCH  23  24
ENDBRANCH  22  23
ENDBRANCH  21  22
ENDBRANCH  20  21
ENDBRANCH  19  20
ENDBRANCH  18  19
ENDBRANCH  17  18
ENDBRANCH  16  17
ENDBRANCH  15  16
ENDBRANCH   1  15
TORSDOF 22
ENDMDL
