MODEL 1
REMARK VINA RESULT:    -3.411      0.000      0.000
REMARK INTER + INTRA:          -6.569
REMARK INTER:                  -5.505
REMARK INTRA:                  -1.065
REMARK UNBOUND:                -1.065
REMARK SMILES CCCCCCCCCCCCO
REMARK SMILES IDX 7 1 6 2 5 3 4 4 3 5 2 6 1 7 8 8 9 9 10 10 11 11 12 12 13 13
REMARK H PARENT 13 14
REMARK Flexibility Score: inf
ROOT
ATOM      1  C   UNL     1     -30.647  25.432 -23.063  1.00  0.00     0.000 C 
ENDROOT
BRANCH   1   2
ATOM      2  C   UNL     1     -30.681  26.848 -22.464  1.00  0.00    -0.000 C 
BRANCH   2   3
ATOM      3  C   UNL     1     -29.801  27.838 -23.245  1.00  0.00    -0.000 C 
BRANCH   3   4
ATOM      4  C   UNL     1     -28.727  27.130 -24.092  1.00  0.00    -0.000 C 
BRANCH   4   5
ATOM      5  C   UNL     1     -27.302  27.344 -23.553  1.00  0.00    -0.000 C 
BRANCH   5   6
ATOM      6  C   UNL     1     -26.614  26.076 -23.018  1.00  0.00    -0.003 C 
ATOM      7  C   UNL     1     -26.753  24.879 -23.957  1.00  0.00     0.004 C 
ENDBRANCH   5   6
ENDBRANCH   4   5
ENDBRANCH   3   4
ENDBRANCH   2   3
ENDBRANCH   1   2
BRANCH   1   8
ATOM      8  C   UNL     1     -30.634  24.331 -21.988  1.00  0.00     0.000 C 
BRANCH   8   9
ATOM      9  C   UNL     1     -29.263  24.074 -21.330  1.00  0.00     0.000 C 
BRANCH   9  10
ATOM     10  C   UNL     1     -29.207  24.327 -19.811  1.00  0.00     0.002 C 
BRANCH  10  11
ATOM     11  C   UNL     1     -28.358  23.316 -19.016  1.00  0.00     0.028 C 
BRANCH  11  12
ATOM     12  C   UNL     1     -28.316  21.918 -19.641  1.00  0.00     0.156 C 
BRANCH  12  13
ATOM     13  O   UNL     1     -29.035  21.010 -18.853  1.00  0.00    -0.396 OA
ATOM     14  H   UNL     1     -28.363  20.394 -18.461  1.00  0.00     0.210 HD
ENDBRANCH  12  13
ENDBRANCH  11  12
ENDBRANCH  10  11
ENDBRANCH   9  10
ENDBRANCH   8   9
ENDBRANCH   1   8
TORSDOF 11
ENDMDL
MODEL 2
REMARK VINA RESULT:    -3.398      1.120      2.139
REMARK INTER + INTRA:          -6.548
REMARK INTER:                  -4.989
REMARK INTRA:                  -1.559
REMARK UNBOUND:                -1.065
REMARK SMILES CCCCCCCCCCCCO
REMARK SMILES IDX 7 1 6 2 5 3 4 4 3 5 2 6 1 7 8 8 9 9 10 10 11 11 12 12 13 13
REMARK H PARENT 13 14
REMARK Flexibility Score: inf
ROOT
ATOM      1  C   UNL     1     -29.396  26.718 -21.962  1.00  0.00     0.000 C 
ENDROOT
BRANCH   1   2
ATOM      2  C   UNL     1     -28.362  27.057 -23.049  1.00  0.00    -0.000 C 
BRANCH   2   3
ATOM      3  C   UNL     1     -26.915  26.892 -22.556  1.00  0.00    -0.000 C 
BRANCH   3   4
ATOM      4  C   UNL     1     -26.472  25.418 -22.513  1.00  0.00    -0.000 C 
BRANCH   4   5
ATOM      5  C   UNL     1     -26.489  24.747 -23.898  1.00  0.00    -0.000 C 
BRANCH   5   6
ATOM      6  C   UNL     1     -27.438  23.542 -24.024  1.00  0.00    -0.003 C 
ATOM      7  C   UNL     1     -28.539  23.753 -25.063  1.00  0.00     0.004 C 
ENDBRANCH   5   6
ENDBRANCH   4   5
ENDBRANCH   3   4
ENDBRANCH   2   3
ENDBRANCH   1   2
BRANCH   1   8
ATOM      8  C   UNL     1     -30.475  25.736 -22.452  1.00  0.00     0.000 C 
BRANCH   8   9
ATOM      9  C   UNL     1     -30.380  24.314 -21.864  1.00  0.00     0.000 C 
BRANCH   9  10
ATOM     10  C   UNL     1     -29.466  24.173 -20.631  1.00  0.00     0.002 C 
BRANCH  10  11
ATOM     11  C   UNL     1     -28.690  22.844 -20.546  1.00  0.00     0.028 C 
BRANCH  11  12
ATOM     12  C   UNL     1     -28.432  22.370 -19.113  1.00  0.00     0.156 C 
BRANCH  12  13
ATOM     13  O   UNL     1     -28.984  21.098 -18.914  1.00  0.00    -0.396 OA
ATOM     14  H   UNL     1     -28.220  20.464 -18.909  1.00  0.00     0.210 HD
ENDBRANCH  12  13
ENDBRANCH  11  12
ENDBRANCH  10  11
ENDBRANCH   9  10
ENDBRANCH   8   9
ENDBRANCH   1   8
TORSDOF 11
ENDMDL
MODEL 3
REMARK VINA RESULT:    -3.345      3.337      5.427
REMARK INTER + INTRA:          -6.463
REMARK INTER:                  -5.183
REMARK INTRA:                  -1.280
REMARK UNBOUND:                -1.065
REMARK SMILES CCCCCCCCCCCCO
REMARK SMILES IDX 7 1 6 2 5 3 4 4 3 5 2 6 1 7 8 8 9 9 10 10 11 11 12 12 13 13
REMARK H PARENT 13 14
REMARK Flexibility Score: inf
ROOT
ATOM      1  C   UNL     1     -27.752  26.998 -21.993  1.00  0.00     0.000 C 
ENDROOT
BRANCH   1   2
ATOM      2  C   UNL     1     -29.226  26.896 -21.566  1.00  0.00    -0.000 C 
BRANCH   2   3
ATOM      3  C   UNL     1     -30.193  27.041 -22.753  1.00  0.00    -0.000 C 
BRANCH   3   4
ATOM      4  C   UNL     1     -30.855  25.706 -23.139  1.00  0.00    -0.000 C 
BRANCH   4   5
ATOM      5  C   UNL     1     -30.635  24.603 -22.088  1.00  0.00    -0.000 C 
BRANCH   5   6
ATOM      6  C   UNL     1     -29.980  23.318 -22.624  1.00  0.00    -0.003 C 
ATOM      7  C   UNL     1     -28.464  23.296 -22.434  1.00  0.00     0.004 C 
ENDBRANCH   5   6
ENDBRANCH   4   5
ENDBRANCH   3   4
ENDBRANCH   2   3
ENDBRANCH   1   2
BRANCH   1   8
ATOM      8  C   UNL     1     -27.586  27.327 -23.488  1.00  0.00     0.000 C 
BRANCH   8   9
ATOM      9  C   UNL     1     -27.051  26.171 -24.356  1.00  0.00     0.000 C 
BRANCH   9  10
ATOM     10  C   UNL     1     -27.925  25.805 -25.572  1.00  0.00     0.002 C 
BRANCH  10  11
ATOM     11  C   UNL     1     -27.142  25.429 -26.845  1.00  0.00     0.028 C 
BRANCH  11  12
ATOM     12  C   UNL     1     -25.790  24.765 -26.565  1.00  0.00     0.156 C 
BRANCH  12  13
ATOM     13  O   UNL     1     -24.746  25.566 -27.045  1.00  0.00    -0.396 OA
ATOM     14  H   UNL     1     -24.120  24.952 -27.511  1.00  0.00     0.210 HD
ENDBRANCH  12  13
ENDBRANCH  11  12
ENDBRANCH  10  11
ENDBRANCH   9  10
ENDBRANCH   8   9
ENDBRANCH   1   8
TORSDOF 11
ENDMDL
MODEL 4
REMARK VINA RESULT:    -3.321      1.751      2.555
REMARK INTER + INTRA:          -6.424
REMARK INTER:                  -5.093
REMARK INTRA:                  -1.331
REMARK UNBOUND:                -1.065
REMARK SMILES CCCCCCCCCCCCO
REMARK SMILES IDX 7 1 6 2 5 3 4 4 3 5 2 6 1 7 8 8 9 9 10 10 11 11 12 12 13 13
REMARK H PARENT 13 14
REMARK Flexibility Score: inf
ROOT
ATOM      1  C   UNL     1     -30.081  24.700 -21.746  1.00  0.00     0.000 C 
ENDROOT
BRANCH   1   2
ATOM      2  C   UNL     1     -30.486  25.949 -22.547  1.00  0.00    -0.000 C 
BRANCH   2   3
ATOM      3  C   UNL     1     -29.910  27.243 -21.949  1.00  0.00    -0.000 C 
BRANCH   3   4
ATOM      4  C   UNL     1     -28.376  27.312 -22.065  1.00  0.00    -0.000 C 
BRANCH   4   5
ATOM      5  C   UNL     1     -27.680  27.480 -20.702  1.00  0.00    -0.000 C 
BRANCH   5   6
ATOM      6  C   UNL     1     -28.607  27.347 -19.480  1.00  0.00    -0.003 C 
ATOM      7  C   UNL     1     -28.360  26.068 -18.680  1.00  0.00     0.004 C 
ENDBRANCH   5   6
ENDBRANCH   4   5
ENDBRANCH   3   4
ENDBRANCH   2   3
ENDBRANCH   1   2
BRANCH   1   8
ATOM      8  C   UNL     1     -29.308  23.673 -22.594  1.00  0.00     0.000 C 
BRANCH   8   9
ATOM      9  C   UNL     1     -27.774  23.734 -22.455  1.00  0.00     0.000 C 
BRANCH   9  10
ATOM     10  C   UNL     1     -27.229  23.409 -21.050  1.00  0.00     0.002 C 
BRANCH  10  11
ATOM     11  C   UNL     1     -27.723  22.077 -20.454  1.00  0.00     0.028 C 
BRANCH  11  12
ATOM     12  C   UNL     1     -28.397  22.225 -19.086  1.00  0.00     0.156 C 
BRANCH  12  13
ATOM     13  O   UNL     1     -28.998  21.019 -18.706  1.00  0.00    -0.396 OA
ATOM     14  H   UNL     1     -29.719  21.259 -18.067  1.00  0.00     0.210 HD
ENDBRANCH  12  13
ENDBRANCH  11  12
ENDBRANCH  10  11
ENDBRANCH   9  10
ENDBRANCH   8   9
ENDBRANCH   1   8
TORSDOF 11
ENDMDL
MODEL 5
REMARK VINA RESULT:    -3.313      2.957      5.087
REMARK INTER + INTRA:          -6.411
REMARK INTER:                  -4.941
REMARK INTRA:                  -1.470
REMARK UNBOUND:                -1.065
REMARK SMILES CCCCCCCCCCCCO
REMARK SMILES IDX 7 1 6 2 5 3 4 4 3 5 2 6 1 7 8 8 9 9 10 10 11 11 12 12 13 13
REMARK H PARENT 13 14
REMARK Flexibility Score: inf
ROOT
ATOM      1  C   UNL     1     -28.169  27.226 -22.348  1.00  0.00     0.000 C 
ENDROOT
BRANCH   1   2
ATOM      2  C   UNL     1     -29.181  26.608 -21.367  1.00  0.00    -0.000 C 
BRANCH   2   3
ATOM      3  C   UNL     1     -28.682  25.285 -20.764  1.00  0.00    -0.000 C 
BRANCH   3   4
ATOM      4  C   UNL     1     -29.655  24.119 -21.017  1.00  0.00    -0.000 C 
BRANCH   4   5
ATOM      5  C   UNL     1     -30.720  24.448 -22.079  1.00  0.00    -0.000 C 
BRANCH   5   6
ATOM      6  C   UNL     1     -30.458  23.843 -23.469  1.00  0.00    -0.003 C 
ATOM      7  C   UNL     1     -31.190  24.582 -24.590  1.00  0.00     0.004 C 
ENDBRANCH   5   6
ENDBRANCH   4   5
ENDBRANCH   3   4
ENDBRANCH   2   3
ENDBRANCH   1   2
BRANCH   1   8
ATOM      8  C   UNL     1     -28.677  27.236 -23.801  1.00  0.00     0.000 C 
BRANCH   8   9
ATOM      9  C   UNL     1     -27.872  26.361 -24.781  1.00  0.00     0.000 C 
BRANCH   9  10
ATOM     10  C   UNL     1     -26.860  25.400 -24.125  1.00  0.00     0.002 C 
BRANCH  10  11
ATOM     11  C   UNL     1     -26.719  24.032 -24.820  1.00  0.00     0.028 C 
BRANCH  11  12
ATOM     12  C   UNL     1     -25.315  23.760 -25.370  1.00  0.00     0.156 C 
BRANCH  12  13
ATOM     13  O   UNL     1     -24.894  24.825 -26.176  1.00  0.00    -0.396 OA
ATOM     14  H   UNL     1     -25.240  25.650 -25.747  1.00  0.00     0.210 HD
ENDBRANCH  12  13
ENDBRANCH  11  12
ENDBRANCH  10  11
ENDBRANCH   9  10
ENDBRANCH   8   9
ENDBRANCH   1   8
TORSDOF 11
ENDMDL
MODEL 6
REMARK VINA RESULT:    -3.303      2.843      4.884
REMARK INTER + INTRA:          -6.395
REMARK INTER:                  -5.023
REMARK INTRA:                  -1.372
REMARK UNBOUND:                -1.065
REMARK SMILES CCCCCCCCCCCCO
REMARK SMILES IDX 7 1 6 2 5 3 4 4 3 5 2 6 1 7 8 8 9 9 10 10 11 11 12 12 13 13
REMARK H PARENT 13 14
REMARK Flexibility Score: inf
ROOT
ATOM      1  C   UNL     1     -29.974  26.933 -24.025  1.00  0.00     0.000 C 
ENDROOT
BRANCH   1   2
ATOM      2  C   UNL     1     -30.696  26.282 -22.834  1.00  0.00    -0.000 C 
BRANCH   2   3
ATOM      3  C   UNL     1     -30.677  24.745 -22.903  1.00  0.00    -0.000 C 
BRANCH   3   4
ATOM      4  C   UNL     1     -30.132  24.104 -21.615  1.00  0.00    -0.000 C 
BRANCH   4   5
ATOM      5  C   UNL     1     -28.755  24.659 -21.206  1.00  0.00    -0.000 C 
BRANCH   5   6
ATOM      6  C   UNL     1     -28.726  25.393 -19.855  1.00  0.00    -0.003 C 
ATOM      7  C   UNL     1     -28.308  26.858 -19.978  1.00  0.00     0.004 C 
ENDBRANCH   5   6
ENDBRANCH   4   5
ENDBRANCH   3   4
ENDBRANCH   2   3
ENDBRANCH   1   2
BRANCH   1   8
ATOM      8  C   UNL     1     -28.701  27.692 -23.608  1.00  0.00     0.000 C 
BRANCH   8   9
ATOM      9  C   UNL     1     -27.384  26.911 -23.794  1.00  0.00     0.000 C 
BRANCH   9  10
ATOM     10  C   UNL     1     -27.340  25.982 -25.024  1.00  0.00     0.002 C 
BRANCH  10  11
ATOM     11  C   UNL     1     -26.963  24.519 -24.718  1.00  0.00     0.028 C 
BRANCH  11  12
ATOM     12  C   UNL     1     -25.459  24.240 -24.794  1.00  0.00     0.156 C 
BRANCH  12  13
ATOM     13  O   UNL     1     -24.941  24.692 -26.015  1.00  0.00    -0.396 OA
ATOM     14  H   UNL     1     -24.056  25.091 -25.808  1.00  0.00     0.210 HD
ENDBRANCH  12  13
ENDBRANCH  11  12
ENDBRANCH  10  11
ENDBRANCH   9  10
ENDBRANCH   8   9
ENDBRANCH   1   8
TORSDOF 11
ENDMDL
MODEL 7
REMARK VINA RESULT:    -3.290      1.449      2.270
REMARK INTER + INTRA:          -6.374
REMARK INTER:                  -5.050
REMARK INTRA:                  -1.324
REMARK UNBOUND:                -1.065
REMARK SMILES CCCCCCCCCCCCO
REMARK SMILES IDX 7 1 6 2 5 3 4 4 3 5 2 6 1 7 8 8 9 9 10 10 11 11 12 12 13 13
REMARK H PARENT 13 14
REMARK Flexibility Score: inf
ROOT
ATOM      1  C   UNL     1     -29.558  25.225 -21.262  1.00  0.00     0.000 C 
ENDROOT
BRANCH   1   2
ATOM      2  C   UNL     1     -29.523  26.718 -21.628  1.00  0.00    -0.000 C 
BRANCH   2   3
ATOM      3  C   UNL     1     -30.698  27.128 -22.533  1.00  0.00    -0.000 C 
BRANCH   3   4
ATOM      4  C   UNL     1     -30.230  27.641 -23.907  1.00  0.00    -0.000 C 
BRANCH   4   5
ATOM      5  C   UNL     1     -30.479  26.630 -25.040  1.00  0.00    -0.000 C 
BRANCH   5   6
ATOM      6  C   UNL     1     -29.260  25.772 -25.423  1.00  0.00    -0.003 C 
ATOM      7  C   UNL     1     -27.941  26.342 -24.903  1.00  0.00     0.004 C 
ENDBRANCH   5   6
ENDBRANCH   4   5
ENDBRANCH   3   4
ENDBRANCH   2   3
ENDBRANCH   1   2
BRANCH   1   8
ATOM      8  C   UNL     1     -30.672  24.457 -21.995  1.00  0.00     0.000 C 
BRANCH   8   9
ATOM      9  C   UNL     1     -30.201  23.223 -22.791  1.00  0.00     0.000 C 
BRANCH   9  10
ATOM     10  C   UNL     1     -28.713  22.862 -22.621  1.00  0.00     0.002 C 
BRANCH  10  11
ATOM     11  C   UNL     1     -28.445  21.577 -21.813  1.00  0.00     0.028 C 
BRANCH  11  12
ATOM     12  C   UNL     1     -28.141  21.831 -20.333  1.00  0.00     0.156 C 
BRANCH  12  13
ATOM     13  O   UNL     1     -28.809  20.897 -19.531  1.00  0.00    -0.396 OA
ATOM     14  H   UNL     1     -29.578  20.573 -20.068  1.00  0.00     0.210 HD
ENDBRANCH  12  13
ENDBRANCH  11  12
ENDBRANCH  10  11
ENDBRANCH   9  10
ENDBRANCH   8   9
ENDBRANCH   1   8
TORSDOF 11
ENDMDL
MODEL 8
REMARK VINA RESULT:    -3.278      3.404      5.425
REMARK INTER + INTRA:          -6.355
REMARK INTER:                  -5.095
REMARK INTRA:                  -1.260
REMARK UNBOUND:                -1.065
REMARK SMILES CCCCCCCCCCCCO
REMARK SMILES IDX 7 1 6 2 5 3 4 4 3 5 2 6 1 7 8 8 9 9 10 10 11 11 12 12 13 13
REMARK H PARENT 13 14
REMARK Flexibility Score: inf
ROOT
ATOM      1  C   UNL     1     -28.540  23.786 -21.909  1.00  0.00     0.000 C 
ENDROOT
BRANCH   1   2
ATOM      2  C   UNL     1     -29.601  24.768 -21.384  1.00  0.00    -0.000 C 
BRANCH   2   3
ATOM      3  C   UNL     1     -28.976  25.993 -20.693  1.00  0.00    -0.000 C 
BRANCH   3   4
ATOM      4  C   UNL     1     -29.270  27.305 -21.443  1.00  0.00    -0.000 C 
BRANCH   4   5
ATOM      5  C   UNL     1     -30.497  27.204 -22.368  1.00  0.00    -0.000 C 
BRANCH   5   6
ATOM      6  C   UNL     1     -30.215  27.490 -23.853  1.00  0.00    -0.003 C 
ATOM      7  C   UNL     1     -30.737  26.395 -24.782  1.00  0.00     0.004 C 
ENDBRANCH   5   6
ENDBRANCH   4   5
ENDBRANCH   3   4
ENDBRANCH   2   3
ENDBRANCH   1   2
BRANCH   1   8
ATOM      8  C   UNL     1     -28.214  24.002 -23.398  1.00  0.00     0.000 C 
BRANCH   8   9
ATOM      9  C   UNL     1     -27.102  25.031 -23.681  1.00  0.00     0.000 C 
BRANCH   9  10
ATOM     10  C   UNL     1     -27.139  25.667 -25.085  1.00  0.00     0.002 C 
BRANCH  10  11
ATOM     11  C   UNL     1     -26.526  24.803 -26.205  1.00  0.00     0.028 C 
BRANCH  11  12
ATOM     12  C   UNL     1     -26.018  25.613 -27.402  1.00  0.00     0.156 C 
BRANCH  12  13
ATOM     13  O   UNL     1     -24.625  25.750 -27.341  1.00  0.00    -0.396 OA
ATOM     14  H   UNL     1     -24.454  26.666 -26.998  1.00  0.00     0.210 HD
ENDBRANCH  12  13
ENDBRANCH  11  12
ENDBRANCH  10  11
ENDBRANCH   9  10
ENDBRANCH   8   9
ENDBRANCH   1   8
TORSDOF 11
ENDMDL
MODEL 9
REMARK VINA RESULT:    -3.233      2.438      4.573
REMARK INTER + INTRA:          -6.282
REMARK INTER:                  -4.856
REMARK INTRA:                  -1.427
REMARK UNBOUND:                -1.065
REMARK SMILES CCCCCCCCCCCCO
REMARK SMILES IDX 7 1 6 2 5 3 4 4 3 5 2 6 1 7 8 8 9 9 10 10 11 11 12 12 13 13
REMARK H PARENT 13 14
REMARK Flexibility Score: inf
ROOT
ATOM      1  C   UNL     1     -30.313  27.444 -23.707  1.00  0.00     0.000 C 
ENDROOT
BRANCH   1   2
ATOM      2  C   UNL     1     -30.713  26.547 -22.523  1.00  0.00    -0.000 C 
BRANCH   2   3
ATOM      3  C   UNL     1     -30.743  25.057 -22.899  1.00  0.00    -0.000 C 
BRANCH   3   4
ATOM      4  C   UNL     1     -30.359  24.144 -21.720  1.00  0.00    -0.000 C 
BRANCH   4   5
ATOM      5  C   UNL     1     -29.251  24.744 -20.835  1.00  0.00    -0.000 C 
BRANCH   5   6
ATOM      6  C   UNL     1     -27.997  23.865 -20.681  1.00  0.00    -0.003 C 
ATOM      7  C   UNL     1     -28.170  22.467 -21.274  1.00  0.00     0.004 C 
ENDBRANCH   5   6
ENDBRANCH   4   5
ENDBRANCH   3   4
ENDBRANCH   2   3
ENDBRANCH   1   2
BRANCH   1   8
ATOM      8  C   UNL     1     -29.021  26.974 -24.400  1.00  0.00     0.000 C 
BRANCH   8   9
ATOM      9  C   UNL     1     -27.719  27.275 -23.631  1.00  0.00     0.000 C 
BRANCH   9  10
ATOM     10  C   UNL     1     -26.809  26.057 -23.379  1.00  0.00     0.002 C 
BRANCH  10  11
ATOM     11  C   UNL     1     -27.187  24.790 -24.170  1.00  0.00     0.028 C 
BRANCH  11  12
ATOM     12  C   UNL     1     -26.295  24.531 -25.387  1.00  0.00     0.156 C 
BRANCH  12  13
ATOM     13  O   UNL     1     -24.944  24.552 -25.014  1.00  0.00    -0.396 OA
ATOM     14  H   UNL     1     -24.785  23.713 -24.509  1.00  0.00     0.210 HD
ENDBRANCH  12  13
ENDBRANCH  11  12
ENDBRANCH  10  11
ENDBRANCH   9  10
ENDBRANCH   8   9
ENDBRANCH   1   8
TORSDOF 11
ENDMDL
