MODEL 1
REMARK VINA RESULT:    -4.186      0.000      0.000
REMARK INTER + INTRA:          -7.462
REMARK INTER:                  -6.634
REMARK INTRA:                  -0.828
REMARK UNBOUND:                -0.828
REMARK SMILES CCCCCCCCCCCC(=O)[O-]
REMARK SMILES IDX 7 1 8 2 9 3 10 4 11 5 12 6 13 7 14 8 6 9 5 10 4 11 3 12 2 13
REMARK SMILES IDX 1 14
REMARK H PARENT
REMARK Flexibility Score: inf
ROOT
ATOM      1  C   UNL     1      13.613  22.403 -24.525  1.00  0.00     0.000 C 
ENDROOT
BRANCH   1   2
ATOM      2  C   UNL     1      13.450  21.637 -23.202  1.00  0.00     0.000 C 
BRANCH   2   3
ATOM      3  C   UNL     1      12.320  22.205 -22.325  1.00  0.00     0.000 C 
BRANCH   3   4
ATOM      4  C   UNL     1      12.841  23.148 -21.229  1.00  0.00     0.006 C 
BRANCH   4   5
ATOM      5  C   UNL     1      12.051  23.028 -19.920  1.00  0.00     0.053 C 
BRANCH   5   6
ATOM      6  C   UNL     1      12.791  22.173 -18.940  1.00  0.00     0.041 C 
ATOM      7  O   UNL     1      13.977  21.822 -19.176  1.00  0.00    -0.550 OA
ATOM      8  O   UNL     1      12.190  21.806 -17.743  1.00  0.00    -0.550 OA
ENDBRANCH   5   6
ENDBRANCH   4   5
ENDBRANCH   3   4
ENDBRANCH   2   3
ENDBRANCH   1   2
BRANCH   1   9
ATOM      9  C   UNL     1      12.296  23.017 -25.021  1.00  0.00     0.000 C 
BRANCH   9  10
ATOM     10  C   UNL     1      12.134  22.820 -26.534  1.00  0.00    -0.000 C 
BRANCH  10  11
ATOM     11  C   UNL     1      13.002  21.656 -27.034  1.00  0.00    -0.000 C 
BRANCH  11  12
ATOM     12  C   UNL     1      12.268  20.749 -28.037  1.00  0.00    -0.000 C 
BRANCH  12  13
ATOM     13  C   UNL     1      12.025  19.309 -27.553  1.00  0.00    -0.003 C 
ATOM     14  C   UNL     1      12.464  19.083 -26.106  1.00  0.00     0.004 C 
ENDBRANCH  12  13
ENDBRANCH  11  12
ENDBRANCH  10  11
ENDBRANCH   9  10
ENDBRANCH   1   9
TORSDOF 10
ENDMDL
MODEL 2
REMARK VINA RESULT:    -4.086      1.029      1.738
REMARK INTER + INTRA:          -7.304
REMARK INTER:                  -6.592
REMARK INTRA:                  -0.712
REMARK UNBOUND:                -0.828
REMARK SMILES CCCCCCCCCCCC(=O)[O-]
REMARK SMILES IDX 7 1 8 2 9 3 10 4 11 5 12 6 13 7 14 8 6 9 5 10 4 11 3 12 2 13
REMARK SMILES IDX 1 14
REMARK H PARENT
REMARK Flexibility Score: inf
ROOT
ATOM      1  C   UNL     1      13.361  21.658 -23.471  1.00  0.00     0.000 C 
ENDROOT
BRANCH   1   2
ATOM      2  C   UNL     1      12.140  22.133 -22.667  1.00  0.00     0.000 C 
BRANCH   2   3
ATOM      3  C   UNL     1      12.521  22.674 -21.277  1.00  0.00     0.000 C 
BRANCH   3   4
ATOM      4  C   UNL     1      11.970  21.807 -20.135  1.00  0.00     0.006 C 
BRANCH   4   5
ATOM      5  C   UNL     1      12.783  21.944 -18.842  1.00  0.00     0.053 C 
BRANCH   5   6
ATOM      6  C   UNL     1      13.936  20.992 -18.847  1.00  0.00     0.041 C 
ATOM      7  O   UNL     1      14.862  21.114 -18.001  1.00  0.00    -0.550 OA
ATOM      8  O   UNL     1      13.966  19.940 -19.752  1.00  0.00    -0.550 OA
ENDBRANCH   5   6
ENDBRANCH   4   5
ENDBRANCH   3   4
ENDBRANCH   2   3
ENDBRANCH   1   2
BRANCH   1   9
ATOM      9  C   UNL     1      13.767  22.648 -24.573  1.00  0.00     0.000 C 
BRANCH   9  10
ATOM     10  C   UNL     1      12.543  23.392 -25.120  1.00  0.00    -0.000 C 
BRANCH  10  11
ATOM     11  C   UNL     1      11.958  22.669 -26.342  1.00  0.00    -0.000 C 
BRANCH  11  12
ATOM     12  C   UNL     1      13.040  22.049 -27.246  1.00  0.00    -0.000 C 
BRANCH  12  13
ATOM     13  C   UNL     1      12.614  20.763 -27.976  1.00  0.00    -0.003 C 
ATOM     14  C   UNL     1      12.368  19.590 -27.027  1.00  0.00     0.004 C 
ENDBRANCH  12  13
ENDBRANCH  11  12
ENDBRANCH  10  11
ENDBRANCH   9  10
ENDBRANCH   1   9
TORSDOF 10
ENDMDL
MODEL 3
REMARK VINA RESULT:    -4.021     23.190     24.919
REMARK INTER + INTRA:          -7.201
REMARK INTER:                  -6.263
REMARK INTRA:                  -0.938
REMARK UNBOUND:                -0.828
REMARK SMILES CCCCCCCCCCCC(=O)[O-]
REMARK SMILES IDX 7 1 8 2 9 3 10 4 11 5 12 6 13 7 14 8 6 9 5 10 4 11 3 12 2 13
REMARK SMILES IDX 1 14
REMARK H PARENT
REMARK Flexibility Score: inf
ROOT
ATOM      1  C   UNL     1      31.033   5.968 -22.287  1.00  0.00     0.000 C 
ENDROOT
BRANCH   1   2
ATOM      2  C   UNL     1      30.548   4.614 -22.832  1.00  0.00     0.000 C 
BRANCH   2   3
ATOM      3  C   UNL     1      31.588   3.936 -23.741  1.00  0.00     0.000 C 
BRANCH   3   4
ATOM      4  C   UNL     1      31.160   3.918 -25.217  1.00  0.00     0.006 C 
BRANCH   4   5
ATOM      5  C   UNL     1      32.001   4.859 -26.089  1.00  0.00     0.053 C 
BRANCH   5   6
ATOM      6  C   UNL     1      31.390   6.224 -26.123  1.00  0.00     0.041 C 
ATOM      7  O   UNL     1      32.125   7.245 -26.195  1.00  0.00    -0.550 OA
ATOM      8  O   UNL     1      30.009   6.369 -26.126  1.00  0.00    -0.550 OA
ENDBRANCH   5   6
ENDBRANCH   4   5
ENDBRANCH   3   4
ENDBRANCH   2   3
ENDBRANCH   1   2
BRANCH   1   9
ATOM      9  C   UNL     1      32.032   5.819 -21.130  1.00  0.00     0.000 C 
BRANCH   9  10
ATOM     10  C   UNL     1      31.342   5.263 -19.878  1.00  0.00    -0.000 C 
BRANCH  10  11
ATOM     11  C   UNL     1      30.196   6.181 -19.427  1.00  0.00    -0.000 C 
BRANCH  11  12
ATOM     12  C   UNL     1      28.833   5.468 -19.397  1.00  0.00    -0.000 C 
BRANCH  12  13
ATOM     13  C   UNL     1      27.850   5.902 -20.499  1.00  0.00    -0.003 C 
ATOM     14  C   UNL     1      27.188   7.249 -20.212  1.00  0.00     0.004 C 
ENDBRANCH  12  13
ENDBRANCH  11  12
ENDBRANCH  10  11
ENDBRANCH   9  10
ENDBRANCH   1   9
TORSDOF 10
ENDMDL
MODEL 4
REMARK VINA RESULT:    -3.985      2.079      3.938
REMARK INTER + INTRA:          -7.143
REMARK INTER:                  -6.330
REMARK INTRA:                  -0.813
REMARK UNBOUND:                -0.828
REMARK SMILES CCCCCCCCCCCC(=O)[O-]
REMARK SMILES IDX 7 1 8 2 9 3 10 4 11 5 12 6 13 7 14 8 6 9 5 10 4 11 3 12 2 13
REMARK SMILES IDX 1 14
REMARK H PARENT
REMARK Flexibility Score: inf
ROOT
ATOM      1  C   UNL     1      13.352  22.874 -20.578  1.00  0.00     0.000 C 
ENDROOT
BRANCH   1   2
ATOM      2  C   UNL     1      12.388  22.571 -19.419  1.00  0.00     0.000 C 
BRANCH   2   3
ATOM      3  C   UNL     1      12.995  21.611 -18.381  1.00  0.00     0.000 C 
BRANCH   3   4
ATOM      4  C   UNL     1      14.211  20.845 -18.925  1.00  0.00     0.006 C 
BRANCH   4   5
ATOM      5  C   UNL     1      15.298  20.629 -17.864  1.00  0.00     0.053 C 
BRANCH   5   6
ATOM      6  C   UNL     1      16.468  21.523 -18.125  1.00  0.00     0.041 C 
ATOM      7  O   UNL     1      16.303  22.628 -18.707  1.00  0.00    -0.550 OA
ATOM      8  O   UNL     1      17.733  21.160 -17.683  1.00  0.00    -0.550 OA
ENDBRANCH   5   6
ENDBRANCH   4   5
ENDBRANCH   3   4
ENDBRANCH   2   3
ENDBRANCH   1   2
BRANCH   1   9
ATOM      9  C   UNL     1      12.626  23.089 -21.914  1.00  0.00     0.000 C 
BRANCH   9  10
ATOM     10  C   UNL     1      12.202  21.750 -22.530  1.00  0.00    -0.000 C 
BRANCH  10  11
ATOM     11  C   UNL     1      13.374  21.087 -23.268  1.00  0.00    -0.000 C 
BRANCH  11  12
ATOM     12  C   UNL     1      13.053  20.770 -24.740  1.00  0.00    -0.000 C 
BRANCH  12  13
ATOM     13  C   UNL     1      13.063  21.988 -25.682  1.00  0.00    -0.003 C 
ATOM     14  C   UNL     1      14.173  22.987 -25.355  1.00  0.00     0.004 C 
ENDBRANCH  12  13
ENDBRANCH  11  12
ENDBRANCH  10  11
ENDBRANCH   9  10
ENDBRANCH   1   9
TORSDOF 10
ENDMDL
MODEL 5
REMARK VINA RESULT:    -3.979      3.601      7.310
REMARK INTER + INTRA:          -7.133
REMARK INTER:                  -6.628
REMARK INTRA:                  -0.505
REMARK UNBOUND:                -0.828
REMARK SMILES CCCCCCCCCCCC(=O)[O-]
REMARK SMILES IDX 7 1 8 2 9 3 10 4 11 5 12 6 13 7 14 8 6 9 5 10 4 11 3 12 2 13
REMARK SMILES IDX 1 14
REMARK H PARENT
REMARK Flexibility Score: inf
ROOT
ATOM      1  C   UNL     1      12.155  22.652 -19.176  1.00  0.00     0.000 C 
ENDROOT
BRANCH   1   2
ATOM      2  C   UNL     1      12.829  23.097 -20.484  1.00  0.00     0.000 C 
BRANCH   2   3
ATOM      3  C   UNL     1      12.289  22.345 -21.713  1.00  0.00     0.000 C 
BRANCH   3   4
ATOM      4  C   UNL     1      13.286  22.332 -22.882  1.00  0.00     0.006 C 
BRANCH   4   5
ATOM      5  C   UNL     1      12.685  22.884 -24.180  1.00  0.00     0.053 C 
BRANCH   5   6
ATOM      6  C   UNL     1      13.637  22.696 -25.319  1.00  0.00     0.041 C 
ATOM      7  O   UNL     1      13.289  22.034 -26.333  1.00  0.00    -0.550 OA
ATOM      8  O   UNL     1      14.890  23.293 -25.284  1.00  0.00    -0.550 OA
ENDBRANCH   5   6
ENDBRANCH   4   5
ENDBRANCH   3   4
ENDBRANCH   2   3
ENDBRANCH   1   2
BRANCH   1   9
ATOM      9  C   UNL     1      12.948  21.562 -18.441  1.00  0.00     0.000 C 
BRANCH   9  10
ATOM     10  C   UNL     1      14.378  21.461 -18.987  1.00  0.00    -0.000 C 
BRANCH  10  11
ATOM     11  C   UNL     1      14.915  20.027 -18.865  1.00  0.00    -0.000 C 
BRANCH  11  12
ATOM     12  C   UNL     1      16.437  19.975 -18.642  1.00  0.00    -0.000 C 
BRANCH  12  13
ATOM     13  C   UNL     1      17.049  21.253 -18.043  1.00  0.00    -0.003 C 
ATOM     14  C   UNL     1      18.317  20.987 -17.233  1.00  0.00     0.004 C 
ENDBRANCH  12  13
ENDBRANCH  11  12
ENDBRANCH  10  11
ENDBRANCH   9  10
ENDBRANCH   1   9
TORSDOF 10
ENDMDL
MODEL 6
REMARK VINA RESULT:    -3.969      3.308      6.855
REMARK INTER + INTRA:          -7.118
REMARK INTER:                  -6.418
REMARK INTRA:                  -0.700
REMARK UNBOUND:                -0.828
REMARK SMILES CCCCCCCCCCCC(=O)[O-]
REMARK SMILES IDX 7 1 8 2 9 3 10 4 11 5 12 6 13 7 14 8 6 9 5 10 4 11 3 12 2 13
REMARK SMILES IDX 1 14
REMARK H PARENT
REMARK Flexibility Score: inf
ROOT
ATOM      1  C   UNL     1      13.032  23.163 -20.668  1.00  0.00     0.000 C 
ENDROOT
BRANCH   1   2
ATOM      2  C   UNL     1      12.667  22.933 -22.143  1.00  0.00     0.000 C 
BRANCH   2   3
ATOM      3  C   UNL     1      12.540  21.440 -22.495  1.00  0.00     0.000 C 
BRANCH   3   4
ATOM      4  C   UNL     1      13.375  21.051 -23.725  1.00  0.00     0.006 C 
BRANCH   4   5
ATOM      5  C   UNL     1      12.661  21.355 -25.048  1.00  0.00     0.053 C 
BRANCH   5   6
ATOM      6  C   UNL     1      13.449  22.340 -25.852  1.00  0.00     0.041 C 
ATOM      7  O   UNL     1      13.196  22.505 -27.075  1.00  0.00    -0.550 OA
ATOM      8  O   UNL     1      14.428  23.112 -25.242  1.00  0.00    -0.550 OA
ENDBRANCH   5   6
ENDBRANCH   4   5
ENDBRANCH   3   4
ENDBRANCH   2   3
ENDBRANCH   1   2
BRANCH   1   9
ATOM      9  C   UNL     1      11.975  22.609 -19.701  1.00  0.00     0.000 C 
BRANCH   9  10
ATOM     10  C   UNL     1      12.634  21.865 -18.533  1.00  0.00    -0.000 C 
BRANCH  10  11
ATOM     11  C   UNL     1      13.787  20.978 -19.026  1.00  0.00    -0.000 C 
BRANCH  11  12
ATOM     12  C   UNL     1      15.061  21.124 -18.176  1.00  0.00    -0.000 C 
BRANCH  12  13
ATOM     13  C   UNL     1      16.064  19.964 -18.308  1.00  0.00    -0.003 C 
ATOM     14  C   UNL     1      15.592  18.870 -19.265  1.00  0.00     0.004 C 
ENDBRANCH  12  13
ENDBRANCH  11  12
ENDBRANCH  10  11
ENDBRANCH   9  10
ENDBRANCH   1   9
TORSDOF 10
ENDMDL
MODEL 7
REMARK VINA RESULT:    -3.943      3.350      6.174
REMARK INTER + INTRA:          -7.076
REMARK INTER:                  -5.961
REMARK INTRA:                  -1.115
REMARK UNBOUND:                -0.828
REMARK SMILES CCCCCCCCCCCC(=O)[O-]
REMARK SMILES IDX 7 1 8 2 9 3 10 4 11 5 12 6 13 7 14 8 6 9 5 10 4 11 3 12 2 13
REMARK SMILES IDX 1 14
REMARK H PARENT
REMARK Flexibility Score: inf
ROOT
ATOM      1  C   UNL     1      12.207  22.738 -19.586  1.00  0.00     0.000 C 
ENDROOT
BRANCH   1   2
ATOM      2  C   UNL     1      13.091  23.127 -20.782  1.00  0.00     0.000 C 
BRANCH   2   3
ATOM      3  C   UNL     1      12.512  22.648 -22.125  1.00  0.00     0.000 C 
BRANCH   3   4
ATOM      4  C   UNL     1      13.583  22.047 -23.049  1.00  0.00     0.006 C 
BRANCH   4   5
ATOM      5  C   UNL     1      13.038  21.702 -24.441  1.00  0.00     0.053 C 
BRANCH   5   6
ATOM      6  C   UNL     1      13.721  22.526 -25.487  1.00  0.00     0.041 C 
ATOM      7  O   UNL     1      14.656  23.307 -25.168  1.00  0.00    -0.550 OA
ATOM      8  O   UNL     1      13.359  22.395 -26.821  1.00  0.00    -0.550 OA
ENDBRANCH   5   6
ENDBRANCH   4   5
ENDBRANCH   3   4
ENDBRANCH   2   3
ENDBRANCH   1   2
BRANCH   1   9
ATOM      9  C   UNL     1      12.756  21.531 -18.810  1.00  0.00     0.000 C 
BRANCH   9  10
ATOM     10  C   UNL     1      14.269  21.385 -19.021  1.00  0.00    -0.000 C 
BRANCH  10  11
ATOM     11  C   UNL     1      14.633  19.950 -19.427  1.00  0.00    -0.000 C 
BRANCH  11  12
ATOM     12  C   UNL     1      13.703  19.380 -20.513  1.00  0.00    -0.000 C 
BRANCH  12  13
ATOM     13  C   UNL     1      14.423  18.682 -21.681  1.00  0.00    -0.003 C 
ATOM     14  C   UNL     1      15.769  18.080 -21.280  1.00  0.00     0.004 C 
ENDBRANCH  12  13
ENDBRANCH  11  12
ENDBRANCH  10  11
ENDBRANCH   9  10
ENDBRANCH   1   9
TORSDOF 10
ENDMDL
MODEL 8
REMARK VINA RESULT:    -3.890      3.675      6.931
REMARK INTER + INTRA:          -6.992
REMARK INTER:                  -6.369
REMARK INTRA:                  -0.623
REMARK UNBOUND:                -0.828
REMARK SMILES CCCCCCCCCCCC(=O)[O-]
REMARK SMILES IDX 7 1 8 2 9 3 10 4 11 5 12 6 13 7 14 8 6 9 5 10 4 11 3 12 2 13
REMARK SMILES IDX 1 14
REMARK H PARENT
REMARK Flexibility Score: inf
ROOT
ATOM      1  C   UNL     1      12.996  22.405 -22.564  1.00  0.00     0.000 C 
ENDROOT
BRANCH   1   2
ATOM      2  C   UNL     1      12.576  23.448 -23.613  1.00  0.00     0.000 C 
BRANCH   2   3
ATOM      3  C   UNL     1      13.441  23.388 -24.884  1.00  0.00     0.000 C 
BRANCH   3   4
ATOM      4  C   UNL     1      13.409  22.005 -25.555  1.00  0.00     0.006 C 
BRANCH   4   5
ATOM      5  C   UNL     1      13.028  22.075 -27.039  1.00  0.00     0.053 C 
BRANCH   5   6
ATOM      6  C   UNL     1      12.432  20.778 -27.486  1.00  0.00     0.041 C 
ATOM      7  O   UNL     1      12.239  19.850 -26.657  1.00  0.00    -0.550 OA
ATOM      8  O   UNL     1      12.042  20.611 -28.808  1.00  0.00    -0.550 OA
ENDBRANCH   5   6
ENDBRANCH   4   5
ENDBRANCH   3   4
ENDBRANCH   2   3
ENDBRANCH   1   2
BRANCH   1   9
ATOM      9  C   UNL     1      13.035  22.978 -21.139  1.00  0.00     0.000 C 
BRANCH   9  10
ATOM     10  C   UNL     1      11.950  22.342 -20.262  1.00  0.00    -0.000 C 
BRANCH  10  11
ATOM     11  C   UNL     1      12.566  21.660 -19.031  1.00  0.00    -0.000 C 
BRANCH  11  12
ATOM     12  C   UNL     1      14.102  21.592 -19.090  1.00  0.00    -0.000 C 
BRANCH  12  13
ATOM     13  C   UNL     1      14.688  20.169 -19.098  1.00  0.00    -0.003 C 
ATOM     14  C   UNL     1      14.173  19.317 -20.257  1.00  0.00     0.004 C 
ENDBRANCH  12  13
ENDBRANCH  11  12
ENDBRANCH  10  11
ENDBRANCH   9  10
ENDBRANCH   1   9
TORSDOF 10
ENDMDL
MODEL 9
REMARK VINA RESULT:    -3.797     22.475     23.697
REMARK INTER + INTRA:          -6.845
REMARK INTER:                  -6.244
REMARK INTRA:                  -0.601
REMARK UNBOUND:                -0.828
REMARK SMILES CCCCCCCCCCCC(=O)[O-]
REMARK SMILES IDX 7 1 8 2 9 3 10 4 11 5 12 6 13 7 14 8 6 9 5 10 4 11 3 12 2 13
REMARK SMILES IDX 1 14
REMARK H PARENT
REMARK Flexibility Score: inf
ROOT
ATOM      1  C   UNL     1      30.974   6.099 -22.670  1.00  0.00     0.000 C 
ENDROOT
BRANCH   1   2
ATOM      2  C   UNL     1      31.037   4.990 -21.607  1.00  0.00     0.000 C 
BRANCH   2   3
ATOM      3  C   UNL     1      31.031   5.545 -20.172  1.00  0.00     0.000 C 
BRANCH   3   4
ATOM      4  C   UNL     1      29.787   5.114 -19.378  1.00  0.00     0.006 C 
BRANCH   4   5
ATOM      5  C   UNL     1      28.482   5.354 -20.145  1.00  0.00     0.053 C 
BRANCH   5   6
ATOM      6  C   UNL     1      27.839   6.628 -19.696  1.00  0.00     0.041 C 
ATOM      7  O   UNL     1      28.187   7.165 -18.611  1.00  0.00    -0.550 OA
ATOM      8  O   UNL     1      26.891   7.250 -20.498  1.00  0.00    -0.550 OA
ENDBRANCH   5   6
ENDBRANCH   4   5
ENDBRANCH   3   4
ENDBRANCH   2   3
ENDBRANCH   1   2
BRANCH   1   9
ATOM      9  C   UNL     1      31.263   5.581 -24.086  1.00  0.00     0.000 C 
BRANCH   9  10
ATOM     10  C   UNL     1      31.124   6.705 -25.121  1.00  0.00    -0.000 C 
BRANCH  10  11
ATOM     11  C   UNL     1      31.218   6.152 -26.551  1.00  0.00    -0.000 C 
BRANCH  11  12
ATOM     12  C   UNL     1      31.370   4.621 -26.593  1.00  0.00    -0.000 C 
BRANCH  12  13
ATOM     13  C   UNL     1      30.217   3.875 -27.289  1.00  0.00    -0.003 C 
ATOM     14  C   UNL     1      28.870   4.074 -26.594  1.00  0.00     0.004 C 
ENDBRANCH  12  13
ENDBRANCH  11  12
ENDBRANCH  10  11
ENDBRANCH   9  10
ENDBRANCH   1   9
TORSDOF 10
ENDMDL
