MODEL 1
REMARK VINA RESULT:    10.601      0.000      0.000
REMARK INTER + INTRA:          26.861
REMARK INTER:                  27.954
REMARK INTRA:                  -1.093
REMARK UNBOUND:                -1.093
REMARK SMILES CCCCCCCCCCCCCCCCCCCCCCCCCCCCCC(=O)[O-]
REMARK SMILES IDX 16 1 17 2 18 3 19 4 20 5 21 6 22 7 23 8 24 9 25 10 26 11
REMARK SMILES IDX 27 12 28 13 29 14 30 15 31 16 32 17 15 18 14 19 13 20 12 21
REMARK SMILES IDX 11 22 10 23 9 24 8 25 7 26 6 27 5 28 4 29 3 30 2 31 1 32
REMARK H PARENT
REMARK Flexibility Score: inf
ROOT
ATOM      1  C   UNL     1       3.463   3.142   2.166  1.00  0.00     0.000 C 
ENDROOT
BRANCH   1   2
ATOM      2  C   UNL     1       2.130   3.635   1.583  1.00  0.00     0.000 C 
BRANCH   2   3
ATOM      3  C   UNL     1       2.315   4.458   0.295  1.00  0.00     0.000 C 
BRANCH   3   4
ATOM      4  C   UNL     1       2.966   3.694  -0.875  1.00  0.00     0.000 C 
BRANCH   4   5
ATOM      5  C   UNL     1       2.936   2.159  -0.743  1.00  0.00     0.000 C 
BRANCH   5   6
ATOM      6  C   UNL     1       2.606   1.395  -2.043  1.00  0.00     0.000 C 
BRANCH   6   7
ATOM      7  C   UNL     1       1.721   0.145  -1.869  1.00  0.00     0.000 C 
BRANCH   7   8
ATOM      8  C   UNL     1       1.074   0.047  -0.478  1.00  0.00     0.000 C 
BRANCH   8   9
ATOM      9  C   UNL     1      -0.062  -0.988  -0.419  1.00  0.00     0.000 C 
BRANCH   9  10
ATOM     10  C   UNL     1      -0.832  -1.164  -1.748  1.00  0.00     0.000 C 
BRANCH  10  11
ATOM     11  C   UNL     1      -2.239  -0.529  -1.779  1.00  0.00     0.000 C 
BRANCH  11  12
ATOM     12  C   UNL     1      -3.379  -1.381  -1.181  1.00  0.00     0.000 C 
BRANCH  12  13
ATOM     13  C   UNL     1      -2.926  -2.585  -0.337  1.00  0.00     0.006 C 
BRANCH  13  14
ATOM     14  C   UNL     1      -3.663  -3.879  -0.708  1.00  0.00     0.053 C 
BRANCH  14  15
ATOM     15  C   UNL     1      -2.713  -5.032  -0.754  1.00  0.00     0.041 C 
ATOM     16  O   UNL     1      -1.523  -4.857  -1.130  1.00  0.00    -0.550 OA
ATOM     17  O   UNL     1      -3.146  -6.307  -0.415  1.00  0.00    -0.550 OA
ENDBRANCH  14  15
ENDBRANCH  13  14
ENDBRANCH  12  13
ENDBRANCH  11  12
ENDBRANCH  10  11
ENDBRANCH   9  10
ENDBRANCH   8   9
ENDBRANCH   7   8
ENDBRANCH   6   7
ENDBRANCH   5   6
ENDBRANCH   4   5
ENDBRANCH   3   4
ENDBRANCH   2   3
ENDBRANCH   1   2
BRANCH   1  18
ATOM     18  C   UNL     1       4.022   4.136   3.196  1.00  0.00     0.000 C 
BRANCH  18  19
ATOM     19  C   UNL     1       4.601   3.439   4.441  1.00  0.00     0.000 C 
BRANCH  19  20
ATOM     20  C   UNL     1       5.998   3.934   4.870  1.00  0.00     0.000 C 
BRANCH  20  21
ATOM     21  C   UNL     1       6.617   3.177   6.063  1.00  0.00     0.000 C 
BRANCH  21  22
ATOM     22  C   UNL     1       7.232   4.076   7.155  1.00  0.00     0.000 C 
BRANCH  22  23
ATOM     23  C   UNL     1       8.711   3.787   7.476  1.00  0.00     0.000 C 
BRANCH  23  24
ATOM     24  C   UNL     1       8.939   2.369   8.019  1.00  0.00    -0.000 C 
BRANCH  24  25
ATOM     25  C   UNL     1       9.463   2.411   9.462  1.00  0.00    -0.000 C 
BRANCH  25  26
ATOM     26  C   UNL     1       9.870   1.023   9.983  1.00  0.00    -0.000 C 
BRANCH  26  27
ATOM     27  C   UNL     1       9.141  -0.119   9.256  1.00  0.00    -0.000 C 
BRANCH  27  28
ATOM     28  C   UNL     1       7.931  -0.645  10.056  1.00  0.00    -0.000 C 
BRANCH  28  29
ATOM     29  C   UNL     1       6.628  -0.714   9.239  1.00  0.00    -0.000 C 
BRANCH  29  30
ATOM     30  C   UNL     1       5.374  -0.820  10.124  1.00  0.00    -0.000 C 
BRANCH  30  31
ATOM     31  C   UNL     1       4.348   0.285   9.825  1.00  0.00    -0.003 C 
ATOM     32  C   UNL     1       2.911  -0.145  10.122  1.00  0.00     0.004 C 
ENDBRANCH  30  31
ENDBRANCH  29  30
ENDBRANCH  28  29
ENDBRANCH  27  28
ENDBRANCH  26  27
ENDBRANCH  25  26
ENDBRANCH  24  25
ENDBRANCH  23  24
ENDBRANCH  22  23
ENDBRANCH  21  22
ENDBRANCH  20  21
ENDBRANCH  19  20
ENDBRANCH  18  19
ENDBRANCH   1  18
TORSDOF 28
ENDMDL
MODEL 2
REMARK VINA RESULT:    11.123      7.303     12.375
REMARK INTER + INTRA:          28.236
REMARK INTER:                  28.742
REMARK INTRA:                  -0.506
REMARK UNBOUND:                -1.093
REMARK SMILES CCCCCCCCCCCCCCCCCCCCCCCCCCCCCC(=O)[O-]
REMARK SMILES IDX 16 1 17 2 18 3 19 4 20 5 21 6 22 7 23 8 24 9 25 10 26 11
REMARK SMILES IDX 27 12 28 13 29 14 30 15 31 16 32 17 15 18 14 19 13 20 12 21
REMARK SMILES IDX 11 22 10 23 9 24 8 25 7 26 6 27 5 28 4 29 3 30 2 31 1 32
REMARK H PARENT
REMARK Flexibility Score: inf
ROOT
ATOM      1  C   UNL     1      -3.463  -4.898   1.288  1.00  0.00     0.000 C 
ENDROOT
BRANCH   1   2
ATOM      2  C   UNL     1      -3.312  -4.227  -0.086  1.00  0.00     0.000 C 
BRANCH   2   3
ATOM      3  C   UNL     1      -2.613  -2.859  -0.004  1.00  0.00     0.000 C 
BRANCH   3   4
ATOM      4  C   UNL     1      -3.378  -1.698  -0.670  1.00  0.00     0.000 C 
BRANCH   4   5
ATOM      5  C   UNL     1      -2.784  -1.212  -2.006  1.00  0.00     0.000 C 
BRANCH   5   6
ATOM      6  C   UNL     1      -1.452  -0.441  -1.891  1.00  0.00     0.000 C 
BRANCH   6   7
ATOM      7  C   UNL     1      -1.191   0.229  -0.528  1.00  0.00     0.000 C 
BRANCH   7   8
ATOM      8  C   UNL     1       0.044  -0.329   0.199  1.00  0.00     0.000 C 
BRANCH   8   9
ATOM      9  C   UNL     1       0.945  -1.174  -0.718  1.00  0.00     0.000 C 
BRANCH   9  10
ATOM     10  C   UNL     1       1.684  -0.363  -1.806  1.00  0.00     0.000 C 
BRANCH  10  11
ATOM     11  C   UNL     1       2.350   0.940  -1.313  1.00  0.00     0.000 C 
BRANCH  11  12
ATOM     12  C   UNL     1       1.390   2.073  -0.893  1.00  0.00     0.000 C 
BRANCH  12  13
ATOM     13  C   UNL     1       1.918   3.501  -1.115  1.00  0.00     0.006 C 
BRANCH  13  14
ATOM     14  C   UNL     1       2.728   4.026   0.078  1.00  0.00     0.053 C 
BRANCH  14  15
ATOM     15  C   UNL     1       3.337   5.354  -0.242  1.00  0.00     0.041 C 
ATOM     16  O   UNL     1       4.552   5.570   0.009  1.00  0.00    -0.550 OA
ATOM     17  O   UNL     1       2.556   6.365  -0.788  1.00  0.00    -0.550 OA
ENDBRANCH  14  15
ENDBRANCH  13  14
ENDBRANCH  12  13
ENDBRANCH  11  12
ENDBRANCH  10  11
ENDBRANCH   9  10
ENDBRANCH   8   9
ENDBRANCH   7   8
ENDBRANCH   6   7
ENDBRANCH   5   6
ENDBRANCH   4   5
ENDBRANCH   3   4
ENDBRANCH   2   3
ENDBRANCH   1   2
BRANCH   1  18
ATOM     18  C   UNL     1      -4.031  -3.919   2.325  1.00  0.00     0.000 C 
BRANCH  18  19
ATOM     19  C   UNL     1      -4.575  -4.629   3.578  1.00  0.00     0.000 C 
BRANCH  19  20
ATOM     20  C   UNL     1      -5.457  -3.752   4.491  1.00  0.00     0.000 C 
BRANCH  20  21
ATOM     21  C   UNL     1      -6.890  -4.277   4.710  1.00  0.00     0.000 C 
BRANCH  21  22
ATOM     22  C   UNL     1      -7.430  -4.115   6.145  1.00  0.00     0.000 C 
BRANCH  22  23
ATOM     23  C   UNL     1      -8.342  -5.259   6.629  1.00  0.00     0.000 C 
BRANCH  23  24
ATOM     24  C   UNL     1      -8.687  -5.158   8.122  1.00  0.00    -0.000 C 
BRANCH  24  25
ATOM     25  C   UNL     1      -9.763  -4.089   8.365  1.00  0.00    -0.000 C 
BRANCH  25  26
ATOM     26  C   UNL     1      -9.260  -2.936   9.249  1.00  0.00    -0.000 C 
BRANCH  26  27
ATOM     27  C   UNL     1     -10.063  -1.640   9.044  1.00  0.00    -0.000 C 
BRANCH  27  28
ATOM     28  C   UNL     1      -9.524  -0.476   9.901  1.00  0.00    -0.000 C 
BRANCH  28  29
ATOM     29  C   UNL     1      -7.998  -0.505  10.100  1.00  0.00    -0.000 C 
BRANCH  29  30
ATOM     30  C   UNL     1      -7.302   0.760   9.567  1.00  0.00    -0.000 C 
BRANCH  30  31
ATOM     31  C   UNL     1      -5.871   0.484   9.080  1.00  0.00    -0.003 C 
ATOM     32  C   UNL     1      -5.017  -0.234  10.125  1.00  0.00     0.004 C 
ENDBRANCH  30  31
ENDBRANCH  29  30
ENDBRANCH  28  29
ENDBRANCH  27  28
ENDBRANCH  26  27
ENDBRANCH  25  26
ENDBRANCH  24  25
ENDBRANCH  23  24
ENDBRANCH  22  23
ENDBRANCH  21  22
ENDBRANCH  20  21
ENDBRANCH  19  20
ENDBRANCH  18  19
ENDBRANCH   1  18
TORSDOF 28
ENDMDL
MODEL 3
REMARK VINA RESULT:    11.885      1.482      2.355
REMARK INTER + INTRA:          30.248
REMARK INTER:                  29.175
REMARK INTRA:                   1.072
REMARK UNBOUND:                -1.093
REMARK SMILES CCCCCCCCCCCCCCCCCCCCCCCCCCCCCC(=O)[O-]
REMARK SMILES IDX 16 1 17 2 18 3 19 4 20 5 21 6 22 7 23 8 24 9 25 10 26 11
REMARK SMILES IDX 27 12 28 13 29 14 30 15 31 16 32 17 15 18 14 19 13 20 12 21
REMARK SMILES IDX 11 22 10 23 9 24 8 25 7 26 6 27 5 28 4 29 3 30 2 31 1 32
REMARK H PARENT
REMARK Flexibility Score: inf
ROOT
ATOM      1  C   UNL     1       3.822   4.004   3.106  1.00  0.00     0.000 C 
ENDROOT
BRANCH   1   2
ATOM      2  C   UNL     1       3.680   3.758   1.596  1.00  0.00     0.000 C 
BRANCH   2   3
ATOM      3  C   UNL     1       3.737   5.059   0.776  1.00  0.00     0.000 C 
BRANCH   3   4
ATOM      4  C   UNL     1       2.823   5.085  -0.465  1.00  0.00     0.000 C 
BRANCH   4   5
ATOM      5  C   UNL     1       2.051   3.778  -0.728  1.00  0.00     0.000 C 
BRANCH   5   6
ATOM      6  C   UNL     1       2.898   2.489  -0.656  1.00  0.00     0.000 C 
BRANCH   6   7
ATOM      7  C   UNL     1       2.124   1.209  -0.286  1.00  0.00     0.000 C 
BRANCH   7   8
ATOM      8  C   UNL     1       1.021   0.852  -1.295  1.00  0.00     0.000 C 
BRANCH   8   9
ATOM      9  C   UNL     1      -0.393   1.139  -0.762  1.00  0.00     0.000 C 
BRANCH   9  10
ATOM     10  C   UNL     1      -1.532   0.660  -1.691  1.00  0.00     0.000 C 
BRANCH  10  11
ATOM     11  C   UNL     1      -1.306  -0.720  -2.348  1.00  0.00     0.000 C 
BRANCH  11  12
ATOM     12  C   UNL     1      -1.641  -1.947  -1.473  1.00  0.00     0.000 C 
BRANCH  12  13
ATOM     13  C   UNL     1      -2.856  -1.782  -0.545  1.00  0.00     0.006 C 
BRANCH  13  14
ATOM     14  C   UNL     1      -3.492  -3.124  -0.156  1.00  0.00     0.053 C 
BRANCH  14  15
ATOM     15  C   UNL     1      -2.581  -4.258  -0.501  1.00  0.00     0.041 C 
ATOM     16  O   UNL     1      -1.376  -4.236  -0.137  1.00  0.00    -0.550 OA
ATOM     17  O   UNL     1      -3.053  -5.326  -1.254  1.00  0.00    -0.550 OA
ENDBRANCH  14  15
ENDBRANCH  13  14
ENDBRANCH  12  13
ENDBRANCH  11  12
ENDBRANCH  10  11
ENDBRANCH   9  10
ENDBRANCH   8   9
ENDBRANCH   7   8
ENDBRANCH   6   7
ENDBRANCH   5   6
ENDBRANCH   4   5
ENDBRANCH   3   4
ENDBRANCH   2   3
ENDBRANCH   1   2
BRANCH   1  18
ATOM     18  C   UNL     1       5.260   4.402   3.473  1.00  0.00     0.000 C 
BRANCH  18  19
ATOM     19  C   UNL     1       5.697   3.855   4.844  1.00  0.00     0.000 C 
BRANCH  19  20
ATOM     20  C   UNL     1       7.223   3.791   5.059  1.00  0.00     0.000 C 
BRANCH  20  21
ATOM     21  C   UNL     1       7.716   4.382   6.396  1.00  0.00     0.000 C 
BRANCH  21  22
ATOM     22  C   UNL     1       9.215   4.746   6.433  1.00  0.00     0.000 C 
BRANCH  22  23
ATOM     23  C   UNL     1       9.578   5.904   7.381  1.00  0.00     0.000 C 
BRANCH  23  24
ATOM     24  C   UNL     1       8.822   5.844   8.717  1.00  0.00    -0.000 C 
BRANCH  24  25
ATOM     25  C   UNL     1       9.713   5.264   9.826  1.00  0.00    -0.000 C 
BRANCH  25  26
ATOM     26  C   UNL     1       9.431   3.777  10.093  1.00  0.00    -0.000 C 
BRANCH  26  27
ATOM     27  C   UNL     1       8.966   3.027   8.833  1.00  0.00    -0.000 C 
BRANCH  27  28
ATOM     28  C   UNL     1       9.525   1.590   8.768  1.00  0.00    -0.000 C 
BRANCH  28  29
ATOM     29  C   UNL     1       9.365   0.801  10.079  1.00  0.00    -0.000 C 
BRANCH  29  30
ATOM     30  C   UNL     1       9.806  -0.667   9.951  1.00  0.00    -0.000 C 
BRANCH  30  31
ATOM     31  C   UNL     1       8.635  -1.651  10.108  1.00  0.00    -0.003 C 
ATOM     32  C   UNL     1       7.295  -1.048   9.689  1.00  0.00     0.004 C 
ENDBRANCH  30  31
ENDBRANCH  29  30
ENDBRANCH  28  29
ENDBRANCH  27  28
ENDBRANCH  26  27
ENDBRANCH  25  26
ENDBRANCH  24  25
ENDBRANCH  23  24
ENDBRANCH  22  23
ENDBRANCH  21  22
ENDBRANCH  20  21
ENDBRANCH  19  20
ENDBRANCH  18  19
ENDBRANCH   1  18
TORSDOF 28
ENDMDL
MODEL 4
REMARK VINA RESULT:    11.944      3.531     12.205
REMARK INTER + INTRA:          30.401
REMARK INTER:                  31.248
REMARK INTRA:                  -0.847
REMARK UNBOUND:                -1.093
REMARK SMILES CCCCCCCCCCCCCCCCCCCCCCCCCCCCCC(=O)[O-]
REMARK SMILES IDX 16 1 17 2 18 3 19 4 20 5 21 6 22 7 23 8 24 9 25 10 26 11
REMARK SMILES IDX 27 12 28 13 29 14 30 15 31 16 32 17 15 18 14 19 13 20 12 21
REMARK SMILES IDX 11 22 10 23 9 24 8 25 7 26 6 27 5 28 4 29 3 30 2 31 1 32
REMARK H PARENT
REMARK Flexibility Score: inf
ROOT
ATOM      1  C   UNL     1       2.006   4.226   1.352  1.00  0.00     0.000 C 
ENDROOT
BRANCH   1   2
ATOM      2  C   UNL     1       3.444   3.798   1.680  1.00  0.00     0.000 C 
BRANCH   2   3
ATOM      3  C   UNL     1       3.938   4.360   3.025  1.00  0.00     0.000 C 
BRANCH   3   4
ATOM      4  C   UNL     1       4.703   3.354   3.908  1.00  0.00     0.000 C 
BRANCH   4   5
ATOM      5  C   UNL     1       5.430   3.974   5.117  1.00  0.00     0.000 C 
BRANCH   5   6
ATOM      6  C   UNL     1       6.750   3.281   5.515  1.00  0.00     0.000 C 
BRANCH   6   7
ATOM      7  C   UNL     1       7.243   3.571   6.946  1.00  0.00     0.000 C 
BRANCH   7   8
ATOM      8  C   UNL     1       8.400   4.582   6.998  1.00  0.00     0.000 C 
BRANCH   8   9
ATOM      9  C   UNL     1       9.286   4.413   8.244  1.00  0.00     0.000 C 
BRANCH   9  10
ATOM     10  C   UNL     1      10.016   3.054   8.326  1.00  0.00     0.000 C 
BRANCH  10  11
ATOM     11  C   UNL     1       9.311   1.982   9.187  1.00  0.00     0.000 C 
BRANCH  11  12
ATOM     12  C   UNL     1       9.902   0.558   9.110  1.00  0.00     0.000 C 
BRANCH  12  13
ATOM     13  C   UNL     1       8.925  -0.579   9.453  1.00  0.00     0.006 C 
BRANCH  13  14
ATOM     14  C   UNL     1       7.589  -0.066  10.010  1.00  0.00     0.053 C 
BRANCH  14  15
ATOM     15  C   UNL     1       6.478  -1.002   9.659  1.00  0.00     0.041 C 
ATOM     16  O   UNL     1       6.466  -2.173  10.123  1.00  0.00    -0.550 OA
ATOM     17  O   UNL     1       5.471  -0.595   8.794  1.00  0.00    -0.550 OA
ENDBRANCH  14  15
ENDBRANCH  13  14
ENDBRANCH  12  13
ENDBRANCH  11  12
ENDBRANCH  10  11
ENDBRANCH   9  10
ENDBRANCH   8   9
ENDBRANCH   7   8
ENDBRANCH   6   7
ENDBRANCH   5   6
ENDBRANCH   4   5
ENDBRANCH   3   4
ENDBRANCH   2   3
ENDBRANCH   1   2
BRANCH   1  18
ATOM     18  C   UNL     1       1.816   4.428  -0.158  1.00  0.00     0.000 C 
BRANCH  18  19
ATOM     19  C   UNL     1       1.200   3.198  -0.850  1.00  0.00     0.000 C 
BRANCH  19  20
ATOM     20  C   UNL     1       2.208   2.303  -1.599  1.00  0.00     0.000 C 
BRANCH  20  21
ATOM     21  C   UNL     1       2.949   1.279  -0.716  1.00  0.00     0.000 C 
BRANCH  21  22
ATOM     22  C   UNL     1       2.047   0.218  -0.053  1.00  0.00     0.000 C 
BRANCH  22  23
ATOM     23  C   UNL     1       1.564  -0.903  -0.992  1.00  0.00     0.000 C 
BRANCH  23  24
ATOM     24  C   UNL     1       0.461  -0.442  -1.956  1.00  0.00    -0.000 C 
BRANCH  24  25
ATOM     25  C   UNL     1      -0.840  -0.139  -1.197  1.00  0.00    -0.000 C 
BRANCH  25  26
ATOM     26  C   UNL     1      -2.085  -0.248  -2.092  1.00  0.00    -0.000 C 
BRANCH  26  27
ATOM     27  C   UNL     1      -2.970  -1.453  -1.730  1.00  0.00    -0.000 C 
BRANCH  27  28
ATOM     28  C   UNL     1      -2.335  -2.338  -0.638  1.00  0.00    -0.000 C 
BRANCH  28  29
ATOM     29  C   UNL     1      -3.102  -3.646  -0.374  1.00  0.00    -0.000 C 
BRANCH  29  30
ATOM     30  C   UNL     1      -2.343  -4.892  -0.860  1.00  0.00    -0.000 C 
BRANCH  30  31
ATOM     31  C   UNL     1      -1.003  -5.087  -0.133  1.00  0.00    -0.003 C 
ATOM     32  C   UNL     1      -0.078  -3.877  -0.260  1.00  0.00     0.004 C 
ENDBRANCH  30  31
ENDBRANCH  29  30
ENDBRANCH  28  29
ENDBRANCH  27  28
ENDBRANCH  26  27
ENDBRANCH  25  26
ENDBRANCH  24  25
ENDBRANCH  23  24
ENDBRANCH  22  23
ENDBRANCH  21  22
ENDBRANCH  20  21
ENDBRANCH  19  20
ENDBRANCH  18  19
ENDBRANCH   1  18
TORSDOF 28
ENDMDL
MODEL 5
REMARK VINA RESULT:    12.206      2.048      3.293
REMARK INTER + INTRA:          31.094
REMARK INTER:                  31.133
REMARK INTRA:                  -0.039
REMARK UNBOUND:                -1.093
REMARK SMILES CCCCCCCCCCCCCCCCCCCCCCCCCCCCCC(=O)[O-]
REMARK SMILES IDX 16 1 17 2 18 3 19 4 20 5 21 6 22 7 23 8 24 9 25 10 26 11
REMARK SMILES IDX 27 12 28 13 29 14 30 15 31 16 32 17 15 18 14 19 13 20 12 21
REMARK SMILES IDX 11 22 10 23 9 24 8 25 7 26 6 27 5 28 4 29 3 30 2 31 1 32
REMARK H PARENT
REMARK Flexibility Score: inf
ROOT
ATOM      1  C   UNL     1       3.471   3.456   0.856  1.00  0.00     0.000 C 
ENDROOT
BRANCH   1   2
ATOM      2  C   UNL     1       2.658   3.778  -0.406  1.00  0.00     0.000 C 
BRANCH   2   3
ATOM      3  C   UNL     1       1.839   2.574  -0.907  1.00  0.00     0.000 C 
BRANCH   3   4
ATOM      4  C   UNL     1       2.667   1.462  -1.581  1.00  0.00     0.000 C 
BRANCH   4   5
ATOM      5  C   UNL     1       1.882   0.174  -1.900  1.00  0.00     0.000 C 
BRANCH   5   6
ATOM      6  C   UNL     1       1.055  -0.397  -0.730  1.00  0.00     0.000 C 
BRANCH   6   7
ATOM      7  C   UNL     1       0.036   0.575  -0.103  1.00  0.00     0.000 C 
BRANCH   7   8
ATOM      8  C   UNL     1      -0.627   1.507  -1.131  1.00  0.00     0.000 C 
BRANCH   8   9
ATOM      9  C   UNL     1      -2.065   1.086  -1.479  1.00  0.00     0.000 C 
BRANCH   9  10
ATOM     10  C   UNL     1      -2.165  -0.224  -2.292  1.00  0.00     0.000 C 
BRANCH  10  11
ATOM     11  C   UNL     1      -2.789  -1.419  -1.538  1.00  0.00     0.000 C 
BRANCH  11  12
ATOM     12  C   UNL     1      -2.202  -2.808  -1.868  1.00  0.00     0.000 C 
BRANCH  12  13
ATOM     13  C   UNL     1      -1.562  -3.551  -0.683  1.00  0.00     0.006 C 
BRANCH  13  14
ATOM     14  C   UNL     1      -1.941  -5.038  -0.641  1.00  0.00     0.053 C 
BRANCH  14  15
ATOM     15  C   UNL     1      -3.274  -5.223   0.011  1.00  0.00     0.041 C 
ATOM     16  O   UNL     1      -4.102  -6.045  -0.464  1.00  0.00    -0.550 OA
ATOM     17  O   UNL     1      -3.617  -4.466   1.124  1.00  0.00    -0.550 OA
ENDBRANCH  14  15
ENDBRANCH  13  14
ENDBRANCH  12  13
ENDBRANCH  11  12
ENDBRANCH  10  11
ENDBRANCH   9  10
ENDBRANCH   8   9
ENDBRANCH   7   8
ENDBRANCH   6   7
ENDBRANCH   5   6
ENDBRANCH   4   5
ENDBRANCH   3   4
ENDBRANCH   2   3
ENDBRANCH   1   2
BRANCH   1  18
ATOM     18  C   UNL     1       2.936   4.224   2.074  1.00  0.00     0.000 C 
BRANCH  18  19
ATOM     19  C   UNL     1       4.033   4.536   3.108  1.00  0.00     0.000 C 
BRANCH  19  20
ATOM     20  C   UNL     1       4.357   3.381   4.078  1.00  0.00     0.000 C 
BRANCH  20  21
ATOM     21  C   UNL     1       5.860   3.148   4.332  1.00  0.00     0.000 C 
BRANCH  21  22
ATOM     22  C   UNL     1       6.379   3.669   5.688  1.00  0.00     0.000 C 
BRANCH  22  23
ATOM     23  C   UNL     1       7.904   3.574   5.880  1.00  0.00     0.000 C 
BRANCH  23  24
ATOM     24  C   UNL     1       8.445   4.592   6.895  1.00  0.00    -0.000 C 
BRANCH  24  25
ATOM     25  C   UNL     1       7.336   5.052   7.854  1.00  0.00    -0.000 C 
BRANCH  25  26
ATOM     26  C   UNL     1       7.893   5.673   9.145  1.00  0.00    -0.000 C 
BRANCH  26  27
ATOM     27  C   UNL     1       9.426   5.800   9.127  1.00  0.00    -0.000 C 
BRANCH  27  28
ATOM     28  C   UNL     1      10.113   4.722   9.991  1.00  0.00    -0.000 C 
BRANCH  28  29
ATOM     29  C   UNL     1       9.332   3.397  10.068  1.00  0.00    -0.000 C 
BRANCH  29  30
ATOM     30  C   UNL     1      10.101   2.214   9.456  1.00  0.00    -0.000 C 
BRANCH  30  31
ATOM     31  C   UNL     1       9.751   0.875  10.125  1.00  0.00    -0.003 C 
ATOM     32  C   UNL     1       9.428  -0.226   9.114  1.00  0.00     0.004 C 
ENDBRANCH  30  31
ENDBRANCH  29  30
ENDBRANCH  28  29
ENDBRANCH  27  28
ENDBRANCH  26  27
ENDBRANCH  25  26
ENDBRANCH  24  25
ENDBRANCH  23  24
ENDBRANCH  22  23
ENDBRANCH  21  22
ENDBRANCH  20  21
ENDBRANCH  19  20
ENDBRANCH  18  19
ENDBRANCH   1  18
TORSDOF 28
ENDMDL
MODEL 6
REMARK VINA RESULT:    12.304      2.745      6.245
REMARK INTER + INTRA:          31.353
REMARK INTER:                  29.758
REMARK INTRA:                   1.595
REMARK UNBOUND:                -1.093
REMARK SMILES CCCCCCCCCCCCCCCCCCCCCCCCCCCCCC(=O)[O-]
REMARK SMILES IDX 16 1 17 2 18 3 19 4 20 5 21 6 22 7 23 8 24 9 25 10 26 11
REMARK SMILES IDX 27 12 28 13 29 14 30 15 31 16 32 17 15 18 14 19 13 20 12 21
REMARK SMILES IDX 11 22 10 23 9 24 8 25 7 26 6 27 5 28 4 29 3 30 2 31 1 32
REMARK H PARENT
REMARK Flexibility Score: inf
ROOT
ATOM      1  C   UNL     1      -0.582   2.221  -0.989  1.00  0.00     0.000 C 
ENDROOT
BRANCH   1   2
ATOM      2  C   UNL     1      -1.016   0.818  -0.536  1.00  0.00     0.000 C 
BRANCH   2   3
ATOM      3  C   UNL     1      -1.237  -0.144  -1.717  1.00  0.00     0.000 C 
BRANCH   3   4
ATOM      4  C   UNL     1      -2.687  -0.640  -1.887  1.00  0.00     0.000 C 
BRANCH   4   5
ATOM      5  C   UNL     1      -3.363  -1.123  -0.590  1.00  0.00     0.000 C 
BRANCH   5   6
ATOM      6  C   UNL     1      -2.814  -2.447  -0.017  1.00  0.00     0.000 C 
BRANCH   6   7
ATOM      7  C   UNL     1      -3.293  -3.726  -0.731  1.00  0.00     0.000 C 
BRANCH   7   8
ATOM      8  C   UNL     1      -2.141  -4.634  -1.190  1.00  0.00     0.000 C 
BRANCH   8   9
ATOM      9  C   UNL     1      -1.064  -4.826  -0.109  1.00  0.00     0.000 C 
BRANCH   9  10
ATOM     10  C   UNL     1      -0.210  -3.568   0.168  1.00  0.00     0.000 C 
BRANCH  10  11
ATOM     11  C   UNL     1       0.612  -3.056  -1.036  1.00  0.00     0.000 C 
BRANCH  11  12
ATOM     12  C   UNL     1       0.651  -1.524  -1.226  1.00  0.00     0.000 C 
BRANCH  12  13
ATOM     13  C   UNL     1       1.764  -1.004  -2.151  1.00  0.00     0.006 C 
BRANCH  13  14
ATOM     14  C   UNL     1       2.009   0.503  -1.994  1.00  0.00     0.053 C 
BRANCH  14  15
ATOM     15  C   UNL     1       2.732   0.790  -0.717  1.00  0.00     0.041 C 
ATOM     16  O   UNL     1       3.842   1.384  -0.737  1.00  0.00    -0.550 OA
ATOM     17  O   UNL     1       2.197   0.373   0.495  1.00  0.00    -0.550 OA
ENDBRANCH  14  15
ENDBRANCH  13  14
ENDBRANCH  12  13
ENDBRANCH  11  12
ENDBRANCH  10  11
ENDBRANCH   9  10
ENDBRANCH   8   9
ENDBRANCH   7   8
ENDBRANCH   6   7
ENDBRANCH   5   6
ENDBRANCH   4   5
ENDBRANCH   3   4
ENDBRANCH   2   3
ENDBRANCH   1   2
BRANCH   1  18
ATOM     18  C   UNL     1      -0.059   3.050   0.192  1.00  0.00     0.000 C 
BRANCH  18  19
ATOM     19  C   UNL     1       0.639   4.347  -0.256  1.00  0.00     0.000 C 
BRANCH  19  20
ATOM     20  C   UNL     1       2.076   4.161  -0.787  1.00  0.00     0.000 C 
BRANCH  20  21
ATOM     21  C   UNL     1       3.188   4.659   0.158  1.00  0.00     0.000 C 
BRANCH  21  22
ATOM     22  C   UNL     1       3.559   3.685   1.296  1.00  0.00     0.000 C 
BRANCH  22  23
ATOM     23  C   UNL     1       3.646   4.325   2.694  1.00  0.00     0.000 C 
BRANCH  23  24
ATOM     24  C   UNL     1       4.274   3.392   3.740  1.00  0.00    -0.000 C 
BRANCH  24  25
ATOM     25  C   UNL     1       5.677   3.877   4.136  1.00  0.00    -0.000 C 
BRANCH  25  26
ATOM     26  C   UNL     1       6.009   3.585   5.609  1.00  0.00    -0.000 C 
BRANCH  26  27
ATOM     27  C   UNL     1       7.466   3.927   5.966  1.00  0.00    -0.000 C 
BRANCH  27  28
ATOM     28  C   UNL     1       7.761   3.734   7.467  1.00  0.00    -0.000 C 
BRANCH  28  29
ATOM     29  C   UNL     1       9.114   4.316   7.915  1.00  0.00    -0.000 C 
BRANCH  29  30
ATOM     30  C   UNL     1      10.028   3.267   8.570  1.00  0.00    -0.000 C 
BRANCH  30  31
ATOM     31  C   UNL     1       9.864   1.870   7.949  1.00  0.00    -0.003 C 
ATOM     32  C   UNL     1       9.119   0.899   8.864  1.00  0.00     0.004 C 
ENDBRANCH  30  31
ENDBRANCH  29  30
ENDBRANCH  28  29
ENDBRANCH  27  28
ENDBRANCH  26  27
ENDBRANCH  25  26
ENDBRANCH  24  25
ENDBRANCH  23  24
ENDBRANCH  22  23
ENDBRANCH  21  22
ENDBRANCH  20  21
ENDBRANCH  19  20
ENDBRANCH  18  19
ENDBRANCH   1  18
TORSDOF 28
ENDMDL
MODEL 7
REMARK VINA RESULT:    12.487      2.294      4.383
REMARK INTER + INTRA:          31.835
REMARK INTER:                  30.165
REMARK INTRA:                   1.670
REMARK UNBOUND:                -1.093
REMARK SMILES CCCCCCCCCCCCCCCCCCCCCCCCCCCCCC(=O)[O-]
REMARK SMILES IDX 16 1 17 2 18 3 19 4 20 5 21 6 22 7 23 8 24 9 25 10 26 11
REMARK SMILES IDX 27 12 28 13 29 14 30 15 31 16 32 17 15 18 14 19 13 20 12 21
REMARK SMILES IDX 11 22 10 23 9 24 8 25 7 26 6 27 5 28 4 29 3 30 2 31 1 32
REMARK H PARENT
REMARK Flexibility Score: inf
ROOT
ATOM      1  C   UNL     1       3.063   2.312  -0.281  1.00  0.00     0.000 C 
ENDROOT
BRANCH   1   2
ATOM      2  C   UNL     1       3.374   1.200  -1.294  1.00  0.00     0.000 C 
BRANCH   2   3
ATOM      3  C   UNL     1       2.107   0.480  -1.791  1.00  0.00     0.000 C 
BRANCH   3   4
ATOM      4  C   UNL     1       2.199  -1.059  -1.805  1.00  0.00     0.000 C 
BRANCH   4   5
ATOM      5  C   UNL     1       0.867  -1.790  -1.551  1.00  0.00     0.000 C 
BRANCH   5   6
ATOM      6  C   UNL     1       0.426  -1.856  -0.073  1.00  0.00     0.000 C 
BRANCH   6   7
ATOM      7  C   UNL     1      -0.083  -0.530   0.525  1.00  0.00     0.000 C 
BRANCH   7   8
ATOM      8  C   UNL     1       0.156   0.682  -0.390  1.00  0.00     0.000 C 
BRANCH   8   9
ATOM      9  C   UNL     1      -1.098   1.556  -0.565  1.00  0.00     0.000 C 
BRANCH   9  10
ATOM     10  C   UNL     1      -2.025   1.114  -1.719  1.00  0.00     0.000 C 
BRANCH  10  11
ATOM     11  C   UNL     1      -1.510  -0.079  -2.554  1.00  0.00     0.000 C 
BRANCH  11  12
ATOM     12  C   UNL     1      -2.164  -1.445  -2.256  1.00  0.00     0.000 C 
BRANCH  12  13
ATOM     13  C   UNL     1      -2.869  -1.554  -0.893  1.00  0.00     0.006 C 
BRANCH  13  14
ATOM     14  C   UNL     1      -3.879  -2.708  -0.838  1.00  0.00     0.053 C 
BRANCH  14  15
ATOM     15  C   UNL     1      -3.204  -3.980  -0.438  1.00  0.00     0.041 C 
ATOM     16  O   UNL     1      -3.477  -4.522   0.666  1.00  0.00    -0.550 OA
ATOM     17  O   UNL     1      -2.249  -4.553  -1.268  1.00  0.00    -0.550 OA
ENDBRANCH  14  15
ENDBRANCH  13  14
ENDBRANCH  12  13
ENDBRANCH  11  12
ENDBRANCH  10  11
ENDBRANCH   9  10
ENDBRANCH   8   9
ENDBRANCH   7   8
ENDBRANCH   6   7
ENDBRANCH   5   6
ENDBRANCH   4   5
ENDBRANCH   3   4
ENDBRANCH   2   3
ENDBRANCH   1   2
BRANCH   1  18
ATOM     18  C   UNL     1       2.173   3.399  -0.903  1.00  0.00     0.000 C 
BRANCH  18  19
ATOM     19  C   UNL     1       2.413   4.789  -0.286  1.00  0.00     0.000 C 
BRANCH  19  20
ATOM     20  C   UNL     1       3.692   4.906   0.569  1.00  0.00     0.000 C 
BRANCH  20  21
ATOM     21  C   UNL     1       3.677   4.090   1.877  1.00  0.00     0.000 C 
BRANCH  21  22
ATOM     22  C   UNL     1       4.525   4.680   3.022  1.00  0.00     0.000 C 
BRANCH  22  23
ATOM     23  C   UNL     1       4.910   3.679   4.128  1.00  0.00     0.000 C 
BRANCH  23  24
ATOM     24  C   UNL     1       6.342   3.881   4.646  1.00  0.00    -0.000 C 
BRANCH  24  25
ATOM     25  C   UNL     1       6.415   3.648   6.162  1.00  0.00    -0.000 C 
BRANCH  25  26
ATOM     26  C   UNL     1       7.845   3.781   6.712  1.00  0.00    -0.000 C 
BRANCH  26  27
ATOM     27  C   UNL     1       8.234   2.616   7.637  1.00  0.00    -0.000 C 
BRANCH  27  28
ATOM     28  C   UNL     1       9.605   2.835   8.309  1.00  0.00    -0.000 C 
BRANCH  28  29
ATOM     29  C   UNL     1      10.075   4.301   8.300  1.00  0.00    -0.000 C 
BRANCH  29  30
ATOM     30  C   UNL     1       9.967   4.971   9.680  1.00  0.00    -0.000 C 
BRANCH  30  31
ATOM     31  C   UNL     1       9.267   6.339   9.618  1.00  0.00    -0.003 C 
ATOM     32  C   UNL     1       7.744   6.224   9.583  1.00  0.00     0.004 C 
ENDBRANCH  30  31
ENDBRANCH  29  30
ENDBRANCH  28  29
ENDBRANCH  27  28
ENDBRANCH  26  27
ENDBRANCH  25  26
ENDBRANCH  24  25
ENDBRANCH  23  24
ENDBRANCH  22  23
ENDBRANCH  21  22
ENDBRANCH  20  21
ENDBRANCH  19  20
ENDBRANCH  18  19
ENDBRANCH   1  18
TORSDOF 28
ENDMDL
MODEL 8
REMARK VINA RESULT:    12.490      2.606      4.930
REMARK INTER + INTRA:          31.843
REMARK INTER:                  32.628
REMARK INTRA:                  -0.785
REMARK UNBOUND:                -1.093
REMARK SMILES CCCCCCCCCCCCCCCCCCCCCCCCCCCCCC(=O)[O-]
REMARK SMILES IDX 16 1 17 2 18 3 19 4 20 5 21 6 22 7 23 8 24 9 25 10 26 11
REMARK SMILES IDX 27 12 28 13 29 14 30 15 31 16 32 17 15 18 14 19 13 20 12 21
REMARK SMILES IDX 11 22 10 23 9 24 8 25 7 26 6 27 5 28 4 29 3 30 2 31 1 32
REMARK H PARENT
REMARK Flexibility Score: inf
ROOT
ATOM      1  C   UNL     1       2.790   2.430  -0.658  1.00  0.00     0.000 C 
ENDROOT
BRANCH   1   2
ATOM      2  C   UNL     1       2.848   1.514  -1.889  1.00  0.00     0.000 C 
BRANCH   2   3
ATOM      3  C   UNL     1       1.720   0.466  -1.903  1.00  0.00     0.000 C 
BRANCH   3   4
ATOM      4  C   UNL     1       1.890  -0.683  -0.889  1.00  0.00     0.000 C 
BRANCH   4   5
ATOM      5  C   UNL     1       0.590  -1.130  -0.193  1.00  0.00     0.000 C 
BRANCH   5   6
ATOM      6  C   UNL     1      -0.351   0.015   0.239  1.00  0.00     0.000 C 
BRANCH   6   7
ATOM      7  C   UNL     1      -1.310   0.530  -0.852  1.00  0.00     0.000 C 
BRANCH   7   8
ATOM      8  C   UNL     1      -1.251  -0.290  -2.151  1.00  0.00     0.000 C 
BRANCH   8   9
ATOM      9  C   UNL     1      -2.636  -0.767  -2.620  1.00  0.00     0.000 C 
BRANCH   9  10
ATOM     10  C   UNL     1      -3.107  -2.088  -1.971  1.00  0.00     0.000 C 
BRANCH  10  11
ATOM     11  C   UNL     1      -3.332  -2.025  -0.444  1.00  0.00     0.000 C 
BRANCH  11  12
ATOM     12  C   UNL     1      -2.852  -3.252   0.360  1.00  0.00     0.000 C 
BRANCH  12  13
ATOM     13  C   UNL     1      -3.182  -4.618  -0.263  1.00  0.00     0.006 C 
BRANCH  13  14
ATOM     14  C   UNL     1      -1.996  -5.225  -1.026  1.00  0.00     0.053 C 
BRANCH  14  15
ATOM     15  C   UNL     1      -0.704  -4.668  -0.520  1.00  0.00     0.041 C 
ATOM     16  O   UNL     1      -0.147  -3.714  -1.124  1.00  0.00    -0.550 OA
ATOM     17  O   UNL     1      -0.097  -5.222   0.599  1.00  0.00    -0.550 OA
ENDBRANCH  14  15
ENDBRANCH  13  14
ENDBRANCH  12  13
ENDBRANCH  11  12
ENDBRANCH  10  11
ENDBRANCH   9  10
ENDBRANCH   8   9
ENDBRANCH   7   8
ENDBRANCH   6   7
ENDBRANCH   5   6
ENDBRANCH   4   5
ENDBRANCH   3   4
ENDBRANCH   2   3
ENDBRANCH   1   2
BRANCH   1  18
ATOM     18  C   UNL     1       1.502   3.266  -0.647  1.00  0.00     0.000 C 
BRANCH  18  19
ATOM     19  C   UNL     1       1.759   4.749  -0.324  1.00  0.00     0.000 C 
BRANCH  19  20
ATOM     20  C   UNL     1       3.212   5.218  -0.543  1.00  0.00     0.000 C 
BRANCH  20  21
ATOM     21  C   UNL     1       3.998   5.527   0.748  1.00  0.00     0.000 C 
BRANCH  21  22
ATOM     22  C   UNL     1       4.039   4.376   1.774  1.00  0.00     0.000 C 
BRANCH  22  23
ATOM     23  C   UNL     1       4.471   4.788   3.194  1.00  0.00     0.000 C 
BRANCH  23  24
ATOM     24  C   UNL     1       5.105   3.634   3.985  1.00  0.00    -0.000 C 
BRANCH  24  25
ATOM     25  C   UNL     1       6.488   4.032   4.522  1.00  0.00    -0.000 C 
BRANCH  25  26
ATOM     26  C   UNL     1       6.668   3.680   6.008  1.00  0.00    -0.000 C 
BRANCH  26  27
ATOM     27  C   UNL     1       8.129   3.803   6.472  1.00  0.00    -0.000 C 
BRANCH  27  28
ATOM     28  C   UNL     1       8.290   3.521   7.980  1.00  0.00    -0.000 C 
BRANCH  28  29
ATOM     29  C   UNL     1       9.617   4.032   8.570  1.00  0.00    -0.000 C 
BRANCH  29  30
ATOM     30  C   UNL     1       9.713   5.567   8.584  1.00  0.00    -0.000 C 
BRANCH  30  31
ATOM     31  C   UNL     1       8.668   6.215   9.506  1.00  0.00    -0.003 C 
ATOM     32  C   UNL     1       8.759   7.741   9.524  1.00  0.00     0.004 C 
ENDBRANCH  30  31
ENDBRANCH  29  30
ENDBRANCH  28  29
ENDBRANCH  27  28
ENDBRANCH  26  27
ENDBRANCH  25  26
ENDBRANCH  24  25
ENDBRANCH  23  24
ENDBRANCH  22  23
ENDBRANCH  21  22
ENDBRANCH  20  21
ENDBRANCH  19  20
ENDBRANCH  18  19
ENDBRANCH   1  18
TORSDOF 28
ENDMDL
