MODEL 1
REMARK VINA RESULT:    -9.684      0.000      0.000
REMARK INTER + INTRA:         -10.533
REMARK INTER:                 -10.533
REMARK INTRA:                   0.000
REMARK UNBOUND:                 0.000
REMARK SMILES C[C@@H]1CC[C@H]2[N@@H+](C1)C[C@@H]1[C@@H]3C[C@H]4[C@H](C[C@H](O)[C@H]5C[C@@H](O)CC[C@@]54C)[C@@H]3CC[C@@H]1[C@@]2(C)O
REMARK SMILES IDX 5 1 6 2 8 3 7 4 4 5 29 6 3 7 28 8 30 9 2 10 27 11 9 12 1 13
REMARK SMILES IDX 26 14 10 15 25 16 11 17 13 18 12 19 14 20 23 21 15 22 17 23
REMARK SMILES IDX 22 24 24 25 18 26 21 27 19 28 31 30 16 32 20 34
REMARK H PARENT 6 29 31 31 16 33 20 35
REMARK Flexibility Score: inf
ROOT
ATOM      1  C   UNL     1     -29.330 -18.637 108.059  1.00  0.00     0.216 C 
ATOM      2  N   UNL     1     -30.079 -19.633 107.244  1.00  0.00    -0.330 N 
ATOM      3  C   UNL     1     -29.321 -20.212 106.106  1.00  0.00     0.266 C 
ATOM      4  C   UNL     1     -31.425 -19.148 106.831  1.00  0.00     0.265 C 
ATOM      5  C   UNL     1     -29.230 -17.282 107.318  1.00  0.00     0.069 C 
ATOM      6  C   UNL     1     -27.924 -19.175 108.571  1.00  0.00     0.117 C 
ATOM      7  C   UNL     1     -30.621 -16.728 107.008  1.00  0.00     0.015 C 
ATOM      8  C   UNL     1     -27.573 -20.575 107.958  1.00  0.00     0.036 C 
ATOM      9  C   UNL     1     -27.904 -19.214 110.121  1.00  0.00     0.049 C 
ATOM     10  C   UNL     1     -31.465 -17.728 106.207  1.00  0.00     0.041 C 
ATOM     11  C   UNL     1     -28.192 -21.825 108.670  1.00  0.00     0.007 C 
ATOM     12  C   UNL     1     -27.839 -20.551 106.439  1.00  0.00     0.054 C 
ATOM     13  C   UNL     1     -31.140 -17.685 104.704  1.00  0.00     0.013 C 
ATOM     14  C   UNL     1     -28.662 -22.938 107.713  1.00  0.00     0.004 C 
ATOM     15  C   UNL     1     -27.282 -21.857 105.801  1.00  0.00     0.002 C 
ATOM     16  C   UNL     1     -27.686 -23.155 106.537  1.00  0.00    -0.004 C 
ATOM     17  C   UNL     1     -27.582 -22.061 104.312  1.00  0.00     0.009 C 
ATOM     18  C   UNL     1     -28.131 -24.166 105.445  1.00  0.00    -0.001 C 
ATOM     19  C   UNL     1     -27.605 -23.585 104.113  1.00  0.00    -0.001 C 
ATOM     20  C   UNL     1     -29.645 -24.461 105.370  1.00  0.00     0.036 C 
ATOM     21  C   UNL     1     -28.314 -24.134 102.802  1.00  0.00    -0.024 C 
ATOM     22  C   UNL     1     -29.997 -25.470 104.243  1.00  0.00     0.118 C 
ATOM     23  C   UNL     1     -28.913 -25.542 103.134  1.00  0.00     0.026 C 
ATOM     24  C   UNL     1     -27.234 -24.305 101.688  1.00  0.00     0.010 C 
ATOM     25  C   UNL     1     -29.420 -23.169 102.270  1.00  0.00     0.012 C 
ATOM     26  C   UNL     1     -29.434 -26.294 101.887  1.00  0.00     0.038 C 
ATOM     27  C   UNL     1     -27.753 -25.042 100.443  1.00  0.00     0.032 C 
ATOM     28  C   UNL     1     -28.337 -26.415 100.814  1.00  0.00     0.114 C 
ATOM     29  H   UNL     1     -30.297 -20.430 107.884  1.00  0.00     0.348 HD
ENDROOT
BRANCH   6  30
ATOM     30  O   UNL     1     -26.915 -18.270 108.162  1.00  0.00    -0.384 OA
ATOM     31  H   UNL     1     -26.027 -18.705 108.268  1.00  0.00     0.211 HD
ENDBRANCH   6  30
BRANCH  22  32
ATOM     32  O   UNL     1     -30.166 -26.753 104.792  1.00  0.00    -0.393 OA
ATOM     33  H   UNL     1     -29.292 -27.219 104.714  1.00  0.00     0.210 HD
ENDBRANCH  22  32
BRANCH  28  34
ATOM     34  O   UNL     1     -28.830 -27.069  99.672  1.00  0.00    -0.393 OA
ATOM     35  H   UNL     1     -28.155 -27.744  99.397  1.00  0.00     0.210 HD
ENDBRANCH  28  34
TORSDOF 3
ENDMDL
MODEL 2
REMARK VINA RESULT:    -9.106      5.991      9.103
REMARK INTER + INTRA:          -9.905
REMARK INTER:                  -9.905
REMARK INTRA:                   0.000
REMARK UNBOUND:                 0.000
REMARK SMILES C[C@@H]1CC[C@H]2[N@@H+](C1)C[C@@H]1[C@@H]3C[C@H]4[C@H](C[C@H](O)[C@H]5C[C@@H](O)CC[C@@]54C)[C@@H]3CC[C@@H]1[C@@]2(C)O
REMARK SMILES IDX 5 1 6 2 8 3 7 4 4 5 29 6 3 7 28 8 30 9 2 10 27 11 9 12 1 13
REMARK SMILES IDX 26 14 10 15 25 16 11 17 13 18 12 19 14 20 23 21 15 22 17 23
REMARK SMILES IDX 22 24 24 25 18 26 21 27 19 28 31 30 16 32 20 34
REMARK H PARENT 6 29 31 31 16 33 20 35
REMARK Flexibility Score: inf
ROOT
ATOM      1  C   UNL     1     -28.401 -24.804 105.396  1.00  0.00     0.216 C 
ATOM      2  N   UNL     1     -27.597 -24.641 106.639  1.00  0.00    -0.330 N 
ATOM      3  C   UNL     1     -27.962 -25.556 107.749  1.00  0.00     0.266 C 
ATOM      4  C   UNL     1     -27.507 -23.224 107.088  1.00  0.00     0.265 C 
ATOM      5  C   UNL     1     -29.809 -24.183 105.565  1.00  0.00     0.069 C 
ATOM      6  C   UNL     1     -28.437 -26.302 104.865  1.00  0.00     0.117 C 
ATOM      7  C   UNL     1     -29.709 -22.696 105.903  1.00  0.00     0.015 C 
ATOM      8  C   UNL     1     -27.755 -27.297 105.867  1.00  0.00     0.036 C 
ATOM      9  C   UNL     1     -27.789 -26.381 103.458  1.00  0.00     0.049 C 
ATOM     10  C   UNL     1     -28.852 -22.453 107.153  1.00  0.00     0.041 C 
ATOM     11  C   UNL     1     -26.196 -27.416 105.781  1.00  0.00     0.007 C 
ATOM     12  C   UNL     1     -28.264 -27.015 107.295  1.00  0.00     0.054 C 
ATOM     13  C   UNL     1     -29.648 -22.671 108.451  1.00  0.00     0.013 C 
ATOM     14  C   UNL     1     -25.490 -27.549 107.145  1.00  0.00     0.004 C 
ATOM     15  C   UNL     1     -27.763 -28.139 108.248  1.00  0.00     0.002 C 
ATOM     16  C   UNL     1     -26.258 -28.469 108.119  1.00  0.00    -0.004 C 
ATOM     17  C   UNL     1     -28.064 -27.944 109.738  1.00  0.00     0.009 C 
ATOM     18  C   UNL     1     -25.698 -28.567 109.564  1.00  0.00    -0.001 C 
ATOM     19  C   UNL     1     -26.941 -28.690 110.475  1.00  0.00    -0.001 C 
ATOM     20  C   UNL     1     -24.782 -27.410 110.018  1.00  0.00     0.036 C 
ATOM     21  C   UNL     1     -26.706 -28.322 112.003  1.00  0.00    -0.024 C 
ATOM     22  C   UNL     1     -24.281 -27.587 111.477  1.00  0.00     0.118 C 
ATOM     23  C   UNL     1     -25.187 -28.527 112.318  1.00  0.00     0.026 C 
ATOM     24  C   UNL     1     -27.533 -29.308 112.884  1.00  0.00     0.010 C 
ATOM     25  C   UNL     1     -27.154 -26.865 112.343  1.00  0.00     0.012 C 
ATOM     26  C   UNL     1     -24.857 -28.426 113.825  1.00  0.00     0.038 C 
ATOM     27  C   UNL     1     -27.215 -29.201 114.383  1.00  0.00     0.032 C 
ATOM     28  C   UNL     1     -25.715 -29.404 114.648  1.00  0.00     0.114 C 
ATOM     29  H   UNL     1     -26.611 -24.874 106.382  1.00  0.00     0.348 HD
ENDROOT
BRANCH   6  30
ATOM     30  O   UNL     1     -29.788 -26.702 104.725  1.00  0.00    -0.384 OA
ATOM     31  H   UNL     1     -30.366 -25.894 104.704  1.00  0.00     0.211 HD
ENDBRANCH   6  30
BRANCH  22  32
ATOM     32  O   UNL     1     -22.975 -28.107 111.470  1.00  0.00    -0.393 OA
ATOM     33  H   UNL     1     -22.993 -28.943 112.006  1.00  0.00     0.210 HD
ENDBRANCH  22  32
BRANCH  28  34
ATOM     34  O   UNL     1     -25.432 -29.279 116.020  1.00  0.00    -0.393 OA
ATOM     35  H   UNL     1     -24.663 -29.873 116.223  1.00  0.00     0.210 HD
ENDBRANCH  28  34
TORSDOF 3
ENDMDL
MODEL 3
REMARK VINA RESULT:    -8.826      2.653      4.497
REMARK INTER + INTRA:          -9.600
REMARK INTER:                  -9.600
REMARK INTRA:                   0.000
REMARK UNBOUND:                 0.000
REMARK SMILES C[C@@H]1CC[C@H]2[N@@H+](C1)C[C@@H]1[C@@H]3C[C@H]4[C@H](C[C@H](O)[C@H]5C[C@@H](O)CC[C@@]54C)[C@@H]3CC[C@@H]1[C@@]2(C)O
REMARK SMILES IDX 5 1 6 2 8 3 7 4 4 5 29 6 3 7 28 8 30 9 2 10 27 11 9 12 1 13
REMARK SMILES IDX 26 14 10 15 25 16 11 17 13 18 12 19 14 20 23 21 15 22 17 23
REMARK SMILES IDX 22 24 24 25 18 26 21 27 19 28 31 30 16 32 20 34
REMARK H PARENT 6 29 31 31 16 33 20 35
REMARK Flexibility Score: inf
ROOT
ATOM      1  C   UNL     1     -29.486 -17.913 106.286  1.00  0.00     0.216 C 
ATOM      2  N   UNL     1     -28.366 -18.864 106.524  1.00  0.00    -0.330 N 
ATOM      3  C   UNL     1     -28.771 -20.282 106.700  1.00  0.00     0.266 C 
ATOM      4  C   UNL     1     -27.439 -18.410 107.596  1.00  0.00     0.265 C 
ATOM      5  C   UNL     1     -30.253 -17.625 107.600  1.00  0.00     0.069 C 
ATOM      6  C   UNL     1     -30.438 -18.350 105.090  1.00  0.00     0.117 C 
ATOM      7  C   UNL     1     -29.317 -17.040 108.657  1.00  0.00     0.015 C 
ATOM      8  C   UNL     1     -30.075 -19.774 104.542  1.00  0.00     0.036 C 
ATOM      9  C   UNL     1     -30.399 -17.283 103.965  1.00  0.00     0.049 C 
ATOM     10  C   UNL     1     -28.112 -17.952 108.918  1.00  0.00     0.041 C 
ATOM     11  C   UNL     1     -28.907 -19.846 103.500  1.00  0.00     0.007 C 
ATOM     12  C   UNL     1     -29.891 -20.747 105.724  1.00  0.00     0.054 C 
ATOM     13  C   UNL     1     -28.452 -19.098 109.887  1.00  0.00     0.013 C 
ATOM     14  C   UNL     1     -27.977 -21.063 103.666  1.00  0.00     0.004 C 
ATOM     15  C   UNL     1     -29.754 -22.198 105.177  1.00  0.00     0.002 C 
ATOM     16  C   UNL     1     -28.751 -22.354 104.011  1.00  0.00    -0.004 C 
ATOM     17  C   UNL     1     -29.428 -23.281 106.211  1.00  0.00     0.009 C 
ATOM     18  C   UNL     1     -27.894 -23.610 104.326  1.00  0.00    -0.001 C 
ATOM     19  C   UNL     1     -28.669 -24.365 105.430  1.00  0.00    -0.001 C 
ATOM     20  C   UNL     1     -26.432 -23.348 104.745  1.00  0.00     0.036 C 
ATOM     21  C   UNL     1     -27.813 -25.403 106.276  1.00  0.00    -0.024 C 
ATOM     22  C   UNL     1     -25.659 -24.660 105.051  1.00  0.00     0.118 C 
ATOM     23  C   UNL     1     -26.595 -25.848 105.399  1.00  0.00     0.026 C 
ATOM     24  C   UNL     1     -28.698 -26.654 106.568  1.00  0.00     0.010 C 
ATOM     25  C   UNL     1     -27.332 -24.812 107.639  1.00  0.00     0.012 C 
ATOM     26  C   UNL     1     -25.804 -27.028 106.008  1.00  0.00     0.038 C 
ATOM     27  C   UNL     1     -27.915 -27.824 107.184  1.00  0.00     0.032 C 
ATOM     28  C   UNL     1     -26.727 -28.226 106.296  1.00  0.00     0.114 C 
ATOM     29  H   UNL     1     -27.771 -18.837 105.665  1.00  0.00     0.348 HD
ENDROOT
BRANCH   6  30
ATOM     30  O   UNL     1     -31.770 -18.408 105.566  1.00  0.00    -0.384 OA
ATOM     31  H   UNL     1     -31.767 -18.291 106.553  1.00  0.00     0.211 HD
ENDBRANCH   6  30
BRANCH  22  32
ATOM     32  O   UNL     1     -24.871 -25.016 103.942  1.00  0.00    -0.393 OA
ATOM     33  H   UNL     1     -24.492 -24.175 103.575  1.00  0.00     0.210 HD
ENDBRANCH  22  32
BRANCH  28  34
ATOM     34  O   UNL     1     -26.004 -29.281 106.880  1.00  0.00    -0.393 OA
ATOM     35  H   UNL     1     -25.417 -28.891 107.580  1.00  0.00     0.210 HD
ENDBRANCH  28  34
TORSDOF 3
ENDMDL
MODEL 4
REMARK VINA RESULT:    -8.404      4.254      7.612
REMARK INTER + INTRA:          -9.141
REMARK INTER:                  -9.141
REMARK INTRA:                   0.000
REMARK UNBOUND:                 0.000
REMARK SMILES C[C@@H]1CC[C@H]2[N@@H+](C1)C[C@@H]1[C@@H]3C[C@H]4[C@H](C[C@H](O)[C@H]5C[C@@H](O)CC[C@@]54C)[C@@H]3CC[C@@H]1[C@@]2(C)O
REMARK SMILES IDX 5 1 6 2 8 3 7 4 4 5 29 6 3 7 28 8 30 9 2 10 27 11 9 12 1 13
REMARK SMILES IDX 26 14 10 15 25 16 11 17 13 18 12 19 14 20 23 21 15 22 17 23
REMARK SMILES IDX 22 24 24 25 18 26 21 27 19 28 31 30 16 32 20 34
REMARK H PARENT 6 29 31 31 16 33 20 35
REMARK Flexibility Score: inf
ROOT
ATOM      1  C   UNL     1     -28.976 -23.335 103.344  1.00  0.00     0.216 C 
ATOM      2  N   UNL     1     -27.972 -23.485 104.432  1.00  0.00    -0.330 N 
ATOM      3  C   UNL     1     -28.498 -24.047 105.701  1.00  0.00     0.266 C 
ATOM      4  C   UNL     1     -27.173 -22.248 104.656  1.00  0.00     0.265 C 
ATOM      5  C   UNL     1     -29.896 -22.118 103.607  1.00  0.00     0.069 C 
ATOM      6  C   UNL     1     -29.781 -24.673 103.043  1.00  0.00     0.117 C 
ATOM      7  C   UNL     1     -29.078 -20.831 103.711  1.00  0.00     0.015 C 
ATOM      8  C   UNL     1     -29.448 -25.803 104.079  1.00  0.00     0.036 C 
ATOM      9  C   UNL     1     -29.509 -25.139 101.589  1.00  0.00     0.049 C 
ATOM     10  C   UNL     1     -27.990 -20.935 104.787  1.00  0.00     0.041 C 
ATOM     11  C   UNL     1     -28.154 -26.643 103.805  1.00  0.00     0.007 C 
ATOM     12  C   UNL     1     -29.501 -25.221 105.506  1.00  0.00     0.054 C 
ATOM     13  C   UNL     1     -28.543 -20.669 106.198  1.00  0.00     0.013 C 
ATOM     14  C   UNL     1     -27.346 -27.000 105.068  1.00  0.00     0.004 C 
ATOM     15  C   UNL     1     -29.394 -26.383 106.536  1.00  0.00     0.002 C 
ATOM     16  C   UNL     1     -28.251 -27.387 106.257  1.00  0.00    -0.004 C 
ATOM     17  C   UNL     1     -29.294 -25.972 108.009  1.00  0.00     0.009 C 
ATOM     18  C   UNL     1     -27.539 -27.640 107.614  1.00  0.00    -0.001 C 
ATOM     19  C   UNL     1     -28.513 -27.107 108.690  1.00  0.00    -0.001 C 
ATOM     20  C   UNL     1     -26.134 -27.019 107.771  1.00  0.00     0.036 C 
ATOM     21  C   UNL     1     -27.860 -26.791 110.104  1.00  0.00    -0.024 C 
ATOM     22  C   UNL     1     -25.508 -27.313 109.161  1.00  0.00     0.118 C 
ATOM     23  C   UNL     1     -26.567 -27.662 110.241  1.00  0.00     0.026 C 
ATOM     24  C   UNL     1     -28.864 -27.215 111.220  1.00  0.00     0.010 C 
ATOM     25  C   UNL     1     -27.533 -25.275 110.287  1.00  0.00     0.012 C 
ATOM     26  C   UNL     1     -25.955 -27.627 111.661  1.00  0.00     0.038 C 
ATOM     27  C   UNL     1     -28.262 -27.170 112.633  1.00  0.00     0.032 C 
ATOM     28  C   UNL     1     -26.993 -28.033 112.723  1.00  0.00     0.114 C 
ATOM     29  H   UNL     1     -27.262 -24.168 104.083  1.00  0.00     0.348 HD
ENDROOT
BRANCH   6  30
ATOM     30  O   UNL     1     -31.167 -24.403 103.143  1.00  0.00    -0.384 OA
ATOM     31  H   UNL     1     -31.440 -24.459 104.098  1.00  0.00     0.211 HD
ENDBRANCH   6  30
BRANCH  22  32
ATOM     32  O   UNL     1     -24.601 -28.382 109.055  1.00  0.00    -0.393 OA
ATOM     33  H   UNL     1     -25.141 -29.212 108.971  1.00  0.00     0.210 HD
ENDBRANCH  22  32
BRANCH  28  34
ATOM     34  O   UNL     1     -26.436 -27.965 114.012  1.00  0.00    -0.393 OA
ATOM     35  H   UNL     1     -25.479 -28.218 113.940  1.00  0.00     0.210 HD
ENDBRANCH  28  34
TORSDOF 3
ENDMDL
MODEL 5
REMARK VINA RESULT:    -8.290      6.042      8.212
REMARK INTER + INTRA:          -9.017
REMARK INTER:                  -9.017
REMARK INTRA:                   0.000
REMARK UNBOUND:                 0.000
REMARK SMILES C[C@@H]1CC[C@H]2[N@@H+](C1)C[C@@H]1[C@@H]3C[C@H]4[C@H](C[C@H](O)[C@H]5C[C@@H](O)CC[C@@]54C)[C@@H]3CC[C@@H]1[C@@]2(C)O
REMARK SMILES IDX 5 1 6 2 8 3 7 4 4 5 29 6 3 7 28 8 30 9 2 10 27 11 9 12 1 13
REMARK SMILES IDX 26 14 10 15 25 16 11 17 13 18 12 19 14 20 23 21 15 22 17 23
REMARK SMILES IDX 22 24 24 25 18 26 21 27 19 28 31 30 16 32 20 34
REMARK H PARENT 6 29 31 31 16 33 20 35
REMARK Flexibility Score: inf
ROOT
ATOM      1  C   UNL     1     -25.124 -27.378 113.633  1.00  0.00     0.216 C 
ATOM      2  N   UNL     1     -25.828 -26.385 112.777  1.00  0.00    -0.330 N 
ATOM      3  C   UNL     1     -25.610 -26.546 111.317  1.00  0.00     0.266 C 
ATOM      4  C   UNL     1     -25.612 -24.981 113.223  1.00  0.00     0.265 C 
ATOM      5  C   UNL     1     -23.615 -27.051 113.731  1.00  0.00     0.069 C 
ATOM      6  C   UNL     1     -25.412 -28.885 113.213  1.00  0.00     0.117 C 
ATOM      7  C   UNL     1     -23.399 -25.652 114.309  1.00  0.00     0.015 C 
ATOM      8  C   UNL     1     -26.239 -28.975 111.884  1.00  0.00     0.036 C 
ATOM      9  C   UNL     1     -26.119 -29.633 114.373  1.00  0.00     0.049 C 
ATOM     10  C   UNL     1     -24.138 -24.581 113.496  1.00  0.00     0.041 C 
ATOM     11  C   UNL     1     -27.792 -28.827 112.016  1.00  0.00     0.007 C 
ATOM     12  C   UNL     1     -25.627 -28.026 110.834  1.00  0.00     0.054 C 
ATOM     13  C   UNL     1     -23.351 -24.160 112.244  1.00  0.00     0.013 C 
ATOM     14  C   UNL     1     -28.455 -28.018 110.883  1.00  0.00     0.004 C 
ATOM     15  C   UNL     1     -26.305 -28.282 109.456  1.00  0.00     0.002 C 
ATOM     16  C   UNL     1     -27.849 -28.336 109.499  1.00  0.00    -0.004 C 
ATOM     17  C   UNL     1     -25.911 -27.328 108.323  1.00  0.00     0.009 C 
ATOM     18  C   UNL     1     -28.359 -27.481 108.307  1.00  0.00    -0.001 C 
ATOM     19  C   UNL     1     -27.130 -27.290 107.389  1.00  0.00    -0.001 C 
ATOM     20  C   UNL     1     -29.004 -26.126 108.670  1.00  0.00     0.036 C 
ATOM     21  C   UNL     1     -27.224 -26.076 106.368  1.00  0.00    -0.024 C 
ATOM     22  C   UNL     1     -29.471 -25.337 107.417  1.00  0.00     0.118 C 
ATOM     23  C   UNL     1     -28.740 -25.774 106.119  1.00  0.00     0.026 C 
ATOM     24  C   UNL     1     -26.577 -26.512 105.016  1.00  0.00     0.010 C 
ATOM     25  C   UNL     1     -26.479 -24.803 106.881  1.00  0.00     0.012 C 
ATOM     26  C   UNL     1     -28.981 -24.766 104.971  1.00  0.00     0.038 C 
ATOM     27  C   UNL     1     -26.806 -25.507 103.878  1.00  0.00     0.032 C 
ATOM     28  C   UNL     1     -28.305 -25.235 103.670  1.00  0.00     0.114 C 
ATOM     29  H   UNL     1     -26.851 -26.533 112.936  1.00  0.00     0.348 HD
ENDROOT
BRANCH   6  30
ATOM     30  O   UNL     1     -24.176 -29.537 112.987  1.00  0.00    -0.384 OA
ATOM     31  H   UNL     1     -23.475 -29.110 113.549  1.00  0.00     0.211 HD
ENDBRANCH   6  30
BRANCH  22  32
ATOM     32  O   UNL     1     -30.854 -25.510 107.236  1.00  0.00    -0.393 OA
ATOM     33  H   UNL     1     -30.976 -25.977 106.368  1.00  0.00     0.210 HD
ENDBRANCH  22  32
BRANCH  28  34
ATOM     34  O   UNL     1     -28.502 -24.296 102.643  1.00  0.00    -0.393 OA
ATOM     35  H   UNL     1     -29.415 -23.922 102.748  1.00  0.00     0.210 HD
ENDBRANCH  28  34
TORSDOF 3
ENDMDL
MODEL 6
REMARK VINA RESULT:    -8.280      7.637     10.767
REMARK INTER + INTRA:          -9.007
REMARK INTER:                  -9.007
REMARK INTRA:                   0.000
REMARK UNBOUND:                 0.000
REMARK SMILES C[C@@H]1CC[C@H]2[N@@H+](C1)C[C@@H]1[C@@H]3C[C@H]4[C@H](C[C@H](O)[C@H]5C[C@@H](O)CC[C@@]54C)[C@@H]3CC[C@@H]1[C@@]2(C)O
REMARK SMILES IDX 5 1 6 2 8 3 7 4 4 5 29 6 3 7 28 8 30 9 2 10 27 11 9 12 1 13
REMARK SMILES IDX 26 14 10 15 25 16 11 17 13 18 12 19 14 20 23 21 15 22 17 23
REMARK SMILES IDX 22 24 24 25 18 26 21 27 19 28 31 30 16 32 20 34
REMARK H PARENT 6 29 31 31 16 33 20 35
REMARK Flexibility Score: inf
ROOT
ATOM      1  C   UNL     1     -27.538 -26.409 107.085  1.00  0.00     0.216 C 
ATOM      2  N   UNL     1     -27.731 -26.073 108.523  1.00  0.00    -0.330 N 
ATOM      3  C   UNL     1     -28.242 -27.184 109.365  1.00  0.00     0.266 C 
ATOM      4  C   UNL     1     -28.504 -24.817 108.724  1.00  0.00     0.265 C 
ATOM      5  C   UNL     1     -28.896 -26.466 106.345  1.00  0.00     0.069 C 
ATOM      6  C   UNL     1     -26.647 -27.706 106.858  1.00  0.00     0.117 C 
ATOM      7  C   UNL     1     -29.628 -25.128 106.451  1.00  0.00     0.015 C 
ATOM      8  C   UNL     1     -26.314 -28.434 108.207  1.00  0.00     0.036 C 
ATOM      9  C   UNL     1     -25.357 -27.333 106.083  1.00  0.00     0.049 C 
ATOM     10  C   UNL     1     -29.821 -24.700 107.911  1.00  0.00     0.041 C 
ATOM     11  C   UNL     1     -25.102 -27.872 109.024  1.00  0.00     0.007 C 
ATOM     12  C   UNL     1     -27.600 -28.567 109.048  1.00  0.00     0.054 C 
ATOM     13  C   UNL     1     -31.033 -25.389 108.562  1.00  0.00     0.013 C 
ATOM     14  C   UNL     1     -25.312 -27.858 110.551  1.00  0.00     0.004 C 
ATOM     15  C   UNL     1     -27.317 -29.481 110.275  1.00  0.00     0.002 C 
ATOM     16  C   UNL     1     -26.032 -29.126 111.058  1.00  0.00    -0.004 C 
ATOM     17  C   UNL     1     -28.453 -29.613 111.295  1.00  0.00     0.009 C 
ATOM     18  C   UNL     1     -26.406 -29.153 112.565  1.00  0.00    -0.001 C 
ATOM     19  C   UNL     1     -27.758 -29.898 112.635  1.00  0.00    -0.001 C 
ATOM     20  C   UNL     1     -26.483 -27.782 113.270  1.00  0.00     0.036 C 
ATOM     21  C   UNL     1     -28.604 -29.653 113.958  1.00  0.00    -0.024 C 
ATOM     22  C   UNL     1     -26.876 -27.907 114.767  1.00  0.00     0.118 C 
ATOM     23  C   UNL     1     -27.611 -29.235 115.092  1.00  0.00     0.026 C 
ATOM     24  C   UNL     1     -29.287 -30.996 114.366  1.00  0.00     0.010 C 
ATOM     25  C   UNL     1     -29.717 -28.575 113.765  1.00  0.00     0.012 C 
ATOM     26  C   UNL     1     -28.267 -29.187 116.492  1.00  0.00     0.038 C 
ATOM     27  C   UNL     1     -29.950 -30.946 115.751  1.00  0.00     0.032 C 
ATOM     28  C   UNL     1     -28.943 -30.527 116.834  1.00  0.00     0.114 C 
ATOM     29  H   UNL     1     -26.785 -25.836 108.898  1.00  0.00     0.348 HD
ENDROOT
BRANCH   6  30
ATOM     30  O   UNL     1     -27.369 -28.619 106.053  1.00  0.00    -0.384 OA
ATOM     31  H   UNL     1     -27.766 -29.321 106.634  1.00  0.00     0.211 HD
ENDBRANCH   6  30
BRANCH  22  32
ATOM     32  O   UNL     1     -25.724 -27.821 115.568  1.00  0.00    -0.393 OA
ATOM     33  H   UNL     1     -26.020 -27.905 116.512  1.00  0.00     0.210 HD
ENDBRANCH  22  32
BRANCH  28  34
ATOM     34  O   UNL     1     -29.565 -30.461 118.093  1.00  0.00    -0.393 OA
ATOM     35  H   UNL     1     -28.851 -30.408 118.780  1.00  0.00     0.210 HD
ENDBRANCH  28  34
TORSDOF 3
ENDMDL
MODEL 7
REMARK VINA RESULT:    -8.171      3.968      5.478
REMARK INTER + INTRA:          -8.888
REMARK INTER:                  -8.888
REMARK INTRA:                   0.000
REMARK UNBOUND:                 0.000
REMARK SMILES C[C@@H]1CC[C@H]2[N@@H+](C1)C[C@@H]1[C@@H]3C[C@H]4[C@H](C[C@H](O)[C@H]5C[C@@H](O)CC[C@@]54C)[C@@H]3CC[C@@H]1[C@@]2(C)O
REMARK SMILES IDX 5 1 6 2 8 3 7 4 4 5 29 6 3 7 28 8 30 9 2 10 27 11 9 12 1 13
REMARK SMILES IDX 26 14 10 15 25 16 11 17 13 18 12 19 14 20 23 21 15 22 17 23
REMARK SMILES IDX 22 24 24 25 18 26 21 27 19 28 31 30 16 32 20 34
REMARK H PARENT 6 29 31 31 16 33 20 35
REMARK Flexibility Score: inf
ROOT
ATOM      1  C   UNL     1     -29.741 -25.991 111.337  1.00  0.00     0.216 C 
ATOM      2  N   UNL     1     -30.304 -25.973 109.958  1.00  0.00    -0.330 N 
ATOM      3  C   UNL     1     -29.598 -25.082 109.003  1.00  0.00     0.266 C 
ATOM      4  C   UNL     1     -31.777 -25.760 109.938  1.00  0.00     0.265 C 
ATOM      5  C   UNL     1     -30.129 -24.707 112.108  1.00  0.00     0.069 C 
ATOM      6  C   UNL     1     -28.181 -26.296 111.374  1.00  0.00     0.117 C 
ATOM      7  C   UNL     1     -31.648 -24.561 112.191  1.00  0.00     0.015 C 
ATOM      8  C   UNL     1     -27.557 -26.341 109.935  1.00  0.00     0.036 C 
ATOM      9  C   UNL     1     -27.917 -27.614 112.147  1.00  0.00     0.049 C 
ATOM     10  C   UNL     1     -32.298 -24.581 110.802  1.00  0.00     0.041 C 
ATOM     11  C   UNL     1     -27.696 -27.692 109.155  1.00  0.00     0.007 C 
ATOM     12  C   UNL     1     -28.047 -25.122 109.127  1.00  0.00     0.054 C 
ATOM     13  C   UNL     1     -32.228 -23.208 110.111  1.00  0.00     0.013 C 
ATOM     14  C   UNL     1     -27.983 -27.533 107.649  1.00  0.00     0.004 C 
ATOM     15  C   UNL     1     -27.257 -25.047 107.787  1.00  0.00     0.002 C 
ATOM     16  C   UNL     1     -27.174 -26.382 107.013  1.00  0.00    -0.004 C 
ATOM     17  C   UNL     1     -27.711 -23.970 106.796  1.00  0.00     0.009 C 
ATOM     18  C   UNL     1     -27.487 -26.056 105.527  1.00  0.00    -0.001 C 
ATOM     19  C   UNL     1     -27.347 -24.521 105.410  1.00  0.00    -0.001 C 
ATOM     20  C   UNL     1     -28.855 -26.538 104.999  1.00  0.00     0.036 C 
ATOM     21  C   UNL     1     -28.069 -23.865 104.155  1.00  0.00    -0.024 C 
ATOM     22  C   UNL     1     -29.084 -26.156 103.511  1.00  0.00     0.118 C 
ATOM     23  C   UNL     1     -28.203 -24.964 103.049  1.00  0.00     0.026 C 
ATOM     24  C   UNL     1     -27.165 -22.717 103.607  1.00  0.00     0.010 C 
ATOM     25  C   UNL     1     -29.464 -23.263 104.515  1.00  0.00     0.012 C 
ATOM     26  C   UNL     1     -28.681 -24.406 101.688  1.00  0.00     0.038 C 
ATOM     27  C   UNL     1     -27.645 -22.154 102.260  1.00  0.00     0.032 C 
ATOM     28  C   UNL     1     -27.768 -23.265 101.205  1.00  0.00     0.114 C 
ATOM     29  H   UNL     1     -30.196 -26.944 109.585  1.00  0.00     0.348 HD
ENDROOT
BRANCH   6  30
ATOM     30  O   UNL     1     -27.531 -25.258 112.083  1.00  0.00    -0.384 OA
ATOM     31  H   UNL     1     -26.787 -24.901 111.528  1.00  0.00     0.211 HD
ENDBRANCH   6  30
BRANCH  22  32
ATOM     32  O   UNL     1     -28.811 -27.264 102.691  1.00  0.00    -0.393 OA
ATOM     33  H   UNL     1     -28.594 -26.910 101.788  1.00  0.00     0.210 HD
ENDBRANCH  22  32
BRANCH  28  34
ATOM     34  O   UNL     1     -28.230 -22.742  99.985  1.00  0.00    -0.393 OA
ATOM     35  H   UNL     1     -29.100 -23.176  99.782  1.00  0.00     0.210 HD
ENDBRANCH  28  34
TORSDOF 3
ENDMDL
MODEL 8
REMARK VINA RESULT:    -8.124      2.679      8.084
REMARK INTER + INTRA:          -8.836
REMARK INTER:                  -8.836
REMARK INTRA:                   0.000
REMARK UNBOUND:                 0.000
REMARK SMILES C[C@@H]1CC[C@H]2[N@@H+](C1)C[C@@H]1[C@@H]3C[C@H]4[C@H](C[C@H](O)[C@H]5C[C@@H](O)CC[C@@]54C)[C@@H]3CC[C@@H]1[C@@]2(C)O
REMARK SMILES IDX 5 1 6 2 8 3 7 4 4 5 29 6 3 7 28 8 30 9 2 10 27 11 9 12 1 13
REMARK SMILES IDX 26 14 10 15 25 16 11 17 13 18 12 19 14 20 23 21 15 22 17 23
REMARK SMILES IDX 22 24 24 25 18 26 21 27 19 28 31 30 16 32 20 34
REMARK H PARENT 6 29 31 31 16 33 20 35
REMARK Flexibility Score: inf
ROOT
ATOM      1  C   UNL     1     -27.905 -24.207 102.795  1.00  0.00     0.216 C 
ATOM      2  N   UNL     1     -29.121 -23.746 103.520  1.00  0.00    -0.330 N 
ATOM      3  C   UNL     1     -28.877 -23.219 104.886  1.00  0.00     0.266 C 
ATOM      4  C   UNL     1     -30.222 -24.747 103.495  1.00  0.00     0.265 C 
ATOM      5  C   UNL     1     -27.426 -25.576 103.336  1.00  0.00     0.069 C 
ATOM      6  C   UNL     1     -26.750 -23.114 102.749  1.00  0.00     0.117 C 
ATOM      7  C   UNL     1     -28.522 -26.630 103.191  1.00  0.00     0.015 C 
ATOM      8  C   UNL     1     -27.094 -21.859 103.624  1.00  0.00     0.036 C 
ATOM      9  C   UNL     1     -26.457 -22.716 101.279  1.00  0.00     0.049 C 
ATOM     10  C   UNL     1     -29.823 -26.197 103.879  1.00  0.00     0.041 C 
ATOM     11  C   UNL     1     -28.006 -20.772 102.961  1.00  0.00     0.007 C 
ATOM     12  C   UNL     1     -27.609 -22.322 105.002  1.00  0.00     0.054 C 
ATOM     13  C   UNL     1     -29.795 -26.468 105.393  1.00  0.00     0.013 C 
ATOM     14  C   UNL     1     -29.043 -20.142 103.911  1.00  0.00     0.004 C 
ATOM     15  C   UNL     1     -27.736 -21.088 105.942  1.00  0.00     0.002 C 
ATOM     16  C   UNL     1     -28.468 -19.877 105.319  1.00  0.00    -0.004 C 
ATOM     17  C   UNL     1     -28.365 -21.347 107.315  1.00  0.00     0.009 C 
ATOM     18  C   UNL     1     -29.468 -19.361 106.389  1.00  0.00    -0.001 C 
ATOM     19  C   UNL     1     -29.017 -20.014 107.716  1.00  0.00    -0.001 C 
ATOM     20  C   UNL     1     -30.962 -19.633 106.110  1.00  0.00     0.036 C 
ATOM     21  C   UNL     1     -30.116 -20.060 108.862  1.00  0.00    -0.024 C 
ATOM     22  C   UNL     1     -31.884 -19.095 107.237  1.00  0.00     0.118 C 
ATOM     23  C   UNL     1     -31.143 -18.910 108.589  1.00  0.00     0.026 C 
ATOM     24  C   UNL     1     -29.419 -19.788 110.231  1.00  0.00     0.010 C 
ATOM     25  C   UNL     1     -30.838 -21.443 108.945  1.00  0.00     0.012 C 
ATOM     26  C   UNL     1     -32.139 -18.692 109.751  1.00  0.00     0.038 C 
ATOM     27  C   UNL     1     -30.407 -19.582 111.389  1.00  0.00     0.032 C 
ATOM     28  C   UNL     1     -31.398 -18.449 111.079  1.00  0.00     0.114 C 
ATOM     29  H   UNL     1     -29.508 -22.949 102.965  1.00  0.00     0.348 HD
ENDROOT
BRANCH   6  30
ATOM     30  O   UNL     1     -25.564 -23.682 103.272  1.00  0.00    -0.384 OA
ATOM     31  H   UNL     1     -25.805 -24.387 103.931  1.00  0.00     0.211 HD
ENDBRANCH   6  30
BRANCH  22  32
ATOM     32  O   UNL     1     -32.433 -17.860 106.851  1.00  0.00    -0.393 OA
ATOM     33  H   UNL     1     -31.671 -17.255 106.649  1.00  0.00     0.210 HD
ENDBRANCH  22  32
BRANCH  28  34
ATOM     34  O   UNL     1     -32.312 -18.286 112.134  1.00  0.00    -0.393 OA
ATOM     35  H   UNL     1     -31.854 -17.778 112.853  1.00  0.00     0.210 HD
ENDBRANCH  28  34
TORSDOF 3
ENDMDL
MODEL 9
REMARK VINA RESULT:    -8.058      9.488     12.482
REMARK INTER + INTRA:          -8.764
REMARK INTER:                  -8.764
REMARK INTRA:                   0.000
REMARK UNBOUND:                 0.000
REMARK SMILES C[C@@H]1CC[C@H]2[N@@H+](C1)C[C@@H]1[C@@H]3C[C@H]4[C@H](C[C@H](O)[C@H]5C[C@@H](O)CC[C@@]54C)[C@@H]3CC[C@@H]1[C@@]2(C)O
REMARK SMILES IDX 5 1 6 2 8 3 7 4 4 5 29 6 3 7 28 8 30 9 2 10 27 11 9 12 1 13
REMARK SMILES IDX 26 14 10 15 25 16 11 17 13 18 12 19 14 20 23 21 15 22 17 23
REMARK SMILES IDX 22 24 24 25 18 26 21 27 19 28 31 30 16 32 20 34
REMARK H PARENT 6 29 31 31 16 33 20 35
REMARK Flexibility Score: inf
ROOT
ATOM      1  C   UNL     1     -25.061 -27.786 110.579  1.00  0.00     0.216 C 
ATOM      2  N   UNL     1     -25.381 -28.808 111.613  1.00  0.00    -0.330 N 
ATOM      3  C   UNL     1     -26.629 -28.561 112.377  1.00  0.00     0.266 C 
ATOM      4  C   UNL     1     -24.228 -29.106 112.507  1.00  0.00     0.265 C 
ATOM      5  C   UNL     1     -24.513 -26.494 111.232  1.00  0.00     0.069 C 
ATOM      6  C   UNL     1     -26.260 -27.517 109.571  1.00  0.00     0.117 C 
ATOM      7  C   UNL     1     -23.254 -26.789 112.048  1.00  0.00     0.015 C 
ATOM      8  C   UNL     1     -27.568 -28.270 110.000  1.00  0.00     0.036 C 
ATOM      9  C   UNL     1     -25.835 -27.897 108.129  1.00  0.00     0.049 C 
ATOM     10  C   UNL     1     -23.504 -27.871 113.106  1.00  0.00     0.041 C 
ATOM     11  C   UNL     1     -27.682 -29.772 109.571  1.00  0.00     0.007 C 
ATOM     12  C   UNL     1     -27.814 -28.050 111.506  1.00  0.00     0.054 C 
ATOM     13  C   UNL     1     -24.162 -27.301 114.373  1.00  0.00     0.013 C 
ATOM     14  C   UNL     1     -28.319 -30.692 110.631  1.00  0.00     0.004 C 
ATOM     15  C   UNL     1     -29.220 -28.605 111.881  1.00  0.00     0.002 C 
ATOM     16  C   UNL     1     -29.513 -30.026 111.348  1.00  0.00    -0.004 C 
ATOM     17  C   UNL     1     -29.575 -28.591 113.371  1.00  0.00     0.009 C 
ATOM     18  C   UNL     1     -30.145 -30.821 112.524  1.00  0.00    -0.001 C 
ATOM     19  C   UNL     1     -30.564 -29.752 113.559  1.00  0.00    -0.001 C 
ATOM     20  C   UNL     1     -29.254 -31.906 113.166  1.00  0.00     0.036 C 
ATOM     21  C   UNL     1     -30.784 -30.286 115.039  1.00  0.00    -0.024 C 
ATOM     22  C   UNL     1     -29.963 -32.638 114.338  1.00  0.00     0.118 C 
ATOM     23  C   UNL     1     -31.124 -31.811 114.954  1.00  0.00     0.026 C 
ATOM     24  C   UNL     1     -32.005 -29.539 115.660  1.00  0.00     0.010 C 
ATOM     25  C   UNL     1     -29.542 -30.043 115.954  1.00  0.00     0.012 C 
ATOM     26  C   UNL     1     -31.587 -32.410 116.302  1.00  0.00     0.038 C 
ATOM     27  C   UNL     1     -32.459 -30.126 117.005  1.00  0.00     0.032 C 
ATOM     28  C   UNL     1     -32.778 -31.624 116.879  1.00  0.00     0.114 C 
ATOM     29  H   UNL     1     -25.526 -29.708 111.101  1.00  0.00     0.348 HD
ENDROOT
BRANCH   6  30
ATOM     30  O   UNL     1     -26.552 -26.132 109.569  1.00  0.00    -0.384 OA
ATOM     31  H   UNL     1     -27.302 -25.959 108.939  1.00  0.00     0.211 HD
ENDBRANCH   6  30
BRANCH  22  32
ATOM     32  O   UNL     1     -30.473 -33.868 113.890  1.00  0.00    -0.393 OA
ATOM     33  H   UNL     1     -29.695 -34.418 113.606  1.00  0.00     0.210 HD
ENDBRANCH  22  32
BRANCH  28  34
ATOM     34  O   UNL     1     -33.169 -32.155 118.120  1.00  0.00    -0.393 OA
ATOM     35  H   UNL     1     -33.437 -31.396 118.701  1.00  0.00     0.210 HD
ENDBRANCH  28  34
TORSDOF 3
ENDMDL
