MODEL 1
REMARK VINA RESULT:    -4.580      0.000      0.000
REMARK INTER + INTRA:          -6.474
REMARK INTER:                  -5.919
REMARK INTRA:                  -0.555
REMARK UNBOUND:                -0.555
REMARK SMILES C=CC(=O)CCCCC
REMARK SMILES IDX 6 1 7 2 8 3 9 4 5 5 3 6 4 7 2 8 1 9
REMARK H PARENT
REMARK Flexibility Score: inf
ROOT
ATOM      1  C   UNL     1       7.978  33.366  27.771  1.00  0.00     0.008 C 
ENDROOT
BRANCH   1   2
ATOM      2  C   UNL     1       9.252  33.341  28.632  1.00  0.00     0.000 C 
BRANCH   2   3
ATOM      3  C   UNL     1      10.125  32.107  28.355  1.00  0.00    -0.003 C 
ATOM      4  C   UNL     1      10.121  31.696  26.883  1.00  0.00     0.004 C 
ENDBRANCH   2   3
ENDBRANCH   1   2
BRANCH   1   5
ATOM      5  C   UNL     1       6.821  32.596  28.423  1.00  0.00     0.080 C 
BRANCH   5   6
ATOM      6  C   UNL     1       6.326  31.480  27.547  1.00  0.00     0.155 C 
ATOM      7  O   UNL     1       5.855  31.753  26.410  1.00  0.00    -0.295 OA
BRANCH   6   8
ATOM      8  C   UNL     1       6.417  30.079  28.004  1.00  0.00     0.039 C 
ATOM      9  C   UNL     1       7.469  29.613  28.674  1.00  0.00     0.012 C 
ENDBRANCH   6   8
ENDBRANCH   5   6
ENDBRANCH   1   5
TORSDOF 5
ENDMDL
MODEL 2
REMARK VINA RESULT:    -4.328      1.972      3.700
REMARK INTER + INTRA:          -6.149
REMARK INTER:                  -5.944
REMARK INTRA:                  -0.204
REMARK UNBOUND:                -0.555
REMARK SMILES C=CC(=O)CCCCC
REMARK SMILES IDX 6 1 7 2 8 3 9 4 5 5 3 6 4 7 2 8 1 9
REMARK H PARENT
REMARK Flexibility Score: inf
ROOT
ATOM      1  C   UNL     1       7.137  32.368  27.395  1.00  0.00     0.008 C 
ENDROOT
BRANCH   1   2
ATOM      2  C   UNL     1       6.077  31.383  27.919  1.00  0.00     0.000 C 
BRANCH   2   3
ATOM      3  C   UNL     1       6.688  30.260  28.771  1.00  0.00    -0.003 C 
ATOM      4  C   UNL     1       6.971  28.993  27.966  1.00  0.00     0.004 C 
ENDBRANCH   2   3
ENDBRANCH   1   2
BRANCH   1   5
ATOM      5  C   UNL     1       7.815  33.149  28.529  1.00  0.00     0.080 C 
BRANCH   5   6
ATOM      6  C   UNL     1       9.303  33.235  28.339  1.00  0.00     0.155 C 
ATOM      7  O   UNL     1       9.983  33.950  29.125  1.00  0.00    -0.295 OA
BRANCH   6   8
ATOM      8  C   UNL     1       9.962  32.468  27.264  1.00  0.00     0.039 C 
ATOM      9  C   UNL     1      10.117  31.147  27.320  1.00  0.00     0.012 C 
ENDBRANCH   6   8
ENDBRANCH   5   6
ENDBRANCH   1   5
TORSDOF 5
ENDMDL
MODEL 3
REMARK VINA RESULT:    -4.293     16.119     16.868
REMARK INTER + INTRA:          -6.104
REMARK INTER:                  -5.666
REMARK INTRA:                  -0.438
REMARK UNBOUND:                -0.555
REMARK SMILES C=CC(=O)CCCCC
REMARK SMILES IDX 6 1 7 2 8 3 9 4 5 5 3 6 4 7 2 8 1 9
REMARK H PARENT
REMARK Flexibility Score: inf
ROOT
ATOM      1  C   UNL     1      -7.832  34.803  21.974  1.00  0.00     0.008 C 
ENDROOT
BRANCH   1   2
ATOM      2  C   UNL     1      -7.286  34.821  23.412  1.00  0.00     0.000 C 
BRANCH   2   3
ATOM      3  C   UNL     1      -8.387  34.610  24.462  1.00  0.00    -0.003 C 
ATOM      4  C   UNL     1      -8.951  35.924  25.003  1.00  0.00     0.004 C 
ENDBRANCH   2   3
ENDBRANCH   1   2
BRANCH   1   5
ATOM      5  C   UNL     1      -8.601  33.511  21.661  1.00  0.00     0.080 C 
BRANCH   5   6
ATOM      6  C   UNL     1      -7.702  32.445  21.102  1.00  0.00     0.155 C 
ATOM      7  O   UNL     1      -7.061  32.675  20.040  1.00  0.00    -0.295 OA
BRANCH   6   8
ATOM      8  C   UNL     1      -7.552  31.155  21.804  1.00  0.00     0.039 C 
ATOM      9  C   UNL     1      -7.484  31.068  23.131  1.00  0.00     0.012 C 
ENDBRANCH   6   8
ENDBRANCH   5   6
ENDBRANCH   1   5
TORSDOF 5
ENDMDL
MODEL 4
REMARK VINA RESULT:    -4.288     16.408     17.493
REMARK INTER + INTRA:          -6.097
REMARK INTER:                  -5.619
REMARK INTRA:                  -0.478
REMARK UNBOUND:                -0.555
REMARK SMILES C=CC(=O)CCCCC
REMARK SMILES IDX 6 1 7 2 8 3 9 4 5 5 3 6 4 7 2 8 1 9
REMARK H PARENT
REMARK Flexibility Score: inf
ROOT
ATOM      1  C   UNL     1      -9.117  31.246  23.643  1.00  0.00     0.008 C 
ENDROOT
BRANCH   1   2
ATOM      2  C   UNL     1      -7.615  30.911  23.677  1.00  0.00     0.000 C 
BRANCH   2   3
ATOM      3  C   UNL     1      -7.281  29.630  22.898  1.00  0.00    -0.003 C 
ATOM      4  C   UNL     1      -8.527  28.875  22.435  1.00  0.00     0.004 C 
ENDBRANCH   2   3
ENDBRANCH   1   2
BRANCH   1   5
ATOM      5  C   UNL     1      -9.395  32.596  22.965  1.00  0.00     0.080 C 
BRANCH   5   6
ATOM      6  C   UNL     1      -9.038  32.575  21.506  1.00  0.00     0.155 C 
ATOM      7  O   UNL     1      -9.654  31.790  20.734  1.00  0.00    -0.295 OA
BRANCH   6   8
ATOM      8  C   UNL     1      -8.001  33.483  20.980  1.00  0.00     0.039 C 
ATOM      9  C   UNL     1      -7.191  33.140  19.980  1.00  0.00     0.012 C 
ENDBRANCH   6   8
ENDBRANCH   5   6
ENDBRANCH   1   5
TORSDOF 5
ENDMDL
MODEL 5
REMARK VINA RESULT:    -4.281     15.784     17.053
REMARK INTER + INTRA:          -6.088
REMARK INTER:                  -5.631
REMARK INTRA:                  -0.456
REMARK UNBOUND:                -0.555
REMARK SMILES C=CC(=O)CCCCC
REMARK SMILES IDX 6 1 7 2 8 3 9 4 5 5 3 6 4 7 2 8 1 9
REMARK H PARENT
REMARK Flexibility Score: inf
ROOT
ATOM      1  C   UNL     1      -9.099  32.659  21.230  1.00  0.00     0.008 C 
ENDROOT
BRANCH   1   2
ATOM      2  C   UNL     1      -7.802  33.480  21.126  1.00  0.00     0.000 C 
BRANCH   2   3
ATOM      3  C   UNL     1      -7.872  34.792  21.923  1.00  0.00    -0.003 C 
ATOM      4  C   UNL     1      -7.455  34.621  23.383  1.00  0.00     0.004 C 
ENDBRANCH   2   3
ENDBRANCH   1   2
BRANCH   1   5
ATOM      5  C   UNL     1      -8.837  31.219  21.696  1.00  0.00     0.080 C 
BRANCH   5   6
ATOM      6  C   UNL     1      -8.764  31.118  23.193  1.00  0.00     0.155 C 
ATOM      7  O   UNL     1      -9.643  31.692  23.892  1.00  0.00    -0.295 OA
BRANCH   6   8
ATOM      8  C   UNL     1      -7.691  30.334  23.834  1.00  0.00     0.039 C 
ATOM      9  C   UNL     1      -6.682  29.805  23.144  1.00  0.00     0.012 C 
ENDBRANCH   6   8
ENDBRANCH   5   6
ENDBRANCH   1   5
TORSDOF 5
ENDMDL
MODEL 6
REMARK VINA RESULT:    -4.234     16.242     17.156
REMARK INTER + INTRA:          -6.026
REMARK INTER:                  -5.713
REMARK INTRA:                  -0.313
REMARK UNBOUND:                -0.555
REMARK SMILES C=CC(=O)CCCCC
REMARK SMILES IDX 6 1 7 2 8 3 9 4 5 5 3 6 4 7 2 8 1 9
REMARK H PARENT
REMARK Flexibility Score: inf
ROOT
ATOM      1  C   UNL     1      -8.532  31.310  21.590  1.00  0.00     0.008 C 
ENDROOT
BRANCH   1   2
ATOM      2  C   UNL     1      -7.351  31.068  22.546  1.00  0.00     0.000 C 
BRANCH   2   3
ATOM      3  C   UNL     1      -7.351  29.649  23.134  1.00  0.00    -0.003 C 
ATOM      4  C   UNL     1      -8.630  28.875  22.814  1.00  0.00     0.004 C 
ENDBRANCH   2   3
ENDBRANCH   1   2
BRANCH   1   5
ATOM      5  C   UNL     1      -8.991  32.776  21.593  1.00  0.00     0.080 C 
BRANCH   5   6
ATOM      6  C   UNL     1      -7.883  33.710  21.196  1.00  0.00     0.155 C 
ATOM      7  O   UNL     1      -7.280  33.521  20.104  1.00  0.00    -0.295 OA
BRANCH   6   8
ATOM      8  C   UNL     1      -7.526  34.851  22.062  1.00  0.00     0.039 C 
ATOM      9  C   UNL     1      -7.816  34.880  23.361  1.00  0.00     0.012 C 
ENDBRANCH   6   8
ENDBRANCH   5   6
ENDBRANCH   1   5
TORSDOF 5
ENDMDL
MODEL 7
REMARK VINA RESULT:    -4.150      1.735      3.888
REMARK INTER + INTRA:          -5.918
REMARK INTER:                  -5.420
REMARK INTRA:                  -0.498
REMARK UNBOUND:                -0.555
REMARK SMILES C=CC(=O)CCCCC
REMARK SMILES IDX 6 1 7 2 8 3 9 4 5 5 3 6 4 7 2 8 1 9
REMARK H PARENT
REMARK Flexibility Score: inf
ROOT
ATOM      1  C   UNL     1       8.774  30.637  27.591  1.00  0.00     0.008 C 
ENDROOT
BRANCH   1   2
ATOM      2  C   UNL     1       7.844  30.269  28.760  1.00  0.00     0.000 C 
BRANCH   2   3
ATOM      3  C   UNL     1       6.362  30.272  28.356  1.00  0.00    -0.003 C 
ATOM      4  C   UNL     1       6.017  31.390  27.373  1.00  0.00     0.004 C 
ENDBRANCH   2   3
ENDBRANCH   1   2
BRANCH   1   5
ATOM      5  C   UNL     1       9.905  31.580  28.023  1.00  0.00     0.080 C 
BRANCH   5   6
ATOM      6  C   UNL     1       9.494  33.023  27.942  1.00  0.00     0.155 C 
ATOM      7  O   UNL     1       9.660  33.650  26.860  1.00  0.00    -0.295 OA
BRANCH   6   8
ATOM      8  C   UNL     1       8.878  33.688  29.107  1.00  0.00     0.039 C 
ATOM      9  C   UNL     1       7.598  34.056  29.125  1.00  0.00     0.012 C 
ENDBRANCH   6   8
ENDBRANCH   5   6
ENDBRANCH   1   5
TORSDOF 5
ENDMDL
MODEL 8
REMARK VINA RESULT:    -4.106     15.951     16.651
REMARK INTER + INTRA:          -5.861
REMARK INTER:                  -5.351
REMARK INTRA:                  -0.510
REMARK UNBOUND:                -0.555
REMARK SMILES C=CC(=O)CCCCC
REMARK SMILES IDX 6 1 7 2 8 3 9 4 5 5 3 6 4 7 2 8 1 9
REMARK H PARENT
REMARK Flexibility Score: inf
ROOT
ATOM      1  C   UNL     1      -7.866  34.187  23.523  1.00  0.00     0.008 C 
ENDROOT
BRANCH   1   2
ATOM      2  C   UNL     1      -7.547  34.587  22.072  1.00  0.00     0.000 C 
BRANCH   2   3
ATOM      3  C   UNL     1      -8.206  33.652  21.046  1.00  0.00    -0.003 C 
ATOM      4  C   UNL     1      -7.204  33.052  20.061  1.00  0.00     0.004 C 
ENDBRANCH   2   3
ENDBRANCH   1   2
BRANCH   1   5
ATOM      5  C   UNL     1      -8.828  32.993  23.598  1.00  0.00     0.080 C 
BRANCH   5   6
ATOM      6  C   UNL     1      -8.304  31.905  24.493  1.00  0.00     0.155 C 
ATOM      7  O   UNL     1      -8.231  32.112  25.735  1.00  0.00    -0.295 OA
BRANCH   6   8
ATOM      8  C   UNL     1      -7.905  30.602  23.925  1.00  0.00     0.039 C 
ATOM      9  C   UNL     1      -7.071  30.498  22.893  1.00  0.00     0.012 C 
ENDBRANCH   6   8
ENDBRANCH   5   6
ENDBRANCH   1   5
TORSDOF 5
ENDMDL
MODEL 9
REMARK VINA RESULT:    -4.089     16.621     17.441
REMARK INTER + INTRA:          -5.839
REMARK INTER:                  -5.527
REMARK INTRA:                  -0.312
REMARK UNBOUND:                -0.555
REMARK SMILES C=CC(=O)CCCCC
REMARK SMILES IDX 6 1 7 2 8 3 9 4 5 5 3 6 4 7 2 8 1 9
REMARK H PARENT
REMARK Flexibility Score: inf
ROOT
ATOM      1  C   UNL     1      -7.841  32.480  23.699  1.00  0.00     0.008 C 
ENDROOT
BRANCH   1   2
ATOM      2  C   UNL     1      -8.532  33.508  24.613  1.00  0.00     0.000 C 
BRANCH   2   3
ATOM      3  C   UNL     1      -8.114  34.952  24.296  1.00  0.00    -0.003 C 
ATOM      4  C   UNL     1      -9.014  35.990  24.966  1.00  0.00     0.004 C 
ENDBRANCH   2   3
ENDBRANCH   1   2
BRANCH   1   5
ATOM      5  C   UNL     1      -8.850  31.651  22.891  1.00  0.00     0.080 C 
BRANCH   5   6
ATOM      6  C   UNL     1      -8.898  32.075  21.450  1.00  0.00     0.155 C 
ATOM      7  O   UNL     1      -9.685  31.484  20.661  1.00  0.00    -0.295 OA
BRANCH   6   8
ATOM      8  C   UNL     1      -8.054  33.187  20.973  1.00  0.00     0.039 C 
ATOM      9  C   UNL     1      -7.195  33.051  19.965  1.00  0.00     0.012 C 
ENDBRANCH   6   8
ENDBRANCH   5   6
ENDBRANCH   1   5
TORSDOF 5
ENDMDL
