MODEL 1
REMARK VINA RESULT:    -3.035      0.000      0.000
REMARK INTER + INTRA:          -3.597
REMARK INTER:                  -3.568
REMARK INTRA:                  -0.030
REMARK UNBOUND:                -0.030
REMARK SMILES CCCCC(=O)[O-]
REMARK SMILES IDX 4 1 5 2 6 3 7 4 3 5 2 6 1 7
REMARK H PARENT
REMARK Flexibility Score: inf
ROOT
ATOM      1  C   UNL     1       7.616  -8.943  42.269  1.00  0.00     0.053 C 
ENDROOT
BRANCH   1   2
ATOM      2  C   UNL     1       8.241  -7.735  41.646  1.00  0.00     0.041 C 
ATOM      3  O   UNL     1       7.562  -6.689  41.474  1.00  0.00    -0.550 OA
ATOM      4  O   UNL     1       9.559  -7.780  41.212  1.00  0.00    -0.550 OA
ENDBRANCH   1   2
BRANCH   1   5
ATOM      5  C   UNL     1       7.982  -9.027  43.757  1.00  0.00     0.006 C 
BRANCH   5   6
ATOM      6  C   UNL     1       7.269 -10.183  44.476  1.00  0.00    -0.003 C 
ATOM      7  C   UNL     1       6.359 -10.986  43.545  1.00  0.00     0.004 C 
ENDBRANCH   5   6
ENDBRANCH   1   5
TORSDOF 3
ENDMDL
MODEL 2
REMARK VINA RESULT:    -2.984      1.545      1.807
REMARK INTER + INTRA:          -3.537
REMARK INTER:                  -3.484
REMARK INTRA:                  -0.052
REMARK UNBOUND:                -0.030
REMARK SMILES CCCCC(=O)[O-]
REMARK SMILES IDX 4 1 5 2 6 3 7 4 3 5 2 6 1 7
REMARK H PARENT
REMARK Flexibility Score: inf
ROOT
ATOM      1  C   UNL     1       7.977  -6.955  43.961  1.00  0.00     0.053 C 
ENDROOT
BRANCH   1   2
ATOM      2  C   UNL     1       8.276  -6.139  42.744  1.00  0.00     0.041 C 
ATOM      3  O   UNL     1       7.423  -6.036  41.824  1.00  0.00    -0.550 OA
ATOM      4  O   UNL     1       9.516  -5.529  42.603  1.00  0.00    -0.550 OA
ENDBRANCH   1   2
BRANCH   1   5
ATOM      5  C   UNL     1       8.583  -8.359  43.825  1.00  0.00     0.006 C 
BRANCH   5   6
ATOM      6  C   UNL     1       7.622  -9.354  43.158  1.00  0.00    -0.003 C 
ATOM      7  C   UNL     1       7.111 -10.422  44.127  1.00  0.00     0.004 C 
ENDBRANCH   5   6
ENDBRANCH   1   5
TORSDOF 3
ENDMDL
MODEL 3
REMARK VINA RESULT:    -2.973      2.687      3.552
REMARK INTER + INTRA:          -3.524
REMARK INTER:                  -3.476
REMARK INTRA:                  -0.048
REMARK UNBOUND:                -0.030
REMARK SMILES CCCCC(=O)[O-]
REMARK SMILES IDX 4 1 5 2 6 3 7 4 3 5 2 6 1 7
REMARK H PARENT
REMARK Flexibility Score: inf
ROOT
ATOM      1  C   UNL     1       7.458  -5.232  42.694  1.00  0.00     0.053 C 
ENDROOT
BRANCH   1   2
ATOM      2  C   UNL     1       8.551  -4.220  42.549  1.00  0.00     0.041 C 
ATOM      3  O   UNL     1       8.271  -3.000  42.422  1.00  0.00    -0.550 OA
ATOM      4  O   UNL     1       9.877  -4.630  42.506  1.00  0.00    -0.550 OA
ENDBRANCH   1   2
BRANCH   1   5
ATOM      5  C   UNL     1       7.585  -6.314  41.614  1.00  0.00     0.006 C 
BRANCH   5   6
ATOM      6  C   UNL     1       7.986  -7.680  42.192  1.00  0.00    -0.003 C 
ATOM      7  C   UNL     1       7.409  -8.851  41.394  1.00  0.00     0.004 C 
ENDBRANCH   5   6
ENDBRANCH   1   5
TORSDOF 3
ENDMDL
MODEL 4
REMARK VINA RESULT:    -2.972      2.731      4.460
REMARK INTER + INTRA:          -3.523
REMARK INTER:                  -3.419
REMARK INTRA:                  -0.104
REMARK UNBOUND:                -0.030
REMARK SMILES CCCCC(=O)[O-]
REMARK SMILES IDX 4 1 5 2 6 3 7 4 3 5 2 6 1 7
REMARK H PARENT
REMARK Flexibility Score: inf
ROOT
ATOM      1  C   UNL     1       7.569  -5.982  41.528  1.00  0.00     0.053 C 
ENDROOT
BRANCH   1   2
ATOM      2  C   UNL     1       8.008  -7.362  41.902  1.00  0.00     0.041 C 
ATOM      3  O   UNL     1       7.449  -8.366  41.388  1.00  0.00    -0.550 OA
ATOM      4  O   UNL     1       9.002  -7.541  42.855  1.00  0.00    -0.550 OA
ENDBRANCH   1   2
BRANCH   1   5
ATOM      5  C   UNL     1       7.423  -5.109  42.781  1.00  0.00     0.006 C 
BRANCH   5   6
ATOM      6  C   UNL     1       8.163  -3.768  42.657  1.00  0.00    -0.003 C 
ATOM      7  C   UNL     1       9.651  -3.941  42.352  1.00  0.00     0.004 C 
ENDBRANCH   5   6
ENDBRANCH   1   5
TORSDOF 3
ENDMDL
MODEL 5
REMARK VINA RESULT:    -2.966      2.445      3.791
REMARK INTER + INTRA:          -3.516
REMARK INTER:                  -3.435
REMARK INTRA:                  -0.080
REMARK UNBOUND:                -0.030
REMARK SMILES CCCCC(=O)[O-]
REMARK SMILES IDX 4 1 5 2 6 3 7 4 3 5 2 6 1 7
REMARK H PARENT
REMARK Flexibility Score: inf
ROOT
ATOM      1  C   UNL     1       7.558  -8.647  41.580  1.00  0.00     0.053 C 
ENDROOT
BRANCH   1   2
ATOM      2  C   UNL     1       7.515  -9.491  42.815  1.00  0.00     0.041 C 
ATOM      3  O   UNL     1       7.877  -9.014  43.922  1.00  0.00    -0.550 OA
ATOM      4  O   UNL     1       7.120 -10.820  42.734  1.00  0.00    -0.550 OA
ENDBRANCH   1   2
BRANCH   1   5
ATOM      5  C   UNL     1       8.376  -7.373  41.832  1.00  0.00     0.006 C 
BRANCH   5   6
ATOM      6  C   UNL     1       7.570  -6.092  41.570  1.00  0.00    -0.003 C 
ATOM      7  C   UNL     1       7.346  -5.265  42.836  1.00  0.00     0.004 C 
ENDBRANCH   5   6
ENDBRANCH   1   5
TORSDOF 3
ENDMDL
MODEL 6
REMARK VINA RESULT:    -2.962      1.055      1.807
REMARK INTER + INTRA:          -3.511
REMARK INTER:                  -3.433
REMARK INTRA:                  -0.077
REMARK UNBOUND:                -0.030
REMARK SMILES CCCCC(=O)[O-]
REMARK SMILES IDX 4 1 5 2 6 3 7 4 3 5 2 6 1 7
REMARK H PARENT
REMARK Flexibility Score: inf
ROOT
ATOM      1  C   UNL     1       8.839  -8.122  41.644  1.00  0.00     0.053 C 
ENDROOT
BRANCH   1   2
ATOM      2  C   UNL     1       8.613  -6.693  42.021  1.00  0.00     0.041 C 
ATOM      3  O   UNL     1       9.461  -6.081  42.723  1.00  0.00    -0.550 OA
ATOM      4  O   UNL     1       7.444  -6.048  41.638  1.00  0.00    -0.550 OA
ENDBRANCH   1   2
BRANCH   1   5
ATOM      5  C   UNL     1       7.741  -9.013  42.241  1.00  0.00     0.006 C 
BRANCH   5   6
ATOM      6  C   UNL     1       7.872  -9.171  43.763  1.00  0.00    -0.003 C 
ATOM      7  C   UNL     1       7.119 -10.390  44.298  1.00  0.00     0.004 C 
ENDBRANCH   5   6
ENDBRANCH   1   5
TORSDOF 3
ENDMDL
MODEL 7
REMARK VINA RESULT:    -2.921      3.723      5.420
REMARK INTER + INTRA:          -3.463
REMARK INTER:                  -3.426
REMARK INTRA:                  -0.037
REMARK UNBOUND:                -0.030
REMARK SMILES CCCCC(=O)[O-]
REMARK SMILES IDX 4 1 5 2 6 3 7 4 3 5 2 6 1 7
REMARK H PARENT
REMARK Flexibility Score: inf
ROOT
ATOM      1  C   UNL     1       7.386  -5.251  42.971  1.00  0.00     0.053 C 
ENDROOT
BRANCH   1   2
ATOM      2  C   UNL     1       8.205  -6.421  43.415  1.00  0.00     0.041 C 
ATOM      3  O   UNL     1       7.880  -7.068  44.444  1.00  0.00    -0.550 OA
ATOM      4  O   UNL     1       9.356  -6.768  42.719  1.00  0.00    -0.550 OA
ENDBRANCH   1   2
BRANCH   1   5
ATOM      5  C   UNL     1       8.221  -4.320  42.081  1.00  0.00     0.006 C 
BRANCH   5   6
ATOM      6  C   UNL     1       8.451  -2.942  42.720  1.00  0.00    -0.003 C 
ATOM      7  C   UNL     1       8.558  -1.822  41.685  1.00  0.00     0.004 C 
ENDBRANCH   5   6
ENDBRANCH   1   5
TORSDOF 3
ENDMDL
MODEL 8
REMARK VINA RESULT:    -2.870      9.225     10.549
REMARK INTER + INTRA:          -3.403
REMARK INTER:                  -3.353
REMARK INTRA:                  -0.050
REMARK UNBOUND:                -0.030
REMARK SMILES CCCCC(=O)[O-]
REMARK SMILES IDX 4 1 5 2 6 3 7 4 3 5 2 6 1 7
REMARK H PARENT
REMARK Flexibility Score: inf
ROOT
ATOM      1  C   UNL     1       6.518  -1.001  35.641  1.00  0.00     0.053 C 
ENDROOT
BRANCH   1   2
ATOM      2  C   UNL     1       5.721  -0.459  34.497  1.00  0.00     0.041 C 
ATOM      3  O   UNL     1       4.980  -1.221  33.823  1.00  0.00    -0.550 OA
ATOM      4  O   UNL     1       5.834   0.879  34.144  1.00  0.00    -0.550 OA
ENDBRANCH   1   2
BRANCH   1   5
ATOM      5  C   UNL     1       5.676  -1.008  36.923  1.00  0.00     0.006 C 
BRANCH   5   6
ATOM      6  C   UNL     1       6.006  -2.196  37.840  1.00  0.00    -0.003 C 
ATOM      7  C   UNL     1       6.809  -3.285  37.129  1.00  0.00     0.004 C 
ENDBRANCH   5   6
ENDBRANCH   1   5
TORSDOF 3
ENDMDL
MODEL 9
REMARK VINA RESULT:    -2.853      9.172     11.166
REMARK INTER + INTRA:          -3.383
REMARK INTER:                  -3.288
REMARK INTRA:                  -0.095
REMARK UNBOUND:                -0.030
REMARK SMILES CCCCC(=O)[O-]
REMARK SMILES IDX 4 1 5 2 6 3 7 4 3 5 2 6 1 7
REMARK H PARENT
REMARK Flexibility Score: inf
ROOT
ATOM      1  C   UNL     1       6.750  -1.436  35.335  1.00  0.00     0.053 C 
ENDROOT
BRANCH   1   2
ATOM      2  C   UNL     1       6.277  -2.109  36.584  1.00  0.00     0.041 C 
ATOM      3  O   UNL     1       6.643  -3.285  36.847  1.00  0.00    -0.550 OA
ATOM      4  O   UNL     1       5.394  -1.457  37.434  1.00  0.00    -0.550 OA
ENDBRANCH   1   2
BRANCH   1   5
ATOM      5  C   UNL     1       5.614  -1.358  34.306  1.00  0.00     0.006 C 
BRANCH   5   6
ATOM      6  C   UNL     1       5.144   0.082  34.053  1.00  0.00    -0.003 C 
ATOM      7  C   UNL     1       6.174   1.125  34.489  1.00  0.00     0.004 C 
ENDBRANCH   5   6
ENDBRANCH   1   5
TORSDOF 3
ENDMDL
