MODEL 1
REMARK VINA RESULT:    -3.901      0.000      0.000
REMARK INTER + INTRA:          -4.392
REMARK INTER:                  -4.357
REMARK INTRA:                  -0.034
REMARK UNBOUND:                -0.034
REMARK SMILES CCCC(=O)[O-]
REMARK SMILES IDX 3 1 4 2 5 3 6 4 2 5 1 6
REMARK H PARENT
REMARK Flexibility Score: inf
ROOT
ATOM      1  C   UNL     1      29.237   3.503   5.768  1.00  0.00     0.052 C 
ENDROOT
BRANCH   1   2
ATOM      2  C   UNL     1      27.981   2.999   5.131  1.00  0.00     0.041 C 
ATOM      3  O   UNL     1      27.508   1.880   5.461  1.00  0.00    -0.550 OA
ATOM      4  O   UNL     1      27.359   3.742   4.136  1.00  0.00    -0.550 OA
ENDBRANCH   1   2
BRANCH   1   5
ATOM      5  C   UNL     1      28.951   4.758   6.597  1.00  0.00     0.003 C 
ATOM      6  C   UNL     1      29.734   5.957   6.070  1.00  0.00     0.004 C 
ENDBRANCH   1   5
TORSDOF 2
ENDMDL
MODEL 2
REMARK VINA RESULT:    -3.775      1.866      3.118
REMARK INTER + INTRA:          -4.251
REMARK INTER:                  -4.227
REMARK INTRA:                  -0.024
REMARK UNBOUND:                -0.034
REMARK SMILES CCCC(=O)[O-]
REMARK SMILES IDX 3 1 4 2 5 3 6 4 2 5 1 6
REMARK H PARENT
REMARK Flexibility Score: inf
ROOT
ATOM      1  C   UNL     1      28.513   2.806   5.740  1.00  0.00     0.052 C 
ENDROOT
BRANCH   1   2
ATOM      2  C   UNL     1      27.932   3.903   4.906  1.00  0.00     0.041 C 
ATOM      3  O   UNL     1      27.271   3.628   3.869  1.00  0.00    -0.550 OA
ATOM      4  O   UNL     1      28.159   5.230   5.245  1.00  0.00    -0.550 OA
ENDBRANCH   1   2
BRANCH   1   5
ATOM      5  C   UNL     1      27.690   1.524   5.591  1.00  0.00     0.003 C 
ATOM      6  C   UNL     1      28.587   0.290   5.591  1.00  0.00     0.004 C 
ENDBRANCH   1   5
TORSDOF 2
ENDMDL
MODEL 3
REMARK VINA RESULT:    -3.767      2.435      3.335
REMARK INTER + INTRA:          -4.242
REMARK INTER:                  -4.171
REMARK INTRA:                  -0.071
REMARK UNBOUND:                -0.034
REMARK SMILES CCCC(=O)[O-]
REMARK SMILES IDX 3 1 4 2 5 3 6 4 2 5 1 6
REMARK H PARENT
REMARK Flexibility Score: inf
ROOT
ATOM      1  C   UNL     1      29.910   3.932   5.527  1.00  0.00     0.052 C 
ENDROOT
BRANCH   1   2
ATOM      2  C   UNL     1      29.583   5.151   6.331  1.00  0.00     0.041 C 
ATOM      3  O   UNL     1      29.969   6.286   5.946  1.00  0.00    -0.550 OA
ATOM      4  O   UNL     1      28.894   5.028   7.531  1.00  0.00    -0.550 OA
ENDBRANCH   1   2
BRANCH   1   5
ATOM      5  C   UNL     1      28.637   3.146   5.203  1.00  0.00     0.003 C 
ATOM      6  C   UNL     1      27.752   3.911   4.223  1.00  0.00     0.004 C 
ENDBRANCH   1   5
TORSDOF 2
ENDMDL
MODEL 4
REMARK VINA RESULT:    -3.717      1.988      2.458
REMARK INTER + INTRA:          -4.185
REMARK INTER:                  -4.152
REMARK INTRA:                  -0.033
REMARK UNBOUND:                -0.034
REMARK SMILES CCCC(=O)[O-]
REMARK SMILES IDX 3 1 4 2 5 3 6 4 2 5 1 6
REMARK H PARENT
REMARK Flexibility Score: inf
ROOT
ATOM      1  C   UNL     1      28.567   2.580   4.097  1.00  0.00     0.052 C 
ENDROOT
BRANCH   1   2
ATOM      2  C   UNL     1      27.947   1.336   4.652  1.00  0.00     0.041 C 
ATOM      3  O   UNL     1      27.402   1.353   5.787  1.00  0.00    -0.550 OA
ATOM      4  O   UNL     1      28.015   0.147   3.938  1.00  0.00    -0.550 OA
ENDBRANCH   1   2
BRANCH   1   5
ATOM      5  C   UNL     1      27.542   3.716   4.053  1.00  0.00     0.003 C 
ATOM      6  C   UNL     1      27.857   4.783   5.097  1.00  0.00     0.004 C 
ENDBRANCH   1   5
TORSDOF 2
ENDMDL
MODEL 5
REMARK VINA RESULT:    -3.601      2.489      3.883
REMARK INTER + INTRA:          -4.056
REMARK INTER:                  -4.018
REMARK INTRA:                  -0.039
REMARK UNBOUND:                -0.034
REMARK SMILES CCCC(=O)[O-]
REMARK SMILES IDX 3 1 4 2 5 3 6 4 2 5 1 6
REMARK H PARENT
REMARK Flexibility Score: inf
ROOT
ATOM      1  C   UNL     1      27.760   1.283   5.541  1.00  0.00     0.052 C 
ENDROOT
BRANCH   1   2
ATOM      2  C   UNL     1      28.539   2.518   5.219  1.00  0.00     0.041 C 
ATOM      3  O   UNL     1      28.970   2.709   4.051  1.00  0.00    -0.550 OA
ATOM      4  O   UNL     1      28.832   3.437   6.220  1.00  0.00    -0.550 OA
ENDBRANCH   1   2
BRANCH   1   5
ATOM      5  C   UNL     1      28.705   0.119   5.853  1.00  0.00     0.003 C 
ATOM      6  C   UNL     1      28.785  -0.855   4.682  1.00  0.00     0.004 C 
ENDBRANCH   1   5
TORSDOF 2
ENDMDL
MODEL 6
REMARK VINA RESULT:    -3.482      1.864      2.538
REMARK INTER + INTRA:          -3.923
REMARK INTER:                  -3.918
REMARK INTRA:                  -0.005
REMARK UNBOUND:                -0.034
REMARK SMILES CCCC(=O)[O-]
REMARK SMILES IDX 3 1 4 2 5 3 6 4 2 5 1 6
REMARK H PARENT
REMARK Flexibility Score: inf
ROOT
ATOM      1  C   UNL     1      27.776   2.330   5.103  1.00  0.00     0.052 C 
ENDROOT
BRANCH   1   2
ATOM      2  C   UNL     1      28.242   0.937   4.816  1.00  0.00     0.041 C 
ATOM      3  O   UNL     1      28.326   0.530   3.628  1.00  0.00    -0.550 OA
ATOM      4  O   UNL     1      28.538   0.073   5.863  1.00  0.00    -0.550 OA
ENDBRANCH   1   2
BRANCH   1   5
ATOM      5  C   UNL     1      28.798   3.069   5.971  1.00  0.00     0.003 C 
ATOM      6  C   UNL     1      28.549   4.574   5.954  1.00  0.00     0.004 C 
ENDBRANCH   1   5
TORSDOF 2
ENDMDL
MODEL 7
REMARK VINA RESULT:    -2.603      8.572      9.135
REMARK INTER + INTRA:          -2.941
REMARK INTER:                  -2.926
REMARK INTRA:                  -0.015
REMARK UNBOUND:                -0.034
REMARK SMILES CCCC(=O)[O-]
REMARK SMILES IDX 3 1 4 2 5 3 6 4 2 5 1 6
REMARK H PARENT
REMARK Flexibility Score: inf
ROOT
ATOM      1  C   UNL     1      28.718  -0.319  13.022  1.00  0.00     0.052 C 
ENDROOT
BRANCH   1   2
ATOM      2  C   UNL     1      27.999  -1.628  13.103  1.00  0.00     0.041 C 
ATOM      3  O   UNL     1      27.798  -2.172  14.221  1.00  0.00    -0.550 OA
ATOM      4  O   UNL     1      27.593  -2.272  11.941  1.00  0.00    -0.550 OA
ENDBRANCH   1   2
BRANCH   1   5
ATOM      5  C   UNL     1      30.138  -0.451  13.577  1.00  0.00     0.003 C 
ATOM      6  C   UNL     1      31.179  -0.133  12.508  1.00  0.00     0.004 C 
ENDBRANCH   1   5
TORSDOF 2
ENDMDL
MODEL 8
REMARK VINA RESULT:    -2.535     17.026     17.398
REMARK INTER + INTRA:          -2.866
REMARK INTER:                  -2.827
REMARK INTRA:                  -0.039
REMARK UNBOUND:                -0.034
REMARK SMILES CCCC(=O)[O-]
REMARK SMILES IDX 3 1 4 2 5 3 6 4 2 5 1 6
REMARK H PARENT
REMARK Flexibility Score: inf
ROOT
ATOM      1  C   UNL     1      27.712  11.037  21.925  1.00  0.00     0.052 C 
ENDROOT
BRANCH   1   2
ATOM      2  C   UNL     1      28.450   9.737  21.979  1.00  0.00     0.041 C 
ATOM      3  O   UNL     1      29.706   9.717  21.904  1.00  0.00    -0.550 OA
ATOM      4  O   UNL     1      27.746   8.542  22.064  1.00  0.00    -0.550 OA
ENDBRANCH   1   2
BRANCH   1   5
ATOM      5  C   UNL     1      27.566  11.510  20.476  1.00  0.00     0.003 C 
ATOM      6  C   UNL     1      28.526  12.656  20.171  1.00  0.00     0.004 C 
ENDBRANCH   1   5
TORSDOF 2
ENDMDL
MODEL 9
REMARK VINA RESULT:    -2.444     17.858     18.278
REMARK INTER + INTRA:          -2.764
REMARK INTER:                  -2.723
REMARK INTRA:                  -0.041
REMARK UNBOUND:                -0.034
REMARK SMILES CCCC(=O)[O-]
REMARK SMILES IDX 3 1 4 2 5 3 6 4 2 5 1 6
REMARK H PARENT
REMARK Flexibility Score: inf
ROOT
ATOM      1  C   UNL     1      45.233  -0.071   8.268  1.00  0.00     0.052 C 
ENDROOT
BRANCH   1   2
ATOM      2  C   UNL     1      45.519  -1.535   8.385  1.00  0.00     0.041 C 
ATOM      3  O   UNL     1      44.586  -2.374   8.281  1.00  0.00    -0.550 OA
ATOM      4  O   UNL     1      46.810  -1.971   8.656  1.00  0.00    -0.550 OA
ENDBRANCH   1   2
BRANCH   1   5
ATOM      5  C   UNL     1      46.530   0.714   8.064  1.00  0.00     0.003 C 
ATOM      6  C   UNL     1      46.757   1.029   6.589  1.00  0.00     0.004 C 
ENDBRANCH   1   5
TORSDOF 2
ENDMDL
