MODEL 1
REMARK VINA RESULT:    -5.651      0.000      0.000
REMARK INTER + INTRA:          -6.117
REMARK INTER:                  -5.981
REMARK INTRA:                  -0.136
REMARK UNBOUND:                -0.136
REMARK SMILES C=C(C)[C@@H]1CC=C(C)C(=O)C1
REMARK SMILES IDX 8 1 7 2 6 3 5 4 4 5 11 6 9 7 10 8 2 9 1 10 3 11
REMARK H PARENT
REMARK Flexibility Score: inf
ROOT
ATOM      1  C   UNL     1      -7.423  29.857  24.177  1.00  0.00     0.048 C 
ATOM      2  C   UNL     1      -8.271  30.920  23.538  1.00  0.00    -0.012 C 
ATOM      3  C   UNL     1      -8.447  32.098  24.161  1.00  0.00    -0.019 C 
ATOM      4  C   UNL     1      -9.281  33.205  23.570  1.00  0.00     0.036 C 
ATOM      5  C   UNL     1      -9.315  33.179  22.025  1.00  0.00     0.025 C 
ATOM      6  C   UNL     1      -9.668  31.764  21.526  1.00  0.00     0.089 C 
ATOM      7  C   UNL     1      -8.798  30.721  22.168  1.00  0.00     0.158 C 
ATOM      8  O   UNL     1      -8.556  29.653  21.544  1.00  0.00    -0.295 OA
ENDROOT
BRANCH   5   9
ATOM      9  C   UNL     1      -8.045  33.707  21.354  1.00  0.00    -0.077 C 
ATOM     10  C   UNL     1      -7.496  34.845  21.811  1.00  0.00     0.008 C 
ATOM     11  C   UNL     1      -7.431  33.027  20.151  1.00  0.00     0.039 C 
ENDBRANCH   5   9
TORSDOF 1
ENDMDL
MODEL 2
REMARK VINA RESULT:    -5.558      1.927      4.059
REMARK INTER + INTRA:          -6.019
REMARK INTER:                  -5.862
REMARK INTRA:                  -0.156
REMARK UNBOUND:                -0.136
REMARK SMILES C=C(C)[C@@H]1CC=C(C)C(=O)C1
REMARK SMILES IDX 8 1 7 2 6 3 5 4 4 5 11 6 9 7 10 8 2 9 1 10 3 11
REMARK H PARENT
REMARK Flexibility Score: inf
ROOT
ATOM      1  C   UNL     1      -7.308  34.817  22.745  1.00  0.00     0.048 C 
ATOM      2  C   UNL     1      -8.062  33.518  22.714  1.00  0.00    -0.012 C 
ATOM      3  C   UNL     1      -7.891  32.670  21.686  1.00  0.00    -0.019 C 
ATOM      4  C   UNL     1      -8.614  31.350  21.600  1.00  0.00     0.036 C 
ATOM      5  C   UNL     1      -8.966  30.763  22.985  1.00  0.00     0.025 C 
ATOM      6  C   UNL     1      -9.664  31.828  23.852  1.00  0.00     0.089 C 
ATOM      7  C   UNL     1      -8.885  33.113  23.878  1.00  0.00     0.158 C 
ATOM      8  O   UNL     1      -8.973  33.865  24.886  1.00  0.00    -0.295 OA
ENDROOT
BRANCH   5   9
ATOM      9  C   UNL     1      -7.786  30.127  23.724  1.00  0.00    -0.077 C 
ATOM     10  C   UNL     1      -6.724  29.711  23.013  1.00  0.00     0.008 C 
ATOM     11  C   UNL     1      -7.808  29.890  25.217  1.00  0.00     0.039 C 
ENDBRANCH   5   9
TORSDOF 1
ENDMDL
MODEL 3
REMARK VINA RESULT:    -5.456      1.537      2.314
REMARK INTER + INTRA:          -5.911
REMARK INTER:                  -5.758
REMARK INTRA:                  -0.153
REMARK UNBOUND:                -0.136
REMARK SMILES C=C(C)[C@@H]1CC=C(C)C(=O)C1
REMARK SMILES IDX 8 1 7 2 6 3 5 4 4 5 11 6 9 7 10 8 2 9 1 10 3 11
REMARK H PARENT
REMARK Flexibility Score: inf
ROOT
ATOM      1  C   UNL     1      -6.745  29.721  23.137  1.00  0.00     0.048 C 
ATOM      2  C   UNL     1      -7.874  30.695  23.323  1.00  0.00    -0.012 C 
ATOM      3  C   UNL     1      -8.510  30.763  24.505  1.00  0.00    -0.019 C 
ATOM      4  C   UNL     1      -9.646  31.721  24.757  1.00  0.00     0.036 C 
ATOM      5  C   UNL     1      -9.557  33.001  23.896  1.00  0.00     0.025 C 
ATOM      6  C   UNL     1      -9.336  32.633  22.416  1.00  0.00     0.089 C 
ATOM      7  C   UNL     1      -8.194  31.670  22.254  1.00  0.00     0.158 C 
ATOM      8  O   UNL     1      -7.536  31.671  21.178  1.00  0.00    -0.295 OA
ENDROOT
BRANCH   5   9
ATOM      9  C   UNL     1      -8.522  34.021  24.379  1.00  0.00    -0.077 C 
ATOM     10  C   UNL     1      -8.415  34.261  25.697  1.00  0.00     0.008 C 
ATOM     11  C   UNL     1      -7.666  34.813  23.416  1.00  0.00     0.039 C 
ENDBRANCH   5   9
TORSDOF 1
ENDMDL
MODEL 4
REMARK VINA RESULT:    -5.378      2.199      3.525
REMARK INTER + INTRA:          -5.828
REMARK INTER:                  -5.661
REMARK INTRA:                  -0.167
REMARK UNBOUND:                -0.136
REMARK SMILES C=C(C)[C@@H]1CC=C(C)C(=O)C1
REMARK SMILES IDX 8 1 7 2 6 3 5 4 4 5 11 6 9 7 10 8 2 9 1 10 3 11
REMARK H PARENT
REMARK Flexibility Score: inf
ROOT
ATOM      1  C   UNL     1      -9.497  31.364  26.380  1.00  0.00     0.048 C 
ATOM      2  C   UNL     1      -8.582  31.234  25.194  1.00  0.00    -0.012 C 
ATOM      3  C   UNL     1      -7.982  30.059  24.939  1.00  0.00    -0.019 C 
ATOM      4  C   UNL     1      -7.058  29.864  23.764  1.00  0.00     0.036 C 
ATOM      5  C   UNL     1      -7.390  30.794  22.574  1.00  0.00     0.025 C 
ATOM      6  C   UNL     1      -7.523  32.251  23.059  1.00  0.00     0.089 C 
ATOM      7  C   UNL     1      -8.452  32.357  24.235  1.00  0.00     0.158 C 
ATOM      8  O   UNL     1      -9.088  33.428  24.422  1.00  0.00    -0.295 OA
ENDROOT
BRANCH   5   9
ATOM      9  C   UNL     1      -8.609  30.365  21.754  1.00  0.00    -0.077 C 
ATOM     10  C   UNL     1      -8.956  29.067  21.740  1.00  0.00     0.008 C 
ATOM     11  C   UNL     1      -9.391  31.343  20.906  1.00  0.00     0.039 C 
ENDBRANCH   5   9
TORSDOF 1
ENDMDL
MODEL 5
REMARK VINA RESULT:    -5.369      1.726      4.218
REMARK INTER + INTRA:          -5.819
REMARK INTER:                  -5.650
REMARK INTRA:                  -0.169
REMARK UNBOUND:                -0.136
REMARK SMILES C=C(C)[C@@H]1CC=C(C)C(=O)C1
REMARK SMILES IDX 8 1 7 2 6 3 5 4 4 5 11 6 9 7 10 8 2 9 1 10 3 11
REMARK H PARENT
REMARK Flexibility Score: inf
ROOT
ATOM      1  C   UNL     1      -9.367  33.120  22.680  1.00  0.00     0.048 C 
ATOM      2  C   UNL     1      -8.592  31.992  23.302  1.00  0.00    -0.012 C 
ATOM      3  C   UNL     1      -8.851  31.623  24.568  1.00  0.00    -0.019 C 
ATOM      4  C   UNL     1      -8.112  30.498  25.247  1.00  0.00     0.036 C 
ATOM      5  C   UNL     1      -7.606  29.424  24.258  1.00  0.00     0.025 C 
ATOM      6  C   UNL     1      -6.845  30.090  23.095  1.00  0.00     0.089 C 
ATOM      7  C   UNL     1      -7.644  31.203  22.480  1.00  0.00     0.158 C 
ATOM      8  O   UNL     1      -7.469  31.489  21.265  1.00  0.00    -0.295 OA
ENDROOT
BRANCH   5   9
ATOM      9  C   UNL     1      -8.689  28.473  23.745  1.00  0.00    -0.077 C 
ATOM     10  C   UNL     1      -9.681  28.110  24.576  1.00  0.00     0.008 C 
ATOM     11  C   UNL     1      -8.641  27.875  22.356  1.00  0.00     0.039 C 
ENDBRANCH   5   9
TORSDOF 1
ENDMDL
MODEL 6
REMARK VINA RESULT:    -5.096      1.724      4.349
REMARK INTER + INTRA:          -5.529
REMARK INTER:                  -5.550
REMARK INTRA:                   0.021
REMARK UNBOUND:                -0.136
REMARK SMILES C=C(C)[C@@H]1CC=C(C)C(=O)C1
REMARK SMILES IDX 8 1 7 2 6 3 5 4 4 5 11 6 9 7 10 8 2 9 1 10 3 11
REMARK H PARENT
REMARK Flexibility Score: inf
ROOT
ATOM      1  C   UNL     1      -8.376  33.016  21.993  1.00  0.00     0.048 C 
ATOM      2  C   UNL     1      -8.087  31.555  22.195  1.00  0.00    -0.012 C 
ATOM      3  C   UNL     1      -7.117  31.177  23.045  1.00  0.00    -0.019 C 
ATOM      4  C   UNL     1      -6.783  29.729  23.295  1.00  0.00     0.036 C 
ATOM      5  C   UNL     1      -7.992  28.787  23.093  1.00  0.00     0.025 C 
ATOM      6  C   UNL     1      -8.667  29.071  21.737  1.00  0.00     0.089 C 
ATOM      7  C   UNL     1      -8.958  30.535  21.564  1.00  0.00     0.158 C 
ATOM      8  O   UNL     1      -9.927  30.889  20.841  1.00  0.00    -0.295 OA
ENDROOT
BRANCH   5   9
ATOM      9  C   UNL     1      -9.007  28.803  24.237  1.00  0.00    -0.077 C 
ATOM     10  C   UNL     1      -9.980  27.875  24.255  1.00  0.00     0.008 C 
ATOM     11  C   UNL     1      -8.992  29.869  25.310  1.00  0.00     0.039 C 
ENDBRANCH   5   9
TORSDOF 1
ENDMDL
MODEL 7
REMARK VINA RESULT:    -4.964      2.465      3.631
REMARK INTER + INTRA:          -5.390
REMARK INTER:                  -5.225
REMARK INTRA:                  -0.165
REMARK UNBOUND:                -0.136
REMARK SMILES C=C(C)[C@@H]1CC=C(C)C(=O)C1
REMARK SMILES IDX 8 1 7 2 6 3 5 4 4 5 11 6 9 7 10 8 2 9 1 10 3 11
REMARK H PARENT
REMARK Flexibility Score: inf
ROOT
ATOM      1  C   UNL     1      -7.848  32.364  27.547  1.00  0.00     0.048 C 
ATOM      2  C   UNL     1      -8.514  31.740  26.353  1.00  0.00    -0.012 C 
ATOM      3  C   UNL     1      -9.101  32.522  25.431  1.00  0.00    -0.019 C 
ATOM      4  C   UNL     1      -9.781  31.958  24.210  1.00  0.00     0.036 C 
ATOM      5  C   UNL     1      -9.181  30.608  23.754  1.00  0.00     0.025 C 
ATOM      6  C   UNL     1      -9.085  29.639  24.948  1.00  0.00     0.089 C 
ATOM      7  C   UNL     1      -8.404  30.280  26.124  1.00  0.00     0.158 C 
ATOM      8  O   UNL     1      -7.773  29.556  26.940  1.00  0.00    -0.295 OA
ENDROOT
BRANCH   5   9
ATOM      9  C   UNL     1      -7.843  30.724  23.020  1.00  0.00    -0.077 C 
ATOM     10  C   UNL     1      -7.655  31.749  22.172  1.00  0.00     0.008 C 
ATOM     11  C   UNL     1      -6.754  29.685  23.167  1.00  0.00     0.039 C 
ENDBRANCH   5   9
TORSDOF 1
ENDMDL
MODEL 8
REMARK VINA RESULT:    -4.908      1.566      3.822
REMARK INTER + INTRA:          -5.331
REMARK INTER:                  -5.172
REMARK INTRA:                  -0.159
REMARK UNBOUND:                -0.136
REMARK SMILES C=C(C)[C@@H]1CC=C(C)C(=O)C1
REMARK SMILES IDX 8 1 7 2 6 3 5 4 4 5 11 6 9 7 10 8 2 9 1 10 3 11
REMARK H PARENT
REMARK Flexibility Score: inf
ROOT
ATOM      1  C   UNL     1      -9.754  31.261  20.472  1.00  0.00     0.048 C 
ATOM      2  C   UNL     1      -8.965  31.210  21.750  1.00  0.00    -0.012 C 
ATOM      3  C   UNL     1      -8.774  32.334  22.462  1.00  0.00    -0.019 C 
ATOM      4  C   UNL     1      -7.997  32.349  23.753  1.00  0.00     0.036 C 
ATOM      5  C   UNL     1      -8.054  31.001  24.508  1.00  0.00     0.025 C 
ATOM      6  C   UNL     1      -7.705  29.842  23.554  1.00  0.00     0.089 C 
ATOM      7  C   UNL     1      -8.516  29.906  22.291  1.00  0.00     0.158 C 
ATOM      8  O   UNL     1      -8.775  28.839  21.672  1.00  0.00    -0.295 OA
ENDROOT
BRANCH   5   9
ATOM      9  C   UNL     1      -9.371  30.742  25.244  1.00  0.00    -0.077 C 
ATOM     10  C   UNL     1      -9.962  31.759  25.894  1.00  0.00     0.008 C 
ATOM     11  C   UNL     1      -9.991  29.364  25.319  1.00  0.00     0.039 C 
ENDBRANCH   5   9
TORSDOF 1
ENDMDL
MODEL 9
REMARK VINA RESULT:    -4.630     15.852     17.986
REMARK INTER + INTRA:          -5.036
REMARK INTER:                  -4.908
REMARK INTRA:                  -0.129
REMARK UNBOUND:                -0.136
REMARK SMILES C=C(C)[C@@H]1CC=C(C)C(=O)C1
REMARK SMILES IDX 8 1 7 2 6 3 5 4 4 5 11 6 9 7 10 8 2 9 1 10 3 11
REMARK H PARENT
REMARK Flexibility Score: inf
ROOT
ATOM      1  C   UNL     1       1.337  48.124  22.319  1.00  0.00     0.048 C 
ATOM      2  C   UNL     1       2.024  47.387  21.204  1.00  0.00    -0.012 C 
ATOM      3  C   UNL     1       3.327  47.076  21.313  1.00  0.00    -0.019 C 
ATOM      4  C   UNL     1       4.072  46.334  20.233  1.00  0.00     0.036 C 
ATOM      5  C   UNL     1       3.161  45.401  19.403  1.00  0.00     0.025 C 
ATOM      6  C   UNL     1       1.914  46.167  18.921  1.00  0.00     0.089 C 
ATOM      7  C   UNL     1       1.236  46.885  20.054  1.00  0.00     0.158 C 
ATOM      8  O   UNL     1      -0.005  47.093  19.996  1.00  0.00    -0.295 OA
ENDROOT
BRANCH   5   9
ATOM      9  C   UNL     1       2.778  44.097  20.107  1.00  0.00    -0.077 C 
ATOM     10  C   UNL     1       1.831  43.318  19.558  1.00  0.00     0.008 C 
ATOM     11  C   UNL     1       3.382  43.693  21.434  1.00  0.00     0.039 C 
ENDBRANCH   5   9
TORSDOF 1
ENDMDL
