MODEL 1
REMARK VINA RESULT:    -4.857      0.000      0.000
REMARK INTER + INTRA:          -7.299
REMARK INTER:                  -6.844
REMARK INTRA:                  -0.454
REMARK UNBOUND:                -0.454
REMARK SMILES CCCCCCCCC(=O)[O-]
REMARK SMILES IDX 6 1 7 2 8 3 9 4 10 5 11 6 5 7 4 8 3 9 2 10 1 11
REMARK H PARENT
REMARK Flexibility Score: inf
ROOT
ATOM      1  C   UNL     1       7.047  23.071  -9.495  1.00  0.00     0.000 C 
ENDROOT
BRANCH   1   2
ATOM      2  C   UNL     1       7.180  24.030  -8.300  1.00  0.00     0.006 C 
BRANCH   2   3
ATOM      3  C   UNL     1       6.185  23.699  -7.179  1.00  0.00     0.053 C 
BRANCH   3   4
ATOM      4  C   UNL     1       6.751  24.000  -5.825  1.00  0.00     0.041 C 
ATOM      5  O   UNL     1       6.701  25.171  -5.362  1.00  0.00    -0.550 OA
ATOM      6  O   UNL     1       7.361  22.994  -5.085  1.00  0.00    -0.550 OA
ENDBRANCH   3   4
ENDBRANCH   2   3
ENDBRANCH   1   2
BRANCH   1   7
ATOM      7  C   UNL     1       8.386  22.429  -9.893  1.00  0.00     0.000 C 
BRANCH   7   8
ATOM      8  C   UNL     1       9.285  22.137  -8.679  1.00  0.00    -0.000 C 
BRANCH   8   9
ATOM      9  C   UNL     1      10.771  22.406  -8.968  1.00  0.00    -0.000 C 
BRANCH   9  10
ATOM     10  C   UNL     1      10.982  23.366 -10.148  1.00  0.00    -0.003 C 
ATOM     11  C   UNL     1      11.811  24.577  -9.731  1.00  0.00     0.004 C 
ENDBRANCH   9  10
ENDBRANCH   8   9
ENDBRANCH   7   8
ENDBRANCH   1   7
TORSDOF 7
ENDMDL
MODEL 2
REMARK VINA RESULT:    -4.784      1.386      2.380
REMARK INTER + INTRA:          -7.196
REMARK INTER:                  -6.646
REMARK INTRA:                  -0.550
REMARK UNBOUND:                -0.454
REMARK SMILES CCCCCCCCC(=O)[O-]
REMARK SMILES IDX 6 1 7 2 8 3 9 4 10 5 11 6 5 7 4 8 3 9 2 10 1 11
REMARK H PARENT
REMARK Flexibility Score: inf
ROOT
ATOM      1  C   UNL     1       7.778  22.883  -9.341  1.00  0.00     0.000 C 
ENDROOT
BRANCH   1   2
ATOM      2  C   UNL     1       7.526  23.996  -8.309  1.00  0.00     0.006 C 
BRANCH   2   3
ATOM      3  C   UNL     1       6.390  23.640  -7.340  1.00  0.00     0.053 C 
BRANCH   3   4
ATOM      4  C   UNL     1       6.774  23.889  -5.914  1.00  0.00     0.041 C 
ATOM      5  O   UNL     1       7.355  22.991  -5.248  1.00  0.00    -0.550 OA
ATOM      6  O   UNL     1       6.465  25.101  -5.311  1.00  0.00    -0.550 OA
ENDBRANCH   3   4
ENDBRANCH   2   3
ENDBRANCH   1   2
BRANCH   1   7
ATOM      7  C   UNL     1       9.158  22.226  -9.179  1.00  0.00     0.000 C 
BRANCH   7   8
ATOM      8  C   UNL     1       9.967  22.829  -8.016  1.00  0.00    -0.000 C 
BRANCH   8   9
ATOM      9  C   UNL     1      10.294  21.796  -6.926  1.00  0.00    -0.000 C 
BRANCH   9  10
ATOM     10  C   UNL     1      10.194  20.349  -7.432  1.00  0.00    -0.003 C 
ATOM     11  C   UNL     1      11.570  19.800  -7.802  1.00  0.00     0.004 C 
ENDBRANCH   9  10
ENDBRANCH   8   9
ENDBRANCH   7   8
ENDBRANCH   1   7
TORSDOF 7
ENDMDL
MODEL 3
REMARK VINA RESULT:    -4.748      0.599      1.247
REMARK INTER + INTRA:          -7.146
REMARK INTER:                  -6.843
REMARK INTRA:                  -0.303
REMARK UNBOUND:                -0.454
REMARK SMILES CCCCCCCCC(=O)[O-]
REMARK SMILES IDX 6 1 7 2 8 3 9 4 10 5 11 6 5 7 4 8 3 9 2 10 1 11
REMARK H PARENT
REMARK Flexibility Score: inf
ROOT
ATOM      1  C   UNL     1       6.953  23.198  -9.546  1.00  0.00     0.000 C 
ENDROOT
BRANCH   1   2
ATOM      2  C   UNL     1       7.045  24.120  -8.319  1.00  0.00     0.006 C 
BRANCH   2   3
ATOM      3  C   UNL     1       6.167  23.629  -7.160  1.00  0.00     0.053 C 
BRANCH   3   4
ATOM      4  C   UNL     1       6.731  24.020  -5.828  1.00  0.00     0.041 C 
ATOM      5  O   UNL     1       7.308  23.162  -5.108  1.00  0.00    -0.550 OA
ATOM      6  O   UNL     1       6.595  25.324  -5.368  1.00  0.00    -0.550 OA
ENDBRANCH   3   4
ENDBRANCH   2   3
ENDBRANCH   1   2
BRANCH   1   7
ATOM      7  C   UNL     1       8.263  22.442  -9.821  1.00  0.00     0.000 C 
BRANCH   7   8
ATOM      8  C   UNL     1       9.443  22.985  -8.993  1.00  0.00    -0.000 C 
BRANCH   8   9
ATOM      9  C   UNL     1      10.727  23.133  -9.825  1.00  0.00    -0.000 C 
BRANCH   9  10
ATOM     10  C   UNL     1      11.514  24.407  -9.480  1.00  0.00    -0.003 C 
ATOM     11  C   UNL     1      12.532  24.141  -8.376  1.00  0.00     0.004 C 
ENDBRANCH   9  10
ENDBRANCH   8   9
ENDBRANCH   7   8
ENDBRANCH   1   7
TORSDOF 7
ENDMDL
MODEL 4
REMARK VINA RESULT:    -4.686      2.745      4.938
REMARK INTER + INTRA:          -7.059
REMARK INTER:                  -6.524
REMARK INTRA:                  -0.535
REMARK UNBOUND:                -0.454
REMARK SMILES CCCCCCCCC(=O)[O-]
REMARK SMILES IDX 6 1 7 2 8 3 9 4 10 5 11 6 5 7 4 8 3 9 2 10 1 11
REMARK H PARENT
REMARK Flexibility Score: inf
ROOT
ATOM      1  C   UNL     1       7.827  22.476  -9.783  1.00  0.00     0.000 C 
ENDROOT
BRANCH   1   2
ATOM      2  C   UNL     1       9.178  22.527  -9.049  1.00  0.00     0.006 C 
BRANCH   2   3
ATOM      3  C   UNL     1      10.327  22.939  -9.979  1.00  0.00     0.053 C 
BRANCH   3   4
ATOM      4  C   UNL     1      11.404  23.675  -9.243  1.00  0.00     0.041 C 
ATOM      5  O   UNL     1      11.711  23.341  -8.067  1.00  0.00    -0.550 OA
ATOM      6  O   UNL     1      12.048  24.750  -9.843  1.00  0.00    -0.550 OA
ENDBRANCH   3   4
ENDBRANCH   2   3
ENDBRANCH   1   2
BRANCH   1   7
ATOM      7  C   UNL     1       6.751  23.338  -9.105  1.00  0.00     0.000 C 
BRANCH   7   8
ATOM      8  C   UNL     1       7.345  24.541  -8.349  1.00  0.00    -0.000 C 
BRANCH   8   9
ATOM      9  C   UNL     1       6.807  24.659  -6.914  1.00  0.00    -0.000 C 
BRANCH   9  10
ATOM     10  C   UNL     1       6.327  23.315  -6.347  1.00  0.00    -0.003 C 
ATOM     11  C   UNL     1       7.310  22.771  -5.315  1.00  0.00     0.004 C 
ENDBRANCH   9  10
ENDBRANCH   8   9
ENDBRANCH   7   8
ENDBRANCH   1   7
TORSDOF 7
ENDMDL
MODEL 5
REMARK VINA RESULT:    -4.681      3.054      4.960
REMARK INTER + INTRA:          -7.051
REMARK INTER:                  -6.409
REMARK INTRA:                  -0.643
REMARK UNBOUND:                -0.454
REMARK SMILES CCCCCCCCC(=O)[O-]
REMARK SMILES IDX 6 1 7 2 8 3 9 4 10 5 11 6 5 7 4 8 3 9 2 10 1 11
REMARK H PARENT
REMARK Flexibility Score: inf
ROOT
ATOM      1  C   UNL     1       9.164  22.819  -9.599  1.00  0.00     0.000 C 
ENDROOT
BRANCH   1   2
ATOM      2  C   UNL     1       9.908  22.745  -8.256  1.00  0.00     0.006 C 
BRANCH   2   3
ATOM      3  C   UNL     1      10.002  21.308  -7.725  1.00  0.00     0.053 C 
BRANCH   3   4
ATOM      4  C   UNL     1      11.399  20.772  -7.809  1.00  0.00     0.041 C 
ATOM      5  O   UNL     1      12.382  21.560  -7.794  1.00  0.00    -0.550 OA
ATOM      6  O   UNL     1      11.615  19.406  -7.935  1.00  0.00    -0.550 OA
ENDBRANCH   3   4
ENDBRANCH   2   3
ENDBRANCH   1   2
BRANCH   1   7
ATOM      7  C   UNL     1       7.636  22.863  -9.429  1.00  0.00     0.000 C 
BRANCH   7   8
ATOM      8  C   UNL     1       7.173  24.039  -8.551  1.00  0.00    -0.000 C 
BRANCH   8   9
ATOM      9  C   UNL     1       6.292  23.585  -7.375  1.00  0.00    -0.000 C 
BRANCH   9  10
ATOM     10  C   UNL     1       6.885  23.962  -6.009  1.00  0.00    -0.003 C 
ATOM     11  C   UNL     1       7.392  22.726  -5.272  1.00  0.00     0.004 C 
ENDBRANCH   9  10
ENDBRANCH   8   9
ENDBRANCH   7   8
ENDBRANCH   1   7
TORSDOF 7
ENDMDL
MODEL 6
REMARK VINA RESULT:    -4.655      3.238      5.197
REMARK INTER + INTRA:          -7.014
REMARK INTER:                  -6.634
REMARK INTRA:                  -0.381
REMARK UNBOUND:                -0.454
REMARK SMILES CCCCCCCCC(=O)[O-]
REMARK SMILES IDX 6 1 7 2 8 3 9 4 10 5 11 6 5 7 4 8 3 9 2 10 1 11
REMARK H PARENT
REMARK Flexibility Score: inf
ROOT
ATOM      1  C   UNL     1       8.712  22.629  -9.714  1.00  0.00     0.000 C 
ENDROOT
BRANCH   1   2
ATOM      2  C   UNL     1      10.248  22.640  -9.786  1.00  0.00     0.006 C 
BRANCH   2   3
ATOM      3  C   UNL     1      10.880  23.325  -8.566  1.00  0.00     0.053 C 
BRANCH   3   4
ATOM      4  C   UNL     1      12.016  24.221  -8.956  1.00  0.00     0.041 C 
ATOM      5  O   UNL     1      12.964  24.429  -8.152  1.00  0.00    -0.550 OA
ATOM      6  O   UNL     1      12.014  24.850 -10.194  1.00  0.00    -0.550 OA
ENDBRANCH   3   4
ENDBRANCH   2   3
ENDBRANCH   1   2
BRANCH   1   7
ATOM      7  C   UNL     1       8.158  23.643  -8.700  1.00  0.00     0.000 C 
BRANCH   7   8
ATOM      8  C   UNL     1       6.673  23.968  -8.941  1.00  0.00    -0.000 C 
BRANCH   8   9
ATOM      9  C   UNL     1       5.936  22.841  -9.683  1.00  0.00    -0.000 C 
BRANCH   9  10
ATOM     10  C   UNL     1       5.365  23.296 -11.035  1.00  0.00    -0.003 C 
ATOM     11  C   UNL     1       4.814  24.717 -10.948  1.00  0.00     0.004 C 
ENDBRANCH   9  10
ENDBRANCH   8   9
ENDBRANCH   7   8
ENDBRANCH   1   7
TORSDOF 7
ENDMDL
MODEL 7
REMARK VINA RESULT:    -4.508      2.174      4.500
REMARK INTER + INTRA:          -6.807
REMARK INTER:                  -6.311
REMARK INTRA:                  -0.496
REMARK UNBOUND:                -0.454
REMARK SMILES CCCCCCCCC(=O)[O-]
REMARK SMILES IDX 6 1 7 2 8 3 9 4 10 5 11 6 5 7 4 8 3 9 2 10 1 11
REMARK H PARENT
REMARK Flexibility Score: inf
ROOT
ATOM      1  C   UNL     1       9.966  22.501  -9.754  1.00  0.00     0.000 C 
ENDROOT
BRANCH   1   2
ATOM      2  C   UNL     1      10.539  23.107  -8.462  1.00  0.00     0.006 C 
BRANCH   2   3
ATOM      3  C   UNL     1      11.238  22.054  -7.590  1.00  0.00     0.053 C 
BRANCH   3   4
ATOM      4  C   UNL     1      10.257  21.117  -6.954  1.00  0.00     0.041 C 
ATOM      5  O   UNL     1      10.222  19.906  -7.300  1.00  0.00    -0.550 OA
ATOM      6  O   UNL     1       9.361  21.586  -6.002  1.00  0.00    -0.550 OA
ENDBRANCH   3   4
ENDBRANCH   2   3
ENDBRANCH   1   2
BRANCH   1   7
ATOM      7  C   UNL     1       8.429  22.511  -9.783  1.00  0.00     0.000 C 
BRANCH   7   8
ATOM      8  C   UNL     1       7.824  23.441  -8.716  1.00  0.00    -0.000 C 
BRANCH   8   9
ATOM      9  C   UNL     1       6.312  23.646  -8.902  1.00  0.00    -0.000 C 
BRANCH   9  10
ATOM     10  C   UNL     1       5.779  22.999 -10.189  1.00  0.00    -0.003 C 
ATOM     11  C   UNL     1       5.013  24.012 -11.036  1.00  0.00     0.004 C 
ENDBRANCH   9  10
ENDBRANCH   8   9
ENDBRANCH   7   8
ENDBRANCH   1   7
TORSDOF 7
ENDMDL
MODEL 8
REMARK VINA RESULT:    -4.474      3.414      5.417
REMARK INTER + INTRA:          -6.759
REMARK INTER:                  -6.579
REMARK INTRA:                  -0.180
REMARK UNBOUND:                -0.454
REMARK SMILES CCCCCCCCC(=O)[O-]
REMARK SMILES IDX 6 1 7 2 8 3 9 4 10 5 11 6 5 7 4 8 3 9 2 10 1 11
REMARK H PARENT
REMARK Flexibility Score: inf
ROOT
ATOM      1  C   UNL     1       8.730  22.493  -9.099  1.00  0.00     0.000 C 
ENDROOT
BRANCH   1   2
ATOM      2  C   UNL     1      10.023  22.988  -9.768  1.00  0.00     0.006 C 
BRANCH   2   3
ATOM      3  C   UNL     1      11.220  22.959  -8.807  1.00  0.00     0.053 C 
BRANCH   3   4
ATOM      4  C   UNL     1      12.102  24.157  -8.980  1.00  0.00     0.041 C 
ATOM      5  O   UNL     1      12.044  24.841 -10.037  1.00  0.00    -0.550 OA
ATOM      6  O   UNL     1      13.011  24.502  -7.987  1.00  0.00    -0.550 OA
ENDBRANCH   3   4
ENDBRANCH   2   3
ENDBRANCH   1   2
BRANCH   1   7
ATOM      7  C   UNL     1       7.535  22.466 -10.066  1.00  0.00     0.000 C 
BRANCH   7   8
ATOM      8  C   UNL     1       6.275  23.116  -9.465  1.00  0.00    -0.000 C 
BRANCH   8   9
ATOM      9  C   UNL     1       5.067  23.047 -10.415  1.00  0.00    -0.000 C 
BRANCH   9  10
ATOM     10  C   UNL     1       4.671  24.423 -10.971  1.00  0.00    -0.003 C 
ATOM     11  C   UNL     1       4.591  24.397 -12.495  1.00  0.00     0.004 C 
ENDBRANCH   9  10
ENDBRANCH   8   9
ENDBRANCH   7   8
ENDBRANCH   1   7
TORSDOF 7
ENDMDL
MODEL 9
REMARK VINA RESULT:    -4.425      2.373      2.681
REMARK INTER + INTRA:          -6.690
REMARK INTER:                  -6.333
REMARK INTRA:                  -0.357
REMARK UNBOUND:                -0.454
REMARK SMILES CCCCCCCCC(=O)[O-]
REMARK SMILES IDX 6 1 7 2 8 3 9 4 10 5 11 6 5 7 4 8 3 9 2 10 1 11
REMARK H PARENT
REMARK Flexibility Score: inf
ROOT
ATOM      1  C   UNL     1       7.438  22.862  -9.461  1.00  0.00     0.000 C 
ENDROOT
BRANCH   1   2
ATOM      2  C   UNL     1       6.063  23.548  -9.515  1.00  0.00     0.006 C 
BRANCH   2   3
ATOM      3  C   UNL     1       4.913  22.536  -9.598  1.00  0.00     0.053 C 
BRANCH   3   4
ATOM      4  C   UNL     1       4.111  22.498  -8.333  1.00  0.00     0.041 C 
ATOM      5  O   UNL     1       4.638  22.828  -7.237  1.00  0.00    -0.550 OA
ATOM      6  O   UNL     1       2.789  22.071  -8.359  1.00  0.00    -0.550 OA
ENDBRANCH   3   4
ENDBRANCH   2   3
ENDBRANCH   1   2
BRANCH   1   7
ATOM      7  C   UNL     1       8.288  23.328  -8.268  1.00  0.00     0.000 C 
BRANCH   7   8
ATOM      8  C   UNL     1       9.573  22.498  -8.098  1.00  0.00    -0.000 C 
BRANCH   8   9
ATOM      9  C   UNL     1      10.413  22.441  -9.385  1.00  0.00    -0.000 C 
BRANCH   9  10
ATOM     10  C   UNL     1      11.031  23.799  -9.750  1.00  0.00    -0.003 C 
ATOM     11  C   UNL     1      12.141  24.177  -8.774  1.00  0.00     0.004 C 
ENDBRANCH   9  10
ENDBRANCH   8   9
ENDBRANCH   7   8
ENDBRANCH   1   7
TORSDOF 7
ENDMDL
