MODEL 1
REMARK VINA RESULT:    -5.888      0.000      0.000
REMARK INTER + INTRA:          -5.888
REMARK INTER:                  -5.888
REMARK INTRA:                   0.000
REMARK UNBOUND:                 0.000
REMARK SMILES C=C1c2ccccc2-c2ccccc21
REMARK SMILES IDX 1 1 2 2 3 3 4 4 5 5 6 6 7 7 8 8 9 9 10 10 11 11 12 12 13 13
REMARK SMILES IDX 14 14
REMARK H PARENT
REMARK Flexibility Score: inf
ROOT
ATOM      1  C   UNL     1       2.509  60.853 131.525  1.00  0.00     0.018 C 
ATOM      2  C   UNL     1       2.103  60.015 132.478  1.00  0.00    -0.017 C 
ATOM      3  C   UNL     1       0.789  59.980 133.133  1.00  0.00    -0.010 A 
ATOM      4  C   UNL     1      -0.335  60.785 132.938  1.00  0.00     0.009 A 
ATOM      5  C   UNL     1      -1.481  60.531 133.712  1.00  0.00     0.001 A 
ATOM      6  C   UNL     1      -1.485  59.487 134.661  1.00  0.00     0.001 A 
ATOM      7  C   UNL     1      -0.344  58.687 134.845  1.00  0.00     0.009 A 
ATOM      8  C   UNL     1       0.781  58.956 134.066  1.00  0.00    -0.010 A 
ATOM      9  C   UNL     1       2.085  58.300 134.043  1.00  0.00    -0.010 A 
ATOM     10  C   UNL     1       2.560  57.224 134.793  1.00  0.00     0.009 A 
ATOM     11  C   UNL     1       3.875  56.786 134.565  1.00  0.00     0.001 A 
ATOM     12  C   UNL     1       4.684  57.424 133.603  1.00  0.00     0.001 A 
ATOM     13  C   UNL     1       4.186  58.506 132.857  1.00  0.00     0.009 A 
ATOM     14  C   UNL     1       2.875  58.929 133.096  1.00  0.00    -0.010 A 
ENDROOT
TORSDOF 0
ENDMDL
MODEL 2
REMARK VINA RESULT:    -5.876      0.017      4.268
REMARK INTER + INTRA:          -5.876
REMARK INTER:                  -5.876
REMARK INTRA:                   0.000
REMARK UNBOUND:                 0.000
REMARK SMILES C=C1c2ccccc2-c2ccccc21
REMARK SMILES IDX 1 1 2 2 3 3 4 4 5 5 6 6 7 7 8 8 9 9 10 10 11 11 12 12 13 13
REMARK SMILES IDX 14 14
REMARK H PARENT
REMARK Flexibility Score: inf
ROOT
ATOM      1  C   UNL     1       2.501  60.855 131.537  1.00  0.00     0.018 C 
ATOM      2  C   UNL     1       2.101  60.013 132.488  1.00  0.00    -0.017 C 
ATOM      3  C   UNL     1       2.877  58.926 133.100  1.00  0.00    -0.010 A 
ATOM      4  C   UNL     1       4.186  58.506 132.855  1.00  0.00     0.009 A 
ATOM      5  C   UNL     1       4.689  57.422 133.595  1.00  0.00     0.001 A 
ATOM      6  C   UNL     1       3.885  56.779 134.558  1.00  0.00     0.001 A 
ATOM      7  C   UNL     1       2.568  57.214 134.792  1.00  0.00     0.009 A 
ATOM      8  C   UNL     1       2.089  58.292 134.048  1.00  0.00    -0.010 A 
ATOM      9  C   UNL     1       0.785  58.946 134.077  1.00  0.00    -0.010 A 
ATOM     10  C   UNL     1      -0.338  58.672 134.858  1.00  0.00     0.009 A 
ATOM     11  C   UNL     1      -1.480  59.471 134.681  1.00  0.00     0.001 A 
ATOM     12  C   UNL     1      -1.481  60.517 133.736  1.00  0.00     0.001 A 
ATOM     13  C   UNL     1      -0.339  60.777 132.959  1.00  0.00     0.009 A 
ATOM     14  C   UNL     1       0.789  59.973 133.148  1.00  0.00    -0.010 A 
ENDROOT
TORSDOF 0
ENDMDL
MODEL 3
REMARK VINA RESULT:    -5.781      0.690      4.809
REMARK INTER + INTRA:          -5.781
REMARK INTER:                  -5.781
REMARK INTRA:                   0.000
REMARK UNBOUND:                 0.000
REMARK SMILES C=C1c2ccccc2-c2ccccc21
REMARK SMILES IDX 1 1 2 2 3 3 4 4 5 5 6 6 7 7 8 8 9 9 10 10 11 11 12 12 13 13
REMARK SMILES IDX 14 14
REMARK H PARENT
REMARK Flexibility Score: inf
ROOT
ATOM      1  C   UNL     1       2.344  57.388 135.218  1.00  0.00     0.018 C 
ATOM      2  C   UNL     1       1.956  58.345 134.377  1.00  0.00    -0.017 C 
ATOM      3  C   UNL     1       2.751  58.969 133.310  1.00  0.00    -0.010 A 
ATOM      4  C   UNL     1       4.069  58.733 132.914  1.00  0.00     0.009 A 
ATOM      5  C   UNL     1       4.589  59.484 131.846  1.00  0.00     0.001 A 
ATOM      6  C   UNL     1       3.793  60.450 131.197  1.00  0.00     0.001 A 
ATOM      7  C   UNL     1       2.469  60.676 131.609  1.00  0.00     0.009 A 
ATOM      8  C   UNL     1       1.971  59.919 132.670  1.00  0.00    -0.010 A 
ATOM      9  C   UNL     1       0.655  59.939 133.300  1.00  0.00    -0.010 A 
ATOM     10  C   UNL     1      -0.465  60.719 133.013  1.00  0.00     0.009 A 
ATOM     11  C   UNL     1      -1.621  60.531 133.788  1.00  0.00     0.001 A 
ATOM     12  C   UNL     1      -1.638  59.577 134.826  1.00  0.00     0.001 A 
ATOM     13  C   UNL     1      -0.499  58.801 135.099  1.00  0.00     0.009 A 
ATOM     14  C   UNL     1       0.643  59.001 134.319  1.00  0.00    -0.010 A 
ENDROOT
TORSDOF 0
ENDMDL
MODEL 4
REMARK VINA RESULT:    -5.778      0.687      2.864
REMARK INTER + INTRA:          -5.778
REMARK INTER:                  -5.778
REMARK INTRA:                   0.000
REMARK UNBOUND:                 0.000
REMARK SMILES C=C1c2ccccc2-c2ccccc21
REMARK SMILES IDX 1 1 2 2 3 3 4 4 5 5 6 6 7 7 8 8 9 9 10 10 11 11 12 12 13 13
REMARK SMILES IDX 14 14
REMARK H PARENT
REMARK Flexibility Score: inf
ROOT
ATOM      1  C   UNL     1       2.350  57.385 135.228  1.00  0.00     0.018 C 
ATOM      2  C   UNL     1       1.964  58.342 134.386  1.00  0.00    -0.017 C 
ATOM      3  C   UNL     1       0.651  59.000 134.327  1.00  0.00    -0.010 A 
ATOM      4  C   UNL     1      -0.490  58.802 135.107  1.00  0.00     0.009 A 
ATOM      5  C   UNL     1      -1.628  59.580 134.832  1.00  0.00     0.001 A 
ATOM      6  C   UNL     1      -1.610  60.533 133.793  1.00  0.00     0.001 A 
ATOM      7  C   UNL     1      -0.452  60.719 133.018  1.00  0.00     0.009 A 
ATOM      8  C   UNL     1       0.667  59.937 133.307  1.00  0.00    -0.010 A 
ATOM      9  C   UNL     1       1.983  59.915 132.677  1.00  0.00    -0.010 A 
ATOM     10  C   UNL     1       2.482  60.669 131.615  1.00  0.00     0.009 A 
ATOM     11  C   UNL     1       3.806  60.441 131.204  1.00  0.00     0.001 A 
ATOM     12  C   UNL     1       4.599  59.474 131.854  1.00  0.00     0.001 A 
ATOM     13  C   UNL     1       4.078  58.725 132.923  1.00  0.00     0.009 A 
ATOM     14  C   UNL     1       2.759  58.964 133.319  1.00  0.00    -0.010 A 
ENDROOT
TORSDOF 0
ENDMDL
MODEL 5
REMARK VINA RESULT:    -5.649      1.220      3.146
REMARK INTER + INTRA:          -5.649
REMARK INTER:                  -5.649
REMARK INTRA:                   0.000
REMARK UNBOUND:                 0.000
REMARK SMILES C=C1c2ccccc2-c2ccccc21
REMARK SMILES IDX 1 1 2 2 3 3 4 4 5 5 6 6 7 7 8 8 9 9 10 10 11 11 12 12 13 13
REMARK SMILES IDX 14 14
REMARK H PARENT
REMARK Flexibility Score: inf
ROOT
ATOM      1  C   UNL     1       2.812  56.789 135.080  1.00  0.00     0.018 C 
ATOM      2  C   UNL     1       3.022  57.808 134.247  1.00  0.00    -0.017 C 
ATOM      3  C   UNL     1       2.032  58.775 133.755  1.00  0.00    -0.010 A 
ATOM      4  C   UNL     1       0.664  58.877 134.020  1.00  0.00     0.009 A 
ATOM      5  C   UNL     1      -0.058  59.915 133.407  1.00  0.00     0.001 A 
ATOM      6  C   UNL     1       0.589  60.825 132.546  1.00  0.00     0.001 A 
ATOM      7  C   UNL     1       1.966  60.708 132.290  1.00  0.00     0.009 A 
ATOM      8  C   UNL     1       2.665  59.671 132.910  1.00  0.00    -0.010 A 
ATOM      9  C   UNL     1       4.077  59.313 132.828  1.00  0.00    -0.010 A 
ATOM     10  C   UNL     1       5.113  59.910 132.111  1.00  0.00     0.009 A 
ATOM     11  C   UNL     1       6.399  59.353 132.215  1.00  0.00     0.001 A 
ATOM     12  C   UNL     1       6.624  58.221 133.025  1.00  0.00     0.001 A 
ATOM     13  C   UNL     1       5.566  57.635 133.741  1.00  0.00     0.009 A 
ATOM     14  C   UNL     1       4.293  58.202 133.626  1.00  0.00    -0.010 A 
ENDROOT
TORSDOF 0
ENDMDL
MODEL 6
REMARK VINA RESULT:    -5.647      1.291      5.326
REMARK INTER + INTRA:          -5.647
REMARK INTER:                  -5.647
REMARK INTRA:                   0.000
REMARK UNBOUND:                 0.000
REMARK SMILES C=C1c2ccccc2-c2ccccc21
REMARK SMILES IDX 1 1 2 2 3 3 4 4 5 5 6 6 7 7 8 8 9 9 10 10 11 11 12 12 13 13
REMARK SMILES IDX 14 14
REMARK H PARENT
REMARK Flexibility Score: inf
ROOT
ATOM      1  C   UNL     1       2.978  56.843 135.125  1.00  0.00     0.018 C 
ATOM      2  C   UNL     1       3.202  57.842 134.273  1.00  0.00    -0.017 C 
ATOM      3  C   UNL     1       4.482  58.219 133.658  1.00  0.00    -0.010 A 
ATOM      4  C   UNL     1       5.750  57.651 133.801  1.00  0.00     0.009 A 
ATOM      5  C   UNL     1       6.819  58.219 133.085  1.00  0.00     0.001 A 
ATOM      6  C   UNL     1       6.607  59.333 132.248  1.00  0.00     0.001 A 
ATOM      7  C   UNL     1       5.324  59.892 132.117  1.00  0.00     0.009 A 
ATOM      8  C   UNL     1       4.277  59.314 132.834  1.00  0.00    -0.010 A 
ATOM      9  C   UNL     1       2.865  59.678 132.891  1.00  0.00    -0.010 A 
ATOM     10  C   UNL     1       2.177  60.703 132.242  1.00  0.00     0.009 A 
ATOM     11  C   UNL     1       0.798  60.830 132.478  1.00  0.00     0.001 A 
ATOM     12  C   UNL     1       0.138  59.940 133.351  1.00  0.00     0.001 A 
ATOM     13  C   UNL     1       0.850  58.914 133.995  1.00  0.00     0.009 A 
ATOM     14  C   UNL     1       2.221  58.802 133.748  1.00  0.00    -0.010 A 
ENDROOT
TORSDOF 0
ENDMDL
MODEL 7
REMARK VINA RESULT:    -5.611      2.651      4.699
REMARK INTER + INTRA:          -5.611
REMARK INTER:                  -5.611
REMARK INTRA:                   0.000
REMARK UNBOUND:                 0.000
REMARK SMILES C=C1c2ccccc2-c2ccccc21
REMARK SMILES IDX 1 1 2 2 3 3 4 4 5 5 6 6 7 7 8 8 9 9 10 10 11 11 12 12 13 13
REMARK SMILES IDX 14 14
REMARK H PARENT
REMARK Flexibility Score: inf
ROOT
ATOM      1  C   UNL     1       4.725  56.772 133.405  1.00  0.00     0.018 C 
ATOM      2  C   UNL     1       5.104  58.043 133.278  1.00  0.00    -0.017 C 
ATOM      3  C   UNL     1       4.239  59.230 133.233  1.00  0.00    -0.010 A 
ATOM      4  C   UNL     1       2.849  59.334 133.309  1.00  0.00     0.009 A 
ATOM      5  C   UNL     1       2.271  60.613 133.239  1.00  0.00     0.001 A 
ATOM      6  C   UNL     1       3.082  61.757 133.095  1.00  0.00     0.001 A 
ATOM      7  C   UNL     1       4.480  61.634 133.019  1.00  0.00     0.009 A 
ATOM      8  C   UNL     1       5.034  60.356 133.091  1.00  0.00    -0.010 A 
ATOM      9  C   UNL     1       6.430  59.934 133.040  1.00  0.00    -0.010 A 
ATOM     10  C   UNL     1       7.591  60.695 132.906  1.00  0.00     0.009 A 
ATOM     11  C   UNL     1       8.825  60.023 132.887  1.00  0.00     0.001 A 
ATOM     12  C   UNL     1       8.876  58.618 132.999  1.00  0.00     0.001 A 
ATOM     13  C   UNL     1       7.694  57.871 133.134  1.00  0.00     0.009 A 
ATOM     14  C   UNL     1       6.475  58.555 133.151  1.00  0.00    -0.010 A 
ENDROOT
TORSDOF 0
ENDMDL
MODEL 8
REMARK VINA RESULT:    -5.576      2.607      6.230
REMARK INTER + INTRA:          -5.576
REMARK INTER:                  -5.576
REMARK INTRA:                   0.000
REMARK UNBOUND:                 0.000
REMARK SMILES C=C1c2ccccc2-c2ccccc21
REMARK SMILES IDX 1 1 2 2 3 3 4 4 5 5 6 6 7 7 8 8 9 9 10 10 11 11 12 12 13 13
REMARK SMILES IDX 14 14
REMARK H PARENT
REMARK Flexibility Score: inf
ROOT
ATOM      1  C   UNL     1       4.738  56.817 133.384  1.00  0.00     0.018 C 
ATOM      2  C   UNL     1       5.044  58.108 133.273  1.00  0.00    -0.017 C 
ATOM      3  C   UNL     1       6.386  58.701 133.184  1.00  0.00    -0.010 A 
ATOM      4  C   UNL     1       7.642  58.091 133.192  1.00  0.00     0.009 A 
ATOM      5  C   UNL     1       8.781  58.908 133.091  1.00  0.00     0.001 A 
ATOM      6  C   UNL     1       8.650  60.308 132.987  1.00  0.00     0.001 A 
ATOM      7  C   UNL     1       7.378  60.906 132.982  1.00  0.00     0.009 A 
ATOM      8  C   UNL     1       6.261  60.077 133.081  1.00  0.00    -0.010 A 
ATOM      9  C   UNL     1       4.841  60.416 133.101  1.00  0.00    -0.010 A 
ATOM     10  C   UNL     1       4.215  61.660 133.025  1.00  0.00     0.009 A 
ATOM     11  C   UNL     1       2.811  61.699 133.067  1.00  0.00     0.001 A 
ATOM     12  C   UNL     1       2.066  60.508 133.183  1.00  0.00     0.001 A 
ATOM     13  C   UNL     1       2.716  59.265 133.258  1.00  0.00     0.009 A 
ATOM     14  C   UNL     1       4.113  59.243 133.216  1.00  0.00    -0.010 A 
ENDROOT
TORSDOF 0
ENDMDL
MODEL 9
REMARK VINA RESULT:    -5.555      4.304      7.656
REMARK INTER + INTRA:          -5.555
REMARK INTER:                  -5.555
REMARK INTRA:                   0.000
REMARK UNBOUND:                 0.000
REMARK SMILES C=C1c2ccccc2-c2ccccc21
REMARK SMILES IDX 1 1 2 2 3 3 4 4 5 5 6 6 7 7 8 8 9 9 10 10 11 11 12 12 13 13
REMARK SMILES IDX 14 14
REMARK H PARENT
REMARK Flexibility Score: inf
ROOT
ATOM      1  C   UNL     1       8.885  61.978 133.363  1.00  0.00     0.018 C 
ATOM      2  C   UNL     1       8.435  60.725 133.343  1.00  0.00    -0.017 C 
ATOM      3  C   UNL     1       9.215  59.495 133.532  1.00  0.00    -0.010 A 
ATOM      4  C   UNL     1      10.579  59.323 133.774  1.00  0.00     0.009 A 
ATOM      5  C   UNL     1      11.071  58.014 133.917  1.00  0.00     0.001 A 
ATOM      6  C   UNL     1      10.202  56.908 133.818  1.00  0.00     0.001 A 
ATOM      7  C   UNL     1       8.831  57.100 133.573  1.00  0.00     0.009 A 
ATOM      8  C   UNL     1       8.363  58.406 133.435  1.00  0.00    -0.010 A 
ATOM      9  C   UNL     1       7.012  58.896 133.180  1.00  0.00    -0.010 A 
ATOM     10  C   UNL     1       5.821  58.192 133.006  1.00  0.00     0.009 A 
ATOM     11  C   UNL     1       4.645  58.925 132.772  1.00  0.00     0.001 A 
ATOM     12  C   UNL     1       4.681  60.333 132.714  1.00  0.00     0.001 A 
ATOM     13  C   UNL     1       5.892  61.024 132.892  1.00  0.00     0.009 A 
ATOM     14  C   UNL     1       7.052  60.279 133.124  1.00  0.00    -0.010 A 
ENDROOT
TORSDOF 0
ENDMDL
