MODEL 1
REMARK VINA RESULT:     8.356      0.000      0.000
REMARK INTER + INTRA:          19.131
REMARK INTER:                  19.103
REMARK INTRA:                   0.029
REMARK UNBOUND:                 0.029
REMARK SMILES CCCCCCCCCCCCCCCCCCCCCCCC(=O)[O-]
REMARK SMILES IDX 13 1 14 2 15 3 16 4 17 5 18 6 19 7 20 8 21 9 22 10 23 11
REMARK SMILES IDX 24 12 25 13 26 14 12 15 11 16 10 17 9 18 8 19 7 20 6 21 5 22
REMARK SMILES IDX 4 23 3 24 2 25 1 26
REMARK H PARENT
REMARK Flexibility Score: inf
ROOT
ATOM      1  C   UNL     1       7.264  42.307  13.134  1.00  0.00     0.000 C 
ENDROOT
BRANCH   1   2
ATOM      2  C   UNL     1       6.026  43.171  13.417  1.00  0.00     0.000 C 
BRANCH   2   3
ATOM      3  C   UNL     1       5.301  42.698  14.684  1.00  0.00     0.000 C 
BRANCH   3   4
ATOM      4  C   UNL     1       6.088  41.579  15.381  1.00  0.00     0.000 C 
BRANCH   4   5
ATOM      5  C   UNL     1       5.442  41.126  16.702  1.00  0.00     0.000 C 
BRANCH   5   6
ATOM      6  C   UNL     1       6.278  40.128  17.523  1.00  0.00     0.000 C 
BRANCH   6   7
ATOM      7  C   UNL     1       6.091  40.294  19.039  1.00  0.00     0.000 C 
BRANCH   7   8
ATOM      8  C   UNL     1       4.710  39.785  19.478  1.00  0.00     0.000 C 
BRANCH   8   9
ATOM      9  C   UNL     1       3.923  40.827  20.289  1.00  0.00     0.000 C 
BRANCH   9  10
ATOM     10  C   UNL     1       4.756  42.075  20.619  1.00  0.00     0.006 C 
BRANCH  10  11
ATOM     11  C   UNL     1       3.919  43.111  21.374  1.00  0.00     0.053 C 
BRANCH  11  12
ATOM     12  C   UNL     1       2.524  43.157  20.832  1.00  0.00     0.041 C 
ATOM     13  O   UNL     1       2.021  44.255  20.472  1.00  0.00    -0.550 OA
ATOM     14  O   UNL     1       1.797  41.983  20.680  1.00  0.00    -0.550 OA
ENDBRANCH  11  12
ENDBRANCH  10  11
ENDBRANCH   9  10
ENDBRANCH   8   9
ENDBRANCH   7   8
ENDBRANCH   6   7
ENDBRANCH   5   6
ENDBRANCH   4   5
ENDBRANCH   3   4
ENDBRANCH   2   3
ENDBRANCH   1   2
BRANCH   1  15
ATOM     15  C   UNL     1       8.118  42.858  11.981  1.00  0.00     0.000 C 
BRANCH  15  16
ATOM     16  C   UNL     1       7.760  42.226  10.627  1.00  0.00     0.000 C 
BRANCH  16  17
ATOM     17  C   UNL     1       6.341  42.622  10.193  1.00  0.00     0.000 C 
BRANCH  17  18
ATOM     18  C   UNL     1       6.212  44.123   9.875  1.00  0.00    -0.000 C 
BRANCH  18  19
ATOM     19  C   UNL     1       5.236  44.901  10.780  1.00  0.00    -0.000 C 
BRANCH  19  20
ATOM     20  C   UNL     1       3.754  44.825  10.367  1.00  0.00    -0.000 C 
BRANCH  20  21
ATOM     21  C   UNL     1       3.274  43.383  10.136  1.00  0.00    -0.000 C 
BRANCH  21  22
ATOM     22  C   UNL     1       1.915  43.088  10.796  1.00  0.00    -0.000 C 
BRANCH  22  23
ATOM     23  C   UNL     1       1.658  43.828  12.122  1.00  0.00    -0.000 C 
BRANCH  23  24
ATOM     24  C   UNL     1       0.220  43.649  12.642  1.00  0.00    -0.000 C 
BRANCH  24  25
ATOM     25  C   UNL     1      -0.069  44.506  13.883  1.00  0.00    -0.003 C 
ATOM     26  C   UNL     1      -1.500  44.341  14.394  1.00  0.00     0.004 C 
ENDBRANCH  24  25
ENDBRANCH  23  24
ENDBRANCH  22  23
ENDBRANCH  21  22
ENDBRANCH  20  21
ENDBRANCH  19  20
ENDBRANCH  18  19
ENDBRANCH  17  18
ENDBRANCH  16  17
ENDBRANCH  15  16
ENDBRANCH   1  15
TORSDOF 22
ENDMDL
MODEL 2
REMARK VINA RESULT:     9.867      4.606      8.929
REMARK INTER + INTRA:          22.587
REMARK INTER:                  23.679
REMARK INTRA:                  -1.093
REMARK UNBOUND:                 0.029
REMARK SMILES CCCCCCCCCCCCCCCCCCCCCCCC(=O)[O-]
REMARK SMILES IDX 13 1 14 2 15 3 16 4 17 5 18 6 19 7 20 8 21 9 22 10 23 11
REMARK SMILES IDX 24 12 25 13 26 14 12 15 11 16 10 17 9 18 8 19 7 20 6 21 5 22
REMARK SMILES IDX 4 23 3 24 2 25 1 26
REMARK H PARENT
REMARK Flexibility Score: inf
ROOT
ATOM      1  C   UNL     1       0.925  44.404  12.542  1.00  0.00     0.000 C 
ENDROOT
BRANCH   1   2
ATOM      2  C   UNL     1       0.596  43.141  11.732  1.00  0.00     0.000 C 
BRANCH   2   3
ATOM      3  C   UNL     1       1.714  42.821  10.731  1.00  0.00     0.000 C 
BRANCH   3   4
ATOM      4  C   UNL     1       2.431  44.102  10.279  1.00  0.00     0.000 C 
BRANCH   4   5
ATOM      5  C   UNL     1       3.929  44.106  10.630  1.00  0.00     0.000 C 
BRANCH   5   6
ATOM      6  C   UNL     1       4.254  43.732  12.087  1.00  0.00     0.000 C 
BRANCH   6   7
ATOM      7  C   UNL     1       5.529  44.411  12.610  1.00  0.00     0.000 C 
BRANCH   7   8
ATOM      8  C   UNL     1       6.274  45.123  11.470  1.00  0.00     0.000 C 
BRANCH   8   9
ATOM      9  C   UNL     1       7.664  44.524  11.203  1.00  0.00     0.000 C 
BRANCH   9  10
ATOM     10  C   UNL     1       7.725  43.727   9.892  1.00  0.00     0.006 C 
BRANCH  10  11
ATOM     11  C   UNL     1       6.901  42.440   9.992  1.00  0.00     0.053 C 
BRANCH  11  12
ATOM     12  C   UNL     1       7.476  41.526  11.027  1.00  0.00     0.041 C 
ATOM     13  O   UNL     1       8.028  40.446  10.682  1.00  0.00    -0.550 OA
ATOM     14  O   UNL     1       7.447  41.886  12.369  1.00  0.00    -0.550 OA
ENDBRANCH  11  12
ENDBRANCH  10  11
ENDBRANCH   9  10
ENDBRANCH   8   9
ENDBRANCH   7   8
ENDBRANCH   6   7
ENDBRANCH   5   6
ENDBRANCH   4   5
ENDBRANCH   3   4
ENDBRANCH   2   3
ENDBRANCH   1   2
BRANCH   1  15
ATOM     15  C   UNL     1       0.141  44.482  13.861  1.00  0.00     0.000 C 
BRANCH  15  16
ATOM     16  C   UNL     1      -1.363  44.704  13.642  1.00  0.00     0.000 C 
BRANCH  16  17
ATOM     17  C   UNL     1      -2.079  44.978  14.973  1.00  0.00     0.000 C 
BRANCH  17  18
ATOM     18  C   UNL     1      -3.130  43.907  15.315  1.00  0.00    -0.000 C 
BRANCH  18  19
ATOM     19  C   UNL     1      -2.923  42.543  14.626  1.00  0.00    -0.000 C 
BRANCH  19  20
ATOM     20  C   UNL     1      -2.776  41.341  15.578  1.00  0.00    -0.000 C 
BRANCH  20  21
ATOM     21  C   UNL     1      -1.372  40.716  15.535  1.00  0.00    -0.000 C 
BRANCH  21  22
ATOM     22  C   UNL     1      -0.833  40.351  16.931  1.00  0.00    -0.000 C 
BRANCH  22  23
ATOM     23  C   UNL     1      -1.477  39.110  17.576  1.00  0.00    -0.000 C 
BRANCH  23  24
ATOM     24  C   UNL     1      -0.599  38.479  18.671  1.00  0.00    -0.000 C 
BRANCH  24  25
ATOM     25  C   UNL     1       0.025  37.145  18.232  1.00  0.00    -0.003 C 
ATOM     26  C   UNL     1      -0.302  36.790  16.781  1.00  0.00     0.004 C 
ENDBRANCH  24  25
ENDBRANCH  23  24
ENDBRANCH  22  23
ENDBRANCH  21  22
ENDBRANCH  20  21
ENDBRANCH  19  20
ENDBRANCH  18  19
ENDBRANCH  17  18
ENDBRANCH  16  17
ENDBRANCH  15  16
ENDBRANCH   1  15
TORSDOF 22
ENDMDL
MODEL 3
REMARK VINA RESULT:    10.063      4.766      9.161
REMARK INTER + INTRA:          23.033
REMARK INTER:                  24.115
REMARK INTRA:                  -1.082
REMARK UNBOUND:                 0.029
REMARK SMILES CCCCCCCCCCCCCCCCCCCCCCCC(=O)[O-]
REMARK SMILES IDX 13 1 14 2 15 3 16 4 17 5 18 6 19 7 20 8 21 9 22 10 23 11
REMARK SMILES IDX 24 12 25 13 26 14 12 15 11 16 10 17 9 18 8 19 7 20 6 21 5 22
REMARK SMILES IDX 4 23 3 24 2 25 1 26
REMARK H PARENT
REMARK Flexibility Score: inf
ROOT
ATOM      1  C   UNL     1       1.085  44.401  13.617  1.00  0.00     0.000 C 
ENDROOT
BRANCH   1   2
ATOM      2  C   UNL     1       0.919  43.538  12.357  1.00  0.00     0.000 C 
BRANCH   2   3
ATOM      3  C   UNL     1       2.263  43.335  11.645  1.00  0.00     0.000 C 
BRANCH   3   4
ATOM      4  C   UNL     1       3.112  44.614  11.699  1.00  0.00     0.000 C 
BRANCH   4   5
ATOM      5  C   UNL     1       4.326  44.566  10.756  1.00  0.00     0.000 C 
BRANCH   5   6
ATOM      6  C   UNL     1       4.413  43.307   9.875  1.00  0.00     0.000 C 
BRANCH   6   7
ATOM      7  C   UNL     1       5.802  42.652   9.902  1.00  0.00     0.000 C 
BRANCH   7   8
ATOM      8  C   UNL     1       6.905  43.716  10.015  1.00  0.00     0.000 C 
BRANCH   8   9
ATOM      9  C   UNL     1       7.990  43.340  11.037  1.00  0.00     0.000 C 
BRANCH   9  10
ATOM     10  C   UNL     1       7.624  42.097  11.861  1.00  0.00     0.006 C 
BRANCH  10  11
ATOM     11  C   UNL     1       7.516  42.437  13.350  1.00  0.00     0.053 C 
BRANCH  11  12
ATOM     12  C   UNL     1       6.212  43.112  13.643  1.00  0.00     0.041 C 
ATOM     13  O   UNL     1       5.320  42.509  14.299  1.00  0.00    -0.550 OA
ATOM     14  O   UNL     1       5.998  44.422  13.234  1.00  0.00    -0.550 OA
ENDBRANCH  11  12
ENDBRANCH  10  11
ENDBRANCH   9  10
ENDBRANCH   8   9
ENDBRANCH   7   8
ENDBRANCH   6   7
ENDBRANCH   5   6
ENDBRANCH   4   5
ENDBRANCH   3   4
ENDBRANCH   2   3
ENDBRANCH   1   2
BRANCH   1  15
ATOM     15  C   UNL     1      -0.249  44.968  14.126  1.00  0.00     0.000 C 
BRANCH  15  16
ATOM     16  C   UNL     1      -0.951  44.026  15.116  1.00  0.00     0.000 C 
BRANCH  16  17
ATOM     17  C   UNL     1      -2.397  43.747  14.679  1.00  0.00     0.000 C 
BRANCH  17  18
ATOM     18  C   UNL     1      -2.664  42.253  14.423  1.00  0.00    -0.000 C 
BRANCH  18  19
ATOM     19  C   UNL     1      -4.111  41.791  14.692  1.00  0.00    -0.000 C 
BRANCH  19  20
ATOM     20  C   UNL     1      -4.313  40.265  14.750  1.00  0.00    -0.000 C 
BRANCH  20  21
ATOM     21  C   UNL     1      -5.598  39.863  15.493  1.00  0.00    -0.000 C 
BRANCH  21  22
ATOM     22  C   UNL     1      -6.556  41.047  15.720  1.00  0.00    -0.000 C 
BRANCH  22  23
ATOM     23  C   UNL     1      -7.891  40.686  16.398  1.00  0.00    -0.000 C 
BRANCH  23  24
ATOM     24  C   UNL     1      -8.756  39.734  15.552  1.00  0.00    -0.000 C 
BRANCH  24  25
ATOM     25  C   UNL     1     -10.230  40.165  15.501  1.00  0.00    -0.003 C 
ATOM     26  C   UNL     1     -10.840  40.349  16.891  1.00  0.00     0.004 C 
ENDBRANCH  24  25
ENDBRANCH  23  24
ENDBRANCH  22  23
ENDBRANCH  21  22
ENDBRANCH  20  21
ENDBRANCH  19  20
ENDBRANCH  18  19
ENDBRANCH  17  18
ENDBRANCH  16  17
ENDBRANCH  15  16
ENDBRANCH   1  15
TORSDOF 22
ENDMDL
MODEL 4
REMARK VINA RESULT:    10.085      3.891      8.608
REMARK INTER + INTRA:          23.083
REMARK INTER:                  23.892
REMARK INTRA:                  -0.809
REMARK UNBOUND:                 0.029
REMARK SMILES CCCCCCCCCCCCCCCCCCCCCCCC(=O)[O-]
REMARK SMILES IDX 13 1 14 2 15 3 16 4 17 5 18 6 19 7 20 8 21 9 22 10 23 11
REMARK SMILES IDX 24 12 25 13 26 14 12 15 11 16 10 17 9 18 8 19 7 20 6 21 5 22
REMARK SMILES IDX 4 23 3 24 2 25 1 26
REMARK H PARENT
REMARK Flexibility Score: inf
ROOT
ATOM      1  C   UNL     1       1.079  43.783  12.817  1.00  0.00     0.000 C 
ENDROOT
BRANCH   1   2
ATOM      2  C   UNL     1       0.487  43.553  11.419  1.00  0.00     0.000 C 
BRANCH   2   3
ATOM      3  C   UNL     1       1.198  42.398  10.702  1.00  0.00     0.000 C 
BRANCH   3   4
ATOM      4  C   UNL     1       2.644  42.776  10.350  1.00  0.00     0.000 C 
BRANCH   4   5
ATOM      5  C   UNL     1       2.849  44.295  10.213  1.00  0.00     0.000 C 
BRANCH   5   6
ATOM      6  C   UNL     1       4.318  44.742  10.106  1.00  0.00     0.000 C 
BRANCH   6   7
ATOM      7  C   UNL     1       5.286  43.571   9.878  1.00  0.00     0.000 C 
BRANCH   7   8
ATOM      8  C   UNL     1       6.744  44.033  10.019  1.00  0.00     0.000 C 
BRANCH   8   9
ATOM      9  C   UNL     1       7.650  42.960  10.644  1.00  0.00     0.000 C 
BRANCH   9  10
ATOM     10  C   UNL     1       8.038  43.282  12.095  1.00  0.00     0.006 C 
BRANCH  10  11
ATOM     11  C   UNL     1       7.331  42.342  13.074  1.00  0.00     0.053 C 
BRANCH  11  12
ATOM     12  C   UNL     1       6.127  43.006  13.666  1.00  0.00     0.041 C 
ATOM     13  O   UNL     1       5.728  44.113  13.214  1.00  0.00    -0.550 OA
ATOM     14  O   UNL     1       5.416  42.381  14.684  1.00  0.00    -0.550 OA
ENDBRANCH  11  12
ENDBRANCH  10  11
ENDBRANCH   9  10
ENDBRANCH   8   9
ENDBRANCH   7   8
ENDBRANCH   6   7
ENDBRANCH   5   6
ENDBRANCH   4   5
ENDBRANCH   3   4
ENDBRANCH   2   3
ENDBRANCH   1   2
BRANCH   1  15
ATOM     15  C   UNL     1       0.479  45.013  13.518  1.00  0.00     0.000 C 
BRANCH  15  16
ATOM     16  C   UNL     1      -0.718  44.657  14.412  1.00  0.00     0.000 C 
BRANCH  16  17
ATOM     17  C   UNL     1      -1.454  43.419  13.879  1.00  0.00     0.000 C 
BRANCH  17  18
ATOM     18  C   UNL     1      -2.577  42.942  14.818  1.00  0.00    -0.000 C 
BRANCH  18  19
ATOM     19  C   UNL     1      -2.474  41.471  15.267  1.00  0.00    -0.000 C 
BRANCH  19  20
ATOM     20  C   UNL     1      -1.085  41.032  15.767  1.00  0.00    -0.000 C 
BRANCH  20  21
ATOM     21  C   UNL     1      -1.152  39.849  16.746  1.00  0.00    -0.000 C 
BRANCH  21  22
ATOM     22  C   UNL     1      -0.009  38.836  16.544  1.00  0.00    -0.000 C 
BRANCH  22  23
ATOM     23  C   UNL     1       0.110  37.757  17.636  1.00  0.00    -0.000 C 
BRANCH  23  24
ATOM     24  C   UNL     1      -0.999  36.693  17.553  1.00  0.00    -0.000 C 
BRANCH  24  25
ATOM     25  C   UNL     1      -0.507  35.375  16.934  1.00  0.00    -0.003 C 
ATOM     26  C   UNL     1      -0.216  34.303  17.984  1.00  0.00     0.004 C 
ENDBRANCH  24  25
ENDBRANCH  23  24
ENDBRANCH  22  23
ENDBRANCH  21  22
ENDBRANCH  20  21
ENDBRANCH  19  20
ENDBRANCH  18  19
ENDBRANCH  17  18
ENDBRANCH  16  17
ENDBRANCH  15  16
ENDBRANCH   1  15
TORSDOF 22
ENDMDL
MODEL 5
REMARK VINA RESULT:    10.105      1.088      2.330
REMARK INTER + INTRA:          23.131
REMARK INTER:                  24.420
REMARK INTRA:                  -1.289
REMARK UNBOUND:                 0.029
REMARK SMILES CCCCCCCCCCCCCCCCCCCCCCCC(=O)[O-]
REMARK SMILES IDX 13 1 14 2 15 3 16 4 17 5 18 6 19 7 20 8 21 9 22 10 23 11
REMARK SMILES IDX 24 12 25 13 26 14 12 15 11 16 10 17 9 18 8 19 7 20 6 21 5 22
REMARK SMILES IDX 4 23 3 24 2 25 1 26
REMARK H PARENT
REMARK Flexibility Score: inf
ROOT
ATOM      1  C   UNL     1       7.001  43.298  12.159  1.00  0.00     0.000 C 
ENDROOT
BRANCH   1   2
ATOM      2  C   UNL     1       6.022  43.839  13.212  1.00  0.00     0.000 C 
BRANCH   2   3
ATOM      3  C   UNL     1       5.557  42.724  14.157  1.00  0.00     0.000 C 
BRANCH   3   4
ATOM      4  C   UNL     1       6.727  41.807  14.544  1.00  0.00     0.000 C 
BRANCH   4   5
ATOM      5  C   UNL     1       6.548  41.160  15.928  1.00  0.00     0.000 C 
BRANCH   5   6
ATOM      6  C   UNL     1       5.097  41.121  16.442  1.00  0.00     0.000 C 
BRANCH   6   7
ATOM      7  C   UNL     1       4.891  40.107  17.578  1.00  0.00     0.000 C 
BRANCH   7   8
ATOM      8  C   UNL     1       5.828  40.411  18.757  1.00  0.00     0.000 C 
BRANCH   8   9
ATOM      9  C   UNL     1       5.143  40.232  20.122  1.00  0.00     0.000 C 
BRANCH   9  10
ATOM     10  C   UNL     1       3.815  40.997  20.222  1.00  0.00     0.006 C 
BRANCH  10  11
ATOM     11  C   UNL     1       4.011  42.482  19.905  1.00  0.00     0.053 C 
BRANCH  11  12
ATOM     12  C   UNL     1       3.244  43.332  20.870  1.00  0.00     0.041 C 
ATOM     13  O   UNL     1       3.820  43.818  21.882  1.00  0.00    -0.550 OA
ATOM     14  O   UNL     1       1.909  43.629  20.629  1.00  0.00    -0.550 OA
ENDBRANCH  11  12
ENDBRANCH  10  11
ENDBRANCH   9  10
ENDBRANCH   8   9
ENDBRANCH   7   8
ENDBRANCH   6   7
ENDBRANCH   5   6
ENDBRANCH   4   5
ENDBRANCH   3   4
ENDBRANCH   2   3
ENDBRANCH   1   2
BRANCH   1  15
ATOM     15  C   UNL     1       7.020  44.147  10.878  1.00  0.00     0.000 C 
BRANCH  15  16
ATOM     16  C   UNL     1       5.935  43.727   9.875  1.00  0.00     0.000 C 
BRANCH  16  17
ATOM     17  C   UNL     1       4.535  44.082  10.398  1.00  0.00     0.000 C 
BRANCH  17  18
ATOM     18  C   UNL     1       3.524  42.935  10.223  1.00  0.00    -0.000 C 
BRANCH  18  19
ATOM     19  C   UNL     1       2.075  43.271  10.632  1.00  0.00    -0.000 C 
BRANCH  19  20
ATOM     20  C   UNL     1       1.929  44.037  11.959  1.00  0.00    -0.000 C 
BRANCH  20  21
ATOM     21  C   UNL     1       0.626  43.698  12.702  1.00  0.00    -0.000 C 
BRANCH  21  22
ATOM     22  C   UNL     1       0.081  44.877  13.530  1.00  0.00    -0.000 C 
BRANCH  22  23
ATOM     23  C   UNL     1      -0.637  44.483  14.834  1.00  0.00    -0.000 C 
BRANCH  23  24
ATOM     24  C   UNL     1      -2.157  44.320  14.658  1.00  0.00    -0.000 C 
BRANCH  24  25
ATOM     25  C   UNL     1      -2.562  42.873  14.338  1.00  0.00    -0.003 C 
ATOM     26  C   UNL     1      -1.901  41.856  15.270  1.00  0.00     0.004 C 
ENDBRANCH  24  25
ENDBRANCH  23  24
ENDBRANCH  22  23
ENDBRANCH  21  22
ENDBRANCH  20  21
ENDBRANCH  19  20
ENDBRANCH  18  19
ENDBRANCH  17  18
ENDBRANCH  16  17
ENDBRANCH  15  16
ENDBRANCH   1  15
TORSDOF 22
ENDMDL
MODEL 6
REMARK VINA RESULT:    10.205      2.775      8.141
REMARK INTER + INTRA:          23.359
REMARK INTER:                  24.113
REMARK INTRA:                  -0.754
REMARK UNBOUND:                 0.029
REMARK SMILES CCCCCCCCCCCCCCCCCCCCCCCC(=O)[O-]
REMARK SMILES IDX 13 1 14 2 15 3 16 4 17 5 18 6 19 7 20 8 21 9 22 10 23 11
REMARK SMILES IDX 24 12 25 13 26 14 12 15 11 16 10 17 9 18 8 19 7 20 6 21 5 22
REMARK SMILES IDX 4 23 3 24 2 25 1 26
REMARK H PARENT
REMARK Flexibility Score: inf
ROOT
ATOM      1  C   UNL     1       6.585  41.928  13.165  1.00  0.00     0.000 C 
ENDROOT
BRANCH   1   2
ATOM      2  C   UNL     1       8.093  42.011  12.880  1.00  0.00     0.000 C 
BRANCH   2   3
ATOM      3  C   UNL     1       8.372  41.978  11.372  1.00  0.00     0.000 C 
BRANCH   3   4
ATOM      4  C   UNL     1       7.388  42.879  10.610  1.00  0.00     0.000 C 
BRANCH   4   5
ATOM      5  C   UNL     1       7.667  44.378  10.816  1.00  0.00     0.000 C 
BRANCH   5   6
ATOM      6  C   UNL     1       6.661  45.105  11.727  1.00  0.00     0.000 C 
BRANCH   6   7
ATOM      7  C   UNL     1       5.225  45.071  11.180  1.00  0.00     0.000 C 
BRANCH   7   8
ATOM      8  C   UNL     1       5.157  44.261   9.876  1.00  0.00     0.000 C 
BRANCH   8   9
ATOM      9  C   UNL     1       4.015  43.231   9.875  1.00  0.00     0.000 C 
BRANCH   9  10
ATOM     10  C   UNL     1       3.351  43.082  11.252  1.00  0.00     0.006 C 
BRANCH  10  11
ATOM     11  C   UNL     1       2.098  42.206  11.165  1.00  0.00     0.053 C 
BRANCH  11  12
ATOM     12  C   UNL     1       0.866  43.025  11.395  1.00  0.00     0.041 C 
ATOM     13  O   UNL     1       0.795  43.796  12.391  1.00  0.00    -0.550 OA
ATOM     14  O   UNL     1      -0.183  42.976  10.486  1.00  0.00    -0.550 OA
ENDBRANCH  11  12
ENDBRANCH  10  11
ENDBRANCH   9  10
ENDBRANCH   8   9
ENDBRANCH   7   8
ENDBRANCH   6   7
ENDBRANCH   5   6
ENDBRANCH   4   5
ENDBRANCH   3   4
ENDBRANCH   2   3
ENDBRANCH   1   2
BRANCH   1  15
ATOM     15  C   UNL     1       6.084  43.090  14.037  1.00  0.00     0.000 C 
BRANCH  15  16
ATOM     16  C   UNL     1       5.167  42.619  15.176  1.00  0.00     0.000 C 
BRANCH  16  17
ATOM     17  C   UNL     1       5.685  41.314  15.797  1.00  0.00     0.000 C 
BRANCH  17  18
ATOM     18  C   UNL     1       5.311  41.171  17.284  1.00  0.00    -0.000 C 
BRANCH  18  19
ATOM     19  C   UNL     1       5.955  39.972  18.008  1.00  0.00    -0.000 C 
BRANCH  19  20
ATOM     20  C   UNL     1       5.570  39.817  19.491  1.00  0.00    -0.000 C 
BRANCH  20  21
ATOM     21  C   UNL     1       4.672  40.959  19.995  1.00  0.00    -0.000 C 
BRANCH  21  22
ATOM     22  C   UNL     1       3.315  40.465  20.530  1.00  0.00    -0.000 C 
BRANCH  22  23
ATOM     23  C   UNL     1       2.336  41.575  20.954  1.00  0.00    -0.000 C 
BRANCH  23  24
ATOM     24  C   UNL     1       2.984  42.971  20.977  1.00  0.00    -0.000 C 
BRANCH  24  25
ATOM     25  C   UNL     1       2.319  43.947  19.995  1.00  0.00    -0.003 C 
ATOM     26  C   UNL     1       1.207  44.771  20.643  1.00  0.00     0.004 C 
ENDBRANCH  24  25
ENDBRANCH  23  24
ENDBRANCH  22  23
ENDBRANCH  21  22
ENDBRANCH  20  21
ENDBRANCH  19  20
ENDBRANCH  18  19
ENDBRANCH  17  18
ENDBRANCH  16  17
ENDBRANCH  15  16
ENDBRANCH   1  15
TORSDOF 22
ENDMDL
MODEL 7
REMARK VINA RESULT:    10.334      1.933      3.001
REMARK INTER + INTRA:          23.654
REMARK INTER:                  24.653
REMARK INTRA:                  -0.999
REMARK UNBOUND:                 0.029
REMARK SMILES CCCCCCCCCCCCCCCCCCCCCCCC(=O)[O-]
REMARK SMILES IDX 13 1 14 2 15 3 16 4 17 5 18 6 19 7 20 8 21 9 22 10 23 11
REMARK SMILES IDX 24 12 25 13 26 14 12 15 11 16 10 17 9 18 8 19 7 20 6 21 5 22
REMARK SMILES IDX 4 23 3 24 2 25 1 26
REMARK H PARENT
REMARK Flexibility Score: inf
ROOT
ATOM      1  C   UNL     1       5.541  42.074  14.780  1.00  0.00     0.000 C 
ENDROOT
BRANCH   1   2
ATOM      2  C   UNL     1       6.427  41.339  15.797  1.00  0.00     0.000 C 
BRANCH   2   3
ATOM      3  C   UNL     1       5.773  41.318  17.185  1.00  0.00     0.000 C 
BRANCH   3   4
ATOM      4  C   UNL     1       5.730  39.891  17.752  1.00  0.00     0.000 C 
BRANCH   4   5
ATOM      5  C   UNL     1       5.429  39.854  19.260  1.00  0.00     0.000 C 
BRANCH   5   6
ATOM      6  C   UNL     1       4.419  40.911  19.744  1.00  0.00     0.000 C 
BRANCH   6   7
ATOM      7  C   UNL     1       3.247  40.303  20.530  1.00  0.00     0.000 C 
BRANCH   7   8
ATOM      8  C   UNL     1       2.533  41.378  21.364  1.00  0.00     0.000 C 
BRANCH   8   9
ATOM      9  C   UNL     1       2.079  42.581  20.520  1.00  0.00     0.000 C 
BRANCH   9  10
ATOM     10  C   UNL     1       3.202  43.605  20.297  1.00  0.00     0.006 C 
BRANCH  10  11
ATOM     11  C   UNL     1       3.473  44.409  21.571  1.00  0.00     0.053 C 
BRANCH  11  12
ATOM     12  C   UNL     1       4.718  43.925  22.245  1.00  0.00     0.041 C 
ATOM     13  O   UNL     1       5.571  43.259  21.597  1.00  0.00    -0.550 OA
ATOM     14  O   UNL     1       4.963  44.248  23.574  1.00  0.00    -0.550 OA
ENDBRANCH  11  12
ENDBRANCH  10  11
ENDBRANCH   9  10
ENDBRANCH   8   9
ENDBRANCH   7   8
ENDBRANCH   6   7
ENDBRANCH   5   6
ENDBRANCH   4   5
ENDBRANCH   3   4
ENDBRANCH   2   3
ENDBRANCH   1   2
BRANCH   1  15
ATOM     15  C   UNL     1       6.358  42.886  13.762  1.00  0.00     0.000 C 
BRANCH  15  16
ATOM     16  C   UNL     1       7.539  42.091  13.186  1.00  0.00     0.000 C 
BRANCH  16  17
ATOM     17  C   UNL     1       7.987  42.672  11.836  1.00  0.00     0.000 C 
BRANCH  17  18
ATOM     18  C   UNL     1       7.742  44.188  11.729  1.00  0.00    -0.000 C 
BRANCH  18  19
ATOM     19  C   UNL     1       7.573  44.725  10.293  1.00  0.00    -0.000 C 
BRANCH  19  20
ATOM     20  C   UNL     1       6.124  45.042   9.878  1.00  0.00    -0.000 C 
BRANCH  20  21
ATOM     21  C   UNL     1       5.086  44.234  10.674  1.00  0.00    -0.000 C 
BRANCH  21  22
ATOM     22  C   UNL     1       4.081  45.124  11.429  1.00  0.00    -0.000 C 
BRANCH  22  23
ATOM     23  C   UNL     1       2.865  44.384  12.015  1.00  0.00    -0.000 C 
BRANCH  23  24
ATOM     24  C   UNL     1       2.720  42.948  11.482  1.00  0.00    -0.000 C 
BRANCH  24  25
ATOM     25  C   UNL     1       2.008  42.892  10.122  1.00  0.00    -0.003 C 
ATOM     26  C   UNL     1       0.533  42.507  10.243  1.00  0.00     0.004 C 
ENDBRANCH  24  25
ENDBRANCH  23  24
ENDBRANCH  22  23
ENDBRANCH  21  22
ENDBRANCH  20  21
ENDBRANCH  19  20
ENDBRANCH  18  19
ENDBRANCH  17  18
ENDBRANCH  16  17
ENDBRANCH  15  16
ENDBRANCH   1  15
TORSDOF 22
ENDMDL
MODEL 8
REMARK VINA RESULT:    11.062      4.507      8.004
REMARK INTER + INTRA:          25.318
REMARK INTER:                  25.421
REMARK INTRA:                  -0.103
REMARK UNBOUND:                 0.029
REMARK SMILES CCCCCCCCCCCCCCCCCCCCCCCC(=O)[O-]
REMARK SMILES IDX 13 1 14 2 15 3 16 4 17 5 18 6 19 7 20 8 21 9 22 10 23 11
REMARK SMILES IDX 24 12 25 13 26 14 12 15 11 16 10 17 9 18 8 19 7 20 6 21 5 22
REMARK SMILES IDX 4 23 3 24 2 25 1 26
REMARK H PARENT
REMARK Flexibility Score: inf
ROOT
ATOM      1  C   UNL     1      -0.307  43.520  12.161  1.00  0.00     0.000 C 
ENDROOT
BRANCH   1   2
ATOM      2  C   UNL     1       0.408  43.888  13.471  1.00  0.00     0.000 C 
BRANCH   2   3
ATOM      3  C   UNL     1      -0.293  45.059  14.171  1.00  0.00     0.000 C 
BRANCH   3   4
ATOM      4  C   UNL     1      -1.813  44.993  13.964  1.00  0.00     0.000 C 
BRANCH   4   5
ATOM      5  C   UNL     1      -2.564  44.466  15.199  1.00  0.00     0.000 C 
BRANCH   5   6
ATOM      6  C   UNL     1      -2.603  42.932  15.327  1.00  0.00     0.000 C 
BRANCH   6   7
ATOM      7  C   UNL     1      -2.456  42.215  13.976  1.00  0.00     0.000 C 
BRANCH   7   8
ATOM      8  C   UNL     1      -3.538  41.135  13.811  1.00  0.00     0.000 C 
BRANCH   8   9
ATOM      9  C   UNL     1      -4.594  41.177  14.927  1.00  0.00     0.000 C 
BRANCH   9  10
ATOM     10  C   UNL     1      -5.406  39.877  15.023  1.00  0.00     0.006 C 
BRANCH  10  11
ATOM     11  C   UNL     1      -5.014  39.076  16.268  1.00  0.00     0.053 C 
BRANCH  11  12
ATOM     12  C   UNL     1      -5.181  37.609  16.024  1.00  0.00     0.041 C 
ATOM     13  O   UNL     1      -5.843  37.203  15.030  1.00  0.00    -0.550 OA
ATOM     14  O   UNL     1      -4.568  36.688  16.865  1.00  0.00    -0.550 OA
ENDBRANCH  11  12
ENDBRANCH  10  11
ENDBRANCH   9  10
ENDBRANCH   8   9
ENDBRANCH   7   8
ENDBRANCH   6   7
ENDBRANCH   5   6
ENDBRANCH   4   5
ENDBRANCH   3   4
ENDBRANCH   2   3
ENDBRANCH   1   2
BRANCH   1  15
ATOM     15  C   UNL     1       0.479  42.497  11.326  1.00  0.00     0.000 C 
BRANCH  15  16
ATOM     16  C   UNL     1       1.792  43.072  10.772  1.00  0.00     0.000 C 
BRANCH  16  17
ATOM     17  C   UNL     1       2.300  44.228  11.648  1.00  0.00     0.000 C 
BRANCH  17  18
ATOM     18  C   UNL     1       3.483  44.981  11.013  1.00  0.00    -0.000 C 
BRANCH  18  19
ATOM     19  C   UNL     1       4.455  44.104  10.197  1.00  0.00    -0.000 C 
BRANCH  19  20
ATOM     20  C   UNL     1       5.870  44.684  10.018  1.00  0.00    -0.000 C 
BRANCH  20  21
ATOM     21  C   UNL     1       6.947  43.596   9.878  1.00  0.00    -0.000 C 
BRANCH  21  22
ATOM     22  C   UNL     1       8.211  43.890  10.706  1.00  0.00    -0.000 C 
BRANCH  22  23
ATOM     23  C   UNL     1       8.631  42.772  11.678  1.00  0.00    -0.000 C 
BRANCH  23  24
ATOM     24  C   UNL     1       7.483  42.307  12.592  1.00  0.00    -0.000 C 
BRANCH  24  25
ATOM     25  C   UNL     1       6.588  43.469  13.052  1.00  0.00    -0.003 C 
ATOM     26  C   UNL     1       5.434  43.007  13.942  1.00  0.00     0.004 C 
ENDBRANCH  24  25
ENDBRANCH  23  24
ENDBRANCH  22  23
ENDBRANCH  21  22
ENDBRANCH  20  21
ENDBRANCH  19  20
ENDBRANCH  18  19
ENDBRANCH  17  18
ENDBRANCH  16  17
ENDBRANCH  15  16
ENDBRANCH   1  15
TORSDOF 22
ENDMDL
