MODEL 1
REMARK VINA RESULT:    -3.784      0.000      0.000
REMARK INTER + INTRA:          -4.561
REMARK INTER:                  -4.558
REMARK INTRA:                  -0.002
REMARK UNBOUND:                -0.002
REMARK SMILES OCC(O)CO
REMARK SMILES IDX 3 1 5 2 6 3 2 5 1 6 4 8
REMARK H PARENT 6 4 1 7 4 9
REMARK Flexibility Score: inf
ROOT
ATOM      1  C   UNL     1     121.990 116.825 119.693  1.00  0.00     0.165 C 
ENDROOT
BRANCH   1   2
ATOM      2  C   UNL     1     121.229 116.748 121.027  1.00  0.00     0.190 C 
BRANCH   2   3
ATOM      3  O   UNL     1     121.946 115.998 121.971  1.00  0.00    -0.394 OA
ATOM      4  H   UNL     1     121.275 115.587 122.577  1.00  0.00     0.210 HD
ENDBRANCH   2   3
ENDBRANCH   1   2
BRANCH   1   5
ATOM      5  C   UNL     1     121.103 116.377 118.523  1.00  0.00     0.190 C 
BRANCH   5   6
ATOM      6  O   UNL     1     120.502 117.487 117.912  1.00  0.00    -0.394 OA
ATOM      7  H   UNL     1     120.248 117.207 116.995  1.00  0.00     0.210 HD
ENDBRANCH   5   6
ENDBRANCH   1   5
BRANCH   1   8
ATOM      8  O   UNL     1     123.125 116.000 119.753  1.00  0.00    -0.388 OA
ATOM      9  H   UNL     1     123.637 116.155 118.917  1.00  0.00     0.211 HD
ENDBRANCH   1   8
TORSDOF 5
ENDMDL
MODEL 2
REMARK VINA RESULT:    -3.452     17.660     18.710
REMARK INTER + INTRA:          -4.160
REMARK INTER:                  -4.132
REMARK INTRA:                  -0.028
REMARK UNBOUND:                -0.002
REMARK SMILES OCC(O)CO
REMARK SMILES IDX 3 1 5 2 6 3 2 5 1 6 4 8
REMARK H PARENT 6 4 1 7 4 9
REMARK Flexibility Score: inf
ROOT
ATOM      1  C   UNL     1     107.358 113.916 131.167  1.00  0.00     0.165 C 
ENDROOT
BRANCH   1   2
ATOM      2  C   UNL     1     106.013 113.708 131.883  1.00  0.00     0.190 C 
BRANCH   2   3
ATOM      3  O   UNL     1     104.944 113.802 130.980  1.00  0.00    -0.394 OA
ATOM      4  H   UNL     1     104.694 114.762 130.935  1.00  0.00     0.210 HD
ENDBRANCH   2   3
ENDBRANCH   1   2
BRANCH   1   5
ATOM      5  C   UNL     1     107.818 112.630 130.468  1.00  0.00     0.190 C 
BRANCH   5   6
ATOM      6  O   UNL     1     107.915 112.834 129.084  1.00  0.00    -0.394 OA
ATOM      7  H   UNL     1     107.102 113.332 128.810  1.00  0.00     0.210 HD
ENDBRANCH   5   6
ENDBRANCH   1   5
BRANCH   1   8
ATOM      8  O   UNL     1     108.330 114.305 132.103  1.00  0.00    -0.388 OA
ATOM      9  H   UNL     1     109.203 114.300 131.630  1.00  0.00     0.211 HD
ENDBRANCH   1   8
TORSDOF 5
ENDMDL
MODEL 3
REMARK VINA RESULT:    -3.406      0.880      2.982
REMARK INTER + INTRA:          -4.106
REMARK INTER:                  -4.102
REMARK INTRA:                  -0.004
REMARK UNBOUND:                -0.002
REMARK SMILES OCC(O)CO
REMARK SMILES IDX 3 1 5 2 6 3 2 5 1 6 4 8
REMARK H PARENT 6 4 1 7 4 9
REMARK Flexibility Score: inf
ROOT
ATOM      1  C   UNL     1     121.810 116.383 120.040  1.00  0.00     0.165 C 
ENDROOT
BRANCH   1   2
ATOM      2  C   UNL     1     121.410 117.172 118.782  1.00  0.00     0.190 C 
BRANCH   2   3
ATOM      3  O   UNL     1     120.496 116.447 118.004  1.00  0.00    -0.394 OA
ATOM      4  H   UNL     1     119.644 116.426 118.513  1.00  0.00     0.210 HD
ENDBRANCH   2   3
ENDBRANCH   1   2
BRANCH   1   5
ATOM      5  C   UNL     1     120.869 116.694 121.212  1.00  0.00     0.190 C 
BRANCH   5   6
ATOM      6  O   UNL     1     120.873 115.638 122.135  1.00  0.00    -0.394 OA
ATOM      7  H   UNL     1     120.050 115.109 121.970  1.00  0.00     0.210 HD
ENDBRANCH   5   6
ENDBRANCH   1   5
BRANCH   1   8
ATOM      8  O   UNL     1     123.125 116.718 120.404  1.00  0.00    -0.388 OA
ATOM      9  H   UNL     1     123.708 116.458 119.644  1.00  0.00     0.211 HD
ENDBRANCH   1   8
TORSDOF 5
ENDMDL
MODEL 4
REMARK VINA RESULT:    -3.338     18.064     19.198
REMARK INTER + INTRA:          -4.023
REMARK INTER:                  -4.020
REMARK INTRA:                  -0.003
REMARK UNBOUND:                -0.002
REMARK SMILES OCC(O)CO
REMARK SMILES IDX 3 1 5 2 6 3 2 5 1 6 4 8
REMARK H PARENT 6 4 1 7 4 9
REMARK Flexibility Score: inf
ROOT
ATOM      1  C   UNL     1     106.952 113.306 131.448  1.00  0.00     0.165 C 
ENDROOT
BRANCH   1   2
ATOM      2  C   UNL     1     107.799 113.669 130.216  1.00  0.00     0.190 C 
BRANCH   2   3
ATOM      3  O   UNL     1     107.784 112.630 129.273  1.00  0.00    -0.394 OA
ATOM      4  H   UNL     1     108.697 112.583 128.887  1.00  0.00     0.210 HD
ENDBRANCH   2   3
ENDBRANCH   1   2
BRANCH   1   5
ATOM      5  C   UNL     1     105.575 113.982 131.391  1.00  0.00     0.190 C 
BRANCH   5   6
ATOM      6  O   UNL     1     104.639 113.245 132.131  1.00  0.00    -0.394 OA
ATOM      7  H   UNL     1     105.135 112.817 132.876  1.00  0.00     0.210 HD
ENDBRANCH   5   6
ENDBRANCH   1   5
BRANCH   1   8
ATOM      8  O   UNL     1     107.620 113.720 132.612  1.00  0.00    -0.388 OA
ATOM      9  H   UNL     1     107.969 112.899 133.050  1.00  0.00     0.211 HD
ENDBRANCH   1   8
TORSDOF 5
ENDMDL
MODEL 5
REMARK VINA RESULT:    -3.312     17.616     18.707
REMARK INTER + INTRA:          -3.992
REMARK INTER:                  -3.977
REMARK INTRA:                  -0.015
REMARK UNBOUND:                -0.002
REMARK SMILES OCC(O)CO
REMARK SMILES IDX 3 1 5 2 6 3 2 5 1 6 4 8
REMARK H PARENT 6 4 1 7 4 9
REMARK Flexibility Score: inf
ROOT
ATOM      1  C   UNL     1     106.940 113.409 131.624  1.00  0.00     0.165 C 
ENDROOT
BRANCH   1   2
ATOM      2  C   UNL     1     107.422 114.181 132.864  1.00  0.00     0.190 C 
BRANCH   2   3
ATOM      3  O   UNL     1     108.752 114.598 132.710  1.00  0.00    -0.394 OA
ATOM      4  H   UNL     1     108.758 115.582 132.840  1.00  0.00     0.210 HD
ENDBRANCH   2   3
ENDBRANCH   1   2
BRANCH   1   5
ATOM      5  C   UNL     1     107.800 113.740 130.398  1.00  0.00     0.190 C 
BRANCH   5   6
ATOM      6  O   UNL     1     107.783 112.674 129.486  1.00  0.00    -0.394 OA
ATOM      7  H   UNL     1     108.296 112.969 128.690  1.00  0.00     0.210 HD
ENDBRANCH   5   6
ENDBRANCH   1   5
BRANCH   1   8
ATOM      8  O   UNL     1     105.603 113.747 131.354  1.00  0.00    -0.388 OA
ATOM      9  H   UNL     1     105.306 113.166 130.606  1.00  0.00     0.211 HD
ENDBRANCH   1   8
TORSDOF 5
ENDMDL
MODEL 6
REMARK VINA RESULT:    -3.295     18.564     19.663
REMARK INTER + INTRA:          -3.972
REMARK INTER:                  -3.960
REMARK INTRA:                  -0.011
REMARK UNBOUND:                -0.002
REMARK SMILES OCC(O)CO
REMARK SMILES IDX 3 1 5 2 6 3 2 5 1 6 4 8
REMARK H PARENT 6 4 1 7 4 9
REMARK Flexibility Score: inf
ROOT
ATOM      1  C   UNL     1     106.827 113.312 131.659  1.00  0.00     0.165 C 
ENDROOT
BRANCH   1   2
ATOM      2  C   UNL     1     105.422 113.852 131.340  1.00  0.00     0.190 C 
BRANCH   2   3
ATOM      3  O   UNL     1     104.465 113.301 132.205  1.00  0.00    -0.394 OA
ATOM      4  H   UNL     1     103.603 113.302 131.711  1.00  0.00     0.210 HD
ENDBRANCH   2   3
ENDBRANCH   1   2
BRANCH   1   5
ATOM      5  C   UNL     1     107.732 114.419 132.216  1.00  0.00     0.190 C 
BRANCH   5   6
ATOM      6  O   UNL     1     108.102 114.127 133.538  1.00  0.00    -0.394 OA
ATOM      7  H   UNL     1     107.276 114.178 134.085  1.00  0.00     0.210 HD
ENDBRANCH   5   6
ENDBRANCH   1   5
BRANCH   1   8
ATOM      8  O   UNL     1     107.403 112.792 130.488  1.00  0.00    -0.388 OA
ATOM      9  H   UNL     1     108.263 113.270 130.354  1.00  0.00     0.211 HD
ENDBRANCH   1   8
TORSDOF 5
ENDMDL
MODEL 7
REMARK VINA RESULT:    -3.126     17.244     18.504
REMARK INTER + INTRA:          -3.768
REMARK INTER:                  -3.766
REMARK INTRA:                  -0.003
REMARK UNBOUND:                -0.002
REMARK SMILES OCC(O)CO
REMARK SMILES IDX 3 1 5 2 6 3 2 5 1 6 4 8
REMARK H PARENT 6 4 1 7 4 9
REMARK Flexibility Score: inf
ROOT
ATOM      1  C   UNL     1     107.422 113.697 131.280  1.00  0.00     0.165 C 
ENDROOT
BRANCH   1   2
ATOM      2  C   UNL     1     107.951 113.820 129.840  1.00  0.00     0.190 C 
BRANCH   2   3
ATOM      3  O   UNL     1     107.868 112.591 129.169  1.00  0.00    -0.394 OA
ATOM      4  H   UNL     1     107.957 112.790 128.200  1.00  0.00     0.210 HD
ENDBRANCH   2   3
ENDBRANCH   1   2
BRANCH   1   5
ATOM      5  C   UNL     1     108.330 114.442 132.268  1.00  0.00     0.190 C 
BRANCH   5   6
ATOM      6  O   UNL     1     107.915 114.205 133.586  1.00  0.00    -0.394 OA
ATOM      7  H   UNL     1     107.200 113.518 133.543  1.00  0.00     0.210 HD
ENDBRANCH   5   6
ENDBRANCH   1   5
BRANCH   1   8
ATOM      8  O   UNL     1     107.362 112.341 131.641  1.00  0.00    -0.388 OA
ATOM      9  H   UNL     1     108.118 112.176 132.264  1.00  0.00     0.211 HD
ENDBRANCH   1   8
TORSDOF 5
ENDMDL
MODEL 8
REMARK VINA RESULT:    -3.125     18.719     19.344
REMARK INTER + INTRA:          -3.766
REMARK INTER:                  -3.551
REMARK INTRA:                  -0.216
REMARK UNBOUND:                -0.002
REMARK SMILES OCC(O)CO
REMARK SMILES IDX 3 1 5 2 6 3 2 5 1 6 4 8
REMARK H PARENT 6 4 1 7 4 9
REMARK Flexibility Score: inf
ROOT
ATOM      1  C   UNL     1     107.429 113.612 131.270  1.00  0.00     0.165 C 
ENDROOT
BRANCH   1   2
ATOM      2  C   UNL     1     108.271 114.427 132.266  1.00  0.00     0.190 C 
BRANCH   2   3
ATOM      3  O   UNL     1     107.853 114.196 133.585  1.00  0.00    -0.394 OA
ATOM      4  H   UNL     1     107.868 113.212 133.719  1.00  0.00     0.210 HD
ENDBRANCH   2   3
ENDBRANCH   1   2
BRANCH   1   5
ATOM      5  C   UNL     1     105.953 114.028 131.322  1.00  0.00     0.190 C 
BRANCH   5   6
ATOM      6  O   UNL     1     105.268 113.281 132.291  1.00  0.00    -0.394 OA
ATOM      7  H   UNL     1     104.587 113.882 132.689  1.00  0.00     0.210 HD
ENDBRANCH   5   6
ENDBRANCH   1   5
BRANCH   1   8
ATOM      8  O   UNL     1     107.534 112.245 131.579  1.00  0.00    -0.388 OA
ATOM      9  H   UNL     1     107.719 111.771 130.727  1.00  0.00     0.211 HD
ENDBRANCH   1   8
TORSDOF 5
ENDMDL
MODEL 9
REMARK VINA RESULT:    -1.085      1.160      2.714
REMARK INTER + INTRA:          -1.310
REMARK INTER:                  -1.119
REMARK INTRA:                  -0.191
REMARK UNBOUND:                -0.002
REMARK SMILES OCC(O)CO
REMARK SMILES IDX 3 1 5 2 6 3 2 5 1 6 4 8
REMARK H PARENT 6 4 1 7 4 9
REMARK Flexibility Score: inf
ROOT
ATOM      1  C   UNL     1     120.932 116.905 118.954  1.00  0.00     0.165 C 
ENDROOT
BRANCH   1   2
ATOM      2  C   UNL     1     122.397 116.739 118.517  1.00  0.00     0.190 C 
BRANCH   2   3
ATOM      3  O   UNL     1     123.125 116.009 119.468  1.00  0.00    -0.394 OA
ATOM      4  H   UNL     1     122.973 115.049 119.265  1.00  0.00     0.210 HD
ENDBRANCH   2   3
ENDBRANCH   1   2
BRANCH   1   5
ATOM      5  C   UNL     1     120.771 116.647 120.458  1.00  0.00     0.190 C 
BRANCH   5   6
ATOM      6  O   UNL     1     121.618 117.490 121.192  1.00  0.00    -0.394 OA
ATOM      7  H   UNL     1     121.036 118.132 121.676  1.00  0.00     0.210 HD
ENDBRANCH   5   6
ENDBRANCH   1   5
BRANCH   1   8
ATOM      8  O   UNL     1     120.127 116.000 118.243  1.00  0.00    -0.388 OA
ATOM      9  H   UNL     1     120.710 115.570 117.564  1.00  0.00     0.211 HD
ENDBRANCH   1   8
TORSDOF 5
ENDMDL
