MODEL 1
REMARK VINA RESULT:    -3.169      0.000      0.000
REMARK INTER + INTRA:          -5.189
REMARK INTER:                  -4.837
REMARK INTRA:                  -0.353
REMARK UNBOUND:                -0.353
REMARK SMILES CC1=CCC[C@@H](C)C(=O)C[C@@H](C(C)C)C(=O)C1
REMARK SMILES IDX 8 1 9 2 6 3 7 4 5 5 4 6 3 7 2 8 1 9 10 11 11 12 15 13 16 14
REMARK SMILES IDX 17 15 12 17 13 18 14 19
REMARK H PARENT
REMARK Flexibility Score: 70.00
ROOT
ATOM      1  C   UNL     1     150.315 151.882 165.307  1.00  0.00     0.136 C 
ATOM      2  O   UNL     1     150.691 150.744 165.072  1.00  0.00    -0.299 OA
ENDROOT
BRANCH   1   3
ATOM      3  C   UNL     1     150.810 152.601 166.551  1.00  0.00     0.053 C 
ATOM      4  C   UNL     1     152.344 152.601 166.650  1.00  0.00     0.016 C 
BRANCH   3   5
ATOM      5  C   UNL     1     150.144 152.049 167.827  1.00  0.00     0.015 C 
BRANCH   5   6
ATOM      6  C   UNL     1     148.858 152.795 168.244  1.00  0.00     0.028 C 
BRANCH   6   7
ATOM      7  C   UNL     1     147.635 151.929 168.078  1.00  0.00    -0.028 C 
ATOM      8  C   UNL     1     146.563 152.248 167.316  1.00  0.00    -0.070 CG0
ATOM      9  C   UNL     1     145.410 151.278 167.270  1.00  0.00     0.039 C 
ATOM     10  G   UNL     1     146.462 153.539 166.517  1.00  0.00     0.000 G0
ENDBRANCH   6   7
ENDBRANCH   5   6
ENDBRANCH   3   5
ENDBRANCH   1   3
BRANCH   1  11
ATOM     11  C   UNL     1     149.412 152.588 164.320  1.00  0.00     0.087 C 
BRANCH  11  12
ATOM     12  C   UNL     1     148.564 153.769 164.877  1.00  0.00     0.066 C 
BRANCH  12  13
ATOM     13  C   UNL     1     147.095 153.437 165.137  1.00  0.00     0.140 C 
ATOM     14  O   UNL     1     146.431 153.001 164.206  1.00  0.00    -0.299 OA
BRANCH  13  15
ATOM     15  C   UNL     1     146.444 153.550 166.500  1.00  0.00     0.106 CG0
ATOM     16  G   UNL     1     146.548 152.264 167.306  1.00  0.00     0.000 G0
ENDBRANCH  13  15
ENDBRANCH  12  13
BRANCH  12  17
ATOM     17  C   UNL     1     148.850 155.155 164.210  1.00  0.00    -0.006 C 
ATOM     18  C   UNL     1     149.512 155.002 162.831  1.00  0.00     0.008 C 
ATOM     19  C   UNL     1     149.630 156.160 165.069  1.00  0.00     0.008 C 
ENDBRANCH  12  17
ENDBRANCH  11  12
ENDBRANCH   1  11
TORSDOF 1
ENDMDL
MODEL 2
REMARK VINA RESULT:    -2.979      2.911      4.844
REMARK INTER + INTRA:          -4.899
REMARK INTER:                  -4.572
REMARK INTRA:                  -0.327
REMARK UNBOUND:                -0.353
REMARK SMILES CC1=CCC[C@@H](C)C(=O)C[C@@H](C(C)C)C(=O)C1
REMARK SMILES IDX 8 1 9 2 6 3 7 4 5 5 4 6 3 7 2 8 1 9 10 11 11 12 15 13 16 14
REMARK SMILES IDX 17 15 12 17 13 18 14 19
REMARK H PARENT
REMARK Flexibility Score: 70.00
ROOT
ATOM      1  C   UNL     1     149.733 152.279 165.925  1.00  0.00     0.136 C 
ATOM      2  O   UNL     1     149.065 152.188 166.943  1.00  0.00    -0.299 OA
ENDROOT
BRANCH   1   3
ATOM      3  C   UNL     1     151.081 152.979 165.964  1.00  0.00     0.053 C 
ATOM      4  C   UNL     1     151.893 152.606 167.215  1.00  0.00     0.016 C 
BRANCH   3   5
ATOM      5  C   UNL     1     150.932 154.505 165.799  1.00  0.00     0.015 C 
BRANCH   5   6
ATOM      6  C   UNL     1     149.658 154.940 165.043  1.00  0.00     0.028 C 
BRANCH   6   7
ATOM      7  C   UNL     1     149.987 155.546 163.704  1.00  0.00    -0.028 C 
ATOM      8  C   UNL     1     149.678 154.990 162.509  1.00  0.00    -0.070 CG0
ATOM      9  C   UNL     1     150.096 155.718 161.256  1.00  0.00     0.039 C 
ATOM     10  G   UNL     1     148.944 153.665 162.371  1.00  0.00     0.000 G0
ENDBRANCH   6   7
ENDBRANCH   5   6
ENDBRANCH   3   5
ENDBRANCH   1   3
BRANCH   1  11
ATOM     11  C   UNL     1     149.239 151.634 164.648  1.00  0.00     0.087 C 
BRANCH  11  12
ATOM     12  C   UNL     1     150.242 151.593 163.458  1.00  0.00     0.066 C 
BRANCH  12  13
ATOM     13  C   UNL     1     149.848 152.454 162.258  1.00  0.00     0.140 C 
ATOM     14  O   UNL     1     150.254 152.120 161.153  1.00  0.00    -0.299 OA
BRANCH  13  15
ATOM     15  C   UNL     1     148.926 153.651 162.359  1.00  0.00     0.106 CG0
ATOM     16  G   UNL     1     149.683 154.961 162.515  1.00  0.00     0.000 G0
ENDBRANCH  13  15
ENDBRANCH  12  13
BRANCH  12  17
ATOM     17  C   UNL     1     150.817 150.175 163.131  1.00  0.00    -0.006 C 
ATOM     18  C   UNL     1     150.011 149.059 163.815  1.00  0.00     0.008 C 
ATOM     19  C   UNL     1     152.318 149.988 163.390  1.00  0.00     0.008 C 
ENDBRANCH  12  17
ENDBRANCH  11  12
ENDBRANCH   1  11
TORSDOF 1
ENDMDL
MODEL 3
REMARK VINA RESULT:    -2.830      2.333      4.169
REMARK INTER + INTRA:          -4.672
REMARK INTER:                  -4.260
REMARK INTRA:                  -0.412
REMARK UNBOUND:                -0.353
REMARK SMILES CC1=CCC[C@@H](C)C(=O)C[C@@H](C(C)C)C(=O)C1
REMARK SMILES IDX 8 1 9 2 6 3 7 4 5 5 4 6 3 7 2 8 1 9 10 11 11 12 15 13 16 14
REMARK SMILES IDX 17 15 12 17 13 18 14 19
REMARK H PARENT
REMARK Flexibility Score: 70.00
ROOT
ATOM      1  C   UNL     1     148.400 153.079 167.568  1.00  0.00     0.136 C 
ATOM      2  O   UNL     1     148.121 153.761 168.541  1.00  0.00    -0.299 OA
ENDROOT
BRANCH   1   3
ATOM      3  C   UNL     1     149.296 151.862 167.728  1.00  0.00     0.053 C 
ATOM      4  C   UNL     1     148.959 151.053 168.991  1.00  0.00     0.016 C 
BRANCH   3   5
ATOM      5  C   UNL     1     150.788 152.247 167.664  1.00  0.00     0.015 C 
BRANCH   5   6
ATOM      6  C   UNL     1     151.325 152.471 166.233  1.00  0.00     0.028 C 
BRANCH   6   7
ATOM      7  C   UNL     1     151.170 151.237 165.383  1.00  0.00    -0.028 C 
ATOM      8  C   UNL     1     150.323 151.126 164.333  1.00  0.00    -0.070 CG0
ATOM      9  C   UNL     1     150.274 149.812 163.594  1.00  0.00     0.039 C 
ATOM     10  G   UNL     1     149.412 152.254 163.874  1.00  0.00     0.000 G0
ENDBRANCH   6   7
ENDBRANCH   5   6
ENDBRANCH   3   5
ENDBRANCH   1   3
BRANCH   1  11
ATOM     11  C   UNL     1     147.793 153.414 166.223  1.00  0.00     0.087 C 
BRANCH  11  12
ATOM     12  C   UNL     1     147.216 152.221 165.404  1.00  0.00     0.066 C 
BRANCH  12  13
ATOM     13  C   UNL     1     147.932 151.946 164.082  1.00  0.00     0.140 C 
ATOM     14  O   UNL     1     147.270 151.506 163.151  1.00  0.00    -0.299 OA
BRANCH  13  15
ATOM     15  C   UNL     1     149.395 152.258 163.846  1.00  0.00     0.106 CG0
ATOM     16  G   UNL     1     150.315 151.148 164.332  1.00  0.00     0.000 G0
ENDBRANCH  13  15
ENDBRANCH  12  13
BRANCH  12  17
ATOM     17  C   UNL     1     145.654 152.138 165.374  1.00  0.00    -0.006 C 
ATOM     18  C   UNL     1     145.010 153.528 165.243  1.00  0.00     0.008 C 
ATOM     19  C   UNL     1     145.006 151.353 166.521  1.00  0.00     0.008 C 
ENDBRANCH  12  17
ENDBRANCH  11  12
ENDBRANCH   1  11
TORSDOF 1
ENDMDL
MODEL 4
REMARK VINA RESULT:    -2.796      2.034      4.485
REMARK INTER + INTRA:          -4.620
REMARK INTER:                  -4.472
REMARK INTRA:                  -0.148
REMARK UNBOUND:                -0.353
REMARK SMILES CC1=CCC[C@@H](C)C(=O)C[C@@H](C(C)C)C(=O)C1
REMARK SMILES IDX 8 1 9 2 6 3 7 4 5 5 4 6 3 7 2 8 1 9 10 11 11 12 15 13 16 14
REMARK SMILES IDX 17 15 12 17 13 18 14 19
REMARK H PARENT
REMARK Flexibility Score: 70.00
ROOT
ATOM      1  C   UNL     1     148.463 152.925 167.676  1.00  0.00     0.136 C 
ATOM      2  O   UNL     1     148.592 154.128 167.505  1.00  0.00    -0.299 OA
ENDROOT
BRANCH   1   3
ATOM      3  C   UNL     1     149.574 151.978 167.256  1.00  0.00     0.053 C 
ATOM      4  C   UNL     1     150.754 151.993 168.242  1.00  0.00     0.016 C 
BRANCH   3   5
ATOM      5  C   UNL     1     150.024 152.240 165.805  1.00  0.00     0.015 C 
BRANCH   5   6
ATOM      6  C   UNL     1     148.986 151.838 164.736  1.00  0.00     0.028 C 
BRANCH   6   7
ATOM      7  C   UNL     1     148.324 153.045 164.122  1.00  0.00    -0.028 C 
ATOM      8  C   UNL     1     146.993 153.289 164.144  1.00  0.00    -0.070 CG0
ATOM      9  C   UNL     1     146.487 154.537 163.467  1.00  0.00     0.039 C 
ATOM     10  G   UNL     1     145.986 152.360 164.806  1.00  0.00     0.000 G0
ENDBRANCH   6   7
ENDBRANCH   5   6
ENDBRANCH   3   5
ENDBRANCH   1   3
BRANCH   1  11
ATOM     11  C   UNL     1     147.223 152.398 168.365  1.00  0.00     0.087 C 
BRANCH  11  12
ATOM     12  C   UNL     1     146.111 151.816 167.443  1.00  0.00     0.066 C 
BRANCH  12  13
ATOM     13  C   UNL     1     145.719 152.712 166.268  1.00  0.00     0.140 C 
ATOM     14  O   UNL     1     145.210 153.797 166.518  1.00  0.00    -0.299 OA
BRANCH  13  15
ATOM     15  C   UNL     1     145.993 152.358 164.822  1.00  0.00     0.106 CG0
ATOM     16  G   UNL     1     146.984 153.308 164.165  1.00  0.00     0.000 G0
ENDBRANCH  13  15
ENDBRANCH  12  13
BRANCH  12  17
ATOM     17  C   UNL     1     144.936 151.110 168.195  1.00  0.00    -0.006 C 
ATOM     18  C   UNL     1     145.433 150.307 169.409  1.00  0.00     0.008 C 
ATOM     19  C   UNL     1     144.009 150.248 167.327  1.00  0.00     0.008 C 
ENDBRANCH  12  17
ENDBRANCH  11  12
ENDBRANCH   1  11
TORSDOF 1
ENDMDL
MODEL 5
REMARK VINA RESULT:    -2.783      2.321      4.458
REMARK INTER + INTRA:          -4.600
REMARK INTER:                  -4.110
REMARK INTRA:                  -0.490
REMARK UNBOUND:                -0.353
REMARK SMILES CC1=CCC[C@@H](C)C(=O)C[C@@H](C(C)C)C(=O)C1
REMARK SMILES IDX 8 1 9 2 6 3 7 4 5 5 4 6 3 7 2 8 1 9 10 11 11 12 15 13 16 14
REMARK SMILES IDX 17 15 12 17 13 18 14 19
REMARK H PARENT
REMARK Flexibility Score: 70.00
ROOT
ATOM      1  C   UNL     1     148.023 153.326 167.316  1.00  0.00     0.136 C 
ATOM      2  O   UNL     1     148.503 154.279 167.910  1.00  0.00    -0.299 OA
ENDROOT
BRANCH   1   3
ATOM      3  C   UNL     1     148.916 152.176 166.881  1.00  0.00     0.053 C 
ATOM      4  C   UNL     1     149.776 151.640 168.037  1.00  0.00     0.016 C 
BRANCH   3   5
ATOM      5  C   UNL     1     149.764 152.553 165.650  1.00  0.00     0.015 C 
BRANCH   5   6
ATOM      6  C   UNL     1     148.950 152.735 164.350  1.00  0.00     0.028 C 
BRANCH   6   7
ATOM      7  C   UNL     1     148.407 151.423 163.847  1.00  0.00    -0.028 C 
ATOM      8  C   UNL     1     147.094 151.100 163.797  1.00  0.00    -0.070 CG0
ATOM      9  C   UNL     1     146.716 149.734 163.281  1.00  0.00     0.039 C 
ATOM     10  G   UNL     1     145.986 152.041 164.248  1.00  0.00     0.000 G0
ENDBRANCH   6   7
ENDBRANCH   5   6
ENDBRANCH   3   5
ENDBRANCH   1   3
BRANCH   1  11
ATOM     11  C   UNL     1     146.529 153.270 167.079  1.00  0.00     0.087 C 
BRANCH  11  12
ATOM     12  C   UNL     1     145.905 151.853 166.916  1.00  0.00     0.066 C 
BRANCH  12  13
ATOM     13  C   UNL     1     145.329 151.562 165.530  1.00  0.00     0.140 C 
ATOM     14  O   UNL     1     144.261 150.969 165.465  1.00  0.00    -0.299 OA
BRANCH  13  15
ATOM     15  C   UNL     1     145.975 152.033 164.244  1.00  0.00     0.106 CG0
ATOM     16  G   UNL     1     147.083 151.103 163.773  1.00  0.00     0.000 G0
ENDBRANCH  13  15
ENDBRANCH  12  13
BRANCH  12  17
ATOM     17  C   UNL     1     145.051 151.367 168.134  1.00  0.00    -0.006 C 
ATOM     18  C   UNL     1     144.320 152.531 168.823  1.00  0.00     0.008 C 
ATOM     19  C   UNL     1     145.794 150.513 169.170  1.00  0.00     0.008 C 
ENDBRANCH  12  17
ENDBRANCH  11  12
ENDBRANCH   1  11
TORSDOF 1
ENDMDL
MODEL 6
REMARK VINA RESULT:    -2.746      2.290      4.627
REMARK INTER + INTRA:          -4.544
REMARK INTER:                  -4.680
REMARK INTRA:                   0.136
REMARK UNBOUND:                -0.353
REMARK SMILES CC1=CCC[C@@H](C)C(=O)C[C@@H](C(C)C)C(=O)C1
REMARK SMILES IDX 8 1 9 2 6 3 7 4 5 5 4 6 3 7 2 8 1 9 10 11 11 12 15 13 16 14
REMARK SMILES IDX 17 15 12 17 13 18 14 19
REMARK H PARENT
REMARK Flexibility Score: 70.00
ROOT
ATOM      1  C   UNL     1     151.134 150.704 164.573  1.00  0.00     0.136 C 
ATOM      2  O   UNL     1     152.054 149.908 164.464  1.00  0.00    -0.299 OA
ENDROOT
BRANCH   1   3
ATOM      3  C   UNL     1     149.901 150.561 163.696  1.00  0.00     0.053 C 
ATOM      4  C   UNL     1     149.729 149.129 163.165  1.00  0.00     0.016 C 
BRANCH   3   5
ATOM      5  C   UNL     1     149.888 151.608 162.564  1.00  0.00     0.015 C 
BRANCH   5   6
ATOM      6  C   UNL     1     148.617 152.484 162.524  1.00  0.00     0.028 C 
BRANCH   6   7
ATOM      7  C   UNL     1     148.951 153.935 162.292  1.00  0.00    -0.028 C 
ATOM      8  C   UNL     1     148.984 154.883 163.258  1.00  0.00    -0.070 CG0
ATOM      9  C   UNL     1     149.319 156.297 162.855  1.00  0.00     0.039 C 
ATOM     10  G   UNL     1     148.689 154.592 164.722  1.00  0.00     0.000 G0
ENDBRANCH   6   7
ENDBRANCH   5   6
ENDBRANCH   3   5
ENDBRANCH   1   3
BRANCH   1  11
ATOM     11  C   UNL     1     151.204 151.785 165.629  1.00  0.00     0.087 C 
BRANCH  11  12
ATOM     12  C   UNL     1     149.879 152.545 165.933  1.00  0.00     0.066 C 
BRANCH  12  13
ATOM     13  C   UNL     1     149.854 154.001 165.467  1.00  0.00     0.140 C 
ATOM     14  O   UNL     1     150.857 154.679 165.648  1.00  0.00    -0.299 OA
BRANCH  13  15
ATOM     15  C   UNL     1     148.684 154.621 164.732  1.00  0.00     0.106 CG0
ATOM     16  G   UNL     1     148.987 154.878 163.264  1.00  0.00     0.000 G0
ENDBRANCH  13  15
ENDBRANCH  12  13
BRANCH  12  17
ATOM     17  C   UNL     1     149.266 152.262 167.345  1.00  0.00    -0.006 C 
ATOM     18  C   UNL     1     148.414 153.440 167.846  1.00  0.00     0.008 C 
ATOM     19  C   UNL     1     150.261 151.822 168.427  1.00  0.00     0.008 C 
ENDBRANCH  12  17
ENDBRANCH  11  12
ENDBRANCH   1  11
TORSDOF 1
ENDMDL
MODEL 7
REMARK VINA RESULT:    -2.725      2.015      4.310
REMARK INTER + INTRA:          -4.511
REMARK INTER:                  -4.248
REMARK INTRA:                  -0.263
REMARK UNBOUND:                -0.353
REMARK SMILES CC1=CCC[C@@H](C)C(=O)C[C@@H](C(C)C)C(=O)C1
REMARK SMILES IDX 8 1 9 2 6 3 7 4 5 5 4 6 3 7 2 8 1 9 10 11 11 12 15 13 16 14
REMARK SMILES IDX 17 15 12 17 13 18 14 19
REMARK H PARENT
REMARK Flexibility Score: 70.00
ROOT
ATOM      1  C   UNL     1     148.019 153.183 167.727  1.00  0.00     0.136 C 
ATOM      2  O   UNL     1     148.452 154.195 168.255  1.00  0.00    -0.299 OA
ENDROOT
BRANCH   1   3
ATOM      3  C   UNL     1     148.825 151.896 167.783  1.00  0.00     0.053 C 
ATOM      4  C   UNL     1     148.681 151.179 169.135  1.00  0.00     0.016 C 
BRANCH   3   5
ATOM      5  C   UNL     1     150.301 152.135 167.403  1.00  0.00     0.015 C 
BRANCH   5   6
ATOM      6  C   UNL     1     150.562 152.203 165.883  1.00  0.00     0.028 C 
BRANCH   6   7
ATOM      7  C   UNL     1     150.457 153.614 165.364  1.00  0.00    -0.028 C 
ATOM      8  C   UNL     1     149.525 154.043 164.481  1.00  0.00    -0.070 CG0
ATOM      9  C   UNL     1     149.568 155.486 164.047  1.00  0.00     0.039 C 
ATOM     10  G   UNL     1     148.449 153.138 163.899  1.00  0.00     0.000 G0
ENDBRANCH   6   7
ENDBRANCH   5   6
ENDBRANCH   3   5
ENDBRANCH   1   3
BRANCH   1  11
ATOM     11  C   UNL     1     146.652 153.206 167.078  1.00  0.00     0.087 C 
BRANCH  11  12
ATOM     12  C   UNL     1     146.535 152.530 165.680  1.00  0.00     0.066 C 
BRANCH  12  13
ATOM     13  C   UNL     1     147.077 153.364 164.519  1.00  0.00     0.140 C 
ATOM     14  O   UNL     1     146.396 154.298 164.116  1.00  0.00    -0.299 OA
BRANCH  13  15
ATOM     15  C   UNL     1     148.438 153.138 163.894  1.00  0.00     0.106 CG0
ATOM     16  G   UNL     1     149.514 154.027 164.500  1.00  0.00     0.000 G0
ENDBRANCH  13  15
ENDBRANCH  12  13
BRANCH  12  17
ATOM     17  C   UNL     1     145.187 151.781 165.422  1.00  0.00    -0.006 C 
ATOM     18  C   UNL     1     144.852 150.797 166.555  1.00  0.00     0.008 C 
ATOM     19  C   UNL     1     145.057 151.091 164.058  1.00  0.00     0.008 C 
ENDBRANCH  12  17
ENDBRANCH  11  12
ENDBRANCH   1  11
TORSDOF 1
ENDMDL
MODEL 8
REMARK VINA RESULT:    -2.589      2.534      5.165
REMARK INTER + INTRA:          -4.304
REMARK INTER:                  -4.014
REMARK INTRA:                  -0.289
REMARK UNBOUND:                -0.353
REMARK SMILES CC1=CCC[C@@H](C)C(=O)C[C@@H](C(C)C)C(=O)C1
REMARK SMILES IDX 8 1 9 2 6 3 7 4 5 5 4 6 3 7 2 8 1 9 10 11 11 12 15 13 16 14
REMARK SMILES IDX 17 15 12 17 13 18 14 19
REMARK H PARENT
REMARK Flexibility Score: 70.00
ROOT
ATOM      1  C   UNL     1     149.810 155.489 164.203  1.00  0.00     0.136 C 
ATOM      2  O   UNL     1     150.947 155.258 164.585  1.00  0.00    -0.299 OA
ENDROOT
BRANCH   1   3
ATOM      3  C   UNL     1     149.578 156.490 163.083  1.00  0.00     0.053 C 
ATOM      4  C   UNL     1     148.113 156.951 163.011  1.00  0.00     0.016 C 
BRANCH   3   5
ATOM      5  C   UNL     1     150.088 155.953 161.730  1.00  0.00     0.015 C 
BRANCH   5   6
ATOM      6  C   UNL     1     149.155 154.917 161.066  1.00  0.00     0.028 C 
BRANCH   6   7
ATOM      7  C   UNL     1     149.735 153.528 161.128  1.00  0.00    -0.028 C 
ATOM      8  C   UNL     1     149.183 152.491 161.802  1.00  0.00    -0.070 CG0
ATOM      9  C   UNL     1     149.901 151.166 161.780  1.00  0.00     0.039 C 
ATOM     10  G   UNL     1     147.885 152.604 162.587  1.00  0.00     0.000 G0
ENDBRANCH   6   7
ENDBRANCH   5   6
ENDBRANCH   3   5
ENDBRANCH   1   3
BRANCH   1  11
ATOM     11  C   UNL     1     148.650 154.727 164.805  1.00  0.00     0.087 C 
BRANCH  11  12
ATOM     12  C   UNL     1     148.858 153.198 165.014  1.00  0.00     0.066 C 
BRANCH  12  13
ATOM     13  C   UNL     1     148.057 152.307 164.064  1.00  0.00     0.140 C 
ATOM     14  O   UNL     1     147.480 151.336 164.537  1.00  0.00    -0.299 OA
BRANCH  13  15
ATOM     15  C   UNL     1     147.883 152.605 162.590  1.00  0.00     0.106 CG0
ATOM     16  G   UNL     1     149.182 152.474 161.810  1.00  0.00     0.000 G0
ENDBRANCH  13  15
ENDBRANCH  12  13
BRANCH  12  17
ATOM     17  C   UNL     1     148.914 152.739 166.508  1.00  0.00    -0.006 C 
ATOM     18  C   UNL     1     148.306 153.790 167.452  1.00  0.00     0.008 C 
ATOM     19  C   UNL     1     150.291 152.293 167.018  1.00  0.00     0.008 C 
ENDBRANCH  12  17
ENDBRANCH  11  12
ENDBRANCH   1  11
TORSDOF 1
ENDMDL
MODEL 9
REMARK VINA RESULT:    -2.579      4.656      7.032
REMARK INTER + INTRA:          -4.288
REMARK INTER:                  -4.311
REMARK INTRA:                   0.023
REMARK UNBOUND:                -0.353
REMARK SMILES CC1=CCC[C@@H](C)C(=O)C[C@@H](C(C)C)C(=O)C1
REMARK SMILES IDX 8 1 9 2 6 3 7 4 5 5 4 6 3 7 2 8 1 9 10 11 11 12 15 13 16 14
REMARK SMILES IDX 17 15 12 17 13 18 14 19
REMARK H PARENT
REMARK Flexibility Score: 70.00
ROOT
ATOM      1  C   UNL     1     149.285 156.718 163.874  1.00  0.00     0.136 C 
ATOM      2  O   UNL     1     149.959 156.527 164.875  1.00  0.00    -0.299 OA
ENDROOT
BRANCH   1   3
ATOM      3  C   UNL     1     148.667 155.538 163.142  1.00  0.00     0.053 C 
ATOM      4  C   UNL     1     147.851 154.635 164.080  1.00  0.00     0.016 C 
BRANCH   3   5
ATOM      5  C   UNL     1     149.726 154.748 162.347  1.00  0.00     0.015 C 
BRANCH   5   6
ATOM      6  C   UNL     1     149.908 155.221 160.888  1.00  0.00     0.028 C 
BRANCH   6   7
ATOM      7  C   UNL     1     148.582 155.447 160.208  1.00  0.00    -0.028 C 
ATOM      8  C   UNL     1     148.140 156.645 159.760  1.00  0.00    -0.070 CG0
ATOM      9  C   UNL     1     146.778 156.705 159.117  1.00  0.00     0.039 C 
ATOM     10  G   UNL     1     148.943 157.931 159.887  1.00  0.00     0.000 G0
ENDBRANCH   6   7
ENDBRANCH   5   6
ENDBRANCH   3   5
ENDBRANCH   1   3
BRANCH   1  11
ATOM     11  C   UNL     1     149.016 158.134 163.414  1.00  0.00     0.087 C 
BRANCH  11  12
ATOM     12  C   UNL     1     147.917 158.314 162.325  1.00  0.00     0.066 C 
BRANCH  12  13
ATOM     13  C   UNL     1     148.425 158.839 160.983  1.00  0.00     0.140 C 
ATOM     14  O   UNL     1     148.467 160.051 160.819  1.00  0.00    -0.299 OA
BRANCH  13  15
ATOM     15  C   UNL     1     148.944 157.941 159.879  1.00  0.00     0.106 CG0
ATOM     16  G   UNL     1     148.151 156.648 159.756  1.00  0.00     0.000 G0
ENDBRANCH  13  15
ENDBRANCH  12  13
BRANCH  12  17
ATOM     17  C   UNL     1     146.573 158.926 162.842  1.00  0.00    -0.006 C 
ATOM     18  C   UNL     1     145.520 159.021 161.725  1.00  0.00     0.008 C 
ATOM     19  C   UNL     1     146.691 160.264 163.582  1.00  0.00     0.008 C 
ENDBRANCH  12  17
ENDBRANCH  11  12
ENDBRANCH   1  11
TORSDOF 1
ENDMDL
