MODEL 1
REMARK VINA RESULT:    -3.975      0.000      0.000
REMARK INTER + INTRA:         -15.613
REMARK INTER:                 -10.483
REMARK INTRA:                  -5.130
REMARK UNBOUND:                -5.130
REMARK SMILES CCCCCCCCCCCCCCCCCCCCCCCCCCCCCC(=O)[O-]
REMARK SMILES IDX 16 1 17 2 18 3 19 4 20 5 21 6 22 7 23 8 24 9 25 10 26 11
REMARK SMILES IDX 27 12 28 13 29 14 30 15 31 16 32 17 15 18 14 19 13 20 12 21
REMARK SMILES IDX 11 22 10 23 9 24 8 25 7 26 6 27 5 28 4 29 3 30 2 31 1 32
REMARK H PARENT
REMARK Flexibility Score: inf
ROOT
ATOM      1  C   UNL     1      75.319 -75.871  -0.383  1.00  0.00     0.000 C 
ENDROOT
BRANCH   1   2
ATOM      2  C   UNL     1      74.558 -76.899  -1.240  1.00  0.00     0.000 C 
BRANCH   2   3
ATOM      3  C   UNL     1      75.028 -76.921  -2.703  1.00  0.00     0.000 C 
BRANCH   3   4
ATOM      4  C   UNL     1      75.184 -78.347  -3.263  1.00  0.00     0.000 C 
BRANCH   4   5
ATOM      5  C   UNL     1      74.696 -79.477  -2.335  1.00  0.00     0.000 C 
BRANCH   5   6
ATOM      6  C   UNL     1      73.589 -80.339  -2.970  1.00  0.00     0.000 C 
BRANCH   6   7
ATOM      7  C   UNL     1      72.445 -79.497  -3.558  1.00  0.00     0.000 C 
BRANCH   7   8
ATOM      8  C   UNL     1      71.289 -79.294  -2.561  1.00  0.00     0.000 C 
BRANCH   8   9
ATOM      9  C   UNL     1      71.175 -77.840  -2.065  1.00  0.00     0.000 C 
BRANCH   9  10
ATOM     10  C   UNL     1      70.695 -77.682  -0.610  1.00  0.00     0.000 C 
BRANCH  10  11
ATOM     11  C   UNL     1      71.840 -77.792   0.412  1.00  0.00     0.000 C 
BRANCH  11  12
ATOM     12  C   UNL     1      71.856 -76.625   1.415  1.00  0.00     0.000 C 
BRANCH  12  13
ATOM     13  C   UNL     1      72.949 -76.772   2.485  1.00  0.00     0.006 C 
BRANCH  13  14
ATOM     14  C   UNL     1      72.449 -76.281   3.849  1.00  0.00     0.053 C 
BRANCH  14  15
ATOM     15  C   UNL     1      73.360 -76.729   4.952  1.00  0.00     0.041 C 
ATOM     16  O   UNL     1      74.441 -77.314   4.676  1.00  0.00    -0.550 OA
ATOM     17  O   UNL     1      72.997 -76.546   6.282  1.00  0.00    -0.550 OA
ENDBRANCH  14  15
ENDBRANCH  13  14
ENDBRANCH  12  13
ENDBRANCH  11  12
ENDBRANCH  10  11
ENDBRANCH   9  10
ENDBRANCH   8   9
ENDBRANCH   7   8
ENDBRANCH   6   7
ENDBRANCH   5   6
ENDBRANCH   4   5
ENDBRANCH   3   4
ENDBRANCH   2   3
ENDBRANCH   1   2
BRANCH   1  18
ATOM     18  C   UNL     1      74.797 -74.421  -0.468  1.00  0.00     0.000 C 
BRANCH  18  19
ATOM     19  C   UNL     1      73.329 -74.271  -0.906  1.00  0.00     0.000 C 
BRANCH  19  20
ATOM     20  C   UNL     1      73.145 -73.229  -2.023  1.00  0.00     0.000 C 
BRANCH  20  21
ATOM     21  C   UNL     1      74.286 -72.197  -2.078  1.00  0.00     0.000 C 
BRANCH  21  22
ATOM     22  C   UNL     1      74.709 -71.752  -3.490  1.00  0.00     0.000 C 
BRANCH  22  23
ATOM     23  C   UNL     1      76.170 -72.103  -3.822  1.00  0.00     0.000 C 
BRANCH  23  24
ATOM     24  C   UNL     1      76.444 -73.615  -3.754  1.00  0.00    -0.000 C 
BRANCH  24  25
ATOM     25  C   UNL     1      77.569 -73.969  -2.765  1.00  0.00    -0.000 C 
BRANCH  25  26
ATOM     26  C   UNL     1      78.158 -75.366  -3.017  1.00  0.00    -0.000 C 
BRANCH  26  27
ATOM     27  C   UNL     1      78.619 -76.054  -1.720  1.00  0.00    -0.000 C 
BRANCH  27  28
ATOM     28  C   UNL     1      78.727 -77.583  -1.860  1.00  0.00    -0.000 C 
BRANCH  28  29
ATOM     29  C   UNL     1      77.998 -78.393  -0.770  1.00  0.00    -0.000 C 
BRANCH  29  30
ATOM     30  C   UNL     1      78.705 -79.693  -0.335  1.00  0.00    -0.000 C 
BRANCH  30  31
ATOM     31  C   UNL     1      79.231 -80.563  -1.490  1.00  0.00    -0.003 C 
ATOM     32  C   UNL     1      78.133 -80.974  -2.473  1.00  0.00     0.004 C 
ENDBRANCH  30  31
ENDBRANCH  29  30
ENDBRANCH  28  29
ENDBRANCH  27  28
ENDBRANCH  26  27
ENDBRANCH  25  26
ENDBRANCH  24  25
ENDBRANCH  23  24
ENDBRANCH  22  23
ENDBRANCH  21  22
ENDBRANCH  20  21
ENDBRANCH  19  20
ENDBRANCH  18  19
ENDBRANCH   1  18
TORSDOF 28
ENDMDL
MODEL 2
REMARK VINA RESULT:    -3.872      2.523      4.969
REMARK INTER + INTRA:         -15.341
REMARK INTER:                 -10.121
REMARK INTRA:                  -5.219
REMARK UNBOUND:                -5.130
REMARK SMILES CCCCCCCCCCCCCCCCCCCCCCCCCCCCCC(=O)[O-]
REMARK SMILES IDX 16 1 17 2 18 3 19 4 20 5 21 6 22 7 23 8 24 9 25 10 26 11
REMARK SMILES IDX 27 12 28 13 29 14 30 15 31 16 32 17 15 18 14 19 13 20 12 21
REMARK SMILES IDX 11 22 10 23 9 24 8 25 7 26 6 27 5 28 4 29 3 30 2 31 1 32
REMARK H PARENT
REMARK Flexibility Score: inf
ROOT
ATOM      1  C   UNL     1      73.321 -69.485   0.751  1.00  0.00     0.000 C 
ENDROOT
BRANCH   1   2
ATOM      2  C   UNL     1      72.038 -69.406   1.598  1.00  0.00     0.000 C 
BRANCH   2   3
ATOM      3  C   UNL     1      72.144 -70.189   2.916  1.00  0.00     0.000 C 
BRANCH   3   4
ATOM      4  C   UNL     1      70.973 -71.165   3.132  1.00  0.00     0.000 C 
BRANCH   4   5
ATOM      5  C   UNL     1      71.070 -72.493   2.356  1.00  0.00     0.000 C 
BRANCH   5   6
ATOM      6  C   UNL     1      69.732 -72.916   1.720  1.00  0.00     0.000 C 
BRANCH   6   7
ATOM      7  C   UNL     1      69.602 -72.464   0.257  1.00  0.00     0.000 C 
BRANCH   7   8
ATOM      8  C   UNL     1      70.867 -72.764  -0.568  1.00  0.00     0.000 C 
BRANCH   8   9
ATOM      9  C   UNL     1      70.968 -74.242  -0.992  1.00  0.00     0.000 C 
BRANCH   9  10
ATOM     10  C   UNL     1      72.135 -75.025  -0.358  1.00  0.00     0.000 C 
BRANCH  10  11
ATOM     11  C   UNL     1      71.665 -76.061   0.678  1.00  0.00     0.000 C 
BRANCH  11  12
ATOM     12  C   UNL     1      72.682 -76.273   1.812  1.00  0.00     0.000 C 
BRANCH  12  13
ATOM     13  C   UNL     1      72.177 -75.768   3.172  1.00  0.00     0.006 C 
BRANCH  13  14
ATOM     14  C   UNL     1      72.016 -76.928   4.162  1.00  0.00     0.053 C 
BRANCH  14  15
ATOM     15  C   UNL     1      73.103 -76.913   5.194  1.00  0.00     0.041 C 
ATOM     16  O   UNL     1      72.824 -76.667   6.398  1.00  0.00    -0.550 OA
ATOM     17  O   UNL     1      74.427 -77.121   4.824  1.00  0.00    -0.550 OA
ENDBRANCH  14  15
ENDBRANCH  13  14
ENDBRANCH  12  13
ENDBRANCH  11  12
ENDBRANCH  10  11
ENDBRANCH   9  10
ENDBRANCH   8   9
ENDBRANCH   7   8
ENDBRANCH   6   7
ENDBRANCH   5   6
ENDBRANCH   4   5
ENDBRANCH   3   4
ENDBRANCH   2   3
ENDBRANCH   1   2
BRANCH   1  18
ATOM     18  C   UNL     1      73.750 -70.905   0.328  1.00  0.00     0.000 C 
BRANCH  18  19
ATOM     19  C   UNL     1      74.136 -71.065  -1.154  1.00  0.00     0.000 C 
BRANCH  19  20
ATOM     20  C   UNL     1      74.504 -72.514  -1.520  1.00  0.00     0.000 C 
BRANCH  20  21
ATOM     21  C   UNL     1      73.957 -72.945  -2.893  1.00  0.00     0.000 C 
BRANCH  21  22
ATOM     22  C   UNL     1      75.020 -73.276  -3.956  1.00  0.00     0.000 C 
BRANCH  22  23
ATOM     23  C   UNL     1      76.360 -72.559  -3.712  1.00  0.00     0.000 C 
BRANCH  23  24
ATOM     24  C   UNL     1      77.548 -73.535  -3.648  1.00  0.00    -0.000 C 
BRANCH  24  25
ATOM     25  C   UNL     1      77.910 -73.931  -2.205  1.00  0.00    -0.000 C 
BRANCH  25  26
ATOM     26  C   UNL     1      77.917 -75.453  -1.996  1.00  0.00    -0.000 C 
BRANCH  26  27
ATOM     27  C   UNL     1      77.176 -75.876  -0.714  1.00  0.00    -0.000 C 
BRANCH  27  28
ATOM     28  C   UNL     1      75.663 -76.049  -0.928  1.00  0.00    -0.000 C 
BRANCH  28  29
ATOM     29  C   UNL     1      75.250 -76.526  -2.336  1.00  0.00    -0.000 C 
BRANCH  29  30
ATOM     30  C   UNL     1      74.028 -77.465  -2.379  1.00  0.00    -0.000 C 
BRANCH  30  31
ATOM     31  C   UNL     1      73.915 -78.438  -1.193  1.00  0.00    -0.003 C 
ATOM     32  C   UNL     1      74.658 -79.754  -1.429  1.00  0.00     0.004 C 
ENDBRANCH  30  31
ENDBRANCH  29  30
ENDBRANCH  28  29
ENDBRANCH  27  28
ENDBRANCH  26  27
ENDBRANCH  25  26
ENDBRANCH  24  25
ENDBRANCH  23  24
ENDBRANCH  22  23
ENDBRANCH  21  22
ENDBRANCH  20  21
ENDBRANCH  19  20
ENDBRANCH  18  19
ENDBRANCH   1  18
TORSDOF 28
ENDMDL
MODEL 3
REMARK VINA RESULT:    -3.869      2.995      6.801
REMARK INTER + INTRA:         -15.333
REMARK INTER:                 -11.203
REMARK INTRA:                  -4.129
REMARK UNBOUND:                -5.130
REMARK SMILES CCCCCCCCCCCCCCCCCCCCCCCCCCCCCC(=O)[O-]
REMARK SMILES IDX 16 1 17 2 18 3 19 4 20 5 21 6 22 7 23 8 24 9 25 10 26 11
REMARK SMILES IDX 27 12 28 13 29 14 30 15 31 16 32 17 15 18 14 19 13 20 12 21
REMARK SMILES IDX 11 22 10 23 9 24 8 25 7 26 6 27 5 28 4 29 3 30 2 31 1 32
REMARK H PARENT
REMARK Flexibility Score: inf
ROOT
ATOM      1  C   UNL     1      77.143 -76.623  -0.399  1.00  0.00     0.000 C 
ENDROOT
BRANCH   1   2
ATOM      2  C   UNL     1      76.478 -75.385  -1.028  1.00  0.00     0.000 C 
BRANCH   2   3
ATOM      3  C   UNL     1      77.140 -74.960  -2.349  1.00  0.00     0.000 C 
BRANCH   3   4
ATOM      4  C   UNL     1      77.419 -73.447  -2.421  1.00  0.00     0.000 C 
BRANCH   4   5
ATOM      5  C   UNL     1      77.210 -72.803  -3.805  1.00  0.00     0.000 C 
BRANCH   5   6
ATOM      6  C   UNL     1      75.828 -72.138  -3.955  1.00  0.00     0.000 C 
BRANCH   6   7
ATOM      7  C   UNL     1      74.683 -73.161  -4.033  1.00  0.00     0.000 C 
BRANCH   7   8
ATOM      8  C   UNL     1      73.509 -72.804  -3.103  1.00  0.00     0.000 C 
BRANCH   8   9
ATOM      9  C   UNL     1      73.678 -73.370  -1.681  1.00  0.00     0.000 C 
BRANCH   9  10
ATOM     10  C   UNL     1      74.196 -72.364  -0.634  1.00  0.00     0.000 C 
BRANCH  10  11
ATOM     11  C   UNL     1      73.168 -71.268  -0.300  1.00  0.00     0.000 C 
BRANCH  11  12
ATOM     12  C   UNL     1      73.827 -69.934   0.092  1.00  0.00     0.000 C 
BRANCH  12  13
ATOM     13  C   UNL     1      73.012 -69.147   1.129  1.00  0.00     0.006 C 
BRANCH  13  14
ATOM     14  C   UNL     1      72.346 -70.092   2.136  1.00  0.00     0.053 C 
BRANCH  14  15
ATOM     15  C   UNL     1      71.433 -69.343   3.059  1.00  0.00     0.041 C 
ATOM     16  O   UNL     1      71.042 -69.879   4.130  1.00  0.00    -0.550 OA
ATOM     17  O   UNL     1      70.975 -68.074   2.719  1.00  0.00    -0.550 OA
ENDBRANCH  14  15
ENDBRANCH  13  14
ENDBRANCH  12  13
ENDBRANCH  11  12
ENDBRANCH  10  11
ENDBRANCH   9  10
ENDBRANCH   8   9
ENDBRANCH   7   8
ENDBRANCH   6   7
ENDBRANCH   5   6
ENDBRANCH   4   5
ENDBRANCH   3   4
ENDBRANCH   2   3
ENDBRANCH   1   2
BRANCH   1  18
ATOM     18  C   UNL     1      78.334 -77.209  -1.186  1.00  0.00     0.000 C 
BRANCH  18  19
ATOM     19  C   UNL     1      78.181 -78.680  -1.616  1.00  0.00     0.000 C 
BRANCH  19  20
ATOM     20  C   UNL     1      76.739 -79.036  -2.018  1.00  0.00     0.000 C 
BRANCH  20  21
ATOM     21  C   UNL     1      76.382 -78.580  -3.445  1.00  0.00     0.000 C 
BRANCH  21  22
ATOM     22  C   UNL     1      74.878 -78.433  -3.737  1.00  0.00     0.000 C 
BRANCH  22  23
ATOM     23  C   UNL     1      74.389 -76.975  -3.670  1.00  0.00     0.000 C 
BRANCH  23  24
ATOM     24  C   UNL     1      73.273 -76.775  -2.631  1.00  0.00    -0.000 C 
BRANCH  24  25
ATOM     25  C   UNL     1      73.109 -77.987  -1.697  1.00  0.00    -0.000 C 
BRANCH  25  26
ATOM     26  C   UNL     1      73.765 -77.767  -0.325  1.00  0.00    -0.000 C 
BRANCH  26  27
ATOM     27  C   UNL     1      72.923 -76.866   0.595  1.00  0.00    -0.000 C 
BRANCH  27  28
ATOM     28  C   UNL     1      72.452 -77.587   1.870  1.00  0.00    -0.000 C 
BRANCH  28  29
ATOM     29  C   UNL     1      72.583 -76.768   3.171  1.00  0.00    -0.000 C 
BRANCH  29  30
ATOM     30  C   UNL     1      73.753 -77.175   4.088  1.00  0.00    -0.000 C 
BRANCH  30  31
ATOM     31  C   UNL     1      73.672 -76.627   5.524  1.00  0.00    -0.003 C 
ATOM     32  C   UNL     1      72.256 -76.671   6.099  1.00  0.00     0.004 C 
ENDBRANCH  30  31
ENDBRANCH  29  30
ENDBRANCH  28  29
ENDBRANCH  27  28
ENDBRANCH  26  27
ENDBRANCH  25  26
ENDBRANCH  24  25
ENDBRANCH  23  24
ENDBRANCH  22  23
ENDBRANCH  21  22
ENDBRANCH  20  21
ENDBRANCH  19  20
ENDBRANCH  18  19
ENDBRANCH   1  18
TORSDOF 28
ENDMDL
MODEL 4
REMARK VINA RESULT:    -3.862      2.875      6.878
REMARK INTER + INTRA:         -15.313
REMARK INTER:                 -10.526
REMARK INTRA:                  -4.787
REMARK UNBOUND:                -5.130
REMARK SMILES CCCCCCCCCCCCCCCCCCCCCCCCCCCCCC(=O)[O-]
REMARK SMILES IDX 16 1 17 2 18 3 19 4 20 5 21 6 22 7 23 8 24 9 25 10 26 11
REMARK SMILES IDX 27 12 28 13 29 14 30 15 31 16 32 17 15 18 14 19 13 20 12 21
REMARK SMILES IDX 11 22 10 23 9 24 8 25 7 26 6 27 5 28 4 29 3 30 2 31 1 32
REMARK H PARENT
REMARK Flexibility Score: inf
ROOT
ATOM      1  C   UNL     1      76.619 -76.124  -0.297  1.00  0.00     0.000 C 
ENDROOT
BRANCH   1   2
ATOM      2  C   UNL     1      77.804 -76.709  -1.087  1.00  0.00     0.000 C 
BRANCH   2   3
ATOM      3  C   UNL     1      78.189 -75.855  -2.305  1.00  0.00     0.000 C 
BRANCH   3   4
ATOM      4  C   UNL     1      77.606 -74.430  -2.250  1.00  0.00     0.000 C 
BRANCH   4   5
ATOM      5  C   UNL     1      76.820 -73.990  -3.500  1.00  0.00     0.000 C 
BRANCH   5   6
ATOM      6  C   UNL     1      76.955 -72.484  -3.795  1.00  0.00     0.000 C 
BRANCH   6   7
ATOM      7  C   UNL     1      75.597 -71.767  -3.856  1.00  0.00     0.000 C 
BRANCH   7   8
ATOM      8  C   UNL     1      74.457 -72.610  -3.253  1.00  0.00     0.000 C 
BRANCH   8   9
ATOM      9  C   UNL     1      74.054 -72.148  -1.841  1.00  0.00     0.000 C 
BRANCH   9  10
ATOM     10  C   UNL     1      74.049 -73.254  -0.768  1.00  0.00     0.000 C 
BRANCH  10  11
ATOM     11  C   UNL     1      72.691 -73.389  -0.055  1.00  0.00     0.000 C 
BRANCH  11  12
ATOM     12  C   UNL     1      71.612 -72.471  -0.652  1.00  0.00     0.000 C 
BRANCH  12  13
ATOM     13  C   UNL     1      70.857 -71.662   0.414  1.00  0.00     0.006 C 
BRANCH  13  14
ATOM     14  C   UNL     1      71.809 -71.183   1.516  1.00  0.00     0.053 C 
BRANCH  14  15
ATOM     15  C   UNL     1      72.169 -69.740   1.329  1.00  0.00     0.041 C 
ATOM     16  O   UNL     1      73.194 -69.427   0.668  1.00  0.00    -0.550 OA
ATOM     17  O   UNL     1      71.403 -68.743   1.924  1.00  0.00    -0.550 OA
ENDBRANCH  14  15
ENDBRANCH  13  14
ENDBRANCH  12  13
ENDBRANCH  11  12
ENDBRANCH  10  11
ENDBRANCH   9  10
ENDBRANCH   8   9
ENDBRANCH   7   8
ENDBRANCH   6   7
ENDBRANCH   5   6
ENDBRANCH   4   5
ENDBRANCH   3   4
ENDBRANCH   2   3
ENDBRANCH   1   2
BRANCH   1  18
ATOM     18  C   UNL     1      75.237 -76.718  -0.639  1.00  0.00     0.000 C 
BRANCH  18  19
ATOM     19  C   UNL     1      75.235 -77.803  -1.730  1.00  0.00     0.000 C 
BRANCH  19  20
ATOM     20  C   UNL     1      74.674 -77.297  -3.071  1.00  0.00     0.000 C 
BRANCH  20  21
ATOM     21  C   UNL     1      73.577 -76.230  -2.901  1.00  0.00     0.000 C 
BRANCH  21  22
ATOM     22  C   UNL     1      72.144 -76.772  -2.752  1.00  0.00     0.000 C 
BRANCH  22  23
ATOM     23  C   UNL     1      71.486 -76.381  -1.417  1.00  0.00     0.000 C 
BRANCH  23  24
ATOM     24  C   UNL     1      71.552 -77.509  -0.374  1.00  0.00    -0.000 C 
BRANCH  24  25
ATOM     25  C   UNL     1      71.569 -76.979   1.070  1.00  0.00    -0.000 C 
BRANCH  25  26
ATOM     26  C   UNL     1      72.635 -77.667   1.939  1.00  0.00    -0.000 C 
BRANCH  26  27
ATOM     27  C   UNL     1      73.362 -76.683   2.872  1.00  0.00    -0.000 C 
BRANCH  27  28
ATOM     28  C   UNL     1      73.691 -77.293   4.245  1.00  0.00    -0.000 C 
BRANCH  28  29
ATOM     29  C   UNL     1      73.242 -76.454   5.459  1.00  0.00    -0.000 C 
BRANCH  29  30
ATOM     30  C   UNL     1      71.911 -76.892   6.103  1.00  0.00    -0.000 C 
BRANCH  30  31
ATOM     31  C   UNL     1      70.756 -77.124   5.113  1.00  0.00    -0.003 C 
ATOM     32  C   UNL     1      70.444 -78.605   4.899  1.00  0.00     0.004 C 
ENDBRANCH  30  31
ENDBRANCH  29  30
ENDBRANCH  28  29
ENDBRANCH  27  28
ENDBRANCH  26  27
ENDBRANCH  25  26
ENDBRANCH  24  25
ENDBRANCH  23  24
ENDBRANCH  22  23
ENDBRANCH  21  22
ENDBRANCH  20  21
ENDBRANCH  19  20
ENDBRANCH  18  19
ENDBRANCH   1  18
TORSDOF 28
ENDMDL
MODEL 5
REMARK VINA RESULT:    -3.846      4.605      9.014
REMARK INTER + INTRA:         -15.271
REMARK INTER:                 -10.730
REMARK INTRA:                  -4.541
REMARK UNBOUND:                -5.130
REMARK SMILES CCCCCCCCCCCCCCCCCCCCCCCCCCCCCC(=O)[O-]
REMARK SMILES IDX 16 1 17 2 18 3 19 4 20 5 21 6 22 7 23 8 24 9 25 10 26 11
REMARK SMILES IDX 27 12 28 13 29 14 30 15 31 16 32 17 15 18 14 19 13 20 12 21
REMARK SMILES IDX 11 22 10 23 9 24 8 25 7 26 6 27 5 28 4 29 3 30 2 31 1 32
REMARK H PARENT
REMARK Flexibility Score: inf
ROOT
ATOM      1  C   UNL     1      71.744 -68.422   5.627  1.00  0.00     0.000 C 
ENDROOT
BRANCH   1   2
ATOM      2  C   UNL     1      71.664 -67.664   4.289  1.00  0.00     0.000 C 
BRANCH   2   3
ATOM      3  C   UNL     1      70.410 -68.021   3.475  1.00  0.00     0.000 C 
BRANCH   3   4
ATOM      4  C   UNL     1      70.716 -68.921   2.263  1.00  0.00     0.000 C 
BRANCH   4   5
ATOM      5  C   UNL     1      72.197 -68.976   1.840  1.00  0.00     0.000 C 
BRANCH   5   6
ATOM      6  C   UNL     1      72.544 -70.243   1.036  1.00  0.00     0.000 C 
BRANCH   6   7
ATOM      7  C   UNL     1      71.430 -71.301   1.085  1.00  0.00     0.000 C 
BRANCH   7   8
ATOM      8  C   UNL     1      71.351 -72.136  -0.207  1.00  0.00     0.000 C 
BRANCH   8   9
ATOM      9  C   UNL     1      72.681 -72.831  -0.552  1.00  0.00     0.000 C 
BRANCH   9  10
ATOM     10  C   UNL     1      72.872 -74.225   0.076  1.00  0.00     0.000 C 
BRANCH  10  11
ATOM     11  C   UNL     1      74.091 -74.974  -0.491  1.00  0.00     0.000 C 
BRANCH  11  12
ATOM     12  C   UNL     1      75.343 -74.086  -0.589  1.00  0.00     0.000 C 
BRANCH  12  13
ATOM     13  C   UNL     1      76.466 -74.725  -1.421  1.00  0.00     0.006 C 
BRANCH  13  14
ATOM     14  C   UNL     1      76.240 -74.491  -2.919  1.00  0.00     0.053 C 
BRANCH  14  15
ATOM     15  C   UNL     1      76.622 -73.096  -3.312  1.00  0.00     0.041 C 
ATOM     16  O   UNL     1      77.833 -72.807  -3.509  1.00  0.00    -0.550 OA
ATOM     17  O   UNL     1      75.653 -72.104  -3.415  1.00  0.00    -0.550 OA
ENDBRANCH  14  15
ENDBRANCH  13  14
ENDBRANCH  12  13
ENDBRANCH  11  12
ENDBRANCH  10  11
ENDBRANCH   9  10
ENDBRANCH   8   9
ENDBRANCH   7   8
ENDBRANCH   6   7
ENDBRANCH   5   6
ENDBRANCH   4   5
ENDBRANCH   3   4
ENDBRANCH   2   3
ENDBRANCH   1   2
BRANCH   1  18
ATOM     18  C   UNL     1      72.132 -69.912   5.522  1.00  0.00     0.000 C 
BRANCH  18  19
ATOM     19  C   UNL     1      71.009 -70.912   5.850  1.00  0.00     0.000 C 
BRANCH  19  20
ATOM     20  C   UNL     1      70.650 -71.816   4.657  1.00  0.00     0.000 C 
BRANCH  20  21
ATOM     21  C   UNL     1      71.537 -73.071   4.565  1.00  0.00     0.000 C 
BRANCH  21  22
ATOM     22  C   UNL     1      71.070 -74.140   3.560  1.00  0.00     0.000 C 
BRANCH  22  23
ATOM     23  C   UNL     1      70.112 -75.173   4.179  1.00  0.00     0.000 C 
BRANCH  23  24
ATOM     24  C   UNL     1      70.403 -75.431   5.667  1.00  0.00    -0.000 C 
BRANCH  24  25
ATOM     25  C   UNL     1      71.032 -76.813   5.915  1.00  0.00    -0.000 C 
BRANCH  25  26
ATOM     26  C   UNL     1      72.416 -76.721   6.577  1.00  0.00    -0.000 C 
BRANCH  26  27
ATOM     27  C   UNL     1      73.549 -76.537   5.552  1.00  0.00    -0.000 C 
BRANCH  27  28
ATOM     28  C   UNL     1      73.494 -77.565   4.409  1.00  0.00    -0.000 C 
BRANCH  28  29
ATOM     29  C   UNL     1      73.288 -76.970   3.002  1.00  0.00    -0.000 C 
BRANCH  29  30
ATOM     30  C   UNL     1      72.258 -77.706   2.121  1.00  0.00    -0.000 C 
BRANCH  30  31
ATOM     31  C   UNL     1      71.626 -78.951   2.767  1.00  0.00    -0.003 C 
ATOM     32  C   UNL     1      70.110 -78.832   2.932  1.00  0.00     0.004 C 
ENDBRANCH  30  31
ENDBRANCH  29  30
ENDBRANCH  28  29
ENDBRANCH  27  28
ENDBRANCH  26  27
ENDBRANCH  25  26
ENDBRANCH  24  25
ENDBRANCH  23  24
ENDBRANCH  22  23
ENDBRANCH  21  22
ENDBRANCH  20  21
ENDBRANCH  19  20
ENDBRANCH  18  19
ENDBRANCH   1  18
TORSDOF 28
ENDMDL
MODEL 6
REMARK VINA RESULT:    -3.836      2.980      6.423
REMARK INTER + INTRA:         -15.246
REMARK INTER:                 -10.693
REMARK INTRA:                  -4.553
REMARK UNBOUND:                -5.130
REMARK SMILES CCCCCCCCCCCCCCCCCCCCCCCCCCCCCC(=O)[O-]
REMARK SMILES IDX 16 1 17 2 18 3 19 4 20 5 21 6 22 7 23 8 24 9 25 10 26 11
REMARK SMILES IDX 27 12 28 13 29 14 30 15 31 16 32 17 15 18 14 19 13 20 12 21
REMARK SMILES IDX 11 22 10 23 9 24 8 25 7 26 6 27 5 28 4 29 3 30 2 31 1 32
REMARK H PARENT
REMARK Flexibility Score: inf
ROOT
ATOM      1  C   UNL     1      76.334 -74.550  -1.217  1.00  0.00     0.000 C 
ENDROOT
BRANCH   1   2
ATOM      2  C   UNL     1      76.790 -75.858  -0.545  1.00  0.00     0.000 C 
BRANCH   2   3
ATOM      3  C   UNL     1      78.245 -76.226  -0.881  1.00  0.00     0.000 C 
BRANCH   3   4
ATOM      4  C   UNL     1      78.366 -77.550  -1.659  1.00  0.00     0.000 C 
BRANCH   4   5
ATOM      5  C   UNL     1      78.803 -77.412  -3.130  1.00  0.00     0.000 C 
BRANCH   5   6
ATOM      6  C   UNL     1      77.619 -77.178  -4.088  1.00  0.00     0.000 C 
BRANCH   6   7
ATOM      7  C   UNL     1      76.362 -77.963  -3.680  1.00  0.00     0.000 C 
BRANCH   7   8
ATOM      8  C   UNL     1      75.126 -77.057  -3.522  1.00  0.00     0.000 C 
BRANCH   8   9
ATOM      9  C   UNL     1      73.945 -77.771  -2.839  1.00  0.00     0.000 C 
BRANCH   9  10
ATOM     10  C   UNL     1      74.316 -78.609  -1.600  1.00  0.00     0.000 C 
BRANCH  10  11
ATOM     11  C   UNL     1      73.500 -78.225  -0.353  1.00  0.00     0.000 C 
BRANCH  11  12
ATOM     12  C   UNL     1      73.198 -76.719  -0.279  1.00  0.00     0.000 C 
BRANCH  12  13
ATOM     13  C   UNL     1      73.128 -76.192   1.162  1.00  0.00     0.006 C 
BRANCH  13  14
ATOM     14  C   UNL     1      72.127 -77.002   1.994  1.00  0.00     0.053 C 
BRANCH  14  15
ATOM     15  C   UNL     1      72.758 -77.513   3.253  1.00  0.00     0.041 C 
ATOM     16  O   UNL     1      73.897 -77.099   3.600  1.00  0.00    -0.550 OA
ATOM     17  O   UNL     1      72.115 -78.479   4.020  1.00  0.00    -0.550 OA
ENDBRANCH  14  15
ENDBRANCH  13  14
ENDBRANCH  12  13
ENDBRANCH  11  12
ENDBRANCH  10  11
ENDBRANCH   9  10
ENDBRANCH   8   9
ENDBRANCH   7   8
ENDBRANCH   6   7
ENDBRANCH   5   6
ENDBRANCH   4   5
ENDBRANCH   3   4
ENDBRANCH   2   3
ENDBRANCH   1   2
BRANCH   1  18
ATOM     18  C   UNL     1      77.306 -73.970  -2.266  1.00  0.00     0.000 C 
BRANCH  18  19
ATOM     19  C   UNL     1      76.678 -73.629  -3.630  1.00  0.00     0.000 C 
BRANCH  19  20
ATOM     20  C   UNL     1      76.322 -72.138  -3.765  1.00  0.00     0.000 C 
BRANCH  20  21
ATOM     21  C   UNL     1      74.805 -71.884  -3.818  1.00  0.00     0.000 C 
BRANCH  21  22
ATOM     22  C   UNL     1      73.919 -73.137  -3.707  1.00  0.00     0.000 C 
BRANCH  22  23
ATOM     23  C   UNL     1      72.699 -72.936  -2.791  1.00  0.00     0.000 C 
BRANCH  23  24
ATOM     24  C   UNL     1      72.987 -73.328  -1.331  1.00  0.00    -0.000 C 
BRANCH  24  25
ATOM     25  C   UNL     1      72.723 -72.174  -0.347  1.00  0.00    -0.000 C 
BRANCH  25  26
ATOM     26  C   UNL     1      73.741 -71.032  -0.491  1.00  0.00    -0.000 C 
BRANCH  26  27
ATOM     27  C   UNL     1      73.642 -70.005   0.651  1.00  0.00    -0.000 C 
BRANCH  27  28
ATOM     28  C   UNL     1      72.406 -70.221   1.542  1.00  0.00    -0.000 C 
BRANCH  28  29
ATOM     29  C   UNL     1      71.662 -68.934   1.952  1.00  0.00    -0.000 C 
BRANCH  29  30
ATOM     30  C   UNL     1      70.765 -69.063   3.200  1.00  0.00    -0.000 C 
BRANCH  30  31
ATOM     31  C   UNL     1      71.513 -69.394   4.504  1.00  0.00    -0.003 C 
ATOM     32  C   UNL     1      71.779 -68.161   5.368  1.00  0.00     0.004 C 
ENDBRANCH  30  31
ENDBRANCH  29  30
ENDBRANCH  28  29
ENDBRANCH  27  28
ENDBRANCH  26  27
ENDBRANCH  25  26
ENDBRANCH  24  25
ENDBRANCH  23  24
ENDBRANCH  22  23
ENDBRANCH  21  22
ENDBRANCH  20  21
ENDBRANCH  19  20
ENDBRANCH  18  19
ENDBRANCH   1  18
TORSDOF 28
ENDMDL
MODEL 7
REMARK VINA RESULT:    -3.799      2.638      6.723
REMARK INTER + INTRA:         -15.148
REMARK INTER:                 -10.034
REMARK INTRA:                  -5.114
REMARK UNBOUND:                -5.130
REMARK SMILES CCCCCCCCCCCCCCCCCCCCCCCCCCCCCC(=O)[O-]
REMARK SMILES IDX 16 1 17 2 18 3 19 4 20 5 21 6 22 7 23 8 24 9 25 10 26 11
REMARK SMILES IDX 27 12 28 13 29 14 30 15 31 16 32 17 15 18 14 19 13 20 12 21
REMARK SMILES IDX 11 22 10 23 9 24 8 25 7 26 6 27 5 28 4 29 3 30 2 31 1 32
REMARK H PARENT
REMARK Flexibility Score: inf
ROOT
ATOM      1  C   UNL     1      78.003 -78.944  -0.772  1.00  0.00     0.000 C 
ENDROOT
BRANCH   1   2
ATOM      2  C   UNL     1      78.636 -77.882  -1.689  1.00  0.00     0.000 C 
BRANCH   2   3
ATOM      3  C   UNL     1      78.260 -76.447  -1.287  1.00  0.00     0.000 C 
BRANCH   3   4
ATOM      4  C   UNL     1      78.286 -75.465  -2.474  1.00  0.00     0.000 C 
BRANCH   4   5
ATOM      5  C   UNL     1      77.448 -74.185  -2.289  1.00  0.00     0.000 C 
BRANCH   5   6
ATOM      6  C   UNL     1      77.457 -73.276  -3.532  1.00  0.00     0.000 C 
BRANCH   6   7
ATOM      7  C   UNL     1      76.098 -72.603  -3.785  1.00  0.00     0.000 C 
BRANCH   7   8
ATOM      8  C   UNL     1      75.041 -72.995  -2.736  1.00  0.00     0.000 C 
BRANCH   8   9
ATOM      9  C   UNL     1      73.667 -73.305  -3.358  1.00  0.00     0.000 C 
BRANCH   9  10
ATOM     10  C   UNL     1      72.546 -73.612  -2.347  1.00  0.00     0.000 C 
BRANCH  10  11
ATOM     11  C   UNL     1      73.031 -73.571  -0.887  1.00  0.00     0.000 C 
BRANCH  11  12
ATOM     12  C   UNL     1      71.874 -73.475   0.122  1.00  0.00     0.000 C 
BRANCH  12  13
ATOM     13  C   UNL     1      71.491 -72.025   0.456  1.00  0.00     0.006 C 
BRANCH  13  14
ATOM     14  C   UNL     1      72.652 -71.068   0.159  1.00  0.00     0.053 C 
BRANCH  14  15
ATOM     15  C   UNL     1      72.621 -69.881   1.072  1.00  0.00     0.041 C 
ATOM     16  O   UNL     1      73.335 -68.874   0.820  1.00  0.00    -0.550 OA
ATOM     17  O   UNL     1      71.844 -69.900   2.226  1.00  0.00    -0.550 OA
ENDBRANCH  14  15
ENDBRANCH  13  14
ENDBRANCH  12  13
ENDBRANCH  11  12
ENDBRANCH  10  11
ENDBRANCH   9  10
ENDBRANCH   8   9
ENDBRANCH   7   8
ENDBRANCH   6   7
ENDBRANCH   5   6
ENDBRANCH   4   5
ENDBRANCH   3   4
ENDBRANCH   2   3
ENDBRANCH   1   2
BRANCH   1  18
ATOM     18  C   UNL     1      77.561 -80.247  -1.473  1.00  0.00     0.000 C 
BRANCH  18  19
ATOM     19  C   UNL     1      76.149 -80.744  -1.115  1.00  0.00     0.000 C 
BRANCH  19  20
ATOM     20  C   UNL     1      75.256 -80.941  -2.354  1.00  0.00     0.000 C 
BRANCH  20  21
ATOM     21  C   UNL     1      75.725 -80.122  -3.570  1.00  0.00     0.000 C 
BRANCH  21  22
ATOM     22  C   UNL     1      74.805 -78.958  -3.979  1.00  0.00     0.000 C 
BRANCH  22  23
ATOM     23  C   UNL     1      75.407 -77.576  -3.671  1.00  0.00     0.000 C 
BRANCH  23  24
ATOM     24  C   UNL     1      74.510 -76.733  -2.749  1.00  0.00    -0.000 C 
BRANCH  24  25
ATOM     25  C   UNL     1      74.761 -77.018  -1.258  1.00  0.00    -0.000 C 
BRANCH  25  26
ATOM     26  C   UNL     1      73.694 -77.940  -0.645  1.00  0.00    -0.000 C 
BRANCH  26  27
ATOM     27  C   UNL     1      72.375 -77.202  -0.352  1.00  0.00    -0.000 C 
BRANCH  27  28
ATOM     28  C   UNL     1      72.032 -77.164   1.147  1.00  0.00    -0.000 C 
BRANCH  28  29
ATOM     29  C   UNL     1      73.121 -76.555   2.053  1.00  0.00    -0.000 C 
BRANCH  29  30
ATOM     30  C   UNL     1      72.816 -76.591   3.564  1.00  0.00    -0.000 C 
BRANCH  30  31
ATOM     31  C   UNL     1      71.457 -75.989   3.965  1.00  0.00    -0.003 C 
ATOM     32  C   UNL     1      71.346 -74.500   3.636  1.00  0.00     0.004 C 
ENDBRANCH  30  31
ENDBRANCH  29  30
ENDBRANCH  28  29
ENDBRANCH  27  28
ENDBRANCH  26  27
ENDBRANCH  25  26
ENDBRANCH  24  25
ENDBRANCH  23  24
ENDBRANCH  22  23
ENDBRANCH  21  22
ENDBRANCH  20  21
ENDBRANCH  19  20
ENDBRANCH  18  19
ENDBRANCH   1  18
TORSDOF 28
ENDMDL
MODEL 8
REMARK VINA RESULT:    -3.757      2.316      5.569
REMARK INTER + INTRA:         -15.037
REMARK INTER:                 -10.113
REMARK INTRA:                  -4.924
REMARK UNBOUND:                -5.130
REMARK SMILES CCCCCCCCCCCCCCCCCCCCCCCCCCCCCC(=O)[O-]
REMARK SMILES IDX 16 1 17 2 18 3 19 4 20 5 21 6 22 7 23 8 24 9 25 10 26 11
REMARK SMILES IDX 27 12 28 13 29 14 30 15 31 16 32 17 15 18 14 19 13 20 12 21
REMARK SMILES IDX 11 22 10 23 9 24 8 25 7 26 6 27 5 28 4 29 3 30 2 31 1 32
REMARK H PARENT
REMARK Flexibility Score: inf
ROOT
ATOM      1  C   UNL     1      77.636 -76.518  -0.566  1.00  0.00     0.000 C 
ENDROOT
BRANCH   1   2
ATOM      2  C   UNL     1      77.608 -77.868  -1.306  1.00  0.00     0.000 C 
BRANCH   2   3
ATOM      3  C   UNL     1      77.480 -77.711  -2.829  1.00  0.00     0.000 C 
BRANCH   3   4
ATOM      4  C   UNL     1      76.087 -78.102  -3.359  1.00  0.00     0.000 C 
BRANCH   4   5
ATOM      5  C   UNL     1      75.222 -76.933  -3.866  1.00  0.00     0.000 C 
BRANCH   5   6
ATOM      6  C   UNL     1      73.920 -76.756  -3.060  1.00  0.00     0.000 C 
BRANCH   6   7
ATOM      7  C   UNL     1      73.541 -78.015  -2.263  1.00  0.00     0.000 C 
BRANCH   7   8
ATOM      8  C   UNL     1      73.107 -77.692  -0.821  1.00  0.00     0.000 C 
BRANCH   8   9
ATOM      9  C   UNL     1      71.590 -77.465  -0.689  1.00  0.00     0.000 C 
BRANCH   9  10
ATOM     10  C   UNL     1      71.178 -76.053  -0.229  1.00  0.00     0.000 C 
BRANCH  10  11
ATOM     11  C   UNL     1      72.319 -75.298   0.476  1.00  0.00     0.000 C 
BRANCH  11  12
ATOM     12  C   UNL     1      71.906 -74.745   1.850  1.00  0.00     0.000 C 
BRANCH  12  13
ATOM     13  C   UNL     1      71.704 -75.845   2.903  1.00  0.00     0.006 C 
BRANCH  13  14
ATOM     14  C   UNL     1      72.945 -76.740   3.006  1.00  0.00     0.053 C 
BRANCH  14  15
ATOM     15  C   UNL     1      73.348 -76.942   4.435  1.00  0.00     0.041 C 
ATOM     16  O   UNL     1      72.545 -76.654   5.363  1.00  0.00    -0.550 OA
ATOM     17  O   UNL     1      74.622 -77.402   4.748  1.00  0.00    -0.550 OA
ENDBRANCH  14  15
ENDBRANCH  13  14
ENDBRANCH  12  13
ENDBRANCH  11  12
ENDBRANCH  10  11
ENDBRANCH   9  10
ENDBRANCH   8   9
ENDBRANCH   7   8
ENDBRANCH   6   7
ENDBRANCH   5   6
ENDBRANCH   4   5
ENDBRANCH   3   4
ENDBRANCH   2   3
ENDBRANCH   1   2
BRANCH   1  18
ATOM     18  C   UNL     1      76.276 -75.799  -0.446  1.00  0.00     0.000 C 
BRANCH  18  19
ATOM     19  C   UNL     1      76.188 -74.431  -1.147  1.00  0.00     0.000 C 
BRANCH  19  20
ATOM     20  C   UNL     1      77.287 -74.234  -2.206  1.00  0.00     0.000 C 
BRANCH  20  21
ATOM     21  C   UNL     1      76.956 -73.122  -3.218  1.00  0.00     0.000 C 
BRANCH  21  22
ATOM     22  C   UNL     1      75.603 -73.262  -3.937  1.00  0.00     0.000 C 
BRANCH  22  23
ATOM     23  C   UNL     1      74.555 -72.242  -3.457  1.00  0.00     0.000 C 
BRANCH  23  24
ATOM     24  C   UNL     1      73.264 -72.912  -2.958  1.00  0.00    -0.000 C 
BRANCH  24  25
ATOM     25  C   UNL     1      72.927 -72.535  -1.504  1.00  0.00    -0.000 C 
BRANCH  25  26
ATOM     26  C   UNL     1      74.107 -71.868  -0.779  1.00  0.00    -0.000 C 
BRANCH  26  27
ATOM     27  C   UNL     1      73.690 -70.595  -0.021  1.00  0.00    -0.000 C 
BRANCH  27  28
ATOM     28  C   UNL     1      72.264 -70.679   0.550  1.00  0.00    -0.000 C 
BRANCH  28  29
ATOM     29  C   UNL     1      71.952 -69.681   1.683  1.00  0.00    -0.000 C 
BRANCH  29  30
ATOM     30  C   UNL     1      70.793 -70.087   2.616  1.00  0.00    -0.000 C 
BRANCH  30  31
ATOM     31  C   UNL     1      70.963 -71.454   3.303  1.00  0.00    -0.003 C 
ATOM     32  C   UNL     1      71.930 -71.410   4.487  1.00  0.00     0.004 C 
ENDBRANCH  30  31
ENDBRANCH  29  30
ENDBRANCH  28  29
ENDBRANCH  27  28
ENDBRANCH  26  27
ENDBRANCH  25  26
ENDBRANCH  24  25
ENDBRANCH  23  24
ENDBRANCH  22  23
ENDBRANCH  21  22
ENDBRANCH  20  21
ENDBRANCH  19  20
ENDBRANCH  18  19
ENDBRANCH   1  18
TORSDOF 28
ENDMDL
MODEL 9
REMARK VINA RESULT:    -3.742      2.519      6.411
REMARK INTER + INTRA:         -14.996
REMARK INTER:                  -9.378
REMARK INTRA:                  -5.618
REMARK UNBOUND:                -5.130
REMARK SMILES CCCCCCCCCCCCCCCCCCCCCCCCCCCCCC(=O)[O-]
REMARK SMILES IDX 16 1 17 2 18 3 19 4 20 5 21 6 22 7 23 8 24 9 25 10 26 11
REMARK SMILES IDX 27 12 28 13 29 14 30 15 31 16 32 17 15 18 14 19 13 20 12 21
REMARK SMILES IDX 11 22 10 23 9 24 8 25 7 26 6 27 5 28 4 29 3 30 2 31 1 32
REMARK H PARENT
REMARK Flexibility Score: inf
ROOT
ATOM      1  C   UNL     1      77.887 -77.740  -0.754  1.00  0.00     0.000 C 
ENDROOT
BRANCH   1   2
ATOM      2  C   UNL     1      77.794 -76.204  -0.757  1.00  0.00     0.000 C 
BRANCH   2   3
ATOM      3  C   UNL     1      78.325 -75.576  -2.056  1.00  0.00     0.000 C 
BRANCH   3   4
ATOM      4  C   UNL     1      77.853 -74.124  -2.259  1.00  0.00     0.000 C 
BRANCH   4   5
ATOM      5  C   UNL     1      76.683 -73.942  -3.244  1.00  0.00     0.000 C 
BRANCH   5   6
ATOM      6  C   UNL     1      76.612 -72.521  -3.837  1.00  0.00     0.000 C 
BRANCH   6   7
ATOM      7  C   UNL     1      75.220 -71.886  -3.689  1.00  0.00     0.000 C 
BRANCH   7   8
ATOM      8  C   UNL     1      74.084 -72.918  -3.817  1.00  0.00     0.000 C 
BRANCH   8   9
ATOM      9  C   UNL     1      73.112 -72.889  -2.622  1.00  0.00     0.000 C 
BRANCH   9  10
ATOM     10  C   UNL     1      71.681 -73.370  -2.932  1.00  0.00     0.000 C 
BRANCH  10  11
ATOM     11  C   UNL     1      70.710 -73.149  -1.760  1.00  0.00     0.000 C 
BRANCH  11  12
ATOM     12  C   UNL     1      71.104 -73.941  -0.502  1.00  0.00     0.000 C 
BRANCH  12  13
ATOM     13  C   UNL     1      71.478 -73.037   0.683  1.00  0.00     0.006 C 
BRANCH  13  14
ATOM     14  C   UNL     1      71.312 -71.557   0.317  1.00  0.00     0.053 C 
BRANCH  14  15
ATOM     15  C   UNL     1      71.896 -70.670   1.374  1.00  0.00     0.041 C 
ATOM     16  O   UNL     1      71.632 -70.880   2.588  1.00  0.00    -0.550 OA
ATOM     17  O   UNL     1      72.692 -69.585   1.021  1.00  0.00    -0.550 OA
ENDBRANCH  14  15
ENDBRANCH  13  14
ENDBRANCH  12  13
ENDBRANCH  11  12
ENDBRANCH  10  11
ENDBRANCH   9  10
ENDBRANCH   8   9
ENDBRANCH   7   8
ENDBRANCH   6   7
ENDBRANCH   5   6
ENDBRANCH   4   5
ENDBRANCH   3   4
ENDBRANCH   2   3
ENDBRANCH   1   2
BRANCH   1  18
ATOM     18  C   UNL     1      78.577 -78.365  -1.985  1.00  0.00     0.000 C 
BRANCH  18  19
ATOM     19  C   UNL     1      78.170 -79.815  -2.305  1.00  0.00     0.000 C 
BRANCH  19  20
ATOM     20  C   UNL     1      77.339 -80.461  -1.182  1.00  0.00     0.000 C 
BRANCH  20  21
ATOM     21  C   UNL     1      75.938 -80.900  -1.645  1.00  0.00     0.000 C 
BRANCH  21  22
ATOM     22  C   UNL     1      74.772 -80.027  -1.146  1.00  0.00     0.000 C 
BRANCH  22  23
ATOM     23  C   UNL     1      73.901 -79.473  -2.287  1.00  0.00     0.000 C 
BRANCH  23  24
ATOM     24  C   UNL     1      74.732 -78.785  -3.383  1.00  0.00    -0.000 C 
BRANCH  24  25
ATOM     25  C   UNL     1      75.050 -77.316  -3.049  1.00  0.00    -0.000 C 
BRANCH  25  26
ATOM     26  C   UNL     1      73.848 -76.575  -2.442  1.00  0.00    -0.000 C 
BRANCH  26  27
ATOM     27  C   UNL     1      74.234 -75.731  -1.215  1.00  0.00    -0.000 C 
BRANCH  27  28
ATOM     28  C   UNL     1      74.352 -76.566   0.072  1.00  0.00    -0.000 C 
BRANCH  28  29
ATOM     29  C   UNL     1      73.058 -76.673   0.904  1.00  0.00    -0.000 C 
BRANCH  29  30
ATOM     30  C   UNL     1      72.498 -78.101   1.066  1.00  0.00    -0.000 C 
BRANCH  30  31
ATOM     31  C   UNL     1      71.037 -78.279   0.615  1.00  0.00    -0.003 C 
ATOM     32  C   UNL     1      70.750 -77.637  -0.743  1.00  0.00     0.004 C 
ENDBRANCH  30  31
ENDBRANCH  29  30
ENDBRANCH  28  29
ENDBRANCH  27  28
ENDBRANCH  26  27
ENDBRANCH  25  26
ENDBRANCH  24  25
ENDBRANCH  23  24
ENDBRANCH  22  23
ENDBRANCH  21  22
ENDBRANCH  20  21
ENDBRANCH  19  20
ENDBRANCH  18  19
ENDBRANCH   1  18
TORSDOF 28
ENDMDL
