MODEL 1
REMARK VINA RESULT:    -4.361      0.000      0.000
REMARK INTER + INTRA:          -7.939
REMARK INTER:                  -6.655
REMARK INTRA:                  -1.283
REMARK UNBOUND:                -1.283
REMARK SMILES CCCCCCCCCCC(=O)[O-]
REMARK SMILES IDX 7 1 8 2 9 3 10 4 11 5 12 6 13 7 6 8 5 9 4 10 3 11 2 12 1 13
REMARK H PARENT
REMARK Flexibility Score: inf
ROOT
ATOM      1  C   UNL     1      62.333  28.625  13.084  1.00  0.00     0.000 C 
ENDROOT
BRANCH   1   2
ATOM      2  C   UNL     1      60.901  28.907  13.593  1.00  0.00     0.000 C 
BRANCH   2   3
ATOM      3  C   UNL     1      59.819  28.733  12.511  1.00  0.00     0.006 C 
BRANCH   3   4
ATOM      4  C   UNL     1      59.957  29.703  11.328  1.00  0.00     0.053 C 
BRANCH   4   5
ATOM      5  C   UNL     1      60.118  28.978  10.026  1.00  0.00     0.041 C 
ATOM      6  O   UNL     1      59.318  29.197   9.078  1.00  0.00    -0.550 OA
ATOM      7  O   UNL     1      61.134  28.047   9.865  1.00  0.00    -0.550 OA
ENDBRANCH   4   5
ENDBRANCH   3   4
ENDBRANCH   2   3
ENDBRANCH   1   2
BRANCH   1   8
ATOM      8  C   UNL     1      63.299  29.776  13.396  1.00  0.00     0.000 C 
BRANCH   8   9
ATOM      9  C   UNL     1      63.473  30.695  12.182  1.00  0.00    -0.000 C 
BRANCH   9  10
ATOM     10  C   UNL     1      63.310  32.169  12.578  1.00  0.00    -0.000 C 
BRANCH  10  11
ATOM     11  C   UNL     1      62.342  32.315  13.761  1.00  0.00    -0.000 C 
BRANCH  11  12
ATOM     12  C   UNL     1      60.915  32.669  13.316  1.00  0.00    -0.003 C 
ATOM     13  C   UNL     1      59.880  32.453  14.419  1.00  0.00     0.004 C 
ENDBRANCH  11  12
ENDBRANCH  10  11
ENDBRANCH   9  10
ENDBRANCH   8   9
ENDBRANCH   1   8
TORSDOF 9
ENDMDL
MODEL 2
REMARK VINA RESULT:    -4.272     13.216     14.409
REMARK INTER + INTRA:          -7.803
REMARK INTER:                  -6.651
REMARK INTRA:                  -1.152
REMARK UNBOUND:                -1.283
REMARK SMILES CCCCCCCCCCC(=O)[O-]
REMARK SMILES IDX 7 1 8 2 9 3 10 4 11 5 12 6 13 7 6 8 5 9 4 10 3 11 2 12 1 13
REMARK H PARENT
REMARK Flexibility Score: inf
ROOT
ATOM      1  C   UNL     1      62.290  29.712  24.726  1.00  0.00     0.000 C 
ENDROOT
BRANCH   1   2
ATOM      2  C   UNL     1      61.688  28.314  24.457  1.00  0.00     0.000 C 
BRANCH   2   3
ATOM      3  C   UNL     1      60.625  27.894  25.489  1.00  0.00     0.006 C 
BRANCH   3   4
ATOM      4  C   UNL     1      61.153  26.955  26.583  1.00  0.00     0.053 C 
BRANCH   4   5
ATOM      5  C   UNL     1      61.363  27.671  27.882  1.00  0.00     0.041 C 
ATOM      6  O   UNL     1      60.997  28.870  28.010  1.00  0.00    -0.550 OA
ATOM      7  O   UNL     1      61.980  27.026  28.945  1.00  0.00    -0.550 OA
ENDBRANCH   4   5
ENDBRANCH   3   4
ENDBRANCH   2   3
ENDBRANCH   1   2
BRANCH   1   8
ATOM      8  C   UNL     1      63.825  29.691  24.740  1.00  0.00     0.000 C 
BRANCH   8   9
ATOM      9  C   UNL     1      64.354  28.789  25.861  1.00  0.00    -0.000 C 
BRANCH   9  10
ATOM     10  C   UNL     1      65.372  27.777  25.319  1.00  0.00    -0.000 C 
BRANCH  10  11
ATOM     11  C   UNL     1      64.728  26.396  25.134  1.00  0.00    -0.000 C 
BRANCH  11  12
ATOM     12  C   UNL     1      64.849  25.876  23.693  1.00  0.00    -0.003 C 
ATOM     13  C   UNL     1      65.714  26.775  22.811  1.00  0.00     0.004 C 
ENDBRANCH  11  12
ENDBRANCH  10  11
ENDBRANCH   9  10
ENDBRANCH   8   9
ENDBRANCH   1   8
TORSDOF 9
ENDMDL
MODEL 3
REMARK VINA RESULT:    -4.151     13.500     14.673
REMARK INTER + INTRA:          -7.619
REMARK INTER:                  -6.664
REMARK INTRA:                  -0.955
REMARK UNBOUND:                -1.283
REMARK SMILES CCCCCCCCCCC(=O)[O-]
REMARK SMILES IDX 7 1 8 2 9 3 10 4 11 5 12 6 13 7 6 8 5 9 4 10 3 11 2 12 1 13
REMARK H PARENT
REMARK Flexibility Score: inf
ROOT
ATOM      1  C   UNL     1      62.980  30.382  27.932  1.00  0.00     0.000 C 
ENDROOT
BRANCH   1   2
ATOM      2  C   UNL     1      62.615  28.972  28.448  1.00  0.00     0.000 C 
BRANCH   2   3
ATOM      3  C   UNL     1      61.234  28.483  27.975  1.00  0.00     0.006 C 
BRANCH   3   4
ATOM      4  C   UNL     1      61.284  27.231  27.088  1.00  0.00     0.053 C 
BRANCH   4   5
ATOM      5  C   UNL     1      60.583  27.443  25.781  1.00  0.00     0.041 C 
ATOM      6  O   UNL     1      60.955  28.363  25.006  1.00  0.00    -0.550 OA
ATOM      7  O   UNL     1      59.506  26.641  25.427  1.00  0.00    -0.550 OA
ENDBRANCH   4   5
ENDBRANCH   3   4
ENDBRANCH   2   3
ENDBRANCH   1   2
BRANCH   1   8
ATOM      8  C   UNL     1      63.820  30.332  26.647  1.00  0.00     0.000 C 
BRANCH   8   9
ATOM      9  C   UNL     1      65.196  29.711  26.912  1.00  0.00    -0.000 C 
BRANCH   9  10
ATOM     10  C   UNL     1      65.617  28.792  25.757  1.00  0.00    -0.000 C 
BRANCH  10  11
ATOM     11  C   UNL     1      64.424  27.970  25.247  1.00  0.00    -0.000 C 
BRANCH  11  12
ATOM     12  C   UNL     1      64.691  26.458  25.282  1.00  0.00    -0.003 C 
ATOM     13  C   UNL     1      65.088  25.895  23.917  1.00  0.00     0.004 C 
ENDBRANCH  11  12
ENDBRANCH  10  11
ENDBRANCH   9  10
ENDBRANCH   8   9
ENDBRANCH   1   8
TORSDOF 9
ENDMDL
MODEL 4
REMARK VINA RESULT:    -4.149      1.353      2.680
REMARK INTER + INTRA:          -7.616
REMARK INTER:                  -6.447
REMARK INTRA:                  -1.169
REMARK UNBOUND:                -1.283
REMARK SMILES CCCCCCCCCCC(=O)[O-]
REMARK SMILES IDX 7 1 8 2 9 3 10 4 11 5 12 6 13 7 6 8 5 9 4 10 3 11 2 12 1 13
REMARK H PARENT
REMARK Flexibility Score: inf
ROOT
ATOM      1  C   UNL     1      61.122  29.424  13.870  1.00  0.00     0.000 C 
ENDROOT
BRANCH   1   2
ATOM      2  C   UNL     1      62.011  28.700  12.834  1.00  0.00     0.000 C 
BRANCH   2   3
ATOM      3  C   UNL     1      62.594  29.639  11.761  1.00  0.00     0.006 C 
BRANCH   3   4
ATOM      4  C   UNL     1      62.703  29.003  10.368  1.00  0.00     0.053 C 
BRANCH   4   5
ATOM      5  C   UNL     1      61.367  28.890   9.698  1.00  0.00     0.041 C 
ATOM      6  O   UNL     1      61.068  27.848   9.057  1.00  0.00    -0.550 OA
ATOM      7  O   UNL     1      60.461  29.939   9.762  1.00  0.00    -0.550 OA
ENDBRANCH   4   5
ENDBRANCH   3   4
ENDBRANCH   2   3
ENDBRANCH   1   2
BRANCH   1   8
ATOM      8  C   UNL     1      60.042  30.290  13.205  1.00  0.00     0.000 C 
BRANCH   8   9
ATOM      9  C   UNL     1      59.862  31.616  13.951  1.00  0.00    -0.000 C 
BRANCH   9  10
ATOM     10  C   UNL     1      60.752  32.712  13.350  1.00  0.00    -0.000 C 
BRANCH  10  11
ATOM     11  C   UNL     1      61.906  33.063  14.300  1.00  0.00    -0.000 C 
BRANCH  11  12
ATOM     12  C   UNL     1      63.284  32.754  13.694  1.00  0.00    -0.003 C 
ATOM     13  C   UNL     1      64.056  31.700  14.487  1.00  0.00     0.004 C 
ENDBRANCH  11  12
ENDBRANCH  10  11
ENDBRANCH   9  10
ENDBRANCH   8   9
ENDBRANCH   1   8
TORSDOF 9
ENDMDL
MODEL 5
REMARK VINA RESULT:    -4.096     13.139     14.267
REMARK INTER + INTRA:          -7.535
REMARK INTER:                  -6.418
REMARK INTRA:                  -1.117
REMARK UNBOUND:                -1.283
REMARK SMILES CCCCCCCCCCC(=O)[O-]
REMARK SMILES IDX 7 1 8 2 9 3 10 4 11 5 12 6 13 7 6 8 5 9 4 10 3 11 2 12 1 13
REMARK H PARENT
REMARK Flexibility Score: inf
ROOT
ATOM      1  C   UNL     1      60.792  27.918  25.173  1.00  0.00     0.000 C 
ENDROOT
BRANCH   1   2
ATOM      2  C   UNL     1      61.901  28.873  24.675  1.00  0.00     0.000 C 
BRANCH   2   3
ATOM      3  C   UNL     1      62.900  28.205  23.713  1.00  0.00     0.006 C 
BRANCH   3   4
ATOM      4  C   UNL     1      64.055  27.479  24.417  1.00  0.00     0.053 C 
BRANCH   4   5
ATOM      5  C   UNL     1      64.223  26.077  23.916  1.00  0.00     0.041 C 
ATOM      6  O   UNL     1      63.258  25.269  23.961  1.00  0.00    -0.550 OA
ATOM      7  O   UNL     1      65.449  25.654  23.419  1.00  0.00    -0.550 OA
ENDBRANCH   4   5
ENDBRANCH   3   4
ENDBRANCH   2   3
ENDBRANCH   1   2
BRANCH   1   8
ATOM      8  C   UNL     1      60.683  27.903  26.705  1.00  0.00     0.000 C 
BRANCH   8   9
ATOM      9  C   UNL     1      61.864  27.155  27.334  1.00  0.00    -0.000 C 
BRANCH   9  10
ATOM     10  C   UNL     1      62.511  27.987  28.449  1.00  0.00    -0.000 C 
BRANCH  10  11
ATOM     11  C   UNL     1      61.740  29.296  28.675  1.00  0.00    -0.000 C 
BRANCH  11  12
ATOM     12  C   UNL     1      62.647  30.535  28.602  1.00  0.00    -0.003 C 
ATOM     13  C   UNL     1      63.727  30.415  27.528  1.00  0.00     0.004 C 
ENDBRANCH  11  12
ENDBRANCH  10  11
ENDBRANCH   9  10
ENDBRANCH   8   9
ENDBRANCH   1   8
TORSDOF 9
ENDMDL
MODEL 6
REMARK VINA RESULT:    -4.093      3.169      5.087
REMARK INTER + INTRA:          -7.530
REMARK INTER:                  -6.311
REMARK INTRA:                  -1.219
REMARK UNBOUND:                -1.283
REMARK SMILES CCCCCCCCCCC(=O)[O-]
REMARK SMILES IDX 7 1 8 2 9 3 10 4 11 5 12 6 13 7 6 8 5 9 4 10 3 11 2 12 1 13
REMARK H PARENT
REMARK Flexibility Score: inf
ROOT
ATOM      1  C   UNL     1      61.419  29.387  13.981  1.00  0.00     0.000 C 
ENDROOT
BRANCH   1   2
ATOM      2  C   UNL     1      62.640  30.057  13.311  1.00  0.00     0.000 C 
BRANCH   2   3
ATOM      3  C   UNL     1      62.350  31.473  12.780  1.00  0.00     0.006 C 
BRANCH   3   4
ATOM      4  C   UNL     1      61.065  32.099  13.341  1.00  0.00     0.053 C 
BRANCH   4   5
ATOM      5  C   UNL     1      61.356  33.110  14.409  1.00  0.00     0.041 C 
ATOM      6  O   UNL     1      60.432  33.838  14.859  1.00  0.00    -0.550 OA
ATOM      7  O   UNL     1      62.648  33.264  14.893  1.00  0.00    -0.550 OA
ENDBRANCH   4   5
ENDBRANCH   3   4
ENDBRANCH   2   3
ENDBRANCH   1   2
BRANCH   1   8
ATOM      8  C   UNL     1      60.792  28.301  13.095  1.00  0.00     0.000 C 
BRANCH   8   9
ATOM      9  C   UNL     1      59.600  28.853  12.305  1.00  0.00    -0.000 C 
BRANCH   9  10
ATOM     10  C   UNL     1      60.006  29.203  10.867  1.00  0.00    -0.000 C 
BRANCH  10  11
ATOM     11  C   UNL     1      61.085  28.239  10.352  1.00  0.00    -0.000 C 
BRANCH  11  12
ATOM     12  C   UNL     1      62.020  28.895   9.324  1.00  0.00    -0.003 C 
ATOM     13  C   UNL     1      63.446  29.064   9.845  1.00  0.00     0.004 C 
ENDBRANCH  11  12
ENDBRANCH  10  11
ENDBRANCH   9  10
ENDBRANCH   8   9
ENDBRANCH   1   8
TORSDOF 9
ENDMDL
MODEL 7
REMARK VINA RESULT:    -4.082      2.731      4.438
REMARK INTER + INTRA:          -7.513
REMARK INTER:                  -6.261
REMARK INTRA:                  -1.252
REMARK UNBOUND:                -1.283
REMARK SMILES CCCCCCCCCCC(=O)[O-]
REMARK SMILES IDX 7 1 8 2 9 3 10 4 11 5 12 6 13 7 6 8 5 9 4 10 3 11 2 12 1 13
REMARK H PARENT
REMARK Flexibility Score: inf
ROOT
ATOM      1  C   UNL     1      64.060  31.089  11.176  1.00  0.00     0.000 C 
ENDROOT
BRANCH   1   2
ATOM      2  C   UNL     1      63.639  32.029  12.328  1.00  0.00     0.000 C 
BRANCH   2   3
ATOM      3  C   UNL     1      62.545  31.436  13.236  1.00  0.00     0.006 C 
BRANCH   3   4
ATOM      4  C   UNL     1      61.220  32.211  13.206  1.00  0.00     0.053 C 
BRANCH   4   5
ATOM      5  C   UNL     1      60.355  31.886  14.386  1.00  0.00     0.041 C 
ATOM      6  O   UNL     1      59.101  31.939  14.283  1.00  0.00    -0.550 OA
ATOM      7  O   UNL     1      60.930  31.547  15.603  1.00  0.00    -0.550 OA
ENDBRANCH   4   5
ENDBRANCH   3   4
ENDBRANCH   2   3
ENDBRANCH   1   2
BRANCH   1   8
ATOM      8  C   UNL     1      63.517  29.664  11.359  1.00  0.00     0.000 C 
BRANCH   8   9
ATOM      9  C   UNL     1      62.916  29.131  10.054  1.00  0.00    -0.000 C 
BRANCH   9  10
ATOM     10  C   UNL     1      61.561  28.457  10.305  1.00  0.00    -0.000 C 
BRANCH  10  11
ATOM     11  C   UNL     1      60.511  29.485  10.750  1.00  0.00    -0.000 C 
BRANCH  11  12
ATOM     12  C   UNL     1      59.641  28.976  11.909  1.00  0.00    -0.003 C 
ATOM     13  C   UNL     1      60.461  28.332  13.026  1.00  0.00     0.004 C 
ENDBRANCH  11  12
ENDBRANCH  10  11
ENDBRANCH   9  10
ENDBRANCH   8   9
ENDBRANCH   1   8
TORSDOF 9
ENDMDL
MODEL 8
REMARK VINA RESULT:    -4.053     12.883     14.132
REMARK INTER + INTRA:          -7.469
REMARK INTER:                  -6.288
REMARK INTRA:                  -1.181
REMARK UNBOUND:                -1.283
REMARK SMILES CCCCCCCCCCC(=O)[O-]
REMARK SMILES IDX 7 1 8 2 9 3 10 4 11 5 12 6 13 7 6 8 5 9 4 10 3 11 2 12 1 13
REMARK H PARENT
REMARK Flexibility Score: inf
ROOT
ATOM      1  C   UNL     1      63.364  30.159  25.284  1.00  0.00     0.000 C 
ENDROOT
BRANCH   1   2
ATOM      2  C   UNL     1      63.965  28.957  24.521  1.00  0.00     0.000 C 
BRANCH   2   3
ATOM      3  C   UNL     1      64.899  28.087  25.383  1.00  0.00     0.006 C 
BRANCH   3   4
ATOM      4  C   UNL     1      64.481  26.612  25.463  1.00  0.00     0.053 C 
BRANCH   4   5
ATOM      5  C   UNL     1      64.484  25.955  24.116  1.00  0.00     0.041 C 
ATOM      6  O   UNL     1      63.457  25.355  23.702  1.00  0.00    -0.550 OA
ATOM      7  O   UNL     1      65.625  25.984  23.326  1.00  0.00    -0.550 OA
ENDBRANCH   4   5
ENDBRANCH   3   4
ENDBRANCH   2   3
ENDBRANCH   1   2
BRANCH   1   8
ATOM      8  C   UNL     1      63.449  29.983  26.807  1.00  0.00     0.000 C 
BRANCH   8   9
ATOM      9  C   UNL     1      62.102  29.535  27.386  1.00  0.00    -0.000 C 
BRANCH   9  10
ATOM     10  C   UNL     1      62.198  28.122  27.975  1.00  0.00    -0.000 C 
BRANCH  10  11
ATOM     11  C   UNL     1      61.175  27.183  27.319  1.00  0.00    -0.000 C 
BRANCH  11  12
ATOM     12  C   UNL     1      60.745  27.660  25.923  1.00  0.00    -0.003 C 
ATOM     13  C   UNL     1      59.620  26.815  25.329  1.00  0.00     0.004 C 
ENDBRANCH  11  12
ENDBRANCH  10  11
ENDBRANCH   9  10
ENDBRANCH   8   9
ENDBRANCH   1   8
TORSDOF 9
ENDMDL
MODEL 9
REMARK VINA RESULT:    -4.030     13.713     15.127
REMARK INTER + INTRA:          -7.434
REMARK INTER:                  -6.513
REMARK INTRA:                  -0.921
REMARK UNBOUND:                -1.283
REMARK SMILES CCCCCCCCCCC(=O)[O-]
REMARK SMILES IDX 7 1 8 2 9 3 10 4 11 5 12 6 13 7 6 8 5 9 4 10 3 11 2 12 1 13
REMARK H PARENT
REMARK Flexibility Score: inf
ROOT
ATOM      1  C   UNL     1      61.196  27.214  27.543  1.00  0.00     0.000 C 
ENDROOT
BRANCH   1   2
ATOM      2  C   UNL     1      61.011  28.522  28.345  1.00  0.00     0.000 C 
BRANCH   2   3
ATOM      3  C   UNL     1      62.324  29.076  28.928  1.00  0.00     0.006 C 
BRANCH   3   4
ATOM      4  C   UNL     1      62.753  30.425  28.332  1.00  0.00     0.053 C 
BRANCH   4   5
ATOM      5  C   UNL     1      63.558  30.252  27.080  1.00  0.00     0.041 C 
ATOM      6  O   UNL     1      64.760  29.881  27.147  1.00  0.00    -0.550 OA
ATOM      7  O   UNL     1      62.992  30.521  25.841  1.00  0.00    -0.550 OA
ENDBRANCH   4   5
ENDBRANCH   3   4
ENDBRANCH   2   3
ENDBRANCH   1   2
BRANCH   1   8
ATOM      8  C   UNL     1      60.818  27.379  26.064  1.00  0.00     0.000 C 
BRANCH   8   9
ATOM      9  C   UNL     1      62.054  27.271  25.164  1.00  0.00    -0.000 C 
BRANCH   9  10
ATOM     10  C   UNL     1      63.265  26.756  25.952  1.00  0.00    -0.000 C 
BRANCH  10  11
ATOM     11  C   UNL     1      64.531  26.769  25.082  1.00  0.00    -0.000 C 
BRANCH  11  12
ATOM     12  C   UNL     1      64.342  26.024  23.752  1.00  0.00    -0.003 C 
ATOM     13  C   UNL     1      65.666  25.690  23.067  1.00  0.00     0.004 C 
ENDBRANCH  11  12
ENDBRANCH  10  11
ENDBRANCH   9  10
ENDBRANCH   8   9
ENDBRANCH   1   8
TORSDOF 9
ENDMDL
