MODEL 1
REMARK VINA RESULT:    -4.755      0.000      0.000
REMARK INTER + INTRA:          -5.513
REMARK INTER:                  -5.311
REMARK INTRA:                  -0.202
REMARK UNBOUND:                -0.202
REMARK SMILES CC(C)c1ccc(C(=O)[O-])cc1
REMARK SMILES IDX 7 1 6 2 11 3 5 4 12 5 4 6 8 7 9 8 10 9 2 10 1 11 3 12
REMARK H PARENT
REMARK Flexibility Score: inf
ROOT
ATOM      1  C   UNL     1      16.167  46.074  -0.406  1.00  0.00    -0.003 A 
ATOM      2  C   UNL     1      15.724  45.059   0.460  1.00  0.00     0.010 A 
ATOM      3  C   UNL     1      17.534  46.392  -0.438  1.00  0.00     0.010 A 
ATOM      4  C   UNL     1      16.632  44.376   1.275  1.00  0.00     0.004 A 
ATOM      5  C   UNL     1      18.442  45.708   0.376  1.00  0.00     0.004 A 
ATOM      6  C   UNL     1      18.000  44.692   1.242  1.00  0.00    -0.045 A 
ENDROOT
BRANCH   1   7
ATOM      7  C   UNL     1      15.211  46.800  -1.269  1.00  0.00     0.071 C 
ATOM      8  O   UNL     1      14.215  47.389  -0.769  1.00  0.00    -0.545 OA
ATOM      9  O   UNL     1      15.396  46.844  -2.646  1.00  0.00    -0.545 OA
ENDBRANCH   1   7
BRANCH   6  10
ATOM     10  C   UNL     1      18.974  43.942   2.132  1.00  0.00     0.013 C 
ATOM     11  C   UNL     1      19.499  44.842   3.258  1.00  0.00     0.012 C 
ATOM     12  C   UNL     1      20.128  43.351   1.314  1.00  0.00     0.012 C 
ENDBRANCH   6  10
TORSDOF 2
ENDMDL
MODEL 2
REMARK VINA RESULT:    -4.694      3.087      5.136
REMARK INTER + INTRA:          -5.444
REMARK INTER:                  -5.241
REMARK INTRA:                  -0.203
REMARK UNBOUND:                -0.202
REMARK SMILES CC(C)c1ccc(C(=O)[O-])cc1
REMARK SMILES IDX 7 1 6 2 11 3 5 4 12 5 4 6 8 7 9 8 10 9 2 10 1 11 3 12
REMARK H PARENT
REMARK Flexibility Score: inf
ROOT
ATOM      1  C   UNL     1      18.300  45.027   1.477  1.00  0.00    -0.003 A 
ATOM      2  C   UNL     1      18.596  45.824   0.358  1.00  0.00     0.010 A 
ATOM      3  C   UNL     1      16.956  44.764   1.789  1.00  0.00     0.010 A 
ATOM      4  C   UNL     1      17.568  46.347  -0.433  1.00  0.00     0.004 A 
ATOM      5  C   UNL     1      15.928  45.286   0.998  1.00  0.00     0.004 A 
ATOM      6  C   UNL     1      16.223  46.084  -0.122  1.00  0.00    -0.045 A 
ENDROOT
BRANCH   1   7
ATOM      7  C   UNL     1      19.383  44.472   2.317  1.00  0.00     0.071 C 
ATOM      8  O   UNL     1      19.464  44.771   3.539  1.00  0.00    -0.545 OA
ATOM      9  O   UNL     1      20.329  43.613   1.771  1.00  0.00    -0.545 OA
ENDBRANCH   1   7
BRANCH   6  10
ATOM     10  C   UNL     1      15.118  46.657  -0.989  1.00  0.00     0.013 C 
ATOM     11  C   UNL     1      13.876  46.988  -0.154  1.00  0.00     0.012 C 
ATOM     12  C   UNL     1      14.771  45.708  -2.142  1.00  0.00     0.012 C 
ENDBRANCH   6  10
TORSDOF 2
ENDMDL
MODEL 3
REMARK VINA RESULT:    -4.367      3.488      5.229
REMARK INTER + INTRA:          -5.079
REMARK INTER:                  -4.875
REMARK INTRA:                  -0.204
REMARK UNBOUND:                -0.202
REMARK SMILES CC(C)c1ccc(C(=O)[O-])cc1
REMARK SMILES IDX 7 1 6 2 11 3 5 4 12 5 4 6 8 7 9 8 10 9 2 10 1 11 3 12
REMARK H PARENT
REMARK Flexibility Score: inf
ROOT
ATOM      1  C   UNL     1      19.075  43.760   0.777  1.00  0.00    -0.003 A 
ATOM      2  C   UNL     1      18.984  45.153   0.612  1.00  0.00     0.010 A 
ATOM      3  C   UNL     1      17.905  42.987   0.692  1.00  0.00     0.010 A 
ATOM      4  C   UNL     1      17.748  45.760   0.367  1.00  0.00     0.004 A 
ATOM      5  C   UNL     1      16.670  43.594   0.445  1.00  0.00     0.004 A 
ATOM      6  C   UNL     1      16.578  44.987   0.279  1.00  0.00    -0.045 A 
ENDROOT
BRANCH   1   7
ATOM      7  C   UNL     1      20.379  43.114   1.038  1.00  0.00     0.071 C 
ATOM      8  O   UNL     1      20.994  43.326   2.118  1.00  0.00    -0.545 OA
ATOM      9  O   UNL     1      20.946  42.264   0.096  1.00  0.00    -0.545 OA
ENDBRANCH   1   7
BRANCH   6  10
ATOM     10  C   UNL     1      15.244  45.659   0.012  1.00  0.00     0.013 C 
ATOM     11  C   UNL     1      15.382  46.759  -1.048  1.00  0.00     0.012 C 
ATOM     12  C   UNL     1      14.634  46.213   1.305  1.00  0.00     0.012 C 
ENDBRANCH   6  10
TORSDOF 2
ENDMDL
MODEL 4
REMARK VINA RESULT:    -4.189     21.961     23.179
REMARK INTER + INTRA:          -4.880
REMARK INTER:                  -4.674
REMARK INTRA:                  -0.206
REMARK UNBOUND:                -0.202
REMARK SMILES CC(C)c1ccc(C(=O)[O-])cc1
REMARK SMILES IDX 7 1 6 2 11 3 5 4 12 5 4 6 8 7 9 8 10 9 2 10 1 11 3 12
REMARK H PARENT
REMARK Flexibility Score: inf
ROOT
ATOM      1  C   UNL     1      30.009  59.969 -10.727  1.00  0.00    -0.003 A 
ATOM      2  C   UNL     1      30.028  59.161 -11.878  1.00  0.00     0.010 A 
ATOM      3  C   UNL     1      31.227  60.344 -10.139  1.00  0.00     0.010 A 
ATOM      4  C   UNL     1      31.242  58.738 -12.427  1.00  0.00     0.004 A 
ATOM      5  C   UNL     1      32.441  59.922 -10.689  1.00  0.00     0.004 A 
ATOM      6  C   UNL     1      32.462  59.114 -11.840  1.00  0.00    -0.045 A 
ENDROOT
BRANCH   1   7
ATOM      7  C   UNL     1      28.727  60.418 -10.142  1.00  0.00     0.071 C 
ATOM      8  O   UNL     1      28.537  61.635  -9.874  1.00  0.00    -0.545 OA
ATOM      9  O   UNL     1      27.713  59.504  -9.878  1.00  0.00    -0.545 OA
ENDBRANCH   1   7
BRANCH   6  10
ATOM     10  C   UNL     1      33.772  58.648 -12.447  1.00  0.00     0.013 C 
ATOM     11  C   UNL     1      33.732  58.731 -13.978  1.00  0.00     0.012 C 
ATOM     12  C   UNL     1      34.125  57.231 -11.980  1.00  0.00     0.012 C 
ENDBRANCH   6  10
TORSDOF 2
ENDMDL
MODEL 5
REMARK VINA RESULT:    -4.181     21.917     22.862
REMARK INTER + INTRA:          -4.871
REMARK INTER:                  -4.662
REMARK INTRA:                  -0.209
REMARK UNBOUND:                -0.202
REMARK SMILES CC(C)c1ccc(C(=O)[O-])cc1
REMARK SMILES IDX 7 1 6 2 11 3 5 4 12 5 4 6 8 7 9 8 10 9 2 10 1 11 3 12
REMARK H PARENT
REMARK Flexibility Score: inf
ROOT
ATOM      1  C   UNL     1      30.247  60.217  -9.755  1.00  0.00    -0.003 A 
ATOM      2  C   UNL     1      31.524  59.697  -9.477  1.00  0.00     0.010 A 
ATOM      3  C   UNL     1      29.666  59.959 -11.008  1.00  0.00     0.010 A 
ATOM      4  C   UNL     1      32.204  58.935 -10.432  1.00  0.00     0.004 A 
ATOM      5  C   UNL     1      30.346  59.195 -11.962  1.00  0.00     0.004 A 
ATOM      6  C   UNL     1      31.622  58.675 -11.684  1.00  0.00    -0.045 A 
ENDROOT
BRANCH   1   7
ATOM      7  C   UNL     1      29.525  61.024  -8.749  1.00  0.00     0.071 C 
ATOM      8  O   UNL     1      30.144  61.550  -7.785  1.00  0.00    -0.545 OA
ATOM      9  O   UNL     1      28.152  61.216  -8.852  1.00  0.00    -0.545 OA
ENDBRANCH   1   7
BRANCH   6  10
ATOM     10  C   UNL     1      32.372  57.846 -12.711  1.00  0.00     0.013 C 
ATOM     11  C   UNL     1      33.188  58.738 -13.653  1.00  0.00     0.012 C 
ATOM     12  C   UNL     1      31.414  56.943 -13.497  1.00  0.00     0.012 C 
ENDBRANCH   6  10
TORSDOF 2
ENDMDL
MODEL 6
REMARK VINA RESULT:    -4.173     21.972     22.845
REMARK INTER + INTRA:          -4.863
REMARK INTER:                  -4.652
REMARK INTRA:                  -0.211
REMARK UNBOUND:                -0.202
REMARK SMILES CC(C)c1ccc(C(=O)[O-])cc1
REMARK SMILES IDX 7 1 6 2 11 3 5 4 12 5 4 6 8 7 9 8 10 9 2 10 1 11 3 12
REMARK H PARENT
REMARK Flexibility Score: inf
ROOT
ATOM      1  C   UNL     1      30.248  60.251  -9.762  1.00  0.00    -0.003 A 
ATOM      2  C   UNL     1      29.666  59.937 -11.002  1.00  0.00     0.010 A 
ATOM      3  C   UNL     1      31.533  59.764  -9.470  1.00  0.00     0.010 A 
ATOM      4  C   UNL     1      30.356  59.151 -11.930  1.00  0.00     0.004 A 
ATOM      5  C   UNL     1      32.223  58.980 -10.399  1.00  0.00     0.004 A 
ATOM      6  C   UNL     1      31.641  58.665 -11.640  1.00  0.00    -0.045 A 
ENDROOT
BRANCH   1   7
ATOM      7  C   UNL     1      29.522  61.081  -8.776  1.00  0.00     0.071 C 
ATOM      8  O   UNL     1      30.134  61.607  -7.807  1.00  0.00    -0.545 OA
ATOM      9  O   UNL     1      28.155  61.293  -8.903  1.00  0.00    -0.545 OA
ENDBRANCH   1   7
BRANCH   6  10
ATOM     10  C   UNL     1      32.378  57.814 -12.657  1.00  0.00     0.013 C 
ATOM     11  C   UNL     1      33.153  58.688 -13.651  1.00  0.00     0.012 C 
ATOM     12  C   UNL     1      31.417  56.868 -13.387  1.00  0.00     0.012 C 
ENDBRANCH   6  10
TORSDOF 2
ENDMDL
MODEL 7
REMARK VINA RESULT:    -4.151     21.992     23.400
REMARK INTER + INTRA:          -4.837
REMARK INTER:                  -4.632
REMARK INTRA:                  -0.205
REMARK UNBOUND:                -0.202
REMARK SMILES CC(C)c1ccc(C(=O)[O-])cc1
REMARK SMILES IDX 7 1 6 2 11 3 5 4 12 5 4 6 8 7 9 8 10 9 2 10 1 11 3 12
REMARK H PARENT
REMARK Flexibility Score: inf
ROOT
ATOM      1  C   UNL     1      32.238  58.790 -12.205  1.00  0.00    -0.003 A 
ATOM      2  C   UNL     1      30.886  58.676 -12.573  1.00  0.00     0.010 A 
ATOM      3  C   UNL     1      32.562  59.424 -10.994  1.00  0.00     0.010 A 
ATOM      4  C   UNL     1      29.880  59.185 -11.747  1.00  0.00     0.004 A 
ATOM      5  C   UNL     1      31.555  59.932 -10.167  1.00  0.00     0.004 A 
ATOM      6  C   UNL     1      30.203  59.818 -10.535  1.00  0.00    -0.045 A 
ENDROOT
BRANCH   1   7
ATOM      7  C   UNL     1      33.306  58.254 -13.076  1.00  0.00     0.071 C 
ATOM      8  O   UNL     1      33.515  58.753 -14.215  1.00  0.00    -0.545 OA
ATOM      9  O   UNL     1      34.094  57.191 -12.652  1.00  0.00    -0.545 OA
ENDBRANCH   1   7
BRANCH   6  10
ATOM     10  C   UNL     1      29.100  60.365  -9.647  1.00  0.00     0.013 C 
ATOM     11  C   UNL     1      27.781  59.619  -9.881  1.00  0.00     0.012 C 
ATOM     12  C   UNL     1      28.924  61.875  -9.852  1.00  0.00     0.012 C 
ENDBRANCH   6  10
TORSDOF 2
ENDMDL
MODEL 8
REMARK VINA RESULT:    -4.142     21.973     23.400
REMARK INTER + INTRA:          -4.828
REMARK INTER:                  -4.624
REMARK INTRA:                  -0.204
REMARK UNBOUND:                -0.202
REMARK SMILES CC(C)c1ccc(C(=O)[O-])cc1
REMARK SMILES IDX 7 1 6 2 11 3 5 4 12 5 4 6 8 7 9 8 10 9 2 10 1 11 3 12
REMARK H PARENT
REMARK Flexibility Score: inf
ROOT
ATOM      1  C   UNL     1      32.218  58.795 -12.220  1.00  0.00    -0.003 A 
ATOM      2  C   UNL     1      32.523  59.458 -11.019  1.00  0.00     0.010 A 
ATOM      3  C   UNL     1      30.871  58.631 -12.584  1.00  0.00     0.010 A 
ATOM      4  C   UNL     1      31.501  59.947 -10.199  1.00  0.00     0.004 A 
ATOM      5  C   UNL     1      29.850  59.120 -11.764  1.00  0.00     0.004 A 
ATOM      6  C   UNL     1      30.154  59.784 -10.562  1.00  0.00    -0.045 A 
ENDROOT
BRANCH   1   7
ATOM      7  C   UNL     1      33.295  58.275 -13.090  1.00  0.00     0.071 C 
ATOM      8  O   UNL     1      33.476  58.755 -14.242  1.00  0.00    -0.545 OA
ATOM      9  O   UNL     1      34.124  57.250 -12.651  1.00  0.00    -0.545 OA
ENDBRANCH   1   7
BRANCH   6  10
ATOM     10  C   UNL     1      29.056  60.320  -9.663  1.00  0.00     0.013 C 
ATOM     11  C   UNL     1      27.745  59.554  -9.875  1.00  0.00     0.012 C 
ATOM     12  C   UNL     1      28.855  61.826  -9.873  1.00  0.00     0.012 C 
ENDBRANCH   6  10
TORSDOF 2
ENDMDL
MODEL 9
REMARK VINA RESULT:    -3.844     20.585     21.481
REMARK INTER + INTRA:          -4.494
REMARK INTER:                  -4.283
REMARK INTRA:                  -0.212
REMARK UNBOUND:                -0.202
REMARK SMILES CC(C)c1ccc(C(=O)[O-])cc1
REMARK SMILES IDX 7 1 6 2 11 3 5 4 12 5 4 6 8 7 9 8 10 9 2 10 1 11 3 12
REMARK H PARENT
REMARK Flexibility Score: inf
ROOT
ATOM      1  C   UNL     1      33.006  58.902   0.989  1.00  0.00    -0.003 A 
ATOM      2  C   UNL     1      32.508  60.179   0.678  1.00  0.00     0.010 A 
ATOM      3  C   UNL     1      33.453  58.074  -0.054  1.00  0.00     0.010 A 
ATOM      4  C   UNL     1      32.458  60.618  -0.648  1.00  0.00     0.004 A 
ATOM      5  C   UNL     1      33.403  58.513  -1.380  1.00  0.00     0.004 A 
ATOM      6  C   UNL     1      32.905  59.791  -1.692  1.00  0.00    -0.045 A 
ENDROOT
BRANCH   1   7
ATOM      7  C   UNL     1      33.061  58.433   2.390  1.00  0.00     0.071 C 
ATOM      8  O   UNL     1      32.217  57.601   2.820  1.00  0.00    -0.545 OA
ATOM      9  O   UNL     1      34.043  58.903   3.254  1.00  0.00    -0.545 OA
ENDBRANCH   1   7
BRANCH   6  10
ATOM     10  C   UNL     1      32.845  60.281  -3.127  1.00  0.00     0.013 C 
ATOM     11  C   UNL     1      31.497  60.946  -3.428  1.00  0.00     0.012 C 
ATOM     12  C   UNL     1      33.131  59.142  -4.112  1.00  0.00     0.012 C 
ENDBRANCH   6  10
TORSDOF 2
ENDMDL
