MODEL 1
REMARK VINA RESULT:    -6.183      0.000      0.000
REMARK INTER + INTRA:          -6.725
REMARK INTER:                  -6.725
REMARK INTRA:                   0.000
REMARK UNBOUND:                 0.000
REMARK SMILES Cc1cc(O)c2c(c1)C(=O)c1cc(O)cc(O)c1C2=O
REMARK SMILES IDX 1 1 2 2 8 3 7 4 6 5 4 6 3 7 19 8 20 9 18 10 11 11 9 12 10 13
REMARK SMILES IDX 12 14 13 15 15 16 16 17 5 18 17 20 14 22
REMARK H PARENT 5 19 17 21 14 23
REMARK Flexibility Score: inf
ROOT
ATOM      1  C   UNL     1      13.330   6.377  19.649  1.00  0.00     0.044 C 
ATOM      2  C   UNL     1      14.802   6.084  19.636  1.00  0.00    -0.047 A 
ATOM      3  C   UNL     1      15.720   7.104  19.366  1.00  0.00     0.016 A 
ATOM      4  C   UNL     1      17.102   6.851  19.395  1.00  0.00     0.038 A 
ATOM      5  C   UNL     1      17.573   5.560  19.725  1.00  0.00     0.076 A 
ATOM      6  C   UNL     1      16.637   4.519  19.952  1.00  0.00     0.127 A 
ATOM      7  C   UNL     1      15.267   4.800  19.938  1.00  0.00     0.050 A 
ATOM      8  C   UNL     1      19.038   5.369  19.889  1.00  0.00     0.201 C 
ATOM      9  O   UNL     1      19.471   4.499  20.691  1.00  0.00    -0.288 OA
ATOM     10  C   UNL     1      19.983   6.325  19.255  1.00  0.00     0.076 A 
ATOM     11  C   UNL     1      19.506   7.615  18.927  1.00  0.00     0.041 A 
ATOM     12  C   UNL     1      18.067   7.931  19.077  1.00  0.00     0.194 C 
ATOM     13  O   UNL     1      17.658   9.112  18.908  1.00  0.00    -0.289 OA
ATOM     14  C   UNL     1      20.401   8.590  18.455  1.00  0.00     0.059 A 
ATOM     15  C   UNL     1      21.757   8.292  18.293  1.00  0.00     0.120 A 
ATOM     16  C   UNL     1      22.222   7.008  18.578  1.00  0.00     0.093 A 
ATOM     17  C   UNL     1      21.349   6.014  19.030  1.00  0.00     0.131 A 
ENDROOT
BRANCH   6  18
ATOM     18  O   UNL     1      17.020   3.192  20.163  1.00  0.00    -0.507 OA
ATOM     19  H   UNL     1      16.504   2.548  20.745  1.00  0.00     0.293 HD
ENDBRANCH   6  18
BRANCH  17  20
ATOM     20  O   UNL     1      21.870   4.730  19.206  1.00  0.00    -0.507 OA
ATOM     21  H   UNL     1      21.784   4.205  20.066  1.00  0.00     0.293 HD
ENDBRANCH  17  20
BRANCH  15  22
ATOM     22  O   UNL     1      22.648   9.260  17.837  1.00  0.00    -0.508 OA
ATOM     23  H   UNL     1      23.343   9.670  18.450  1.00  0.00     0.293 HD
ENDBRANCH  15  22
TORSDOF 3
ENDMDL
MODEL 2
REMARK VINA RESULT:    -5.880      2.521      5.089
REMARK INTER + INTRA:          -6.395
REMARK INTER:                  -6.395
REMARK INTRA:                   0.000
REMARK UNBOUND:                 0.000
REMARK SMILES Cc1cc(O)c2c(c1)C(=O)c1cc(O)cc(O)c1C2=O
REMARK SMILES IDX 1 1 2 2 8 3 7 4 6 5 4 6 3 7 19 8 20 9 18 10 11 11 9 12 10 13
REMARK SMILES IDX 12 14 13 15 15 16 16 17 5 18 17 20 14 22
REMARK H PARENT 5 19 17 21 14 23
REMARK Flexibility Score: inf
ROOT
ATOM      1  C   UNL     1      17.355   8.625  18.993  1.00  0.00     0.044 C 
ATOM      2  C   UNL     1      18.654   7.875  18.933  1.00  0.00    -0.047 A 
ATOM      3  C   UNL     1      18.866   6.767  19.760  1.00  0.00     0.016 A 
ATOM      4  C   UNL     1      20.061   6.032  19.681  1.00  0.00     0.038 A 
ATOM      5  C   UNL     1      21.051   6.397  18.742  1.00  0.00     0.076 A 
ATOM      6  C   UNL     1      20.850   7.550  17.939  1.00  0.00     0.127 A 
ATOM      7  C   UNL     1      19.644   8.253  18.020  1.00  0.00     0.050 A 
ATOM      8  C   UNL     1      22.233   5.510  18.587  1.00  0.00     0.201 C 
ATOM      9  O   UNL     1      22.812   5.426  17.471  1.00  0.00    -0.288 OA
ATOM     10  C   UNL     1      22.611   4.586  19.687  1.00  0.00     0.076 A 
ATOM     11  C   UNL     1      21.618   4.224  20.625  1.00  0.00     0.041 A 
ATOM     12  C   UNL     1      20.289   4.877  20.583  1.00  0.00     0.194 C 
ATOM     13  O   UNL     1      19.360   4.468  21.332  1.00  0.00    -0.289 OA
ATOM     14  C   UNL     1      21.898   3.247  21.597  1.00  0.00     0.059 A 
ATOM     15  C   UNL     1      23.156   2.643  21.654  1.00  0.00     0.120 A 
ATOM     16  C   UNL     1      24.150   3.027  20.755  1.00  0.00     0.093 A 
ATOM     17  C   UNL     1      23.904   4.010  19.791  1.00  0.00     0.131 A 
ENDROOT
BRANCH   6  18
ATOM     18  O   UNL     1      21.828   8.047  17.075  1.00  0.00    -0.507 OA
ATOM     19  H   UNL     1      22.265   8.952  17.187  1.00  0.00     0.293 HD
ENDBRANCH   6  18
BRANCH  17  20
ATOM     20  O   UNL     1      24.975   4.407  18.988  1.00  0.00    -0.507 OA
ATOM     21  H   UNL     1      25.888   3.973  19.018  1.00  0.00     0.293 HD
ENDBRANCH  17  20
BRANCH  15  22
ATOM     22  O   UNL     1      23.433   1.666  22.607  1.00  0.00    -0.508 OA
ATOM     23  H   UNL     1      23.377   0.678  22.386  1.00  0.00     0.293 HD
ENDBRANCH  15  22
TORSDOF 3
ENDMDL
MODEL 3
REMARK VINA RESULT:    -5.845      1.306      3.538
REMARK INTER + INTRA:          -6.357
REMARK INTER:                  -6.357
REMARK INTRA:                   0.000
REMARK UNBOUND:                 0.000
REMARK SMILES Cc1cc(O)c2c(c1)C(=O)c1cc(O)cc(O)c1C2=O
REMARK SMILES IDX 1 1 2 2 8 3 7 4 6 5 4 6 3 7 19 8 20 9 18 10 11 11 9 12 10 13
REMARK SMILES IDX 12 14 13 15 15 16 16 17 5 18 17 20 14 22
REMARK H PARENT 5 19 17 21 14 23
REMARK Flexibility Score: inf
ROOT
ATOM      1  C   UNL     1      14.407   6.242  20.167  1.00  0.00     0.044 C 
ATOM      2  C   UNL     1      15.816   6.650  19.849  1.00  0.00    -0.047 A 
ATOM      3  C   UNL     1      16.874   5.765  20.082  1.00  0.00     0.016 A 
ATOM      4  C   UNL     1      18.192   6.120  19.747  1.00  0.00     0.038 A 
ATOM      5  C   UNL     1      18.452   7.371  19.145  1.00  0.00     0.076 A 
ATOM      6  C   UNL     1      17.382   8.282  18.955  1.00  0.00     0.127 A 
ATOM      7  C   UNL     1      16.076   7.899  19.277  1.00  0.00     0.050 A 
ATOM      8  C   UNL     1      19.833   7.649  18.672  1.00  0.00     0.201 C 
ATOM      9  O   UNL     1      20.016   8.406  17.681  1.00  0.00    -0.288 OA
ATOM     10  C   UNL     1      20.976   6.889  19.242  1.00  0.00     0.076 A 
ATOM     11  C   UNL     1      20.710   5.637  19.844  1.00  0.00     0.041 A 
ATOM     12  C   UNL     1      19.311   5.187  20.025  1.00  0.00     0.194 C 
ATOM     13  O   UNL     1      19.071   4.021  20.443  1.00  0.00    -0.289 OA
ATOM     14  C   UNL     1      21.777   4.828  20.269  1.00  0.00     0.059 A 
ATOM     15  C   UNL     1      23.098   5.256  20.118  1.00  0.00     0.120 A 
ATOM     16  C   UNL     1      23.361   6.507  19.562  1.00  0.00     0.093 A 
ATOM     17  C   UNL     1      22.318   7.341  19.148  1.00  0.00     0.131 A 
ENDROOT
BRANCH   6  18
ATOM     18  O   UNL     1      17.572   9.582  18.481  1.00  0.00    -0.507 OA
ATOM     19  H   UNL     1      17.999   9.796  17.590  1.00  0.00     0.293 HD
ENDBRANCH   6  18
BRANCH  17  20
ATOM     20  O   UNL     1      22.655   8.615  18.687  1.00  0.00    -0.507 OA
ATOM     21  H   UNL     1      22.391   8.967  17.776  1.00  0.00     0.293 HD
ENDBRANCH  17  20
BRANCH  15  22
ATOM     22  O   UNL     1      24.158   4.451  20.528  1.00  0.00    -0.508 OA
ATOM     23  H   UNL     1      24.056   3.783  21.284  1.00  0.00     0.293 HD
ENDBRANCH  15  22
TORSDOF 3
ENDMDL
MODEL 4
REMARK VINA RESULT:    -5.828      1.557      5.579
REMARK INTER + INTRA:          -6.339
REMARK INTER:                  -6.339
REMARK INTRA:                   0.000
REMARK UNBOUND:                 0.000
REMARK SMILES Cc1cc(O)c2c(c1)C(=O)c1cc(O)cc(O)c1C2=O
REMARK SMILES IDX 1 1 2 2 8 3 7 4 6 5 4 6 3 7 19 8 20 9 18 10 11 11 9 12 10 13
REMARK SMILES IDX 12 14 13 15 15 16 16 17 5 18 17 20 14 22
REMARK H PARENT 5 19 17 21 14 23
REMARK Flexibility Score: inf
ROOT
ATOM      1  C   UNL     1      23.425  10.125  18.638  1.00  0.00     0.044 C 
ATOM      2  C   UNL     1      22.522   8.997  19.044  1.00  0.00    -0.047 A 
ATOM      3  C   UNL     1      21.154   9.053  18.758  1.00  0.00     0.016 A 
ATOM      4  C   UNL     1      20.307   7.984  19.095  1.00  0.00     0.038 A 
ATOM      5  C   UNL     1      20.842   6.828  19.704  1.00  0.00     0.076 A 
ATOM      6  C   UNL     1      22.222   6.795  20.034  1.00  0.00     0.127 A 
ATOM      7  C   UNL     1      23.049   7.863  19.671  1.00  0.00     0.050 A 
ATOM      8  C   UNL     1      19.943   5.662  19.910  1.00  0.00     0.201 C 
ATOM      9  O   UNL     1      20.416   4.494  19.889  1.00  0.00    -0.288 OA
ATOM     10  C   UNL     1      18.472   5.863  19.948  1.00  0.00     0.076 A 
ATOM     11  C   UNL     1      17.940   7.021  19.337  1.00  0.00     0.041 A 
ATOM     12  C   UNL     1      18.853   8.066  18.815  1.00  0.00     0.194 C 
ATOM     13  O   UNL     1      18.390   9.037  18.157  1.00  0.00    -0.289 OA
ATOM     14  C   UNL     1      16.548   7.179  19.231  1.00  0.00     0.059 A 
ATOM     15  C   UNL     1      15.683   6.206  19.739  1.00  0.00     0.120 A 
ATOM     16  C   UNL     1      16.204   5.082  20.378  1.00  0.00     0.093 A 
ATOM     17  C   UNL     1      17.584   4.911  20.514  1.00  0.00     0.131 A 
ENDROOT
BRANCH   6  18
ATOM     18  O   UNL     1      22.804   5.744  20.745  1.00  0.00    -0.507 OA
ATOM     19  H   UNL     1      22.487   5.443  21.656  1.00  0.00     0.293 HD
ENDBRANCH   6  18
BRANCH  17  20
ATOM     20  O   UNL     1      18.028   3.807  21.246  1.00  0.00    -0.507 OA
ATOM     21  H   UNL     1      17.611   2.888  21.180  1.00  0.00     0.293 HD
ENDBRANCH  17  20
BRANCH  15  22
ATOM     22  O   UNL     1      14.302   6.353  19.625  1.00  0.00    -0.508 OA
ATOM     23  H   UNL     1      13.666   5.619  19.912  1.00  0.00     0.293 HD
ENDBRANCH  15  22
TORSDOF 3
ENDMDL
MODEL 5
REMARK VINA RESULT:    -5.682     11.090     13.014
REMARK INTER + INTRA:          -6.180
REMARK INTER:                  -6.180
REMARK INTRA:                   0.000
REMARK UNBOUND:                 0.000
REMARK SMILES Cc1cc(O)c2c(c1)C(=O)c1cc(O)cc(O)c1C2=O
REMARK SMILES IDX 1 1 2 2 8 3 7 4 6 5 4 6 3 7 19 8 20 9 18 10 11 11 9 12 10 13
REMARK SMILES IDX 12 14 13 15 15 16 16 17 5 18 17 20 14 22
REMARK H PARENT 5 19 17 21 14 23
REMARK Flexibility Score: inf
ROOT
ATOM      1  C   UNL     1      15.096  -3.724  18.455  1.00  0.00     0.044 C 
ATOM      2  C   UNL     1      16.456  -4.132  18.940  1.00  0.00    -0.047 A 
ATOM      3  C   UNL     1      17.122  -5.210  18.346  1.00  0.00     0.016 A 
ATOM      4  C   UNL     1      18.413  -5.572  18.763  1.00  0.00     0.038 A 
ATOM      5  C   UNL     1      19.061  -4.828  19.774  1.00  0.00     0.076 A 
ATOM      6  C   UNL     1      18.364  -3.766  20.405  1.00  0.00     0.127 A 
ATOM      7  C   UNL     1      17.087  -3.410  19.959  1.00  0.00     0.050 A 
ATOM      8  C   UNL     1      20.479  -5.150  20.084  1.00  0.00     0.201 C 
ATOM      9  O   UNL     1      21.251  -4.244  20.495  1.00  0.00    -0.288 OA
ATOM     10  C   UNL     1      21.027  -6.484  19.729  1.00  0.00     0.076 A 
ATOM     11  C   UNL     1      20.376  -7.225  18.716  1.00  0.00     0.041 A 
ATOM     12  C   UNL     1      19.098  -6.735  18.148  1.00  0.00     0.194 C 
ATOM     13  O   UNL     1      18.580  -7.323  17.159  1.00  0.00    -0.289 OA
ATOM     14  C   UNL     1      20.942  -8.426  18.257  1.00  0.00     0.059 A 
ATOM     15  C   UNL     1      22.136  -8.903  18.803  1.00  0.00     0.120 A 
ATOM     16  C   UNL     1      22.760  -8.195  19.830  1.00  0.00     0.093 A 
ATOM     17  C   UNL     1      22.207  -7.008  20.319  1.00  0.00     0.131 A 
ENDROOT
BRANCH   6  18
ATOM     18  O   UNL     1      18.884  -3.062  21.493  1.00  0.00    -0.507 OA
ATOM     19  H   UNL     1      18.914  -3.429  22.434  1.00  0.00     0.293 HD
ENDBRANCH   6  18
BRANCH  17  20
ATOM     20  O   UNL     1      22.838  -6.404  21.408  1.00  0.00    -0.507 OA
ATOM     21  H   UNL     1      22.345  -6.072  22.227  1.00  0.00     0.293 HD
ENDBRANCH  17  20
BRANCH  15  22
ATOM     22  O   UNL     1      22.707 -10.087  18.341  1.00  0.00    -0.508 OA
ATOM     23  H   UNL     1      23.179 -10.728  18.968  1.00  0.00     0.293 HD
ENDBRANCH  15  22
TORSDOF 3
ENDMDL
MODEL 6
REMARK VINA RESULT:    -5.641      2.231      5.480
REMARK INTER + INTRA:          -6.135
REMARK INTER:                  -6.135
REMARK INTRA:                   0.000
REMARK UNBOUND:                 0.000
REMARK SMILES Cc1cc(O)c2c(c1)C(=O)c1cc(O)cc(O)c1C2=O
REMARK SMILES IDX 1 1 2 2 8 3 7 4 6 5 4 6 3 7 19 8 20 9 18 10 11 11 9 12 10 13
REMARK SMILES IDX 12 14 13 15 15 16 16 17 5 18 17 20 14 22
REMARK H PARENT 5 19 17 21 14 23
REMARK Flexibility Score: inf
ROOT
ATOM      1  C   UNL     1      25.292   3.726  18.586  1.00  0.00     0.044 C 
ATOM      2  C   UNL     1      23.937   4.163  19.059  1.00  0.00    -0.047 A 
ATOM      3  C   UNL     1      23.274   5.218  18.421  1.00  0.00     0.016 A 
ATOM      4  C   UNL     1      21.987   5.606  18.828  1.00  0.00     0.038 A 
ATOM      5  C   UNL     1      21.341   4.912  19.875  1.00  0.00     0.076 A 
ATOM      6  C   UNL     1      22.035   3.874  20.549  1.00  0.00     0.127 A 
ATOM      7  C   UNL     1      23.308   3.492  20.113  1.00  0.00     0.050 A 
ATOM      8  C   UNL     1      19.926   5.255  20.177  1.00  0.00     0.201 C 
ATOM      9  O   UNL     1      19.151   4.373  20.632  1.00  0.00    -0.288 OA
ATOM     10  C   UNL     1      19.384   6.576  19.766  1.00  0.00     0.076 A 
ATOM     11  C   UNL     1      20.034   7.267  18.718  1.00  0.00     0.041 A 
ATOM     12  C   UNL     1      21.306   6.744  18.166  1.00  0.00     0.194 C 
ATOM     13  O   UNL     1      21.822   7.284  17.149  1.00  0.00    -0.289 OA
ATOM     14  C   UNL     1      19.472   8.450  18.208  1.00  0.00     0.059 A 
ATOM     15  C   UNL     1      18.284   8.958  18.739  1.00  0.00     0.120 A 
ATOM     16  C   UNL     1      17.662   8.300  19.799  1.00  0.00     0.093 A 
ATOM     17  C   UNL     1      18.210   7.132  20.338  1.00  0.00     0.131 A 
ENDROOT
BRANCH   6  18
ATOM     18  O   UNL     1      21.516   3.222  21.670  1.00  0.00    -0.507 OA
ATOM     19  H   UNL     1      20.600   3.411  22.052  1.00  0.00     0.293 HD
ENDBRANCH   6  18
BRANCH  17  20
ATOM     20  O   UNL     1      17.581   6.581  21.457  1.00  0.00    -0.507 OA
ATOM     21  H   UNL     1      17.469   5.586  21.601  1.00  0.00     0.293 HD
ENDBRANCH  17  20
BRANCH  15  22
ATOM     22  O   UNL     1      17.717  10.124  18.228  1.00  0.00    -0.508 OA
ATOM     23  H   UNL     1      17.398  10.869  18.836  1.00  0.00     0.293 HD
ENDBRANCH  15  22
TORSDOF 3
ENDMDL
MODEL 7
REMARK VINA RESULT:    -5.568      1.777      6.126
REMARK INTER + INTRA:          -6.056
REMARK INTER:                  -6.056
REMARK INTRA:                   0.000
REMARK UNBOUND:                 0.000
REMARK SMILES Cc1cc(O)c2c(c1)C(=O)c1cc(O)cc(O)c1C2=O
REMARK SMILES IDX 1 1 2 2 8 3 7 4 6 5 4 6 3 7 19 8 20 9 18 10 11 11 9 12 10 13
REMARK SMILES IDX 12 14 13 15 15 16 16 17 5 18 17 20 14 22
REMARK H PARENT 5 19 17 21 14 23
REMARK Flexibility Score: inf
ROOT
ATOM      1  C   UNL     1      24.139   3.852  20.187  1.00  0.00     0.044 C 
ATOM      2  C   UNL     1      23.109   4.920  19.967  1.00  0.00    -0.047 A 
ATOM      3  C   UNL     1      21.751   4.638  20.153  1.00  0.00     0.016 A 
ATOM      4  C   UNL     1      20.782   5.642  19.991  1.00  0.00     0.038 A 
ATOM      5  C   UNL     1      21.179   6.958  19.664  1.00  0.00     0.076 A 
ATOM      6  C   UNL     1      22.553   7.227  19.431  1.00  0.00     0.127 A 
ATOM      7  C   UNL     1      23.501   6.217  19.617  1.00  0.00     0.050 A 
ATOM      8  C   UNL     1      20.141   8.021  19.647  1.00  0.00     0.201 C 
ATOM      9  O   UNL     1      20.454   9.207  19.934  1.00  0.00    -0.288 OA
ATOM     10  C   UNL     1      18.711   7.654  19.480  1.00  0.00     0.076 A 
ATOM     11  C   UNL     1      18.318   6.337  19.809  1.00  0.00     0.041 A 
ATOM     12  C   UNL     1      19.343   5.326  20.161  1.00  0.00     0.194 C 
ATOM     13  O   UNL     1      18.991   4.188  20.577  1.00  0.00    -0.289 OA
ATOM     14  C   UNL     1      16.956   5.991  19.797  1.00  0.00     0.059 A 
ATOM     15  C   UNL     1      15.987   6.935  19.447  1.00  0.00     0.120 A 
ATOM     16  C   UNL     1      16.375   8.224  19.084  1.00  0.00     0.093 A 
ATOM     17  C   UNL     1      17.725   8.588  19.068  1.00  0.00     0.131 A 
ENDROOT
BRANCH   6  18
ATOM     18  O   UNL     1      23.013   8.468  18.986  1.00  0.00    -0.507 OA
ATOM     19  H   UNL     1      23.948   8.812  19.158  1.00  0.00     0.293 HD
ENDBRANCH   6  18
BRANCH  17  20
ATOM     20  O   UNL     1      18.043   9.867  18.605  1.00  0.00    -0.507 OA
ATOM     21  H   UNL     1      17.777  10.717  19.085  1.00  0.00     0.293 HD
ENDBRANCH  17  20
BRANCH  15  22
ATOM     22  O   UNL     1      14.635   6.599  19.446  1.00  0.00    -0.508 OA
ATOM     23  H   UNL     1      13.914   7.304  19.549  1.00  0.00     0.293 HD
ENDBRANCH  15  22
TORSDOF 3
ENDMDL
MODEL 8
REMARK VINA RESULT:    -5.543      2.294      4.160
REMARK INTER + INTRA:          -6.029
REMARK INTER:                  -6.029
REMARK INTRA:                   0.000
REMARK UNBOUND:                 0.000
REMARK SMILES Cc1cc(O)c2c(c1)C(=O)c1cc(O)cc(O)c1C2=O
REMARK SMILES IDX 1 1 2 2 8 3 7 4 6 5 4 6 3 7 19 8 20 9 18 10 11 11 9 12 10 13
REMARK SMILES IDX 12 14 13 15 15 16 16 17 5 18 17 20 14 22
REMARK H PARENT 5 19 17 21 14 23
REMARK Flexibility Score: inf
ROOT
ATOM      1  C   UNL     1      18.437  10.125  18.135  1.00  0.00     0.044 C 
ATOM      2  C   UNL     1      18.898   8.769  18.585  1.00  0.00    -0.047 A 
ATOM      3  C   UNL     1      20.265   8.492  18.698  1.00  0.00     0.016 A 
ATOM      4  C   UNL     1      20.706   7.241  19.160  1.00  0.00     0.038 A 
ATOM      5  C   UNL     1      19.764   6.258  19.538  1.00  0.00     0.076 A 
ATOM      6  C   UNL     1      18.381   6.528  19.377  1.00  0.00     0.127 A 
ATOM      7  C   UNL     1      17.965   7.788  18.935  1.00  0.00     0.050 A 
ATOM      8  C   UNL     1      20.268   5.005  20.159  1.00  0.00     0.201 C 
ATOM      9  O   UNL     1      19.556   4.392  20.999  1.00  0.00    -0.288 OA
ATOM     10  C   UNL     1      21.675   4.584  19.935  1.00  0.00     0.076 A 
ATOM     11  C   UNL     1      22.614   5.570  19.555  1.00  0.00     0.041 A 
ATOM     12  C   UNL     1      22.157   6.946  19.248  1.00  0.00     0.194 C 
ATOM     13  O   UNL     1      23.001   7.859  19.034  1.00  0.00    -0.289 OA
ATOM     14  C   UNL     1      23.977   5.240  19.469  1.00  0.00     0.059 A 
ATOM     15  C   UNL     1      24.411   3.939  19.738  1.00  0.00     0.120 A 
ATOM     16  C   UNL     1      23.482   2.955  20.073  1.00  0.00     0.093 A 
ATOM     17  C   UNL     1      22.118   3.253  20.148  1.00  0.00     0.131 A 
ENDROOT
BRANCH   6  18
ATOM     18  O   UNL     1      17.392   5.570  19.612  1.00  0.00    -0.507 OA
ATOM     19  H   UNL     1      17.300   5.064  20.481  1.00  0.00     0.293 HD
ENDBRANCH   6  18
BRANCH  17  20
ATOM     20  O   UNL     1      21.240   2.196  20.398  1.00  0.00    -0.507 OA
ATOM     21  H   UNL     1      21.244   1.330  19.875  1.00  0.00     0.293 HD
ENDBRANCH  17  20
BRANCH  15  22
ATOM     22  O   UNL     1      25.763   3.611  19.665  1.00  0.00    -0.508 OA
ATOM     23  H   UNL     1      26.420   4.185  19.149  1.00  0.00     0.293 HD
ENDBRANCH  15  22
TORSDOF 3
ENDMDL
MODEL 9
REMARK VINA RESULT:    -5.492     10.998     13.476
REMARK INTER + INTRA:          -5.974
REMARK INTER:                  -5.974
REMARK INTRA:                   0.000
REMARK UNBOUND:                 0.000
REMARK SMILES Cc1cc(O)c2c(c1)C(=O)c1cc(O)cc(O)c1C2=O
REMARK SMILES IDX 1 1 2 2 8 3 7 4 6 5 4 6 3 7 19 8 20 9 18 10 11 11 9 12 10 13
REMARK SMILES IDX 12 14 13 15 15 16 16 17 5 18 17 20 14 22
REMARK H PARENT 5 19 17 21 14 23
REMARK Flexibility Score: inf
ROOT
ATOM      1  C   UNL     1      22.268 -10.125  17.661  1.00  0.00     0.044 C 
ATOM      2  C   UNL     1      21.784  -8.833  18.251  1.00  0.00    -0.047 A 
ATOM      3  C   UNL     1      20.449  -8.444  18.096  1.00  0.00     0.016 A 
ATOM      4  C   UNL     1      19.976  -7.257  18.682  1.00  0.00     0.038 A 
ATOM      5  C   UNL     1      20.847  -6.459  19.457  1.00  0.00     0.076 A 
ATOM      6  C   UNL     1      22.210  -6.834  19.571  1.00  0.00     0.127 A 
ATOM      7  C   UNL     1      22.654  -8.030  18.997  1.00  0.00     0.050 A 
ATOM      8  C   UNL     1      20.274  -5.294  20.179  1.00  0.00     0.201 C 
ATOM      9  O   UNL     1      20.788  -4.916  21.266  1.00  0.00    -0.288 OA
ATOM     10  C   UNL     1      18.992  -4.699  19.722  1.00  0.00     0.076 A 
ATOM     11  C   UNL     1      18.124  -5.501  18.947  1.00  0.00     0.041 A 
ATOM     12  C   UNL     1      18.567  -6.838  18.487  1.00  0.00     0.194 C 
ATOM     13  O   UNL     1      17.754  -7.608  17.906  1.00  0.00    -0.289 OA
ATOM     14  C   UNL     1      16.845  -5.025  18.613  1.00  0.00     0.059 A 
ATOM     15  C   UNL     1      16.429  -3.757  19.027  1.00  0.00     0.120 A 
ATOM     16  C   UNL     1      17.298  -2.947  19.758  1.00  0.00     0.093 A 
ATOM     17  C   UNL     1      18.583  -3.390  20.086  1.00  0.00     0.131 A 
ENDROOT
BRANCH   6  18
ATOM     18  O   UNL     1      23.161  -6.039  20.215  1.00  0.00    -0.507 OA
ATOM     19  H   UNL     1      22.933  -5.370  20.938  1.00  0.00     0.293 HD
ENDBRANCH   6  18
BRANCH  17  20
ATOM     20  O   UNL     1      19.427  -2.489  20.739  1.00  0.00    -0.507 OA
ATOM     21  H   UNL     1      20.302  -2.161  20.351  1.00  0.00     0.293 HD
ENDBRANCH  17  20
BRANCH  15  22
ATOM     22  O   UNL     1      15.157  -3.286  18.708  1.00  0.00    -0.508 OA
ATOM     23  H   UNL     1      14.999  -2.318  18.455  1.00  0.00     0.293 HD
ENDBRANCH  15  22
TORSDOF 3
ENDMDL
