MODEL 1
REMARK VINA RESULT:    -1.958      0.000      0.000
REMARK INTER + INTRA:           1.616
REMARK INTER:                  -4.648
REMARK INTRA:                   6.264
REMARK UNBOUND:                 6.264
REMARK SMILES O=C(OC[C@@H]1O[C@@H](OC(=O)c2cc(O)c(O)c(O)c2)[C@@H](OC(=O)c2cc(O)c(O)c(O)c2)[C@H](OC(=O)c2cc(O)c(O)c(O)c2)[C@@H]1OC(=O)c1cc(O)c(O)c(O)c1)c1cc(O)c(O)c(O)c1
REMARK SMILES IDX 5 1 46 2 33 3 20 4 7 5 6 6 4 7 3 8 2 9 1 10 59 11 60 12
REMARK SMILES IDX 61 13 67 14 63 15 65 16 62 17 64 19 66 21 47 23 48 24 49 25
REMARK SMILES IDX 50 26 58 27 51 28 56 29 52 30 54 31 57 32 53 34 55 36 34 38
REMARK SMILES IDX 35 39 36 40 37 41 45 42 38 43 43 44 39 45 41 46 44 47 40 49
REMARK SMILES IDX 42 51 8 53 9 54 10 55 11 56 19 57 12 58 17 59 13 60 15 61
REMARK SMILES IDX 18 62 14 64 16 66 21 68 22 69 23 70 24 71 32 72 25 73 30 74
REMARK SMILES IDX 26 75 28 76 31 77 27 79 29 81
REMARK H PARENT 62 18 64 20 66 22 57 33 53 35 55 37 44 48 40 50 42 52 18 63
REMARK H PARENT 14 65 16 67 31 78 27 80 29 82
REMARK Flexibility Score: inf
ROOT
ATOM      1  C   UNL     1     -21.693  14.541 -30.808  1.00  0.00     0.205 C 
ATOM      2  C   UNL     1     -20.345  13.792 -30.723  1.00  0.00     0.254 C 
ATOM      3  C   UNL     1     -20.615  12.289 -30.506  1.00  0.00     0.267 C 
ATOM      4  C   UNL     1     -21.555  12.089 -29.303  1.00  0.00     0.290 C 
ATOM      5  C   UNL     1     -22.800  12.981 -29.450  1.00  0.00     0.357 C 
ATOM      6  O   UNL     1     -22.445  14.344 -29.620  1.00  0.00    -0.329 OA
ENDROOT
BRANCH   1   7
ATOM      7  C   UNL     1     -21.475  16.048 -31.023  1.00  0.00     0.269 C 
BRANCH   7   8
ATOM      8  O   UNL     1     -22.563  16.615 -31.751  1.00  0.00    -0.459 OA
BRANCH   8   9
ATOM      9  C   UNL     1     -22.799  17.990 -31.866  1.00  0.00     0.338 C 
ATOM     10  O   UNL     1     -21.920  18.818 -31.504  1.00  0.00    -0.246 OA
BRANCH   9  11
ATOM     11  C   UNL     1     -24.074  18.466 -32.447  1.00  0.00     0.067 A 
ATOM     12  C   UNL     1     -25.295  18.091 -31.872  1.00  0.00     0.066 A 
ATOM     13  C   UNL     1     -26.505  18.519 -32.420  1.00  0.00     0.162 A 
ATOM     14  C   UNL     1     -24.080  19.291 -33.582  1.00  0.00     0.066 A 
ATOM     15  C   UNL     1     -26.512  19.337 -33.564  1.00  0.00     0.200 A 
ATOM     16  C   UNL     1     -25.282  19.733 -34.145  1.00  0.00     0.162 A 
BRANCH  13  17
ATOM     17  O   UNL     1     -27.699  18.106 -31.823  1.00  0.00    -0.504 OA
ATOM     18  H   UNL     1     -27.768  17.905 -30.833  1.00  0.00     0.293 HD
ENDBRANCH  13  17
BRANCH  15  19
ATOM     19  O   UNL     1     -27.745  19.728 -34.095  1.00  0.00    -0.502 OA
ATOM     20  H   UNL     1     -27.872  20.518 -34.707  1.00  0.00     0.293 HD
ENDBRANCH  15  19
BRANCH  16  21
ATOM     21  O   UNL     1     -25.207  20.564 -35.267  1.00  0.00    -0.504 OA
ATOM     22  H   UNL     1     -25.285  21.567 -35.237  1.00  0.00     0.293 HD
ENDBRANCH  16  21
ENDBRANCH   9  11
ENDBRANCH   8   9
ENDBRANCH   7   8
ENDBRANCH   1   7
BRANCH   2  23
ATOM     23  O   UNL     1     -19.581  14.308 -29.633  1.00  0.00    -0.452 OA
BRANCH  23  24
ATOM     24  C   UNL     1     -18.346  13.785 -29.224  1.00  0.00     0.338 C 
ATOM     25  O   UNL     1     -18.265  13.093 -28.172  1.00  0.00    -0.246 OA
BRANCH  24  26
ATOM     26  C   UNL     1     -17.140  14.045 -30.036  1.00  0.00     0.067 A 
ATOM     27  C   UNL     1     -17.046  13.568 -31.355  1.00  0.00     0.066 A 
ATOM     28  C   UNL     1     -16.075  14.783 -29.498  1.00  0.00     0.066 A 
ATOM     29  C   UNL     1     -15.909  13.823 -32.126  1.00  0.00     0.162 A 
ATOM     30  C   UNL     1     -14.931  15.038 -30.258  1.00  0.00     0.162 A 
ATOM     31  C   UNL     1     -14.842  14.556 -31.577  1.00  0.00     0.200 A 
BRANCH  29  32
ATOM     32  O   UNL     1     -15.863  13.359 -33.441  1.00  0.00    -0.504 OA
ATOM     33  H   UNL     1     -15.726  13.985 -34.225  1.00  0.00     0.293 HD
ENDBRANCH  29  32
BRANCH  30  34
ATOM     34  O   UNL     1     -13.872  15.763 -29.708  1.00  0.00    -0.504 OA
ATOM     35  H   UNL     1     -13.483  16.569 -30.187  1.00  0.00     0.293 HD
ENDBRANCH  30  34
BRANCH  31  36
ATOM     36  O   UNL     1     -13.708  14.807 -32.351  1.00  0.00    -0.502 OA
ATOM     37  H   UNL     1     -12.771  14.589 -32.025  1.00  0.00     0.293 HD
ENDBRANCH  31  36
ENDBRANCH  24  26
ENDBRANCH  23  24
ENDBRANCH   2  23
BRANCH   3  38
ATOM     38  O   UNL     1     -19.396  11.584 -30.266  1.00  0.00    -0.450 OA
BRANCH  38  39
ATOM     39  C   UNL     1     -19.232  10.595 -29.291  1.00  0.00     0.338 C 
ATOM     40  O   UNL     1     -20.210   9.875 -28.949  1.00  0.00    -0.246 OA
BRANCH  39  41
ATOM     41  C   UNL     1     -17.906  10.406 -28.658  1.00  0.00     0.067 A 
ATOM     42  C   UNL     1     -17.782  10.203 -27.273  1.00  0.00     0.066 A 
ATOM     43  C   UNL     1     -16.744  10.438 -29.446  1.00  0.00     0.066 A 
ATOM     44  C   UNL     1     -16.520  10.066 -26.678  1.00  0.00     0.162 A 
ATOM     45  C   UNL     1     -15.481  10.304 -28.863  1.00  0.00     0.162 A 
ATOM     46  C   UNL     1     -15.363  10.124 -27.475  1.00  0.00     0.200 A 
BRANCH  44  47
ATOM     47  O   UNL     1     -16.408   9.875 -25.298  1.00  0.00    -0.504 OA
ATOM     48  H   UNL     1     -17.082   9.323 -24.777  1.00  0.00     0.293 HD
ENDBRANCH  44  47
BRANCH  45  49
ATOM     49  O   UNL     1     -14.350  10.349 -29.678  1.00  0.00    -0.504 OA
ATOM     50  H   UNL     1     -14.399  10.628 -30.649  1.00  0.00     0.293 HD
ENDBRANCH  45  49
BRANCH  46  51
ATOM     51  O   UNL     1     -14.097   9.999 -26.904  1.00  0.00    -0.502 OA
ATOM     52  H   UNL     1     -13.254   9.906 -27.461  1.00  0.00     0.293 HD
ENDBRANCH  46  51
ENDBRANCH  39  41
ENDBRANCH  38  39
ENDBRANCH   3  38
BRANCH   5  53
ATOM     53  O   UNL     1     -23.621  12.534 -30.531  1.00  0.00    -0.428 OA
BRANCH  53  54
ATOM     54  C   UNL     1     -24.737  13.242 -30.995  1.00  0.00     0.340 C 
ATOM     55  O   UNL     1     -24.612  14.083 -31.927  1.00  0.00    -0.246 OA
BRANCH  54  56
ATOM     56  C   UNL     1     -26.057  13.017 -30.364  1.00  0.00     0.067 A 
ATOM     57  C   UNL     1     -26.214  13.193 -28.979  1.00  0.00     0.066 A 
ATOM     58  C   UNL     1     -27.165  12.638 -31.139  1.00  0.00     0.066 A 
ATOM     59  C   UNL     1     -27.461  12.985 -28.372  1.00  0.00     0.162 A 
ATOM     60  C   UNL     1     -28.415  12.435 -30.540  1.00  0.00     0.162 A 
ATOM     61  C   UNL     1     -28.565  12.600 -29.153  1.00  0.00     0.200 A 
BRANCH  59  62
ATOM     62  O   UNL     1     -27.609  13.157 -26.999  1.00  0.00    -0.504 OA
ATOM     63  H   UNL     1     -26.962  12.743 -26.338  1.00  0.00     0.293 HD
ENDBRANCH  59  62
BRANCH  60  64
ATOM     64  O   UNL     1     -29.500  12.055 -31.330  1.00  0.00    -0.504 OA
ATOM     65  H   UNL     1     -30.039  12.731 -31.859  1.00  0.00     0.293 HD
ENDBRANCH  60  64
BRANCH  61  66
ATOM     66  O   UNL     1     -29.815  12.383 -28.569  1.00  0.00    -0.502 OA
ATOM     67  H   UNL     1     -29.911  12.073 -27.602  1.00  0.00     0.293 HD
ENDBRANCH  61  66
ENDBRANCH  54  56
ENDBRANCH  53  54
ENDBRANCH   5  53
BRANCH   4  68
ATOM     68  O   UNL     1     -21.959  10.719 -29.213  1.00  0.00    -0.448 OA
BRANCH  68  69
ATOM     69  C   UNL     1     -22.723  10.205 -28.154  1.00  0.00     0.339 C 
ATOM     70  O   UNL     1     -22.164   9.878 -27.073  1.00  0.00    -0.246 OA
BRANCH  69  71
ATOM     71  C   UNL     1     -24.190  10.085 -28.290  1.00  0.00     0.067 A 
ATOM     72  C   UNL     1     -25.011  10.018 -27.150  1.00  0.00     0.066 A 
ATOM     73  C   UNL     1     -24.784  10.039 -29.561  1.00  0.00     0.066 A 
ATOM     74  C   UNL     1     -26.405   9.942 -27.279  1.00  0.00     0.162 A 
ATOM     75  C   UNL     1     -26.175   9.946 -29.705  1.00  0.00     0.162 A 
ATOM     76  C   UNL     1     -26.996   9.917 -28.550  1.00  0.00     0.200 A 
BRANCH  74  77
ATOM     77  O   UNL     1     -27.216   9.903 -26.145  1.00  0.00    -0.504 OA
ATOM     78  H   UNL     1     -27.570   9.032 -25.780  1.00  0.00     0.293 HD
ENDBRANCH  74  77
BRANCH  75  79
ATOM     79  O   UNL     1     -26.687   9.876 -31.004  1.00  0.00    -0.504 OA
ATOM     80  H   UNL     1     -27.117   9.054 -31.398  1.00  0.00     0.293 HD
ENDBRANCH  75  79
BRANCH  76  81
ATOM     81  O   UNL     1     -28.390   9.875 -28.628  1.00  0.00    -0.502 OA
ATOM     82  H   UNL     1     -28.913   9.027 -28.761  1.00  0.00     0.293 HD
ENDBRANCH  76  81
ENDBRANCH  69  71
ENDBRANCH  68  69
ENDBRANCH   4  68
TORSDOF 31
ENDMDL
MODEL 2
REMARK VINA RESULT:    -1.719      2.853      7.608
REMARK INTER + INTRA:           2.182
REMARK INTER:                   1.078
REMARK INTRA:                   1.104
REMARK UNBOUND:                 6.264
REMARK SMILES O=C(OC[C@@H]1O[C@@H](OC(=O)c2cc(O)c(O)c(O)c2)[C@@H](OC(=O)c2cc(O)c(O)c(O)c2)[C@H](OC(=O)c2cc(O)c(O)c(O)c2)[C@@H]1OC(=O)c1cc(O)c(O)c(O)c1)c1cc(O)c(O)c(O)c1
REMARK SMILES IDX 5 1 46 2 33 3 20 4 7 5 6 6 4 7 3 8 2 9 1 10 59 11 60 12
REMARK SMILES IDX 61 13 67 14 63 15 65 16 62 17 64 19 66 21 47 23 48 24 49 25
REMARK SMILES IDX 50 26 58 27 51 28 56 29 52 30 54 31 57 32 53 34 55 36 34 38
REMARK SMILES IDX 35 39 36 40 37 41 45 42 38 43 43 44 39 45 41 46 44 47 40 49
REMARK SMILES IDX 42 51 8 53 9 54 10 55 11 56 19 57 12 58 17 59 13 60 15 61
REMARK SMILES IDX 18 62 14 64 16 66 21 68 22 69 23 70 24 71 32 72 25 73 30 74
REMARK SMILES IDX 26 75 28 76 31 77 27 79 29 81
REMARK H PARENT 62 18 64 20 66 22 57 33 53 35 55 37 44 48 40 50 42 52 18 63
REMARK H PARENT 14 65 16 67 31 78 27 80 29 82
REMARK Flexibility Score: inf
ROOT
ATOM      1  C   UNL     1     -18.935  13.043 -29.934  1.00  0.00     0.205 C 
ATOM      2  C   UNL     1     -17.523  13.120 -30.553  1.00  0.00     0.254 C 
ATOM      3  C   UNL     1     -16.642  12.011 -29.943  1.00  0.00     0.267 C 
ATOM      4  C   UNL     1     -16.690  12.083 -28.406  1.00  0.00     0.290 C 
ATOM      5  C   UNL     1     -18.151  12.122 -27.923  1.00  0.00     0.357 C 
ATOM      6  O   UNL     1     -18.867  13.190 -28.523  1.00  0.00    -0.329 OA
ENDROOT
BRANCH   1   7
ATOM      7  C   UNL     1     -19.853  14.133 -30.512  1.00  0.00     0.269 C 
BRANCH   7   8
ATOM      8  O   UNL     1     -21.210  13.692 -30.529  1.00  0.00    -0.459 OA
BRANCH   8   9
ATOM      9  C   UNL     1     -22.305  14.531 -30.765  1.00  0.00     0.338 C 
ATOM     10  O   UNL     1     -22.127  15.758 -30.995  1.00  0.00    -0.246 OA
BRANCH   9  11
ATOM     11  C   UNL     1     -23.671  13.963 -30.776  1.00  0.00     0.067 A 
ATOM     12  C   UNL     1     -24.323  13.718 -31.992  1.00  0.00     0.066 A 
ATOM     13  C   UNL     1     -25.618  13.198 -32.017  1.00  0.00     0.162 A 
ATOM     14  C   UNL     1     -24.335  13.669 -29.576  1.00  0.00     0.066 A 
ATOM     15  C   UNL     1     -26.288  12.913 -30.813  1.00  0.00     0.200 A 
ATOM     16  C   UNL     1     -25.632  13.145 -29.578  1.00  0.00     0.162 A 
BRANCH  13  17
ATOM     17  O   UNL     1     -26.235  12.986 -33.251  1.00  0.00    -0.504 OA
ATOM     18  H   UNL     1     -27.219  12.760 -33.334  1.00  0.00     0.293 HD
ENDBRANCH  13  17
BRANCH  15  19
ATOM     19  O   UNL     1     -27.592  12.413 -30.880  1.00  0.00    -0.502 OA
ATOM     20  H   UNL     1     -28.401  12.972 -31.104  1.00  0.00     0.293 HD
ENDBRANCH  15  19
BRANCH  16  21
ATOM     21  O   UNL     1     -26.223  12.865 -28.343  1.00  0.00    -0.504 OA
ATOM     22  H   UNL     1     -27.216  12.845 -28.180  1.00  0.00     0.293 HD
ENDBRANCH  16  21
ENDBRANCH   9  11
ENDBRANCH   8   9
ENDBRANCH   7   8
ENDBRANCH   1   7
BRANCH   2  23
ATOM     23  O   UNL     1     -16.951  14.399 -30.277  1.00  0.00    -0.452 OA
BRANCH  23  24
ATOM     24  C   UNL     1     -15.631  14.590 -29.846  1.00  0.00     0.338 C 
ATOM     25  O   UNL     1     -15.160  13.891 -28.907  1.00  0.00    -0.246 OA
BRANCH  24  26
ATOM     26  C   UNL     1     -14.793  15.615 -30.501  1.00  0.00     0.067 A 
ATOM     27  C   UNL     1     -14.777  16.939 -30.027  1.00  0.00     0.066 A 
ATOM     28  C   UNL     1     -13.994  15.272 -31.601  1.00  0.00     0.066 A 
ATOM     29  C   UNL     1     -13.976  17.905 -30.642  1.00  0.00     0.162 A 
ATOM     30  C   UNL     1     -13.195  16.233 -32.227  1.00  0.00     0.162 A 
ATOM     31  C   UNL     1     -13.184  17.556 -31.750  1.00  0.00     0.200 A 
BRANCH  29  32
ATOM     32  O   UNL     1     -13.964  19.202 -30.127  1.00  0.00    -0.504 OA
ATOM     33  H   UNL     1     -14.784  19.616 -29.700  1.00  0.00     0.293 HD
ENDBRANCH  29  32
BRANCH  30  34
ATOM     34  O   UNL     1     -12.413  15.883 -33.329  1.00  0.00    -0.504 OA
ATOM     35  H   UNL     1     -11.719  16.521 -33.705  1.00  0.00     0.293 HD
ENDBRANCH  30  34
BRANCH  31  36
ATOM     36  O   UNL     1     -12.388  18.527 -32.360  1.00  0.00    -0.502 OA
ATOM     37  H   UNL     1     -11.378  18.434 -32.427  1.00  0.00     0.293 HD
ENDBRANCH  31  36
ENDBRANCH  24  26
ENDBRANCH  23  24
ENDBRANCH   2  23
BRANCH   3  38
ATOM     38  O   UNL     1     -15.287  12.146 -30.372  1.00  0.00    -0.450 OA
BRANCH  38  39
ATOM     39  C   UNL     1     -14.794  11.683 -31.596  1.00  0.00     0.338 C 
ATOM     40  O   UNL     1     -15.445  10.830 -32.260  1.00  0.00    -0.246 OA
BRANCH  39  41
ATOM     41  C   UNL     1     -13.498  12.194 -32.103  1.00  0.00     0.067 A 
ATOM     42  C   UNL     1     -12.443  12.500 -31.226  1.00  0.00     0.066 A 
ATOM     43  C   UNL     1     -13.314  12.387 -33.481  1.00  0.00     0.066 A 
ATOM     44  C   UNL     1     -11.236  13.021 -31.712  1.00  0.00     0.162 A 
ATOM     45  C   UNL     1     -12.115  12.908 -33.975  1.00  0.00     0.162 A 
ATOM     46  C   UNL     1     -11.072  13.233 -33.092  1.00  0.00     0.200 A 
BRANCH  44  47
ATOM     47  O   UNL     1     -10.197  13.333 -30.830  1.00  0.00    -0.504 OA
ATOM     48  H   UNL     1     -10.187  14.197 -30.298  1.00  0.00     0.293 HD
ENDBRANCH  44  47
BRANCH  45  49
ATOM     49  O   UNL     1     -11.972  13.094 -35.351  1.00  0.00    -0.504 OA
ATOM     50  H   UNL     1     -11.464  12.439 -35.930  1.00  0.00     0.293 HD
ENDBRANCH  45  49
BRANCH  46  51
ATOM     51  O   UNL     1      -9.884  13.759 -33.597  1.00  0.00    -0.502 OA
ATOM     52  H   UNL     1      -9.829  14.211 -34.503  1.00  0.00     0.293 HD
ENDBRANCH  46  51
ENDBRANCH  39  41
ENDBRANCH  38  39
ENDBRANCH   3  38
BRANCH   5  53
ATOM     53  O   UNL     1     -18.803  10.875 -28.171  1.00  0.00    -0.428 OA
BRANCH  53  54
ATOM     54  C   UNL     1     -19.769  10.326 -27.319  1.00  0.00     0.340 C 
ATOM     55  O   UNL     1     -19.435   9.877 -26.188  1.00  0.00    -0.246 OA
BRANCH  54  56
ATOM     56  C   UNL     1     -21.178  10.251 -27.767  1.00  0.00     0.067 A 
ATOM     57  C   UNL     1     -22.209  10.100 -26.826  1.00  0.00     0.066 A 
ATOM     58  C   UNL     1     -21.499  10.342 -29.131  1.00  0.00     0.066 A 
ATOM     59  C   UNL     1     -23.547  10.030 -27.241  1.00  0.00     0.162 A 
ATOM     60  C   UNL     1     -22.835  10.282 -29.552  1.00  0.00     0.162 A 
ATOM     61  C   UNL     1     -23.862  10.118 -28.609  1.00  0.00     0.200 A 
BRANCH  59  62
ATOM     62  O   UNL     1     -24.565   9.876 -26.304  1.00  0.00    -0.504 OA
ATOM     63  H   UNL     1     -25.314  10.552 -26.215  1.00  0.00     0.293 HD
ENDBRANCH  59  62
BRANCH  60  64
ATOM     64  O   UNL     1     -23.129  10.371 -30.912  1.00  0.00    -0.504 OA
ATOM     65  H   UNL     1     -22.451  10.123 -31.624  1.00  0.00     0.293 HD
ENDBRANCH  60  64
BRANCH  61  66
ATOM     66  O   UNL     1     -25.187  10.047 -29.045  1.00  0.00    -0.502 OA
ATOM     67  H   UNL     1     -25.424   9.895 -30.024  1.00  0.00     0.293 HD
ENDBRANCH  61  66
ENDBRANCH  54  56
ENDBRANCH  53  54
ENDBRANCH   5  53
BRANCH   4  68
ATOM     68  O   UNL     1     -16.032  10.947 -27.836  1.00  0.00    -0.448 OA
BRANCH  68  69
ATOM     69  C   UNL     1     -14.693  10.618 -28.092  1.00  0.00     0.339 C 
ATOM     70  O   UNL     1     -14.401   9.876 -29.068  1.00  0.00    -0.246 OA
BRANCH  69  71
ATOM     71  C   UNL     1     -13.618  11.174 -27.243  1.00  0.00     0.067 A 
ATOM     72  C   UNL     1     -13.066  10.413 -26.197  1.00  0.00     0.066 A 
ATOM     73  C   UNL     1     -13.130  12.471 -27.473  1.00  0.00     0.066 A 
ATOM     74  C   UNL     1     -12.022  10.926 -25.416  1.00  0.00     0.162 A 
ATOM     75  C   UNL     1     -12.098  13.003 -26.690  1.00  0.00     0.162 A 
ATOM     76  C   UNL     1     -11.523  12.214 -25.661  1.00  0.00     0.200 A 
BRANCH  74  77
ATOM     77  O   UNL     1     -11.460  10.157 -24.397  1.00  0.00    -0.504 OA
ATOM     78  H   UNL     1     -11.560  10.413 -23.427  1.00  0.00     0.293 HD
ENDBRANCH  74  77
BRANCH  75  79
ATOM     79  O   UNL     1     -11.688  14.312 -26.962  1.00  0.00    -0.504 OA
ATOM     80  H   UNL     1     -12.302  15.039 -27.292  1.00  0.00     0.293 HD
ENDBRANCH  75  79
BRANCH  76  81
ATOM     81  O   UNL     1     -10.459  12.669 -24.880  1.00  0.00    -0.502 OA
ATOM     82  H   UNL     1      -9.881  13.452 -25.131  1.00  0.00     0.293 HD
ENDBRANCH  76  81
ENDBRANCH  69  71
ENDBRANCH  68  69
ENDBRANCH   4  68
TORSDOF 31
ENDMDL
MODEL 3
REMARK VINA RESULT:    -0.700      1.513      8.077
REMARK INTER + INTRA:           4.602
REMARK INTER:                   0.862
REMARK INTRA:                   3.740
REMARK UNBOUND:                 6.264
REMARK SMILES O=C(OC[C@@H]1O[C@@H](OC(=O)c2cc(O)c(O)c(O)c2)[C@@H](OC(=O)c2cc(O)c(O)c(O)c2)[C@H](OC(=O)c2cc(O)c(O)c(O)c2)[C@@H]1OC(=O)c1cc(O)c(O)c(O)c1)c1cc(O)c(O)c(O)c1
REMARK SMILES IDX 5 1 46 2 33 3 20 4 7 5 6 6 4 7 3 8 2 9 1 10 59 11 60 12
REMARK SMILES IDX 61 13 67 14 63 15 65 16 62 17 64 19 66 21 47 23 48 24 49 25
REMARK SMILES IDX 50 26 58 27 51 28 56 29 52 30 54 31 57 32 53 34 55 36 34 38
REMARK SMILES IDX 35 39 36 40 37 41 45 42 38 43 43 44 39 45 41 46 44 47 40 49
REMARK SMILES IDX 42 51 8 53 9 54 10 55 11 56 19 57 12 58 17 59 13 60 15 61
REMARK SMILES IDX 18 62 14 64 16 66 21 68 22 69 23 70 24 71 32 72 25 73 30 74
REMARK SMILES IDX 26 75 28 76 31 77 27 79 29 81
REMARK H PARENT 62 18 64 20 66 22 57 33 53 35 55 37 44 48 40 50 42 52 18 63
REMARK H PARENT 14 65 16 67 31 78 27 80 29 82
REMARK Flexibility Score: inf
ROOT
ATOM      1  C   UNL     1     -19.515  13.985 -30.547  1.00  0.00     0.205 C 
ATOM      2  C   UNL     1     -19.868  12.499 -30.319  1.00  0.00     0.254 C 
ATOM      3  C   UNL     1     -21.365  12.283 -30.621  1.00  0.00     0.267 C 
ATOM      4  C   UNL     1     -22.215  13.290 -29.825  1.00  0.00     0.290 C 
ATOM      5  C   UNL     1     -21.686  14.719 -30.042  1.00  0.00     0.357 C 
ATOM      6  O   UNL     1     -20.309  14.817 -29.714  1.00  0.00    -0.329 OA
ENDROOT
BRANCH   1   7
ATOM      7  C   UNL     1     -18.028  14.251 -30.257  1.00  0.00     0.269 C 
BRANCH   7   8
ATOM      8  O   UNL     1     -17.226  13.907 -31.385  1.00  0.00    -0.459 OA
BRANCH   8   9
ATOM      9  C   UNL     1     -16.188  12.968 -31.354  1.00  0.00     0.338 C 
ATOM     10  O   UNL     1     -16.444  11.737 -31.439  1.00  0.00    -0.246 OA
BRANCH   9  11
ATOM     11  C   UNL     1     -14.787  13.431 -31.256  1.00  0.00     0.067 A 
ATOM     12  C   UNL     1     -14.075  13.774 -32.413  1.00  0.00     0.066 A 
ATOM     13  C   UNL     1     -12.746  14.196 -32.337  1.00  0.00     0.162 A 
ATOM     14  C   UNL     1     -14.149  13.528 -30.010  1.00  0.00     0.066 A 
ATOM     15  C   UNL     1     -12.103  14.282 -31.089  1.00  0.00     0.200 A 
ATOM     16  C   UNL     1     -12.820  13.951 -29.911  1.00  0.00     0.162 A 
BRANCH  13  17
ATOM     17  O   UNL     1     -12.071  14.511 -33.517  1.00  0.00    -0.504 OA
ATOM     18  H   UNL     1     -12.518  14.471 -34.426  1.00  0.00     0.293 HD
ENDBRANCH  13  17
BRANCH  15  19
ATOM     19  O   UNL     1     -10.766  14.689 -31.056  1.00  0.00    -0.502 OA
ATOM     20  H   UNL     1     -10.353  15.327 -31.719  1.00  0.00     0.293 HD
ENDBRANCH  15  19
BRANCH  16  21
ATOM     21  O   UNL     1     -12.257  14.034 -28.635  1.00  0.00    -0.504 OA
ATOM     22  H   UNL     1     -12.369  13.337 -27.918  1.00  0.00     0.293 HD
ENDBRANCH  16  21
ENDBRANCH   9  11
ENDBRANCH   8   9
ENDBRANCH   7   8
ENDBRANCH   1   7
BRANCH   2  23
ATOM     23  O   UNL     1     -19.592  12.147 -28.963  1.00  0.00    -0.452 OA
BRANCH  23  24
ATOM     24  C   UNL     1     -18.904  10.987 -28.580  1.00  0.00     0.338 C 
ATOM     25  O   UNL     1     -19.515   9.888 -28.479  1.00  0.00    -0.246 OA
BRANCH  24  26
ATOM     26  C   UNL     1     -17.456  11.060 -28.297  1.00  0.00     0.067 A 
ATOM     27  C   UNL     1     -16.528  10.422 -29.140  1.00  0.00     0.066 A 
ATOM     28  C   UNL     1     -16.991  11.777 -27.186  1.00  0.00     0.066 A 
ATOM     29  C   UNL     1     -15.158  10.500 -28.877  1.00  0.00     0.162 A 
ATOM     30  C   UNL     1     -15.623  11.854 -26.911  1.00  0.00     0.162 A 
ATOM     31  C   UNL     1     -14.699  11.213 -27.756  1.00  0.00     0.200 A 
BRANCH  29  32
ATOM     32  O   UNL     1     -14.264   9.879 -29.751  1.00  0.00    -0.504 OA
ATOM     33  H   UNL     1     -13.699   9.088 -29.465  1.00  0.00     0.293 HD
ENDBRANCH  29  32
BRANCH  30  34
ATOM     34  O   UNL     1     -15.172  12.562 -25.795  1.00  0.00    -0.504 OA
ATOM     35  H   UNL     1     -14.184  12.611 -25.567  1.00  0.00     0.293 HD
ENDBRANCH  30  34
BRANCH  31  36
ATOM     36  O   UNL     1     -13.329  11.286 -27.499  1.00  0.00    -0.502 OA
ATOM     37  H   UNL     1     -12.940  11.927 -26.814  1.00  0.00     0.293 HD
ENDBRANCH  31  36
ENDBRANCH  24  26
ENDBRANCH  23  24
ENDBRANCH   2  23
BRANCH   3  38
ATOM     38  O   UNL     1     -21.767  10.958 -30.272  1.00  0.00    -0.450 OA
BRANCH  38  39
ATOM     39  C   UNL     1     -22.353  10.602 -29.053  1.00  0.00     0.338 C 
ATOM     40  O   UNL     1     -21.637  10.464 -28.023  1.00  0.00    -0.246 OA
BRANCH  39  41
ATOM     41  C   UNL     1     -23.816  10.381 -28.982  1.00  0.00     0.067 A 
ATOM     42  C   UNL     1     -24.584  10.213 -30.147  1.00  0.00     0.066 A 
ATOM     43  C   UNL     1     -24.458  10.345 -27.734  1.00  0.00     0.066 A 
ATOM     44  C   UNL     1     -25.974  10.045 -30.071  1.00  0.00     0.162 A 
ATOM     45  C   UNL     1     -25.843  10.180 -27.648  1.00  0.00     0.162 A 
ATOM     46  C   UNL     1     -26.608  10.035 -28.816  1.00  0.00     0.200 A 
BRANCH  44  47
ATOM     47  O   UNL     1     -26.730   9.889 -31.236  1.00  0.00    -0.504 OA
ATOM     48  H   UNL     1     -27.135  10.683 -31.721  1.00  0.00     0.293 HD
ENDBRANCH  44  47
BRANCH  45  49
ATOM     49  O   UNL     1     -26.446  10.157 -26.389  1.00  0.00    -0.504 OA
ATOM     50  H   UNL     1     -26.646   9.292 -25.906  1.00  0.00     0.293 HD
ENDBRANCH  45  49
BRANCH  46  51
ATOM     51  O   UNL     1     -27.990   9.878 -28.717  1.00  0.00    -0.502 OA
ATOM     52  H   UNL     1     -28.601   9.895 -29.526  1.00  0.00     0.293 HD
ENDBRANCH  46  51
ENDBRANCH  39  41
ENDBRANCH  38  39
ENDBRANCH   3  38
BRANCH   5  53
ATOM     53  O   UNL     1     -21.916  15.148 -31.386  1.00  0.00    -0.428 OA
BRANCH  53  54
ATOM     54  C   UNL     1     -23.111  15.744 -31.811  1.00  0.00     0.340 C 
ATOM     55  O   UNL     1     -24.139  15.037 -32.000  1.00  0.00    -0.246 OA
BRANCH  54  56
ATOM     56  C   UNL     1     -23.148  17.201 -32.064  1.00  0.00     0.067 A 
ATOM     57  C   UNL     1     -23.794  17.702 -33.207  1.00  0.00     0.066 A 
ATOM     58  C   UNL     1     -22.552  18.099 -31.163  1.00  0.00     0.066 A 
ATOM     59  C   UNL     1     -23.836  19.081 -33.453  1.00  0.00     0.162 A 
ATOM     60  C   UNL     1     -22.598  19.479 -31.399  1.00  0.00     0.162 A 
ATOM     61  C   UNL     1     -23.233  19.974 -32.550  1.00  0.00     0.200 A 
BRANCH  59  62
ATOM     62  O   UNL     1     -24.473  19.570 -34.591  1.00  0.00    -0.504 OA
ATOM     63  H   UNL     1     -25.278  20.183 -34.528  1.00  0.00     0.293 HD
ENDBRANCH  59  62
BRANCH  60  64
ATOM     64  O   UNL     1     -21.996  20.350 -30.492  1.00  0.00    -0.504 OA
ATOM     65  H   UNL     1     -21.410  20.015 -29.736  1.00  0.00     0.293 HD
ENDBRANCH  60  64
BRANCH  61  66
ATOM     66  O   UNL     1     -23.260  21.352 -32.778  1.00  0.00    -0.502 OA
ATOM     67  H   UNL     1     -22.588  21.983 -32.343  1.00  0.00     0.293 HD
ENDBRANCH  61  66
ENDBRANCH  54  56
ENDBRANCH  53  54
ENDBRANCH   5  53
BRANCH   4  68
ATOM     68  O   UNL     1     -23.583  13.222 -30.242  1.00  0.00    -0.448 OA
BRANCH  68  69
ATOM     69  C   UNL     1     -24.625  13.904 -29.595  1.00  0.00     0.339 C 
ATOM     70  O   UNL     1     -24.381  14.952 -28.938  1.00  0.00    -0.246 OA
BRANCH  69  71
ATOM     71  C   UNL     1     -26.015  13.417 -29.715  1.00  0.00     0.067 A 
ATOM     72  C   UNL     1     -26.503  12.941 -30.945  1.00  0.00     0.066 A 
ATOM     73  C   UNL     1     -26.867  13.419 -28.598  1.00  0.00     0.066 A 
ATOM     74  C   UNL     1     -27.810  12.445 -31.050  1.00  0.00     0.162 A 
ATOM     75  C   UNL     1     -28.180  12.940 -28.692  1.00  0.00     0.162 A 
ATOM     76  C   UNL     1     -28.651  12.429 -29.928  1.00  0.00     0.200 A 
BRANCH  74  77
ATOM     77  O   UNL     1     -28.280  11.949 -32.266  1.00  0.00    -0.504 OA
ATOM     78  H   UNL     1     -28.784  12.535 -32.914  1.00  0.00     0.293 HD
ENDBRANCH  74  77
BRANCH  75  79
ATOM     79  O   UNL     1     -28.975  13.003 -27.544  1.00  0.00    -0.504 OA
ATOM     80  H   UNL     1     -29.983  13.010 -27.554  1.00  0.00     0.293 HD
ENDBRANCH  75  79
BRANCH  76  81
ATOM     81  O   UNL     1     -29.932  11.893 -30.073  1.00  0.00    -0.502 OA
ATOM     82  H   UNL     1     -30.733  12.436 -30.346  1.00  0.00     0.293 HD
ENDBRANCH  76  81
ENDBRANCH  69  71
ENDBRANCH  68  69
ENDBRANCH   4  68
TORSDOF 31
ENDMDL
MODEL 4
REMARK VINA RESULT:     0.052      1.937      9.499
REMARK INTER + INTRA:           6.388
REMARK INTER:                   7.124
REMARK INTRA:                  -0.736
REMARK UNBOUND:                 6.264
REMARK SMILES O=C(OC[C@@H]1O[C@@H](OC(=O)c2cc(O)c(O)c(O)c2)[C@@H](OC(=O)c2cc(O)c(O)c(O)c2)[C@H](OC(=O)c2cc(O)c(O)c(O)c2)[C@@H]1OC(=O)c1cc(O)c(O)c(O)c1)c1cc(O)c(O)c(O)c1
REMARK SMILES IDX 5 1 46 2 33 3 20 4 7 5 6 6 4 7 3 8 2 9 1 10 59 11 60 12
REMARK SMILES IDX 61 13 67 14 63 15 65 16 62 17 64 19 66 21 47 23 48 24 49 25
REMARK SMILES IDX 50 26 58 27 51 28 56 29 52 30 54 31 57 32 53 34 55 36 34 38
REMARK SMILES IDX 35 39 36 40 37 41 45 42 38 43 43 44 39 45 41 46 44 47 40 49
REMARK SMILES IDX 42 51 8 53 9 54 10 55 11 56 19 57 12 58 17 59 13 60 15 61
REMARK SMILES IDX 18 62 14 64 16 66 21 68 22 69 23 70 24 71 32 72 25 73 30 74
REMARK SMILES IDX 26 75 28 76 31 77 27 79 29 81
REMARK H PARENT 62 18 64 20 66 22 57 33 53 35 55 37 44 48 40 50 42 52 18 63
REMARK H PARENT 14 65 16 67 31 78 27 80 29 82
REMARK Flexibility Score: inf
ROOT
ATOM      1  C   UNL     1     -21.954  14.621 -30.010  1.00  0.00     0.205 C 
ATOM      2  C   UNL     1     -22.803  15.799 -30.537  1.00  0.00     0.254 C 
ATOM      3  C   UNL     1     -24.233  15.300 -30.828  1.00  0.00     0.267 C 
ATOM      4  C   UNL     1     -24.186  14.062 -31.742  1.00  0.00     0.290 C 
ATOM      5  C   UNL     1     -23.213  13.016 -31.169  1.00  0.00     0.357 C 
ATOM      6  O   UNL     1     -21.923  13.567 -30.960  1.00  0.00    -0.329 OA
ENDROOT
BRANCH   1   7
ATOM      7  C   UNL     1     -20.514  15.070 -29.706  1.00  0.00     0.269 C 
BRANCH   7   8
ATOM      8  O   UNL     1     -19.647  13.942 -29.601  1.00  0.00    -0.459 OA
BRANCH   8   9
ATOM      9  C   UNL     1     -18.487  13.770 -30.365  1.00  0.00     0.338 C 
ATOM     10  O   UNL     1     -18.524  13.916 -31.617  1.00  0.00    -0.246 OA
BRANCH   9  11
ATOM     11  C   UNL     1     -17.209  13.450 -29.692  1.00  0.00     0.067 A 
ATOM     12  C   UNL     1     -17.211  12.832 -28.434  1.00  0.00     0.066 A 
ATOM     13  C   UNL     1     -16.012  12.539 -27.780  1.00  0.00     0.162 A 
ATOM     14  C   UNL     1     -15.983  13.765 -30.295  1.00  0.00     0.066 A 
ATOM     15  C   UNL     1     -14.782  12.865 -28.380  1.00  0.00     0.200 A 
ATOM     16  C   UNL     1     -14.771  13.478 -29.658  1.00  0.00     0.162 A 
BRANCH  13  17
ATOM     17  O   UNL     1     -16.062  11.938 -26.521  1.00  0.00    -0.504 OA
ATOM     18  H   UNL     1     -16.929  11.616 -26.107  1.00  0.00     0.293 HD
ENDBRANCH  13  17
BRANCH  15  19
ATOM     19  O   UNL     1     -13.605  12.575 -27.683  1.00  0.00    -0.502 OA
ATOM     20  H   UNL     1     -13.257  13.121 -26.911  1.00  0.00     0.293 HD
ENDBRANCH  15  19
BRANCH  16  21
ATOM     21  O   UNL     1     -13.589  13.809 -30.328  1.00  0.00    -0.504 OA
ATOM     22  H   UNL     1     -12.967  14.550 -30.049  1.00  0.00     0.293 HD
ENDBRANCH  16  21
ENDBRANCH   9  11
ENDBRANCH   8   9
ENDBRANCH   7   8
ENDBRANCH   1   7
BRANCH   2  23
ATOM     23  O   UNL     1     -22.216  16.310 -31.734  1.00  0.00    -0.452 OA
BRANCH  23  24
ATOM     24  C   UNL     1     -22.688  17.438 -32.419  1.00  0.00     0.338 C 
ATOM     25  O   UNL     1     -23.212  17.318 -33.560  1.00  0.00    -0.246 OA
BRANCH  24  26
ATOM     26  C   UNL     1     -22.571  18.771 -31.793  1.00  0.00     0.067 A 
ATOM     27  C   UNL     1     -22.269  18.897 -30.425  1.00  0.00     0.066 A 
ATOM     28  C   UNL     1     -22.753  19.929 -32.563  1.00  0.00     0.066 A 
ATOM     29  C   UNL     1     -22.149  20.159 -29.836  1.00  0.00     0.162 A 
ATOM     30  C   UNL     1     -22.643  21.195 -31.981  1.00  0.00     0.162 A 
ATOM     31  C   UNL     1     -22.341  21.315 -30.613  1.00  0.00     0.200 A 
BRANCH  29  32
ATOM     32  O   UNL     1     -21.819  20.246 -28.483  1.00  0.00    -0.504 OA
ATOM     33  H   UNL     1     -21.287  21.024 -28.111  1.00  0.00     0.293 HD
ENDBRANCH  29  32
BRANCH  30  34
ATOM     34  O   UNL     1     -22.838  22.340 -32.756  1.00  0.00    -0.504 OA
ATOM     35  H   UNL     1     -23.583  22.389 -33.443  1.00  0.00     0.293 HD
ENDBRANCH  30  34
BRANCH  31  36
ATOM     36  O   UNL     1     -22.222  22.572 -30.018  1.00  0.00    -0.502 OA
ATOM     37  H   UNL     1     -22.952  23.275 -30.086  1.00  0.00     0.293 HD
ENDBRANCH  31  36
ENDBRANCH  24  26
ENDBRANCH  23  24
ENDBRANCH   2  23
BRANCH   3  38
ATOM     38  O   UNL     1     -25.005  16.318 -31.464  1.00  0.00    -0.450 OA
BRANCH  38  39
ATOM     39  C   UNL     1     -25.742  17.294 -30.785  1.00  0.00     0.338 C 
ATOM     40  O   UNL     1     -25.713  17.346 -29.525  1.00  0.00    -0.246 OA
BRANCH  39  41
ATOM     41  C   UNL     1     -26.563  18.258 -31.556  1.00  0.00     0.067 A 
ATOM     42  C   UNL     1     -27.863  18.598 -31.146  1.00  0.00     0.066 A 
ATOM     43  C   UNL     1     -26.044  18.842 -32.722  1.00  0.00     0.066 A 
ATOM     44  C   UNL     1     -28.647  19.480 -31.905  1.00  0.00     0.162 A 
ATOM     45  C   UNL     1     -26.817  19.721 -33.486  1.00  0.00     0.162 A 
ATOM     46  C   UNL     1     -28.124  20.039 -33.083  1.00  0.00     0.200 A 
BRANCH  44  47
ATOM     47  O   UNL     1     -29.943  19.802 -31.494  1.00  0.00    -0.504 OA
ATOM     48  H   UNL     1     -30.130  20.214 -30.585  1.00  0.00     0.293 HD
ENDBRANCH  44  47
BRANCH  45  49
ATOM     49  O   UNL     1     -26.268  20.275 -34.643  1.00  0.00    -0.504 OA
ATOM     50  H   UNL     1     -26.698  20.154 -35.551  1.00  0.00     0.293 HD
ENDBRANCH  45  49
BRANCH  46  51
ATOM     51  O   UNL     1     -28.887  20.912 -33.858  1.00  0.00    -0.502 OA
ATOM     52  H   UNL     1     -28.507  21.406 -34.658  1.00  0.00     0.293 HD
ENDBRANCH  46  51
ENDBRANCH  39  41
ENDBRANCH  38  39
ENDBRANCH   3  38
BRANCH   5  53
ATOM     53  O   UNL     1     -23.725  12.457 -29.956  1.00  0.00    -0.428 OA
BRANCH  53  54
ATOM     54  C   UNL     1     -23.448  11.151 -29.532  1.00  0.00     0.340 C 
ATOM     55  O   UNL     1     -24.351  10.271 -29.564  1.00  0.00    -0.246 OA
BRANCH  54  56
ATOM     56  C   UNL     1     -22.099  10.822 -29.021  1.00  0.00     0.067 A 
ATOM     57  C   UNL     1     -21.918  10.503 -27.665  1.00  0.00     0.066 A 
ATOM     58  C   UNL     1     -20.991  10.812 -29.883  1.00  0.00     0.066 A 
ATOM     59  C   UNL     1     -20.644  10.187 -27.172  1.00  0.00     0.162 A 
ATOM     60  C   UNL     1     -19.716  10.489 -29.399  1.00  0.00     0.162 A 
ATOM     61  C   UNL     1     -19.538  10.184 -28.040  1.00  0.00     0.200 A 
BRANCH  59  62
ATOM     62  O   UNL     1     -20.470   9.877 -25.826  1.00  0.00    -0.504 OA
ATOM     63  H   UNL     1     -20.591  10.573 -25.100  1.00  0.00     0.293 HD
ENDBRANCH  59  62
BRANCH  60  64
ATOM     64  O   UNL     1     -18.630  10.490 -30.274  1.00  0.00    -0.504 OA
ATOM     65  H   UNL     1     -17.744  10.063 -30.028  1.00  0.00     0.293 HD
ENDBRANCH  60  64
BRANCH  61  66
ATOM     66  O   UNL     1     -18.259   9.876 -27.569  1.00  0.00    -0.502 OA
ATOM     67  H   UNL     1     -17.423  10.310 -27.960  1.00  0.00     0.293 HD
ENDBRANCH  61  66
ENDBRANCH  54  56
ENDBRANCH  53  54
ENDBRANCH   5  53
BRANCH   4  68
ATOM     68  O   UNL     1     -25.489  13.484 -31.861  1.00  0.00    -0.448 OA
BRANCH  68  69
ATOM     69  C   UNL     1     -26.548  13.773 -30.988  1.00  0.00     0.339 C 
ATOM     70  O   UNL     1     -27.098  14.907 -31.017  1.00  0.00    -0.246 OA
BRANCH  69  71
ATOM     71  C   UNL     1     -27.047  12.736 -30.060  1.00  0.00     0.067 A 
ATOM     72  C   UNL     1     -26.417  12.521 -28.822  1.00  0.00     0.066 A 
ATOM     73  C   UNL     1     -28.163  11.955 -30.403  1.00  0.00     0.066 A 
ATOM     74  C   UNL     1     -26.914  11.563 -27.926  1.00  0.00     0.162 A 
ATOM     75  C   UNL     1     -28.660  10.983 -29.525  1.00  0.00     0.162 A 
ATOM     76  C   UNL     1     -28.040  10.798 -28.263  1.00  0.00     0.200 A 
BRANCH  74  77
ATOM     77  O   UNL     1     -26.301  11.372 -26.688  1.00  0.00    -0.504 OA
ATOM     78  H   UNL     1     -25.333  11.613 -26.536  1.00  0.00     0.293 HD
ENDBRANCH  74  77
BRANCH  75  79
ATOM     79  O   UNL     1     -29.755  10.226 -29.951  1.00  0.00    -0.504 OA
ATOM     80  H   UNL     1     -30.683  10.596 -30.079  1.00  0.00     0.293 HD
ENDBRANCH  75  79
BRANCH  76  81
ATOM     81  O   UNL     1     -28.518   9.882 -27.325  1.00  0.00    -0.502 OA
ATOM     82  H   UNL     1     -28.671   8.909 -27.528  1.00  0.00     0.293 HD
ENDBRANCH  76  81
ENDBRANCH  69  71
ENDBRANCH  68  69
ENDBRANCH   4  68
TORSDOF 31
ENDMDL
MODEL 5
REMARK VINA RESULT:     0.332      1.627      8.334
REMARK INTER + INTRA:           7.052
REMARK INTER:                   6.638
REMARK INTRA:                   0.414
REMARK UNBOUND:                 6.264
REMARK SMILES O=C(OC[C@@H]1O[C@@H](OC(=O)c2cc(O)c(O)c(O)c2)[C@@H](OC(=O)c2cc(O)c(O)c(O)c2)[C@H](OC(=O)c2cc(O)c(O)c(O)c2)[C@@H]1OC(=O)c1cc(O)c(O)c(O)c1)c1cc(O)c(O)c(O)c1
REMARK SMILES IDX 5 1 46 2 33 3 20 4 7 5 6 6 4 7 3 8 2 9 1 10 59 11 60 12
REMARK SMILES IDX 61 13 67 14 63 15 65 16 62 17 64 19 66 21 47 23 48 24 49 25
REMARK SMILES IDX 50 26 58 27 51 28 56 29 52 30 54 31 57 32 53 34 55 36 34 38
REMARK SMILES IDX 35 39 36 40 37 41 45 42 38 43 43 44 39 45 41 46 44 47 40 49
REMARK SMILES IDX 42 51 8 53 9 54 10 55 11 56 19 57 12 58 17 59 13 60 15 61
REMARK SMILES IDX 18 62 14 64 16 66 21 68 22 69 23 70 24 71 32 72 25 73 30 74
REMARK SMILES IDX 26 75 28 76 31 77 27 79 29 81
REMARK H PARENT 62 18 64 20 66 22 57 33 53 35 55 37 44 48 40 50 42 52 18 63
REMARK H PARENT 14 65 16 67 31 78 27 80 29 82
REMARK Flexibility Score: inf
ROOT
ATOM      1  C   UNL     1     -19.729  13.566 -30.217  1.00  0.00     0.205 C 
ATOM      2  C   UNL     1     -20.321  12.158 -29.991  1.00  0.00     0.254 C 
ATOM      3  C   UNL     1     -21.784  12.140 -30.479  1.00  0.00     0.267 C 
ATOM      4  C   UNL     1     -22.571  13.295 -29.834  1.00  0.00     0.290 C 
ATOM      5  C   UNL     1     -21.815  14.622 -30.024  1.00  0.00     0.357 C 
ATOM      6  O   UNL     1     -20.491  14.542 -29.522  1.00  0.00    -0.329 OA
ENDROOT
BRANCH   1   7
ATOM      7  C   UNL     1     -18.267  13.634 -29.743  1.00  0.00     0.269 C 
BRANCH   7   8
ATOM      8  O   UNL     1     -17.527  14.569 -30.527  1.00  0.00    -0.459 OA
BRANCH   8   9
ATOM      9  C   UNL     1     -16.761  14.224 -31.646  1.00  0.00     0.338 C 
ATOM     10  O   UNL     1     -17.309  14.090 -32.773  1.00  0.00    -0.246 OA
BRANCH   9  11
ATOM     11  C   UNL     1     -15.299  14.051 -31.505  1.00  0.00     0.067 A 
ATOM     12  C   UNL     1     -14.664  14.372 -30.297  1.00  0.00     0.066 A 
ATOM     13  C   UNL     1     -13.282  14.229 -30.156  1.00  0.00     0.162 A 
ATOM     14  C   UNL     1     -14.527  13.571 -32.574  1.00  0.00     0.066 A 
ATOM     15  C   UNL     1     -12.507  13.759 -31.231  1.00  0.00     0.200 A 
ATOM     16  C   UNL     1     -13.142  13.419 -32.452  1.00  0.00     0.162 A 
BRANCH  13  17
ATOM     17  O   UNL     1     -12.690  14.577 -28.940  1.00  0.00    -0.504 OA
ATOM     18  H   UNL     1     -11.721  14.371 -28.730  1.00  0.00     0.293 HD
ENDBRANCH  13  17
BRANCH  15  19
ATOM     19  O   UNL     1     -11.124  13.650 -31.056  1.00  0.00    -0.502 OA
ATOM     20  H   UNL     1     -10.477  14.412 -31.184  1.00  0.00     0.293 HD
ENDBRANCH  15  19
BRANCH  16  21
ATOM     21  O   UNL     1     -12.443  12.923 -33.556  1.00  0.00    -0.504 OA
ATOM     22  H   UNL     1     -11.789  12.158 -33.517  1.00  0.00     0.293 HD
ENDBRANCH  16  21
ENDBRANCH   9  11
ENDBRANCH   8   9
ENDBRANCH   7   8
ENDBRANCH   1   7
BRANCH   2  23
ATOM     23  O   UNL     1     -20.271  11.839 -28.600  1.00  0.00    -0.452 OA
BRANCH  23  24
ATOM     24  C   UNL     1     -19.450  10.842 -28.055  1.00  0.00     0.338 C 
ATOM     25  O   UNL     1     -19.956   9.877 -27.419  1.00  0.00    -0.246 OA
BRANCH  24  26
ATOM     26  C   UNL     1     -17.986  10.926 -28.232  1.00  0.00     0.067 A 
ATOM     27  C   UNL     1     -17.157  11.321 -27.167  1.00  0.00     0.066 A 
ATOM     28  C   UNL     1     -17.407  10.603 -29.467  1.00  0.00     0.066 A 
ATOM     29  C   UNL     1     -15.771  11.391 -27.333  1.00  0.00     0.162 A 
ATOM     30  C   UNL     1     -16.022  10.677 -29.645  1.00  0.00     0.162 A 
ATOM     31  C   UNL     1     -15.198  11.074 -28.577  1.00  0.00     0.200 A 
BRANCH  29  32
ATOM     32  O   UNL     1     -14.976  11.759 -26.246  1.00  0.00    -0.504 OA
ATOM     33  H   UNL     1     -15.205  11.483 -25.299  1.00  0.00     0.293 HD
ENDBRANCH  29  32
BRANCH  30  34
ATOM     34  O   UNL     1     -15.458  10.364 -30.883  1.00  0.00    -0.504 OA
ATOM     35  H   UNL     1     -15.946  10.568 -31.749  1.00  0.00     0.293 HD
ENDBRANCH  30  34
BRANCH  31  36
ATOM     36  O   UNL     1     -13.813  11.148 -28.736  1.00  0.00    -0.502 OA
ATOM     37  H   UNL     1     -13.356  11.967 -29.125  1.00  0.00     0.293 HD
ENDBRANCH  31  36
ENDBRANCH  24  26
ENDBRANCH  23  24
ENDBRANCH   2  23
BRANCH   3  38
ATOM     38  O   UNL     1     -22.415  10.904 -30.144  1.00  0.00    -0.450 OA
BRANCH  38  39
ATOM     39  C   UNL     1     -23.147  10.679 -28.974  1.00  0.00     0.338 C 
ATOM     40  O   UNL     1     -22.557  10.620 -27.860  1.00  0.00    -0.246 OA
BRANCH  39  41
ATOM     41  C   UNL     1     -24.616  10.502 -29.053  1.00  0.00     0.067 A 
ATOM     42  C   UNL     1     -25.398  10.381 -27.892  1.00  0.00     0.066 A 
ATOM     43  C   UNL     1     -25.246  10.444 -30.305  1.00  0.00     0.066 A 
ATOM     44  C   UNL     1     -26.782  10.172 -27.978  1.00  0.00     0.162 A 
ATOM     45  C   UNL     1     -26.625  10.235 -30.403  1.00  0.00     0.162 A 
ATOM     46  C   UNL     1     -27.398  10.092 -29.239  1.00  0.00     0.200 A 
BRANCH  44  47
ATOM     47  O   UNL     1     -27.549  10.042 -26.817  1.00  0.00    -0.504 OA
ATOM     48  H   UNL     1     -27.765   9.135 -26.417  1.00  0.00     0.293 HD
ENDBRANCH  44  47
BRANCH  45  49
ATOM     49  O   UNL     1     -27.214  10.175 -31.666  1.00  0.00    -0.504 OA
ATOM     50  H   UNL     1     -27.981   9.549 -31.871  1.00  0.00     0.293 HD
ENDBRANCH  45  49
BRANCH  46  51
ATOM     51  O   UNL     1     -28.771   9.877 -29.349  1.00  0.00    -0.502 OA
ATOM     52  H   UNL     1     -29.160   9.039 -29.768  1.00  0.00     0.293 HD
ENDBRANCH  46  51
ENDBRANCH  39  41
ENDBRANCH  38  39
ENDBRANCH   3  38
BRANCH   5  53
ATOM     53  O   UNL     1     -21.811  15.013 -31.399  1.00  0.00    -0.428 OA
BRANCH  53  54
ATOM     54  C   UNL     1     -22.934  15.530 -32.058  1.00  0.00     0.340 C 
ATOM     55  O   UNL     1     -23.803  14.750 -32.536  1.00  0.00    -0.246 OA
BRANCH  54  56
ATOM     56  C   UNL     1     -23.076  16.995 -32.213  1.00  0.00     0.067 A 
ATOM     57  C   UNL     1     -23.725  17.524 -33.341  1.00  0.00     0.066 A 
ATOM     58  C   UNL     1     -22.577  17.869 -31.234  1.00  0.00     0.066 A 
ATOM     59  C   UNL     1     -23.867  18.910 -33.496  1.00  0.00     0.162 A 
ATOM     60  C   UNL     1     -22.723  19.255 -31.379  1.00  0.00     0.162 A 
ATOM     61  C   UNL     1     -23.361  19.780 -32.514  1.00  0.00     0.200 A 
BRANCH  59  62
ATOM     62  O   UNL     1     -24.507  19.428 -34.618  1.00  0.00    -0.504 OA
ATOM     63  H   UNL     1     -25.517  19.441 -34.697  1.00  0.00     0.293 HD
ENDBRANCH  59  62
BRANCH  60  64
ATOM     64  O   UNL     1     -22.216  20.104 -30.395  1.00  0.00    -0.504 OA
ATOM     65  H   UNL     1     -21.282  20.493 -30.453  1.00  0.00     0.293 HD
ENDBRANCH  60  64
BRANCH  61  66
ATOM     66  O   UNL     1     -23.488  21.165 -32.650  1.00  0.00    -0.502 OA
ATOM     67  H   UNL     1     -23.178  21.808 -31.922  1.00  0.00     0.293 HD
ENDBRANCH  61  66
ENDBRANCH  54  56
ENDBRANCH  53  54
ENDBRANCH   5  53
BRANCH   4  68
ATOM     68  O   UNL     1     -23.871  13.400 -30.423  1.00  0.00    -0.448 OA
BRANCH  68  69
ATOM     69  C   UNL     1     -24.986  13.924 -29.752  1.00  0.00     0.339 C 
ATOM     70  O   UNL     1     -25.544  13.258 -28.839  1.00  0.00    -0.246 OA
BRANCH  69  71
ATOM     71  C   UNL     1     -25.483  15.275 -30.087  1.00  0.00     0.067 A 
ATOM     72  C   UNL     1     -24.985  16.408 -29.418  1.00  0.00     0.066 A 
ATOM     73  C   UNL     1     -26.458  15.446 -31.083  1.00  0.00     0.066 A 
ATOM     74  C   UNL     1     -25.430  17.692 -29.762  1.00  0.00     0.162 A 
ATOM     75  C   UNL     1     -26.924  16.722 -31.427  1.00  0.00     0.162 A 
ATOM     76  C   UNL     1     -26.389  17.860 -30.772  1.00  0.00     0.200 A 
BRANCH  74  77
ATOM     77  O   UNL     1     -24.914  18.814 -29.114  1.00  0.00    -0.504 OA
ATOM     78  H   UNL     1     -24.362  19.500 -29.607  1.00  0.00     0.293 HD
ENDBRANCH  74  77
BRANCH  75  79
ATOM     79  O   UNL     1     -27.916  16.807 -32.407  1.00  0.00    -0.504 OA
ATOM     80  H   UNL     1     -27.970  16.201 -33.211  1.00  0.00     0.293 HD
ENDBRANCH  75  79
BRANCH  76  81
ATOM     81  O   UNL     1     -26.775  19.160 -31.103  1.00  0.00    -0.502 OA
ATOM     82  H   UNL     1     -26.999  19.451 -32.039  1.00  0.00     0.293 HD
ENDBRANCH  76  81
ENDBRANCH  69  71
ENDBRANCH  68  69
ENDBRANCH   4  68
TORSDOF 31
ENDMDL
MODEL 6
REMARK VINA RESULT:     0.615      2.232      8.129
REMARK INTER + INTRA:           7.723
REMARK INTER:                   1.489
REMARK INTRA:                   6.234
REMARK UNBOUND:                 6.264
REMARK SMILES O=C(OC[C@@H]1O[C@@H](OC(=O)c2cc(O)c(O)c(O)c2)[C@@H](OC(=O)c2cc(O)c(O)c(O)c2)[C@H](OC(=O)c2cc(O)c(O)c(O)c2)[C@@H]1OC(=O)c1cc(O)c(O)c(O)c1)c1cc(O)c(O)c(O)c1
REMARK SMILES IDX 5 1 46 2 33 3 20 4 7 5 6 6 4 7 3 8 2 9 1 10 59 11 60 12
REMARK SMILES IDX 61 13 67 14 63 15 65 16 62 17 64 19 66 21 47 23 48 24 49 25
REMARK SMILES IDX 50 26 58 27 51 28 56 29 52 30 54 31 57 32 53 34 55 36 34 38
REMARK SMILES IDX 35 39 36 40 37 41 45 42 38 43 43 44 39 45 41 46 44 47 40 49
REMARK SMILES IDX 42 51 8 53 9 54 10 55 11 56 19 57 12 58 17 59 13 60 15 61
REMARK SMILES IDX 18 62 14 64 16 66 21 68 22 69 23 70 24 71 32 72 25 73 30 74
REMARK SMILES IDX 26 75 28 76 31 77 27 79 29 81
REMARK H PARENT 62 18 64 20 66 22 57 33 53 35 55 37 44 48 40 50 42 52 18 63
REMARK H PARENT 14 65 16 67 31 78 27 80 29 82
REMARK Flexibility Score: inf
ROOT
ATOM      1  C   UNL     1     -19.909  11.814 -28.876  1.00  0.00     0.205 C 
ATOM      2  C   UNL     1     -18.378  11.815 -28.671  1.00  0.00     0.254 C 
ATOM      3  C   UNL     1     -17.718  12.628 -29.802  1.00  0.00     0.267 C 
ATOM      4  C   UNL     1     -18.197  12.114 -31.172  1.00  0.00     0.290 C 
ATOM      5  C   UNL     1     -19.734  12.045 -31.204  1.00  0.00     0.357 C 
ATOM      6  O   UNL     1     -20.240  11.256 -30.139  1.00  0.00    -0.329 OA
ENDROOT
BRANCH   1   7
ATOM      7  C   UNL     1     -20.615  11.012 -27.769  1.00  0.00     0.269 C 
BRANCH   7   8
ATOM      8  O   UNL     1     -21.384   9.949 -28.330  1.00  0.00    -0.459 OA
BRANCH   8   9
ATOM      9  C   UNL     1     -22.347  10.120 -29.332  1.00  0.00     0.338 C 
ATOM     10  O   UNL     1     -21.994  10.253 -30.535  1.00  0.00    -0.246 OA
BRANCH   9  11
ATOM     11  C   UNL     1     -23.782  10.110 -28.975  1.00  0.00     0.067 A 
ATOM     12  C   UNL     1     -24.758  10.217 -29.975  1.00  0.00     0.066 A 
ATOM     13  C   UNL     1     -26.116  10.225 -29.650  1.00  0.00     0.162 A 
ATOM     14  C   UNL     1     -24.187   9.999 -27.636  1.00  0.00     0.066 A 
ATOM     15  C   UNL     1     -26.522  10.126 -28.307  1.00  0.00     0.200 A 
ATOM     16  C   UNL     1     -25.543  10.003 -27.290  1.00  0.00     0.162 A 
BRANCH  13  17
ATOM     17  O   UNL     1     -27.053  10.352 -30.678  1.00  0.00    -0.504 OA
ATOM     18  H   UNL     1     -27.720   9.621 -30.897  1.00  0.00     0.293 HD
ENDBRANCH  13  17
BRANCH  15  19
ATOM     19  O   UNL     1     -27.891  10.159 -28.022  1.00  0.00    -0.502 OA
ATOM     20  H   UNL     1     -28.323  10.826 -27.402  1.00  0.00     0.293 HD
ENDBRANCH  15  19
BRANCH  16  21
ATOM     21  O   UNL     1     -25.869   9.875 -25.937  1.00  0.00    -0.504 OA
ATOM     22  H   UNL     1     -25.212   9.980 -25.182  1.00  0.00     0.293 HD
ENDBRANCH  16  21
ENDBRANCH   9  11
ENDBRANCH   8   9
ENDBRANCH   7   8
ENDBRANCH   1   7
BRANCH   2  23
ATOM     23  O   UNL     1     -17.894  10.472 -28.693  1.00  0.00    -0.452 OA
BRANCH  23  24
ATOM     24  C   UNL     1     -16.558  10.125 -28.937  1.00  0.00     0.338 C 
ATOM     25  O   UNL     1     -16.169   9.876 -30.112  1.00  0.00    -0.246 OA
BRANCH  24  26
ATOM     26  C   UNL     1     -15.606  10.055 -27.810  1.00  0.00     0.067 A 
ATOM     27  C   UNL     1     -14.222   9.978 -28.044  1.00  0.00     0.066 A 
ATOM     28  C   UNL     1     -16.077  10.075 -26.489  1.00  0.00     0.066 A 
ATOM     29  C   UNL     1     -13.322   9.922 -26.977  1.00  0.00     0.162 A 
ATOM     30  C   UNL     1     -15.185  10.012 -25.415  1.00  0.00     0.162 A 
ATOM     31  C   UNL     1     -13.801   9.933 -25.656  1.00  0.00     0.200 A 
BRANCH  29  32
ATOM     32  O   UNL     1     -11.953   9.875 -27.247  1.00  0.00    -0.504 OA
ATOM     33  H   UNL     1     -11.498  10.569 -27.828  1.00  0.00     0.293 HD
ENDBRANCH  29  32
BRANCH  30  34
ATOM     34  O   UNL     1     -15.666  10.021 -24.105  1.00  0.00    -0.504 OA
ATOM     35  H   UNL     1     -16.192   9.237 -23.733  1.00  0.00     0.293 HD
ENDBRANCH  30  34
BRANCH  31  36
ATOM     36  O   UNL     1     -12.897   9.876 -24.594  1.00  0.00    -0.502 OA
ATOM     37  H   UNL     1     -12.158  10.563 -24.475  1.00  0.00     0.293 HD
ENDBRANCH  31  36
ENDBRANCH  24  26
ENDBRANCH  23  24
ENDBRANCH   2  23
BRANCH   3  38
ATOM     38  O   UNL     1     -16.295  12.523 -29.738  1.00  0.00    -0.450 OA
BRANCH  38  39
ATOM     39  C   UNL     1     -15.473  13.355 -28.971  1.00  0.00     0.338 C 
ATOM     40  O   UNL     1     -15.954  14.377 -28.410  1.00  0.00    -0.246 OA
BRANCH  39  41
ATOM     41  C   UNL     1     -14.034  13.031 -28.829  1.00  0.00     0.067 A 
ATOM     42  C   UNL     1     -13.368  13.195 -27.603  1.00  0.00     0.066 A 
ATOM     43  C   UNL     1     -13.312  12.560 -29.937  1.00  0.00     0.066 A 
ATOM     44  C   UNL     1     -11.996  12.925 -27.490  1.00  0.00     0.162 A 
ATOM     45  C   UNL     1     -11.945  12.290 -29.836  1.00  0.00     0.162 A 
ATOM     46  C   UNL     1     -11.279  12.477 -28.613  1.00  0.00     0.200 A 
BRANCH  44  47
ATOM     47  O   UNL     1     -11.341  13.102 -26.268  1.00  0.00    -0.504 OA
ATOM     48  H   UNL     1     -10.441  12.675 -26.077  1.00  0.00     0.293 HD
ENDBRANCH  44  47
BRANCH  45  49
ATOM     49  O   UNL     1     -11.259  11.830 -30.961  1.00  0.00    -0.504 OA
ATOM     50  H   UNL     1     -10.745  10.959 -30.957  1.00  0.00     0.293 HD
ENDBRANCH  45  49
BRANCH  46  51
ATOM     51  O   UNL     1      -9.913  12.210 -28.527  1.00  0.00    -0.502 OA
ATOM     52  H   UNL     1      -9.540  11.267 -28.531  1.00  0.00     0.293 HD
ENDBRANCH  46  51
ENDBRANCH  39  41
ENDBRANCH  38  39
ENDBRANCH   3  38
BRANCH   5  53
ATOM     53  O   UNL     1     -20.303  13.356 -31.176  1.00  0.00    -0.428 OA
BRANCH  53  54
ATOM     54  C   UNL     1     -21.020  13.862 -30.084  1.00  0.00     0.340 C 
ATOM     55  O   UNL     1     -20.495  13.887 -28.938  1.00  0.00    -0.246 OA
BRANCH  54  56
ATOM     56  C   UNL     1     -22.408  14.338 -30.282  1.00  0.00     0.067 A 
ATOM     57  C   UNL     1     -22.652  15.510 -31.017  1.00  0.00     0.066 A 
ATOM     58  C   UNL     1     -23.492  13.620 -29.751  1.00  0.00     0.066 A 
ATOM     59  C   UNL     1     -23.964  15.967 -31.211  1.00  0.00     0.162 A 
ATOM     60  C   UNL     1     -24.805  14.068 -29.948  1.00  0.00     0.162 A 
ATOM     61  C   UNL     1     -25.044  15.246 -30.673  1.00  0.00     0.200 A 
BRANCH  59  62
ATOM     62  O   UNL     1     -24.199  17.132 -31.936  1.00  0.00    -0.504 OA
ATOM     63  H   UNL     1     -24.765  17.885 -31.564  1.00  0.00     0.293 HD
ENDBRANCH  59  62
BRANCH  60  64
ATOM     64  O   UNL     1     -25.865  13.340 -29.408  1.00  0.00    -0.504 OA
ATOM     65  H   UNL     1     -26.360  12.636 -29.944  1.00  0.00     0.293 HD
ENDBRANCH  60  64
BRANCH  61  66
ATOM     66  O   UNL     1     -26.358  15.686 -30.851  1.00  0.00    -0.502 OA
ATOM     67  H   UNL     1     -26.815  16.302 -30.179  1.00  0.00     0.293 HD
ENDBRANCH  61  66
ENDBRANCH  54  56
ENDBRANCH  53  54
ENDBRANCH   5  53
BRANCH   4  68
ATOM     68  O   UNL     1     -17.739  12.980 -32.215  1.00  0.00    -0.448 OA
BRANCH  68  69
ATOM     69  C   UNL     1     -16.952  14.119 -31.986  1.00  0.00     0.339 C 
ATOM     70  O   UNL     1     -17.461  15.142 -31.452  1.00  0.00    -0.246 OA
BRANCH  69  71
ATOM     71  C   UNL     1     -15.515  14.109 -32.334  1.00  0.00     0.067 A 
ATOM     72  C   UNL     1     -15.047  13.345 -33.418  1.00  0.00     0.066 A 
ATOM     73  C   UNL     1     -14.599  14.867 -31.587  1.00  0.00     0.066 A 
ATOM     74  C   UNL     1     -13.690  13.365 -33.770  1.00  0.00     0.162 A 
ATOM     75  C   UNL     1     -13.237  14.883 -31.917  1.00  0.00     0.162 A 
ATOM     76  C   UNL     1     -12.781  14.139 -33.034  1.00  0.00     0.200 A 
BRANCH  74  77
ATOM     77  O   UNL     1     -13.235  12.627 -34.863  1.00  0.00    -0.504 OA
ATOM     78  H   UNL     1     -12.793  13.073 -35.652  1.00  0.00     0.293 HD
ENDBRANCH  74  77
BRANCH  75  79
ATOM     79  O   UNL     1     -12.384  15.638 -31.108  1.00  0.00    -0.504 OA
ATOM     80  H   UNL     1     -11.513  16.036 -31.421  1.00  0.00     0.293 HD
ENDBRANCH  75  79
BRANCH  76  81
ATOM     81  O   UNL     1     -11.446  14.154 -33.444  1.00  0.00    -0.502 OA
ATOM     82  H   UNL     1     -11.049  14.882 -34.013  1.00  0.00     0.293 HD
ENDBRANCH  76  81
ENDBRANCH  69  71
ENDBRANCH  68  69
ENDBRANCH   4  68
TORSDOF 31
ENDMDL
