MODEL 1
REMARK VINA RESULT:    -3.974      0.000      0.000
REMARK INTER + INTRA:          -4.989
REMARK INTER:                  -4.903
REMARK INTRA:                  -0.086
REMARK UNBOUND:                -0.086
REMARK SMILES CCCCCC(=O)[O-]
REMARK SMILES IDX 4 1 5 2 6 3 7 4 8 5 3 6 2 7 1 8
REMARK H PARENT
REMARK Flexibility Score: inf
ROOT
ATOM      1  C   UNL     1    -105.132 -86.289  37.464  1.00  0.00     0.006 C 
ENDROOT
BRANCH   1   2
ATOM      2  C   UNL     1    -105.150 -87.413  36.419  1.00  0.00     0.053 C 
BRANCH   2   3
ATOM      3  C   UNL     1    -105.817 -86.981  35.149  1.00  0.00     0.041 C 
ATOM      4  O   UNL     1    -106.525 -87.793  34.498  1.00  0.00    -0.550 OA
ATOM      5  O   UNL     1    -105.684 -85.673  34.702  1.00  0.00    -0.550 OA
ENDBRANCH   2   3
ENDBRANCH   1   2
BRANCH   1   6
ATOM      6  C   UNL     1    -104.060 -86.513  38.540  1.00  0.00     0.000 C 
BRANCH   6   7
ATOM      7  C   UNL     1    -104.371 -85.701  39.802  1.00  0.00    -0.003 C 
ATOM      8  C   UNL     1    -105.364 -84.581  39.507  1.00  0.00     0.004 C 
ENDBRANCH   6   7
ENDBRANCH   1   6
TORSDOF 4
ENDMDL
MODEL 2
REMARK VINA RESULT:    -3.953      2.743      3.439
REMARK INTER + INTRA:          -4.964
REMARK INTER:                  -4.781
REMARK INTRA:                  -0.183
REMARK UNBOUND:                -0.086
REMARK SMILES CCCCCC(=O)[O-]
REMARK SMILES IDX 4 1 5 2 6 3 7 4 8 5 3 6 2 7 1 8
REMARK H PARENT
REMARK Flexibility Score: inf
ROOT
ATOM      1  C   UNL     1    -105.170 -84.864  39.506  1.00  0.00     0.006 C 
ENDROOT
BRANCH   1   2
ATOM      2  C   UNL     1    -104.993 -85.523  38.132  1.00  0.00     0.053 C 
BRANCH   2   3
ATOM      3  C   UNL     1    -104.309 -86.851  38.235  1.00  0.00     0.041 C 
ATOM      4  O   UNL     1    -104.687 -87.815  37.517  1.00  0.00    -0.550 OA
ATOM      5  O   UNL     1    -103.234 -87.017  39.098  1.00  0.00    -0.550 OA
ENDBRANCH   2   3
ENDBRANCH   1   2
BRANCH   1   6
ATOM      6  C   UNL     1    -104.639 -83.423  39.534  1.00  0.00     0.000 C 
BRANCH   6   7
ATOM      7  C   UNL     1    -103.180 -83.367  39.069  1.00  0.00    -0.003 C 
ATOM      8  C   UNL     1    -102.227 -83.249  40.255  1.00  0.00     0.004 C 
ENDBRANCH   6   7
ENDBRANCH   1   6
TORSDOF 4
ENDMDL
MODEL 3
REMARK VINA RESULT:    -3.893      2.389      3.428
REMARK INTER + INTRA:          -4.889
REMARK INTER:                  -4.731
REMARK INTRA:                  -0.159
REMARK UNBOUND:                -0.086
REMARK SMILES CCCCCC(=O)[O-]
REMARK SMILES IDX 4 1 5 2 6 3 7 4 8 5 3 6 2 7 1 8
REMARK H PARENT
REMARK Flexibility Score: inf
ROOT
ATOM      1  C   UNL     1    -105.520 -84.505  39.541  1.00  0.00     0.006 C 
ENDROOT
BRANCH   1   2
ATOM      2  C   UNL     1    -104.453 -85.582  39.305  1.00  0.00     0.053 C 
BRANCH   2   3
ATOM      3  C   UNL     1    -104.701 -86.343  38.040  1.00  0.00     0.041 C 
ATOM      4  O   UNL     1    -105.166 -85.756  37.028  1.00  0.00    -0.550 OA
ATOM      5  O   UNL     1    -104.389 -87.695  37.967  1.00  0.00    -0.550 OA
ENDBRANCH   2   3
ENDBRANCH   1   2
BRANCH   1   6
ATOM      6  C   UNL     1    -104.938 -83.085  39.472  1.00  0.00     0.000 C 
BRANCH   6   7
ATOM      7  C   UNL     1    -103.414 -83.108  39.630  1.00  0.00    -0.003 C 
ATOM      8  C   UNL     1    -102.902 -81.803  40.236  1.00  0.00     0.004 C 
ENDBRANCH   6   7
ENDBRANCH   1   6
TORSDOF 4
ENDMDL
MODEL 4
REMARK VINA RESULT:    -3.866      1.057      1.942
REMARK INTER + INTRA:          -4.856
REMARK INTER:                  -4.680
REMARK INTRA:                  -0.176
REMARK UNBOUND:                -0.086
REMARK SMILES CCCCCC(=O)[O-]
REMARK SMILES IDX 4 1 5 2 6 3 7 4 8 5 3 6 2 7 1 8
REMARK H PARENT
REMARK Flexibility Score: inf
ROOT
ATOM      1  C   UNL     1    -103.876 -86.136  38.564  1.00  0.00     0.006 C 
ENDROOT
BRANCH   1   2
ATOM      2  C   UNL     1    -104.734 -87.145  37.790  1.00  0.00     0.053 C 
BRANCH   2   3
ATOM      3  C   UNL     1    -105.180 -86.598  36.468  1.00  0.00     0.041 C 
ATOM      4  O   UNL     1    -104.938 -85.400  36.165  1.00  0.00    -0.550 OA
ATOM      5  O   UNL     1    -105.833 -87.420  35.558  1.00  0.00    -0.550 OA
ENDBRANCH   2   3
ENDBRANCH   1   2
BRANCH   1   6
ATOM      6  C   UNL     1    -104.575 -85.635  39.837  1.00  0.00     0.000 C 
BRANCH   6   7
ATOM      7  C   UNL     1    -105.495 -84.449  39.528  1.00  0.00    -0.003 C 
ATOM      8  C   UNL     1    -104.716 -83.137  39.508  1.00  0.00     0.004 C 
ENDBRANCH   6   7
ENDBRANCH   1   6
TORSDOF 4
ENDMDL
MODEL 5
REMARK VINA RESULT:    -3.825      3.739      4.869
REMARK INTER + INTRA:          -4.805
REMARK INTER:                  -4.588
REMARK INTRA:                  -0.217
REMARK UNBOUND:                -0.086
REMARK SMILES CCCCCC(=O)[O-]
REMARK SMILES IDX 4 1 5 2 6 3 7 4 8 5 3 6 2 7 1 8
REMARK H PARENT
REMARK Flexibility Score: inf
ROOT
ATOM      1  C   UNL     1    -105.127 -85.042  39.493  1.00  0.00     0.006 C 
ENDROOT
BRANCH   1   2
ATOM      2  C   UNL     1    -105.002 -83.512  39.502  1.00  0.00     0.053 C 
BRANCH   2   3
ATOM      3  C   UNL     1    -103.574 -83.070  39.398  1.00  0.00     0.041 C 
ATOM      4  O   UNL     1    -103.265 -82.096  38.662  1.00  0.00    -0.550 OA
ATOM      5  O   UNL     1    -102.591 -83.711  40.141  1.00  0.00    -0.550 OA
ENDBRANCH   2   3
ENDBRANCH   1   2
BRANCH   1   6
ATOM      6  C   UNL     1    -105.028 -85.626  38.076  1.00  0.00     0.000 C 
BRANCH   6   7
ATOM      7  C   UNL     1    -104.379 -87.014  38.099  1.00  0.00    -0.003 C 
ATOM      8  C   UNL     1    -103.246 -87.078  39.119  1.00  0.00     0.004 C 
ENDBRANCH   6   7
ENDBRANCH   1   6
TORSDOF 4
ENDMDL
MODEL 6
REMARK VINA RESULT:    -3.818      3.430      4.690
REMARK INTER + INTRA:          -4.796
REMARK INTER:                  -4.658
REMARK INTRA:                  -0.138
REMARK UNBOUND:                -0.086
REMARK SMILES CCCCCC(=O)[O-]
REMARK SMILES IDX 4 1 5 2 6 3 7 4 8 5 3 6 2 7 1 8
REMARK H PARENT
REMARK Flexibility Score: inf
ROOT
ATOM      1  C   UNL     1    -104.619 -85.612  39.851  1.00  0.00     0.006 C 
ENDROOT
BRANCH   1   2
ATOM      2  C   UNL     1    -105.490 -84.418  39.440  1.00  0.00     0.053 C 
BRANCH   2   3
ATOM      3  C   UNL     1    -104.729 -83.129  39.493  1.00  0.00     0.041 C 
ATOM      4  O   UNL     1    -103.525 -83.120  39.864  1.00  0.00    -0.550 OA
ATOM      5  O   UNL     1    -105.337 -81.944  39.101  1.00  0.00    -0.550 OA
ENDBRANCH   2   3
ENDBRANCH   1   2
BRANCH   1   6
ATOM      6  C   UNL     1    -104.030 -86.347  38.638  1.00  0.00     0.000 C 
BRANCH   6   7
ATOM      7  C   UNL     1    -104.993 -86.301  37.447  1.00  0.00    -0.003 C 
ATOM      8  C   UNL     1    -105.082 -87.659  36.756  1.00  0.00     0.004 C 
ENDBRANCH   6   7
ENDBRANCH   1   6
TORSDOF 4
ENDMDL
MODEL 7
REMARK VINA RESULT:    -3.754      3.107      4.609
REMARK INTER + INTRA:          -4.717
REMARK INTER:                  -4.618
REMARK INTRA:                  -0.100
REMARK UNBOUND:                -0.086
REMARK SMILES CCCCCC(=O)[O-]
REMARK SMILES IDX 4 1 5 2 6 3 7 4 8 5 3 6 2 7 1 8
REMARK H PARENT
REMARK Flexibility Score: inf
ROOT
ATOM      1  C   UNL     1    -105.034 -85.854  37.640  1.00  0.00     0.006 C 
ENDROOT
BRANCH   1   2
ATOM      2  C   UNL     1    -104.747 -85.670  39.136  1.00  0.00     0.053 C 
BRANCH   2   3
ATOM      3  C   UNL     1    -103.298 -85.396  39.395  1.00  0.00     0.041 C 
ATOM      4  O   UNL     1    -102.941 -84.300  39.902  1.00  0.00    -0.550 OA
ATOM      5  O   UNL     1    -102.343 -86.364  39.109  1.00  0.00    -0.550 OA
ENDBRANCH   2   3
ENDBRANCH   1   2
BRANCH   1   6
ATOM      6  C   UNL     1    -105.120 -87.335  37.242  1.00  0.00     0.000 C 
BRANCH   6   7
ATOM      7  C   UNL     1    -105.562 -87.486  35.782  1.00  0.00    -0.003 C 
ATOM      8  C   UNL     1    -105.396 -86.176  35.016  1.00  0.00     0.004 C 
ENDBRANCH   6   7
ENDBRANCH   1   6
TORSDOF 4
ENDMDL
MODEL 8
REMARK VINA RESULT:    -3.693      3.071      4.329
REMARK INTER + INTRA:          -4.643
REMARK INTER:                  -4.506
REMARK INTRA:                  -0.137
REMARK UNBOUND:                -0.086
REMARK SMILES CCCCCC(=O)[O-]
REMARK SMILES IDX 4 1 5 2 6 3 7 4 8 5 3 6 2 7 1 8
REMARK H PARENT
REMARK Flexibility Score: inf
ROOT
ATOM      1  C   UNL     1    -105.009 -87.451  37.530  1.00  0.00     0.006 C 
ENDROOT
BRANCH   1   2
ATOM      2  C   UNL     1    -104.847 -86.151  38.328  1.00  0.00     0.053 C 
BRANCH   2   3
ATOM      3  C   UNL     1    -103.617 -86.171  39.182  1.00  0.00     0.041 C 
ATOM      4  O   UNL     1    -102.942 -87.228  39.294  1.00  0.00    -0.550 OA
ATOM      5  O   UNL     1    -103.197 -85.015  39.827  1.00  0.00    -0.550 OA
ENDBRANCH   2   3
ENDBRANCH   1   2
BRANCH   1   6
ATOM      6  C   UNL     1    -105.223 -87.192  36.032  1.00  0.00     0.000 C 
BRANCH   6   7
ATOM      7  C   UNL     1    -105.123 -85.696  35.714  1.00  0.00    -0.003 C 
ATOM      8  C   UNL     1    -105.805 -85.367  34.389  1.00  0.00     0.004 C 
ENDBRANCH   6   7
ENDBRANCH   1   6
TORSDOF 4
ENDMDL
MODEL 9
REMARK VINA RESULT:    -3.549      2.091      2.791
REMARK INTER + INTRA:          -4.464
REMARK INTER:                  -4.268
REMARK INTRA:                  -0.196
REMARK UNBOUND:                -0.086
REMARK SMILES CCCCCC(=O)[O-]
REMARK SMILES IDX 4 1 5 2 6 3 7 4 8 5 3 6 2 7 1 8
REMARK H PARENT
REMARK Flexibility Score: inf
ROOT
ATOM      1  C   UNL     1    -102.782 -85.185  38.617  1.00  0.00     0.006 C 
ENDROOT
BRANCH   1   2
ATOM      2  C   UNL     1    -103.488 -86.533  38.817  1.00  0.00     0.053 C 
BRANCH   2   3
ATOM      3  C   UNL     1    -104.574 -86.747  37.808  1.00  0.00     0.041 C 
ATOM      4  O   UNL     1    -105.005 -87.908  37.579  1.00  0.00    -0.550 OA
ATOM      5  O   UNL     1    -105.134 -85.662  37.146  1.00  0.00    -0.550 OA
ENDBRANCH   2   3
ENDBRANCH   1   2
BRANCH   1   6
ATOM      6  C   UNL     1    -102.845 -84.304  39.873  1.00  0.00     0.000 C 
BRANCH   6   7
ATOM      7  C   UNL     1    -103.576 -82.988  39.584  1.00  0.00    -0.003 C 
ATOM      8  C   UNL     1    -105.088 -83.189  39.565  1.00  0.00     0.004 C 
ENDBRANCH   6   7
ENDBRANCH   1   6
TORSDOF 4
ENDMDL
