MODEL 1
REMARK VINA RESULT:    -2.866      0.000      0.000
REMARK INTER + INTRA:          -3.560
REMARK INTER:                  -4.207
REMARK INTRA:                   0.647
REMARK UNBOUND:                 0.647
REMARK SMILES C=C1CC=CC(C)(C)CC=C(C)CCC1
REMARK SMILES IDX 2 1 1 2 15 3 14 4 13 5 11 6 12 7 10 8 3 10 4 11 5 12 6 13
REMARK SMILES IDX 7 14 8 15 9 16
REMARK H PARENT
REMARK Flexibility Score: 60.00
ROOT
ATOM      1  C   UNL     1      51.590  34.721  29.077  1.00  0.00    -0.074 C 
ATOM      2  C   UNL     1      52.794  35.320  29.109  1.00  0.00     0.008 C 
ENDROOT
BRANCH   1   3
ATOM      3  C   UNL     1      51.040  34.219  27.752  1.00  0.00     0.031 C 
BRANCH   3   4
ATOM      4  C   UNL     1      51.877  33.092  27.128  1.00  0.00     0.009 C 
BRANCH   4   5
ATOM      5  C   UNL     1      51.037  32.023  26.401  1.00  0.00     0.030 C 
BRANCH   5   6
ATOM      6  C   UNL     1      50.979  30.740  27.212  1.00  0.00    -0.077 C 
ATOM      7  C   UNL     1      52.031  29.689  26.963  1.00  0.00     0.039 C 
ATOM      8  C   UNL     1      50.068  30.510  28.189  1.00  0.00    -0.027 CG0
ATOM      9  G   UNL     1      48.907  31.415  28.561  1.00  0.00     0.000 G0
ENDBRANCH   5   6
ENDBRANCH   4   5
ENDBRANCH   3   4
ENDBRANCH   1   3
BRANCH   1  10
ATOM     10  C   UNL     1      50.897  34.377  30.379  1.00  0.00     0.057 C 
BRANCH  10  11
ATOM     11  C   UNL     1      51.093  32.944  30.808  1.00  0.00    -0.026 C 
ATOM     12  C   UNL     1      50.246  31.895  30.674  1.00  0.00    -0.024 C 
BRANCH  12  13
ATOM     13  C   UNL     1      48.839  31.839  30.061  1.00  0.00    -0.014 C 
ATOM     14  C   UNL     1      48.103  33.193  30.183  1.00  0.00     0.016 C 
ATOM     15  C   UNL     1      48.011  30.807  30.871  1.00  0.00     0.016 C 
BRANCH  13  16
ATOM     16  C   UNL     1      48.881  31.410  28.566  1.00  0.00     0.038 CG0
ATOM     17  G   UNL     1      50.064  30.532  28.198  1.00  0.00     0.000 G0
ENDBRANCH  13  16
ENDBRANCH  12  13
ENDBRANCH  10  11
ENDBRANCH   1  10
TORSDOF 0
ENDMDL
MODEL 2
REMARK VINA RESULT:    -2.682      1.428      2.847
REMARK INTER + INTRA:          -3.289
REMARK INTER:                  -3.869
REMARK INTRA:                   0.579
REMARK UNBOUND:                 0.647
REMARK SMILES C=C1CC=CC(C)(C)CC=C(C)CCC1
REMARK SMILES IDX 2 1 1 2 15 3 14 4 13 5 11 6 12 7 10 8 3 10 4 11 5 12 6 13
REMARK SMILES IDX 7 14 8 15 9 16
REMARK H PARENT
REMARK Flexibility Score: 60.00
ROOT
ATOM      1  C   UNL     1      50.058  33.302  30.440  1.00  0.00    -0.074 C 
ATOM      2  C   UNL     1      51.165  34.048  30.600  1.00  0.00     0.008 C 
ENDROOT
BRANCH   1   3
ATOM      3  C   UNL     1      48.850  33.897  29.735  1.00  0.00     0.031 C 
BRANCH   3   4
ATOM      4  C   UNL     1      49.109  34.241  28.260  1.00  0.00     0.009 C 
BRANCH   4   5
ATOM      5  C   UNL     1      48.930  33.046  27.303  1.00  0.00     0.030 C 
BRANCH   5   6
ATOM      6  C   UNL     1      50.248  32.322  27.092  1.00  0.00    -0.077 C 
ATOM      7  C   UNL     1      51.480  33.145  26.813  1.00  0.00     0.039 C 
ATOM      8  C   UNL     1      50.390  30.978  27.198  1.00  0.00    -0.027 CG0
ATOM      9  G   UNL     1      49.274  29.975  27.427  1.00  0.00     0.000 G0
ENDBRANCH   5   6
ENDBRANCH   4   5
ENDBRANCH   3   4
ENDBRANCH   1   3
BRANCH   1  10
ATOM     10  C   UNL     1      50.102  31.826  30.779  1.00  0.00     0.057 C 
BRANCH  10  11
ATOM     11  C   UNL     1      48.768  31.134  30.644  1.00  0.00    -0.026 C 
ATOM     12  C   UNL     1      48.431  30.091  29.848  1.00  0.00    -0.024 C 
BRANCH  12  13
ATOM     13  C   UNL     1      49.285  29.304  28.843  1.00  0.00    -0.014 C 
ATOM     14  C   UNL     1      48.822  27.834  28.720  1.00  0.00     0.016 C 
ATOM     15  C   UNL     1      50.739  29.269  29.382  1.00  0.00     0.016 C 
BRANCH  13  16
ATOM     16  C   UNL     1      49.271  29.967  27.435  1.00  0.00     0.038 CG0
ATOM     17  G   UNL     1      50.383  30.975  27.205  1.00  0.00     0.000 G0
ENDBRANCH  13  16
ENDBRANCH  12  13
ENDBRANCH  10  11
ENDBRANCH   1  10
TORSDOF 0
ENDMDL
MODEL 3
REMARK VINA RESULT:    -2.675      1.276      3.929
REMARK INTER + INTRA:          -3.279
REMARK INTER:                  -3.739
REMARK INTRA:                   0.460
REMARK UNBOUND:                 0.647
REMARK SMILES C=C1CC=CC(C)(C)CC=C(C)CCC1
REMARK SMILES IDX 2 1 1 2 15 3 14 4 13 5 11 6 12 7 10 8 3 10 4 11 5 12 6 13
REMARK SMILES IDX 7 14 8 15 9 16
REMARK H PARENT
REMARK Flexibility Score: 60.00
ROOT
ATOM      1  C   UNL     1      50.015  33.540  30.070  1.00  0.00    -0.074 C 
ATOM      2  C   UNL     1      48.820  34.125  30.263  1.00  0.00     0.008 C 
ENDROOT
BRANCH   1   3
ATOM      3  C   UNL     1      50.380  32.303  30.874  1.00  0.00     0.031 C 
BRANCH   3   4
ATOM      4  C   UNL     1      49.468  31.098  30.594  1.00  0.00     0.009 C 
BRANCH   4   5
ATOM      5  C   UNL     1      50.133  29.998  29.744  1.00  0.00     0.030 C 
BRANCH   5   6
ATOM      6  C   UNL     1      49.502  29.928  28.364  1.00  0.00    -0.077 C 
ATOM      7  C   UNL     1      48.113  29.355  28.242  1.00  0.00     0.039 C 
ATOM      8  C   UNL     1      50.096  30.403  27.242  1.00  0.00    -0.027 CG0
ATOM      9  G   UNL     1      51.500  30.972  27.145  1.00  0.00     0.000 G0
ENDBRANCH   5   6
ENDBRANCH   4   5
ENDBRANCH   3   4
ENDBRANCH   1   3
BRANCH   1  10
ATOM     10  C   UNL     1      50.888  33.996  28.919  1.00  0.00     0.057 C 
BRANCH  10  11
ATOM     11  C   UNL     1      50.191  33.968  27.582  1.00  0.00    -0.026 C 
ATOM     12  C   UNL     1      50.502  33.245  26.479  1.00  0.00    -0.024 C 
BRANCH  12  13
ATOM     13  C   UNL     1      51.649  32.251  26.245  1.00  0.00    -0.014 C 
ATOM     14  C   UNL     1      53.032  32.898  26.494  1.00  0.00     0.016 C 
ATOM     15  C   UNL     1      51.616  31.833  24.752  1.00  0.00     0.016 C 
BRANCH  13  16
ATOM     16  C   UNL     1      51.505  30.987  27.140  1.00  0.00     0.038 CG0
ATOM     17  G   UNL     1      50.093  30.433  27.221  1.00  0.00     0.000 G0
ENDBRANCH  13  16
ENDBRANCH  12  13
ENDBRANCH  10  11
ENDBRANCH   1  10
TORSDOF 0
ENDMDL
MODEL 4
REMARK VINA RESULT:    -2.622      1.489      4.464
REMARK INTER + INTRA:          -3.201
REMARK INTER:                  -3.793
REMARK INTRA:                   0.592
REMARK UNBOUND:                 0.647
REMARK SMILES C=C1CC=CC(C)(C)CC=C(C)CCC1
REMARK SMILES IDX 2 1 1 2 15 3 14 4 13 5 11 6 12 7 10 8 3 10 4 11 5 12 6 13
REMARK SMILES IDX 7 14 8 15 9 16
REMARK H PARENT
REMARK Flexibility Score: 60.00
ROOT
ATOM      1  C   UNL     1      49.148  30.824  30.185  1.00  0.00    -0.074 C 
ATOM      2  C   UNL     1      48.042  31.011  30.926  1.00  0.00     0.008 C 
ENDROOT
BRANCH   1   3
ATOM      3  C   UNL     1      50.439  31.521  30.581  1.00  0.00     0.031 C 
BRANCH   3   4
ATOM      4  C   UNL     1      50.311  33.051  30.658  1.00  0.00     0.009 C 
BRANCH   4   5
ATOM      5  C   UNL     1      50.663  33.771  29.342  1.00  0.00     0.030 C 
BRANCH   5   6
ATOM      6  C   UNL     1      49.625  33.479  28.273  1.00  0.00    -0.077 C 
ATOM      7  C   UNL     1      48.257  34.098  28.416  1.00  0.00     0.039 C 
ATOM      8  C   UNL     1      49.875  32.737  27.166  1.00  0.00    -0.027 CG0
ATOM      9  G   UNL     1      51.163  31.994  26.860  1.00  0.00     0.000 G0
ENDBRANCH   5   6
ENDBRANCH   4   5
ENDBRANCH   3   4
ENDBRANCH   1   3
BRANCH   1  10
ATOM     10  C   UNL     1      49.144  29.771  29.097  1.00  0.00     0.057 C 
BRANCH  10  11
ATOM     11  C   UNL     1      50.519  29.263  28.741  1.00  0.00    -0.026 C 
ATOM     12  C   UNL     1      51.281  29.565  27.662  1.00  0.00    -0.024 C 
BRANCH  12  13
ATOM     13  C   UNL     1      50.985  30.497  26.478  1.00  0.00    -0.014 C 
ATOM     14  C   UNL     1      49.560  30.282  25.917  1.00  0.00     0.016 C 
ATOM     15  C   UNL     1      51.972  30.138  25.336  1.00  0.00     0.016 C 
BRANCH  13  16
ATOM     16  C   UNL     1      51.165  31.993  26.866  1.00  0.00     0.038 CG0
ATOM     17  G   UNL     1      49.867  32.727  27.150  1.00  0.00     0.000 G0
ENDBRANCH  13  16
ENDBRANCH  12  13
ENDBRANCH  10  11
ENDBRANCH   1  10
TORSDOF 0
ENDMDL
MODEL 5
REMARK VINA RESULT:    -2.480      0.993      3.562
REMARK INTER + INTRA:          -2.993
REMARK INTER:                  -3.775
REMARK INTRA:                   0.782
REMARK UNBOUND:                 0.647
REMARK SMILES C=C1CC=CC(C)(C)CC=C(C)CCC1
REMARK SMILES IDX 2 1 1 2 15 3 14 4 13 5 11 6 12 7 10 8 3 10 4 11 5 12 6 13
REMARK SMILES IDX 7 14 8 15 9 16
REMARK H PARENT
REMARK Flexibility Score: 60.00
ROOT
ATOM      1  C   UNL     1      51.552  34.577  28.726  1.00  0.00    -0.074 C 
ATOM      2  C   UNL     1      52.491  35.463  28.348  1.00  0.00     0.008 C 
ENDROOT
BRANCH   1   3
ATOM      3  C   UNL     1      51.332  34.308  30.205  1.00  0.00     0.031 C 
BRANCH   3   4
ATOM      4  C   UNL     1      50.060  33.498  30.499  1.00  0.00     0.009 C 
BRANCH   4   5
ATOM      5  C   UNL     1      50.313  31.990  30.689  1.00  0.00     0.030 C 
BRANCH   5   6
ATOM      6  C   UNL     1      49.145  31.176  30.159  1.00  0.00    -0.077 C 
ATOM      7  C   UNL     1      47.897  31.084  31.000  1.00  0.00     0.039 C 
ATOM      8  C   UNL     1      49.140  30.573  28.945  1.00  0.00    -0.027 CG0
ATOM      9  G   UNL     1      50.305  30.509  27.973  1.00  0.00     0.000 G0
ENDBRANCH   5   6
ENDBRANCH   4   5
ENDBRANCH   3   4
ENDBRANCH   1   3
BRANCH   1  10
ATOM     10  C   UNL     1      50.598  34.019  27.691  1.00  0.00     0.057 C 
BRANCH  10  11
ATOM     11  C   UNL     1      51.287  33.290  26.564  1.00  0.00    -0.026 C 
ATOM     12  C   UNL     1      51.042  32.047  26.084  1.00  0.00    -0.024 C 
BRANCH  12  13
ATOM     13  C   UNL     1      50.010  31.003  26.536  1.00  0.00    -0.014 C 
ATOM     14  C   UNL     1      49.944  29.801  25.565  1.00  0.00     0.016 C 
ATOM     15  C   UNL     1      48.613  31.675  26.508  1.00  0.00     0.016 C 
BRANCH  13  16
ATOM     16  C   UNL     1      50.308  30.487  27.973  1.00  0.00     0.038 CG0
ATOM     17  G   UNL     1      49.135  30.588  28.932  1.00  0.00     0.000 G0
ENDBRANCH  13  16
ENDBRANCH  12  13
ENDBRANCH  10  11
ENDBRANCH   1  10
TORSDOF 0
ENDMDL
MODEL 6
REMARK VINA RESULT:    -2.435      1.768      3.813
REMARK INTER + INTRA:          -2.927
REMARK INTER:                  -3.540
REMARK INTRA:                   0.612
REMARK UNBOUND:                 0.647
REMARK SMILES C=C1CC=CC(C)(C)CC=C(C)CCC1
REMARK SMILES IDX 2 1 1 2 15 3 14 4 13 5 11 6 12 7 10 8 3 10 4 11 5 12 6 13
REMARK SMILES IDX 7 14 8 15 9 16
REMARK H PARENT
REMARK Flexibility Score: 60.00
ROOT
ATOM      1  C   UNL     1      50.746  33.377  29.744  1.00  0.00    -0.074 C 
ATOM      2  C   UNL     1      51.220  34.275  30.626  1.00  0.00     0.008 C 
ENDROOT
BRANCH   1   3
ATOM      3  C   UNL     1      50.500  31.946  30.194  1.00  0.00     0.031 C 
BRANCH   3   4
ATOM      4  C   UNL     1      49.159  31.753  30.919  1.00  0.00     0.009 C 
BRANCH   4   5
ATOM      5  C   UNL     1      47.949  31.645  29.970  1.00  0.00     0.030 C 
BRANCH   5   6
ATOM      6  C   UNL     1      48.201  30.607  28.891  1.00  0.00    -0.077 C 
ATOM      7  C   UNL     1      48.491  29.189  29.315  1.00  0.00     0.039 C 
ATOM      8  C   UNL     1      48.125  30.871  27.563  1.00  0.00    -0.027 CG0
ATOM      9  G   UNL     1      47.892  32.233  26.934  1.00  0.00     0.000 G0
ENDBRANCH   5   6
ENDBRANCH   4   5
ENDBRANCH   3   4
ENDBRANCH   1   3
BRANCH   1  10
ATOM     10  C   UNL     1      50.277  33.848  28.383  1.00  0.00     0.057 C 
BRANCH  10  11
ATOM     11  C   UNL     1      50.896  33.091  27.234  1.00  0.00    -0.026 C 
ATOM     12  C   UNL     1      50.292  32.577  26.136  1.00  0.00    -0.024 C 
BRANCH  12  13
ATOM     13  C   UNL     1      48.812  32.594  25.726  1.00  0.00    -0.014 C 
ATOM     14  C   UNL     1      48.524  31.617  24.564  1.00  0.00     0.016 C 
ATOM     15  C   UNL     1      48.482  34.017  25.205  1.00  0.00     0.016 C 
BRANCH  13  16
ATOM     16  C   UNL     1      47.881  32.254  26.926  1.00  0.00     0.038 CG0
ATOM     17  G   UNL     1      48.128  30.890  27.545  1.00  0.00     0.000 G0
ENDBRANCH  13  16
ENDBRANCH  12  13
ENDBRANCH  10  11
ENDBRANCH   1  10
TORSDOF 0
ENDMDL
MODEL 7
REMARK VINA RESULT:    -2.381      1.610      3.689
REMARK INTER + INTRA:          -2.847
REMARK INTER:                  -3.600
REMARK INTRA:                   0.753
REMARK UNBOUND:                 0.647
REMARK SMILES C=C1CC=CC(C)(C)CC=C(C)CCC1
REMARK SMILES IDX 2 1 1 2 15 3 14 4 13 5 11 6 12 7 10 8 3 10 4 11 5 12 6 13
REMARK SMILES IDX 7 14 8 15 9 16
REMARK H PARENT
REMARK Flexibility Score: 60.00
ROOT
ATOM      1  C   UNL     1      48.758  29.258  28.627  1.00  0.00    -0.074 C 
ATOM      2  C   UNL     1      48.225  28.084  29.009  1.00  0.00     0.008 C 
ENDROOT
BRANCH   1   3
ATOM      3  C   UNL     1      49.328  29.400  27.226  1.00  0.00     0.031 C 
BRANCH   3   4
ATOM      4  C   UNL     1      48.942  30.718  26.537  1.00  0.00     0.009 C 
BRANCH   4   5
ATOM      5  C   UNL     1      50.094  31.366  25.744  1.00  0.00     0.030 C 
BRANCH   5   6
ATOM      6  C   UNL     1      51.324  31.535  26.620  1.00  0.00    -0.077 C 
ATOM      7  C   UNL     1      52.570  30.766  26.260  1.00  0.00     0.039 C 
ATOM      8  C   UNL     1      51.382  32.383  27.676  1.00  0.00    -0.027 CG0
ATOM      9  G   UNL     1      50.231  33.207  28.226  1.00  0.00     0.000 G0
ENDBRANCH   5   6
ENDBRANCH   4   5
ENDBRANCH   3   4
ENDBRANCH   1   3
BRANCH   1  10
ATOM     10  C   UNL     1      48.600  30.471  29.521  1.00  0.00     0.057 C 
BRANCH  10  11
ATOM     11  C   UNL     1      49.827  30.782  30.342  1.00  0.00    -0.026 C 
ATOM     12  C   UNL     1      50.490  31.957  30.462  1.00  0.00    -0.024 C 
BRANCH  12  13
ATOM     13  C   UNL     1      50.211  33.317  29.805  1.00  0.00    -0.014 C 
ATOM     14  C   UNL     1      51.218  34.396  30.265  1.00  0.00     0.016 C 
ATOM     15  C   UNL     1      48.809  33.789  30.270  1.00  0.00     0.016 C 
BRANCH  13  16
ATOM     16  C   UNL     1      50.235  33.219  28.252  1.00  0.00     0.038 CG0
ATOM     17  G   UNL     1      51.376  32.387  27.693  1.00  0.00     0.000 G0
ENDBRANCH  13  16
ENDBRANCH  12  13
ENDBRANCH  10  11
ENDBRANCH   1  10
TORSDOF 0
ENDMDL
MODEL 8
REMARK VINA RESULT:    -2.330      1.504      4.006
REMARK INTER + INTRA:          -2.772
REMARK INTER:                  -3.284
REMARK INTRA:                   0.512
REMARK UNBOUND:                 0.647
REMARK SMILES C=C1CC=CC(C)(C)CC=C(C)CCC1
REMARK SMILES IDX 2 1 1 2 15 3 14 4 13 5 11 6 12 7 10 8 3 10 4 11 5 12 6 13
REMARK SMILES IDX 7 14 8 15 9 16
REMARK H PARENT
REMARK Flexibility Score: 60.00
ROOT
ATOM      1  C   UNL     1      49.271  34.018  27.378  1.00  0.00    -0.074 C 
ATOM      2  C   UNL     1      48.334  34.882  26.950  1.00  0.00     0.008 C 
ENDROOT
BRANCH   1   3
ATOM      3  C   UNL     1      49.646  33.993  28.850  1.00  0.00     0.031 C 
BRANCH   3   4
ATOM      4  C   UNL     1      48.530  33.455  29.759  1.00  0.00     0.009 C 
BRANCH   4   5
ATOM      5  C   UNL     1      48.491  31.916  29.852  1.00  0.00     0.030 C 
BRANCH   5   6
ATOM      6  C   UNL     1      49.866  31.361  30.182  1.00  0.00    -0.077 C 
ATOM      7  C   UNL     1      50.525  31.800  31.465  1.00  0.00     0.039 C 
ATOM      8  C   UNL     1      50.511  30.448  29.415  1.00  0.00    -0.027 CG0
ATOM      9  G   UNL     1      50.041  29.916  28.072  1.00  0.00     0.000 G0
ENDBRANCH   5   6
ENDBRANCH   4   5
ENDBRANCH   3   4
ENDBRANCH   1   3
BRANCH   1  10
ATOM     10  C   UNL     1      49.787  32.953  26.433  1.00  0.00     0.057 C 
BRANCH  10  11
ATOM     11  C   UNL     1      51.233  32.589  26.662  1.00  0.00    -0.026 C 
ATOM     12  C   UNL     1      51.777  31.365  26.866  1.00  0.00    -0.024 C 
BRANCH  12  13
ATOM     13  C   UNL     1      51.102  29.987  26.935  1.00  0.00    -0.014 C 
ATOM     14  C   UNL     1      52.131  28.851  27.136  1.00  0.00     0.016 C 
ATOM     15  C   UNL     1      50.414  29.729  25.569  1.00  0.00     0.016 C 
BRANCH  13  16
ATOM     16  C   UNL     1      50.039  29.925  28.070  1.00  0.00     0.038 CG0
ATOM     17  G   UNL     1      50.522  30.450  29.411  1.00  0.00     0.000 G0
ENDBRANCH  13  16
ENDBRANCH  12  13
ENDBRANCH  10  11
ENDBRANCH   1  10
TORSDOF 0
ENDMDL
MODEL 9
REMARK VINA RESULT:    -2.310      1.455      3.377
REMARK INTER + INTRA:          -2.744
REMARK INTER:                  -3.159
REMARK INTRA:                   0.415
REMARK UNBOUND:                 0.647
REMARK SMILES C=C1CC=CC(C)(C)CC=C(C)CCC1
REMARK SMILES IDX 2 1 1 2 15 3 14 4 13 5 11 6 12 7 10 8 3 10 4 11 5 12 6 13
REMARK SMILES IDX 7 14 8 15 9 16
REMARK H PARENT
REMARK Flexibility Score: 60.00
ROOT
ATOM      1  C   UNL     1      52.241  31.233  26.134  1.00  0.00    -0.074 C 
ATOM      2  C   UNL     1      53.500  30.974  25.738  1.00  0.00     0.008 C 
ENDROOT
BRANCH   1   3
ATOM      3  C   UNL     1      51.136  30.244  25.802  1.00  0.00     0.031 C 
BRANCH   3   4
ATOM      4  C   UNL     1      51.223  28.936  26.604  1.00  0.00     0.009 C 
BRANCH   4   5
ATOM      5  C   UNL     1      51.035  29.124  28.123  1.00  0.00     0.030 C 
BRANCH   5   6
ATOM      6  C   UNL     1      49.593  29.473  28.449  1.00  0.00    -0.077 C 
ATOM      7  C   UNL     1      48.504  28.564  27.938  1.00  0.00     0.039 C 
ATOM      8  C   UNL     1      49.233  30.527  29.222  1.00  0.00    -0.027 CG0
ATOM      9  G   UNL     1      50.167  31.580  29.791  1.00  0.00     0.000 G0
ENDBRANCH   5   6
ENDBRANCH   4   5
ENDBRANCH   3   4
ENDBRANCH   1   3
BRANCH   1  10
ATOM     10  C   UNL     1      51.981  32.394  27.071  1.00  0.00     0.057 C 
BRANCH  10  11
ATOM     11  C   UNL     1      50.593  32.972  26.947  1.00  0.00    -0.026 C 
ATOM     12  C   UNL     1      49.698  33.245  27.926  1.00  0.00    -0.024 C 
BRANCH  12  13
ATOM     13  C   UNL     1      49.809  33.045  29.445  1.00  0.00    -0.014 C 
ATOM     14  C   UNL     1      48.510  33.455  30.176  1.00  0.00     0.016 C 
ATOM     15  C   UNL     1      50.928  33.985  29.965  1.00  0.00     0.016 C 
BRANCH  13  16
ATOM     16  C   UNL     1      50.160  31.573  29.806  1.00  0.00     0.038 CG0
ATOM     17  G   UNL     1      49.218  30.540  29.213  1.00  0.00     0.000 G0
ENDBRANCH  13  16
ENDBRANCH  12  13
ENDBRANCH  10  11
ENDBRANCH   1  10
TORSDOF 0
ENDMDL
