MODEL 1
REMARK VINA RESULT:    -5.033      0.000      0.000
REMARK INTER + INTRA:          -7.946
REMARK INTER:                  -7.387
REMARK INTRA:                  -0.559
REMARK UNBOUND:                -0.559
REMARK SMILES C=C1C=C[C@@H](C(C)C)CCC(C)=CCC1
REMARK SMILES IDX 3 1 4 2 5 3 9 4 10 5 11 6 12 7 13 8 6 10 7 11 8 12 2 13 1 14
REMARK SMILES IDX 15 15 14 16
REMARK H PARENT
REMARK Flexibility Score: 70.00
ROOT
ATOM      1  C   UNL     1     112.506 109.844 111.339  1.00  0.00    -0.001 C 
ATOM      2  C   UNL     1     111.246 109.687 110.909  1.00  0.00    -0.023 C 
ENDROOT
BRANCH   2   3
ATOM      3  C   UNL     1     110.151 110.720 111.085  1.00  0.00     0.014 C 
BRANCH   3   4
ATOM      4  C   UNL     1     109.174 110.332 112.236  1.00  0.00     0.012 C 
BRANCH   4   5
ATOM      5  C   UNL     1     109.136 111.371 113.380  1.00  0.00     0.031 C 
BRANCH   5   6
ATOM      6  C   UNL     1     109.734 110.828 114.670  1.00  0.00    -0.077 C 
ATOM      7  C   UNL     1     108.882 109.937 115.538  1.00  0.00     0.039 C 
ATOM      8  C   UNL     1     110.999 111.085 115.080  1.00  0.00    -0.028 CG0
ATOM      9  G   UNL     1     112.017 111.903 114.323  1.00  0.00     0.000 G0
ENDBRANCH   5   6
ENDBRANCH   4   5
ENDBRANCH   3   4
BRANCH   3  10
ATOM     10  C   UNL     1     109.389 111.044 109.760  1.00  0.00    -0.010 C 
ATOM     11  C   UNL     1     109.715 110.096 108.588  1.00  0.00     0.008 C 
ATOM     12  C   UNL     1     109.617 112.502 109.329  1.00  0.00     0.008 C 
ENDBRANCH   3  10
ENDBRANCH   2   3
BRANCH   1  13
ATOM     13  C   UNL     1     113.013 111.029 112.066  1.00  0.00    -0.055 C 
ATOM     14  C   UNL     1     113.158 112.171 111.385  1.00  0.00     0.012 C 
BRANCH  13  15
ATOM     15  C   UNL     1     113.098 111.040 113.581  1.00  0.00     0.039 C 
BRANCH  15  16
ATOM     16  C   UNL     1     112.037 111.890 114.320  1.00  0.00     0.032 CG0
ATOM     17  G   UNL     1     111.006 111.085 115.072  1.00  0.00     0.000 G0
ENDBRANCH  15  16
ENDBRANCH  13  15
ENDBRANCH   1  13
TORSDOF 1
ENDMDL
MODEL 2
REMARK VINA RESULT:    -4.964      2.032      3.111
REMARK INTER + INTRA:          -7.845
REMARK INTER:                  -7.212
REMARK INTRA:                  -0.632
REMARK UNBOUND:                -0.559
REMARK SMILES C=C1C=C[C@@H](C(C)C)CCC(C)=CCC1
REMARK SMILES IDX 3 1 4 2 5 3 9 4 10 5 11 6 12 7 13 8 6 10 7 11 8 12 2 13 1 14
REMARK SMILES IDX 15 15 14 16
REMARK H PARENT
REMARK Flexibility Score: 70.00
ROOT
ATOM      1  C   UNL     1     112.276 110.147 114.244  1.00  0.00    -0.001 C 
ATOM      2  C   UNL     1     110.962 109.881 114.250  1.00  0.00    -0.023 C 
ENDROOT
BRANCH   2   3
ATOM      3  C   UNL     1     109.883 110.925 114.452  1.00  0.00     0.014 C 
BRANCH   3   4
ATOM      4  C   UNL     1     108.948 110.562 115.645  1.00  0.00     0.012 C 
BRANCH   4   5
ATOM      5  C   UNL     1     109.717 110.146 116.919  1.00  0.00     0.031 C 
BRANCH   5   6
ATOM      6  C   UNL     1     110.199 111.347 117.718  1.00  0.00    -0.077 C 
ATOM      7  C   UNL     1     109.197 112.107 118.550  1.00  0.00     0.039 C 
ATOM      8  C   UNL     1     111.486 111.770 117.740  1.00  0.00    -0.028 CG0
ATOM      9  G   UNL     1     112.637 111.110 117.021  1.00  0.00     0.000 G0
ENDBRANCH   5   6
ENDBRANCH   4   5
ENDBRANCH   3   4
BRANCH   3  10
ATOM     10  C   UNL     1     109.073 111.235 113.151  1.00  0.00    -0.010 C 
ATOM     11  C   UNL     1     109.420 110.329 111.952  1.00  0.00     0.008 C 
ATOM     12  C   UNL     1     109.215 112.711 112.746  1.00  0.00     0.008 C 
ENDBRANCH   3  10
ENDBRANCH   2   3
BRANCH   1  13
ATOM     13  C   UNL     1     112.871 111.487 114.455  1.00  0.00    -0.055 C 
ATOM     14  C   UNL     1     112.875 112.342 113.428  1.00  0.00     0.012 C 
BRANCH  13  15
ATOM     15  C   UNL     1     113.208 111.981 115.850  1.00  0.00     0.039 C 
BRANCH  15  16
ATOM     16  C   UNL     1     112.650 111.143 117.025  1.00  0.00     0.032 CG0
ATOM     17  G   UNL     1     111.486 111.776 117.746  1.00  0.00     0.000 G0
ENDBRANCH  15  16
ENDBRANCH  13  15
ENDBRANCH   1  13
TORSDOF 1
ENDMDL
MODEL 3
REMARK VINA RESULT:    -4.933      1.671      3.536
REMARK INTER + INTRA:          -7.799
REMARK INTER:                  -7.253
REMARK INTRA:                  -0.545
REMARK UNBOUND:                -0.559
REMARK SMILES C=C1C=C[C@@H](C(C)C)CCC(C)=CCC1
REMARK SMILES IDX 3 1 4 2 5 3 9 4 10 5 11 6 12 7 13 8 6 10 7 11 8 12 2 13 1 14
REMARK SMILES IDX 15 15 14 16
REMARK H PARENT
REMARK Flexibility Score: 70.00
ROOT
ATOM      1  C   UNL     1     109.529 111.919 110.089  1.00  0.00    -0.001 C 
ATOM      2  C   UNL     1     110.776 112.219 109.700  1.00  0.00    -0.023 C 
ENDROOT
BRANCH   2   3
ATOM      3  C   UNL     1     112.012 111.467 110.150  1.00  0.00     0.014 C 
BRANCH   3   4
ATOM      4  C   UNL     1     112.737 112.198 111.321  1.00  0.00     0.012 C 
BRANCH   4   5
ATOM      5  C   UNL     1     113.010 111.283 112.536  1.00  0.00     0.031 C 
BRANCH   5   6
ATOM      6  C   UNL     1     112.295 111.764 113.789  1.00  0.00    -0.077 C 
ATOM      7  C   UNL     1     112.987 112.772 114.671  1.00  0.00     0.039 C 
ATOM      8  C   UNL     1     111.058 111.350 114.156  1.00  0.00    -0.028 CG0
ATOM      9  G   UNL     1     110.187 110.394 113.379  1.00  0.00     0.000 G0
ENDBRANCH   5   6
ENDBRANCH   4   5
ENDBRANCH   3   4
BRANCH   3  10
ATOM     10  C   UNL     1     112.992 111.132 108.979  1.00  0.00    -0.010 C 
ATOM     11  C   UNL     1     112.721 111.914 107.677  1.00  0.00     0.008 C 
ATOM     12  C   UNL     1     113.012 109.624 108.684  1.00  0.00     0.008 C 
ENDBRANCH   3  10
ENDBRANCH   2   3
BRANCH   1  13
ATOM     13  C   UNL     1     109.171 110.831 111.027  1.00  0.00    -0.055 C 
ATOM     14  C   UNL     1     109.158 109.578 110.562  1.00  0.00     0.012 C 
BRANCH  13  15
ATOM     15  C   UNL     1     109.098 111.081 112.522  1.00  0.00     0.039 C 
BRANCH  15  16
ATOM     16  C   UNL     1     110.188 110.398 113.383  1.00  0.00     0.032 CG0
ATOM     17  G   UNL     1     111.065 111.353 114.154  1.00  0.00     0.000 G0
ENDBRANCH  15  16
ENDBRANCH  13  15
ENDBRANCH   1  13
TORSDOF 1
ENDMDL
MODEL 4
REMARK VINA RESULT:    -4.888      3.423      5.048
REMARK INTER + INTRA:          -7.733
REMARK INTER:                  -7.163
REMARK INTRA:                  -0.570
REMARK UNBOUND:                -0.559
REMARK SMILES C=C1C=C[C@@H](C(C)C)CCC(C)=CCC1
REMARK SMILES IDX 3 1 4 2 5 3 9 4 10 5 11 6 12 7 13 8 6 10 7 11 8 12 2 13 1 14
REMARK SMILES IDX 15 15 14 16
REMARK H PARENT
REMARK Flexibility Score: 70.00
ROOT
ATOM      1  C   UNL     1     112.431 109.991 106.319  1.00  0.00    -0.001 C 
ATOM      2  C   UNL     1     111.153 109.773 105.981  1.00  0.00    -0.023 C 
ENDROOT
BRANCH   2   3
ATOM      3  C   UNL     1     110.047 110.799 106.124  1.00  0.00     0.014 C 
BRANCH   3   4
ATOM      4  C   UNL     1     109.095 110.459 107.311  1.00  0.00     0.012 C 
BRANCH   4   5
ATOM      5  C   UNL     1     109.137 111.506 108.447  1.00  0.00     0.031 C 
BRANCH   5   6
ATOM      6  C   UNL     1     109.860 110.987 109.680  1.00  0.00    -0.077 C 
ATOM      7  C   UNL     1     109.125 110.050 110.604  1.00  0.00     0.039 C 
ATOM      8  C   UNL     1     111.139 111.305 109.993  1.00  0.00    -0.028 CG0
ATOM      9  G   UNL     1     112.052 112.178 109.167  1.00  0.00     0.000 G0
ENDBRANCH   5   6
ENDBRANCH   4   5
ENDBRANCH   3   4
BRANCH   3  10
ATOM     10  C   UNL     1     109.258 111.045 104.798  1.00  0.00    -0.010 C 
ATOM     11  C   UNL     1     109.537 110.011 103.688  1.00  0.00     0.008 C 
ATOM     12  C   UNL     1     109.502 112.464 104.260  1.00  0.00     0.008 C 
ENDBRANCH   3  10
ENDBRANCH   2   3
BRANCH   1  13
ATOM     13  C   UNL     1     112.952 111.249 106.901  1.00  0.00    -0.055 C 
ATOM     14  C   UNL     1     113.000 112.332 106.119  1.00  0.00     0.012 C 
BRANCH  13  15
ATOM     15  C   UNL     1     113.160 111.391 108.398  1.00  0.00     0.039 C 
BRANCH  15  16
ATOM     16  C   UNL     1     112.071 112.177 109.167  1.00  0.00     0.032 CG0
ATOM     17  G   UNL     1     111.149 111.317 109.997  1.00  0.00     0.000 G0
ENDBRANCH  15  16
ENDBRANCH  13  15
ENDBRANCH   1  13
TORSDOF 1
ENDMDL
MODEL 5
REMARK VINA RESULT:    -4.857      2.239      4.349
REMARK INTER + INTRA:          -7.688
REMARK INTER:                  -7.089
REMARK INTRA:                  -0.599
REMARK UNBOUND:                -0.559
REMARK SMILES C=C1C=C[C@@H](C(C)C)CCC(C)=CCC1
REMARK SMILES IDX 3 1 4 2 5 3 9 4 10 5 11 6 12 7 13 8 6 10 7 11 8 12 2 13 1 14
REMARK SMILES IDX 15 15 14 16
REMARK H PARENT
REMARK Flexibility Score: 70.00
ROOT
ATOM      1  C   UNL     1     110.096 112.267 113.940  1.00  0.00    -0.001 C 
ATOM      2  C   UNL     1     111.420 112.432 114.068  1.00  0.00    -0.023 C 
ENDROOT
BRANCH   2   3
ATOM      3  C   UNL     1     112.399 111.303 114.320  1.00  0.00     0.014 C 
BRANCH   3   4
ATOM      4  C   UNL     1     113.265 111.564 115.589  1.00  0.00     0.012 C 
BRANCH   4   5
ATOM      5  C   UNL     1     112.447 112.091 116.789  1.00  0.00     0.031 C 
BRANCH   5   6
ATOM      6  C   UNL     1     111.851 110.962 117.618  1.00  0.00    -0.077 C 
ATOM      7  C   UNL     1     112.736 110.254 118.611  1.00  0.00     0.039 C 
ATOM      8  C   UNL     1     110.559 110.563 117.527  1.00  0.00    -0.028 CG0
ATOM      9  G   UNL     1     109.510 111.184 116.638  1.00  0.00     0.000 G0
ENDBRANCH   5   6
ENDBRANCH   4   5
ENDBRANCH   3   4
BRANCH   3  10
ATOM     10  C   UNL     1     113.279 110.960 113.075  1.00  0.00    -0.010 C 
ATOM     11  C   UNL     1     112.945 111.780 111.811  1.00  0.00     0.008 C 
ATOM     12  C   UNL     1     113.224 109.459 112.750  1.00  0.00     0.008 C 
ENDBRANCH   3  10
ENDBRANCH   2   3
BRANCH   1  13
ATOM     13  C   UNL     1     109.388 110.970 114.047  1.00  0.00    -0.055 C 
ATOM     14  C   UNL     1     109.220 110.253 112.932  1.00  0.00     0.012 C 
BRANCH  13  15
ATOM     15  C   UNL     1     109.113 110.339 115.399  1.00  0.00     0.039 C 
BRANCH  15  16
ATOM     16  C   UNL     1     109.496 111.184 116.638  1.00  0.00     0.032 CG0
ATOM     17  G   UNL     1     110.552 110.560 117.517  1.00  0.00     0.000 G0
ENDBRANCH  15  16
ENDBRANCH  13  15
ENDBRANCH   1  13
TORSDOF 1
ENDMDL
MODEL 6
REMARK VINA RESULT:    -4.802      3.034      5.959
REMARK INTER + INTRA:          -7.606
REMARK INTER:                  -6.971
REMARK INTRA:                  -0.634
REMARK UNBOUND:                -0.559
REMARK SMILES C=C1C=C[C@@H](C(C)C)CCC(C)=CCC1
REMARK SMILES IDX 3 1 4 2 5 3 9 4 10 5 11 6 12 7 13 8 6 10 7 11 8 12 2 13 1 14
REMARK SMILES IDX 15 15 14 16
REMARK H PARENT
REMARK Flexibility Score: 70.00
ROOT
ATOM      1  C   UNL     1     110.169 109.267 110.510  1.00  0.00    -0.001 C 
ATOM      2  C   UNL     1     111.510 109.284 110.507  1.00  0.00    -0.023 C 
ENDROOT
BRANCH   2   3
ATOM      3  C   UNL     1     112.346 110.547 110.539  1.00  0.00     0.014 C 
BRANCH   3   4
ATOM      4  C   UNL     1     113.296 110.641 109.308  1.00  0.00     0.012 C 
BRANCH   4   5
ATOM      5  C   UNL     1     112.645 110.147 107.996  1.00  0.00     0.031 C 
BRANCH   5   6
ATOM      6  C   UNL     1     111.969 111.274 107.230  1.00  0.00    -0.077 C 
ATOM      7  C   UNL     1     112.826 112.198 106.403  1.00  0.00     0.039 C 
ATOM      8  C   UNL     1     110.631 111.489 107.234  1.00  0.00    -0.028 CG0
ATOM      9  G   UNL     1     109.609 110.642 107.951  1.00  0.00     0.000 G0
ENDBRANCH   5   6
ENDBRANCH   4   5
ENDBRANCH   3   4
BRANCH   3  10
ATOM     10  C   UNL     1     113.116 110.743 111.885  1.00  0.00    -0.010 C 
ATOM     11  C   UNL     1     112.929 109.597 112.901  1.00  0.00     0.008 C 
ATOM     12  C   UNL     1     112.755 112.085 112.543  1.00  0.00     0.008 C 
ENDBRANCH   3  10
ENDBRANCH   2   3
BRANCH   1  13
ATOM     13  C   UNL     1     109.305 110.470 110.522  1.00  0.00    -0.055 C 
ATOM     14  C   UNL     1     108.953 110.979 111.707  1.00  0.00     0.012 C 
BRANCH  13  15
ATOM     15  C   UNL     1     109.059 111.268 109.256  1.00  0.00     0.039 C 
BRANCH  15  16
ATOM     16  C   UNL     1     109.594 110.648 107.942  1.00  0.00     0.032 CG0
ATOM     17  G   UNL     1     110.628 111.487 107.232  1.00  0.00     0.000 G0
ENDBRANCH  15  16
ENDBRANCH  13  15
ENDBRANCH   1  13
TORSDOF 1
ENDMDL
MODEL 7
REMARK VINA RESULT:    -4.766      1.907      4.857
REMARK INTER + INTRA:          -7.554
REMARK INTER:                  -7.029
REMARK INTRA:                  -0.525
REMARK UNBOUND:                -0.559
REMARK SMILES C=C1C=C[C@@H](C(C)C)CCC(C)=CCC1
REMARK SMILES IDX 3 1 4 2 5 3 9 4 10 5 11 6 12 7 13 8 6 10 7 11 8 12 2 13 1 14
REMARK SMILES IDX 15 15 14 16
REMARK H PARENT
REMARK Flexibility Score: 70.00
ROOT
ATOM      1  C   UNL     1     112.709 111.715 115.441  1.00  0.00    -0.001 C 
ATOM      2  C   UNL     1     111.542 112.300 115.745  1.00  0.00    -0.023 C 
ENDROOT
BRANCH   2   3
ATOM      3  C   UNL     1     110.184 111.703 115.435  1.00  0.00     0.014 C 
BRANCH   3   4
ATOM      4  C   UNL     1     109.498 112.424 114.235  1.00  0.00     0.012 C 
BRANCH   4   5
ATOM      5  C   UNL     1     109.291 111.507 113.009  1.00  0.00     0.031 C 
BRANCH   5   6
ATOM      6  C   UNL     1     110.218 111.868 111.858  1.00  0.00    -0.077 C 
ATOM      7  C   UNL     1     109.859 113.045 110.987  1.00  0.00     0.039 C 
ATOM      8  C   UNL     1     111.363 111.202 111.575  1.00  0.00    -0.028 CG0
ATOM      9  G   UNL     1     111.917 110.039 112.361  1.00  0.00     0.000 G0
ENDBRANCH   5   6
ENDBRANCH   4   5
ENDBRANCH   3   4
BRANCH   3  10
ATOM     10  C   UNL     1     109.244 111.627 116.682  1.00  0.00    -0.010 C 
ATOM     11  C   UNL     1     109.273 112.880 117.581  1.00  0.00     0.008 C 
ATOM     12  C   UNL     1     109.538 110.375 117.524  1.00  0.00     0.008 C 
ENDBRANCH   3  10
ENDBRANCH   2   3
BRANCH   1  13
ATOM     13  C   UNL     1     112.851 110.417 114.742  1.00  0.00    -0.055 C 
ATOM     14  C   UNL     1     112.490 109.308 115.395  1.00  0.00     0.012 C 
BRANCH  13  15
ATOM     15  C   UNL     1     113.124 110.359 113.250  1.00  0.00     0.039 C 
BRANCH  15  16
ATOM     16  C   UNL     1     111.912 110.027 112.347  1.00  0.00     0.032 CG0
ATOM     17  G   UNL     1     111.376 111.200 111.564  1.00  0.00     0.000 G0
ENDBRANCH  15  16
ENDBRANCH  13  15
ENDBRANCH   1  13
TORSDOF 1
ENDMDL
MODEL 8
REMARK VINA RESULT:    -4.710      1.961      5.452
REMARK INTER + INTRA:          -7.472
REMARK INTER:                  -6.999
REMARK INTRA:                  -0.473
REMARK UNBOUND:                -0.559
REMARK SMILES C=C1C=C[C@@H](C(C)C)CCC(C)=CCC1
REMARK SMILES IDX 3 1 4 2 5 3 9 4 10 5 11 6 12 7 13 8 6 10 7 11 8 12 2 13 1 14
REMARK SMILES IDX 15 15 14 16
REMARK H PARENT
REMARK Flexibility Score: 70.00
ROOT
ATOM      1  C   UNL     1     109.965 109.721 115.450  1.00  0.00    -0.001 C 
ATOM      2  C   UNL     1     111.284 109.492 115.511  1.00  0.00    -0.023 C 
ENDROOT
BRANCH   2   3
ATOM      3  C   UNL     1     112.342 110.573 115.422  1.00  0.00     0.014 C 
BRANCH   3   4
ATOM      4  C   UNL     1     113.250 110.389 114.169  1.00  0.00     0.012 C 
BRANCH   4   5
ATOM      5  C   UNL     1     112.465 109.992 112.898  1.00  0.00     0.031 C 
BRANCH   5   6
ATOM      6  C   UNL     1     111.961 111.205 112.132  1.00  0.00    -0.077 C 
ATOM      7  C   UNL     1     112.963 112.060 111.399  1.00  0.00     0.039 C 
ATOM      8  C   UNL     1     110.655 111.558 112.054  1.00  0.00    -0.028 CG0
ATOM      9  G   UNL     1     109.505 110.800 112.670  1.00  0.00     0.000 G0
ENDBRANCH   5   6
ENDBRANCH   4   5
ENDBRANCH   3   4
BRANCH   3  10
ATOM     10  C   UNL     1     113.181 110.725 116.732  1.00  0.00    -0.010 C 
ATOM     11  C   UNL     1     113.033 109.553 117.724  1.00  0.00     0.008 C 
ATOM     12  C   UNL     1     112.867 112.051 117.443  1.00  0.00     0.008 C 
ENDBRANCH   3  10
ENDBRANCH   2   3
BRANCH   1  13
ATOM     13  C   UNL     1     109.343 111.052 115.266  1.00  0.00    -0.055 C 
ATOM     14  C   UNL     1     109.434 111.933 116.268  1.00  0.00     0.012 C 
BRANCH  13  15
ATOM     15  C   UNL     1     108.868 111.510 113.900  1.00  0.00     0.039 C 
BRANCH  15  16
ATOM     16  C   UNL     1     109.505 110.800 112.681  1.00  0.00     0.032 CG0
ATOM     17  G   UNL     1     110.654 111.549 112.052  1.00  0.00     0.000 G0
ENDBRANCH  15  16
ENDBRANCH  13  15
ENDBRANCH   1  13
TORSDOF 1
ENDMDL
MODEL 9
REMARK VINA RESULT:    -4.709      3.247      5.677
REMARK INTER + INTRA:          -7.470
REMARK INTER:                  -7.127
REMARK INTRA:                  -0.343
REMARK UNBOUND:                -0.559
REMARK SMILES C=C1C=C[C@@H](C(C)C)CCC(C)=CCC1
REMARK SMILES IDX 3 1 4 2 5 3 9 4 10 5 11 6 12 7 13 8 6 10 7 11 8 12 2 13 1 14
REMARK SMILES IDX 15 15 14 16
REMARK H PARENT
REMARK Flexibility Score: 70.00
ROOT
ATOM      1  C   UNL     1     112.507 111.933 110.231  1.00  0.00    -0.001 C 
ATOM      2  C   UNL     1     111.268 112.336 110.543  1.00  0.00    -0.023 C 
ENDROOT
BRANCH   2   3
ATOM      3  C   UNL     1     110.036 111.459 110.443  1.00  0.00     0.014 C 
BRANCH   3   4
ATOM      4  C   UNL     1     109.187 111.800 109.181  1.00  0.00     0.012 C 
BRANCH   4   5
ATOM      5  C   UNL     1     109.522 110.911 107.961  1.00  0.00     0.031 C 
BRANCH   5   6
ATOM      6  C   UNL     1     110.407 111.629 106.953  1.00  0.00    -0.077 C 
ATOM      7  C   UNL     1     109.877 112.874 106.288  1.00  0.00     0.039 C 
ATOM      8  C   UNL     1     111.658 111.224 106.626  1.00  0.00    -0.028 CG0
ATOM      9  G   UNL     1     112.380 110.041 107.223  1.00  0.00     0.000 G0
ENDBRANCH   5   6
ENDBRANCH   4   5
ENDBRANCH   3   4
BRANCH   3  10
ATOM     10  C   UNL     1     109.171 111.460 111.744  1.00  0.00    -0.010 C 
ATOM     11  C   UNL     1     109.225 112.776 112.546  1.00  0.00     0.008 C 
ATOM     12  C   UNL     1     109.537 110.279 112.657  1.00  0.00     0.008 C 
ENDBRANCH   3  10
ENDBRANCH   2   3
BRANCH   1  13
ATOM     13  C   UNL     1     112.860 110.588 109.723  1.00  0.00    -0.055 C 
ATOM     14  C   UNL     1     112.448 109.524 110.421  1.00  0.00     0.012 C 
BRANCH  13  15
ATOM     15  C   UNL     1     113.417 110.401 108.324  1.00  0.00     0.039 C 
BRANCH  15  16
ATOM     16  C   UNL     1     112.391 110.040 107.222  1.00  0.00     0.032 CG0
ATOM     17  G   UNL     1     111.664 111.224 106.634  1.00  0.00     0.000 G0
ENDBRANCH  15  16
ENDBRANCH  13  15
ENDBRANCH   1  13
TORSDOF 1
ENDMDL
