MODEL 1
REMARK VINA RESULT:    -6.611      0.000      0.000
REMARK INTER + INTRA:         -10.915
REMARK INTER:                  -9.317
REMARK INTRA:                  -1.598
REMARK UNBOUND:                -1.598
REMARK SMILES C[C@@H](CO)CCC(=O)[C@@H](C)[C@@H]1C(=O)C[C@@H]2[C@H]3CC=C4C[C@@H](O)CC[C@]4(C)[C@H]3CC[C@@]21C
REMARK SMILES IDX 6 1 5 2 2 3 1 4 3 5 4 6 7 8 8 9 9 10 10 11 11 12 12 13 30 14
REMARK SMILES IDX 13 15 14 16 15 17 29 18 31 19 16 20 28 21 27 22 17 23 25 24
REMARK SMILES IDX 18 25 19 26 24 27 26 28 20 29 23 30 21 31 22 32
REMARK H PARENT 4 7 22 33
REMARK Flexibility Score: inf
ROOT
ATOM      1  C   UNL     1     146.505 140.615 138.196  1.00  0.00     0.076 C 
ENDROOT
BRANCH   1   2
ATOM      2  C   UNL     1     145.785 139.536 137.371  1.00  0.00     0.013 C 
BRANCH   2   3
ATOM      3  C   UNL     1     144.304 139.880 137.090  1.00  0.00     0.012 C 
ATOM      4  C   UNL     1     143.359 139.182 138.085  1.00  0.00     0.010 C 
BRANCH   3   5
ATOM      5  C   UNL     1     144.103 141.410 137.148  1.00  0.00     0.159 C 
BRANCH   5   6
ATOM      6  O   UNL     1     143.392 141.866 136.028  1.00  0.00    -0.396 OA
ATOM      7  H   UNL     1     142.910 141.081 135.656  1.00  0.00     0.210 HD
ENDBRANCH   5   6
ENDBRANCH   3   5
ENDBRANCH   2   3
ENDBRANCH   1   2
BRANCH   1   8
ATOM      8  C   UNL     1     147.974 140.660 137.858  1.00  0.00     0.136 C 
ATOM      9  O   UNL     1     148.302 140.568 136.687  1.00  0.00    -0.299 OA
BRANCH   8  10
ATOM     10  C   UNL     1     149.025 140.766 138.953  1.00  0.00     0.064 C 
ATOM     11  C   UNL     1     148.848 142.042 139.791  1.00  0.00     0.017 C 
BRANCH  10  12
ATOM     12  C   UNL     1     149.297 139.463 139.789  1.00  0.00     0.072 C 
ATOM     13  C   UNL     1     149.339 138.272 138.899  1.00  0.00     0.137 C 
ATOM     14  C   UNL     1     148.384 138.992 140.992  1.00  0.00    -0.019 C 
ATOM     15  O   UNL     1     150.125 138.169 137.969  1.00  0.00    -0.299 OA
ATOM     16  C   UNL     1     148.390 137.195 139.246  1.00  0.00     0.080 C 
ATOM     17  C   UNL     1     147.686 137.653 140.541  1.00  0.00     0.007 C 
ATOM     18  C   UNL     1     147.349 140.033 141.487  1.00  0.00     0.008 C 
ATOM     19  C   UNL     1     149.337 138.662 142.182  1.00  0.00     0.012 C 
ATOM     20  C   UNL     1     146.130 137.727 140.370  1.00  0.00     0.001 C 
ATOM     21  C   UNL     1     146.276 139.402 142.373  1.00  0.00     0.005 C 
ATOM     22  C   UNL     1     145.380 138.412 141.582  1.00  0.00     0.003 C 
ATOM     23  C   UNL     1     145.558 136.330 139.988  1.00  0.00     0.031 C 
ATOM     24  C   UNL     1     144.547 137.415 142.481  1.00  0.00    -0.008 C 
ATOM     25  C   UNL     1     144.123 136.147 140.376  1.00  0.00    -0.027 C 
ATOM     26  C   UNL     1     143.621 136.628 141.531  1.00  0.00    -0.065 C 
ATOM     27  C   UNL     1     143.724 138.180 143.576  1.00  0.00     0.014 C 
ATOM     28  C   UNL     1     145.465 136.416 143.237  1.00  0.00     0.016 C 
ATOM     29  C   UNL     1     142.106 136.535 141.689  1.00  0.00     0.063 C 
ATOM     30  C   UNL     1     142.346 138.623 143.098  1.00  0.00     0.033 C 
ATOM     31  C   UNL     1     141.489 137.390 142.804  1.00  0.00     0.118 C 
BRANCH  31  32
ATOM     32  O   UNL     1     141.323 136.609 143.961  1.00  0.00    -0.393 OA
ATOM     33  H   UNL     1     140.355 136.399 144.032  1.00  0.00     0.210 HD
ENDBRANCH  31  32
ENDBRANCH  10  12
ENDBRANCH   8  10
ENDBRANCH   1   8
TORSDOF 8
ENDMDL
MODEL 2
REMARK VINA RESULT:    -6.568      1.618      2.558
REMARK INTER + INTRA:         -10.853
REMARK INTER:                  -8.976
REMARK INTRA:                  -1.877
REMARK UNBOUND:                -1.598
REMARK SMILES C[C@@H](CO)CCC(=O)[C@@H](C)[C@@H]1C(=O)C[C@@H]2[C@H]3CC=C4C[C@@H](O)CC[C@]4(C)[C@H]3CC[C@@]21C
REMARK SMILES IDX 6 1 5 2 2 3 1 4 3 5 4 6 7 8 8 9 9 10 10 11 11 12 12 13 30 14
REMARK SMILES IDX 13 15 14 16 15 17 29 18 31 19 16 20 28 21 27 22 17 23 25 24
REMARK SMILES IDX 18 25 19 26 24 27 26 28 20 29 23 30 21 31 22 32
REMARK H PARENT 4 7 22 33
REMARK Flexibility Score: inf
ROOT
ATOM      1  C   UNL     1     147.861 140.515 140.021  1.00  0.00     0.076 C 
ENDROOT
BRANCH   1   2
ATOM      2  C   UNL     1     147.469 141.439 138.857  1.00  0.00     0.013 C 
BRANCH   2   3
ATOM      3  C   UNL     1     146.885 140.670 137.648  1.00  0.00     0.012 C 
ATOM      4  C   UNL     1     145.424 141.068 137.374  1.00  0.00     0.010 C 
BRANCH   3   5
ATOM      5  C   UNL     1     147.752 140.927 136.397  1.00  0.00     0.159 C 
BRANCH   5   6
ATOM      6  O   UNL     1     148.939 140.180 136.445  1.00  0.00    -0.396 OA
ATOM      7  H   UNL     1     148.686 139.261 136.725  1.00  0.00     0.210 HD
ENDBRANCH   5   6
ENDBRANCH   3   5
ENDBRANCH   2   3
ENDBRANCH   1   2
BRANCH   1   8
ATOM      8  C   UNL     1     149.274 140.013 139.857  1.00  0.00     0.136 C 
ATOM      9  O   UNL     1     150.027 140.632 139.125  1.00  0.00    -0.299 OA
BRANCH   8  10
ATOM     10  C   UNL     1     149.735 138.738 140.548  1.00  0.00     0.064 C 
ATOM     11  C   UNL     1     149.850 138.924 142.070  1.00  0.00     0.017 C 
BRANCH  10  12
ATOM     12  C   UNL     1     149.032 137.406 140.099  1.00  0.00     0.072 C 
ATOM     13  C   UNL     1     148.706 137.452 138.649  1.00  0.00     0.137 C 
ATOM     14  C   UNL     1     147.704 136.856 140.759  1.00  0.00    -0.019 C 
ATOM     15  O   UNL     1     149.555 137.618 137.786  1.00  0.00    -0.299 OA
ATOM     16  C   UNL     1     147.283 137.238 138.318  1.00  0.00     0.080 C 
ATOM     17  C   UNL     1     146.579 136.937 139.659  1.00  0.00     0.007 C 
ATOM     18  C   UNL     1     147.270 137.563 142.068  1.00  0.00     0.008 C 
ATOM     19  C   UNL     1     147.949 135.352 141.088  1.00  0.00     0.012 C 
ATOM     20  C   UNL     1     145.418 137.948 139.952  1.00  0.00     0.001 C 
ATOM     21  C   UNL     1     145.822 137.248 142.439  1.00  0.00     0.005 C 
ATOM     22  C   UNL     1     144.818 137.836 141.412  1.00  0.00     0.003 C 
ATOM     23  C   UNL     1     144.343 137.884 138.827  1.00  0.00     0.031 C 
ATOM     24  C   UNL     1     143.369 137.210 141.475  1.00  0.00    -0.008 C 
ATOM     25  C   UNL     1     142.983 138.321 139.276  1.00  0.00    -0.027 C 
ATOM     26  C   UNL     1     142.493 138.017 140.495  1.00  0.00    -0.065 C 
ATOM     27  C   UNL     1     142.787 137.256 142.931  1.00  0.00     0.014 C 
ATOM     28  C   UNL     1     143.366 135.718 141.045  1.00  0.00     0.016 C 
ATOM     29  C   UNL     1     141.183 138.700 140.875  1.00  0.00     0.063 C 
ATOM     30  C   UNL     1     142.051 138.553 143.248  1.00  0.00     0.033 C 
ATOM     31  C   UNL     1     140.807 138.661 142.363  1.00  0.00     0.118 C 
BRANCH  31  32
ATOM     32  O   UNL     1     139.930 137.588 142.600  1.00  0.00    -0.393 OA
ATOM     33  H   UNL     1     140.077 137.297 143.538  1.00  0.00     0.210 HD
ENDBRANCH  31  32
ENDBRANCH  10  12
ENDBRANCH   8  10
ENDBRANCH   1   8
TORSDOF 8
ENDMDL
MODEL 3
REMARK VINA RESULT:    -6.305      2.944      5.437
REMARK INTER + INTRA:         -10.483
REMARK INTER:                  -9.009
REMARK INTRA:                  -1.474
REMARK UNBOUND:                -1.598
REMARK SMILES C[C@@H](CO)CCC(=O)[C@@H](C)[C@@H]1C(=O)C[C@@H]2[C@H]3CC=C4C[C@@H](O)CC[C@]4(C)[C@H]3CC[C@@]21C
REMARK SMILES IDX 6 1 5 2 2 3 1 4 3 5 4 6 7 8 8 9 9 10 10 11 11 12 12 13 30 14
REMARK SMILES IDX 13 15 14 16 15 17 29 18 31 19 16 20 28 21 27 22 17 23 25 24
REMARK SMILES IDX 18 25 19 26 24 27 26 28 20 29 23 30 21 31 22 32
REMARK H PARENT 4 7 22 33
REMARK Flexibility Score: inf
ROOT
ATOM      1  C   UNL     1     145.065 137.882 136.665  1.00  0.00     0.076 C 
ENDROOT
BRANCH   1   2
ATOM      2  C   UNL     1     144.522 138.877 137.703  1.00  0.00     0.013 C 
BRANCH   2   3
ATOM      3  C   UNL     1     144.564 140.343 137.211  1.00  0.00     0.012 C 
ATOM      4  C   UNL     1     145.998 140.787 136.869  1.00  0.00     0.010 C 
BRANCH   3   5
ATOM      5  C   UNL     1     143.647 140.508 135.980  1.00  0.00     0.159 C 
BRANCH   5   6
ATOM      6  O   UNL     1     143.326 141.858 135.769  1.00  0.00    -0.396 OA
ATOM      7  H   UNL     1     142.592 141.876 135.101  1.00  0.00     0.210 HD
ENDBRANCH   5   6
ENDBRANCH   3   5
ENDBRANCH   2   3
ENDBRANCH   1   2
BRANCH   1   8
ATOM      8  C   UNL     1     144.868 136.460 137.128  1.00  0.00     0.136 C 
ATOM      9  O   UNL     1     143.898 136.207 137.822  1.00  0.00    -0.299 OA
BRANCH   8  10
ATOM     10  C   UNL     1     145.881 135.378 136.783  1.00  0.00     0.064 C 
ATOM     11  C   UNL     1     146.379 135.506 135.334  1.00  0.00     0.017 C 
BRANCH  10  12
ATOM     12  C   UNL     1     147.008 135.111 137.845  1.00  0.00     0.072 C 
ATOM     13  C   UNL     1     146.420 134.607 139.114  1.00  0.00     0.137 C 
ATOM     14  C   UNL     1     148.032 136.217 138.326  1.00  0.00    -0.019 C 
ATOM     15  O   UNL     1     145.744 133.591 139.172  1.00  0.00    -0.299 OA
ATOM     16  C   UNL     1     146.747 135.400 140.316  1.00  0.00     0.080 C 
ATOM     17  C   UNL     1     147.715 136.506 139.843  1.00  0.00     0.007 C 
ATOM     18  C   UNL     1     148.042 137.523 137.490  1.00  0.00     0.008 C 
ATOM     19  C   UNL     1     149.455 135.586 138.242  1.00  0.00     0.012 C 
ATOM     20  C   UNL     1     147.170 137.940 140.158  1.00  0.00     0.001 C 
ATOM     21  C   UNL     1     148.759 138.662 138.212  1.00  0.00     0.005 C 
ATOM     22  C   UNL     1     148.001 139.108 139.490  1.00  0.00     0.003 C 
ATOM     23  C   UNL     1     146.961 138.118 141.692  1.00  0.00     0.031 C 
ATOM     24  C   UNL     1     148.864 139.958 140.505  1.00  0.00    -0.008 C 
ATOM     25  C   UNL     1     147.028 139.544 142.141  1.00  0.00    -0.027 C 
ATOM     26  C   UNL     1     147.906 140.424 141.620  1.00  0.00    -0.065 C 
ATOM     27  C   UNL     1     149.550 141.177 139.795  1.00  0.00     0.014 C 
ATOM     28  C   UNL     1     150.005 139.116 141.137  1.00  0.00     0.016 C 
ATOM     29  C   UNL     1     147.717 141.880 142.037  1.00  0.00     0.063 C 
ATOM     30  C   UNL     1     148.679 142.427 139.760  1.00  0.00     0.033 C 
ATOM     31  C   UNL     1     148.452 142.928 141.189  1.00  0.00     0.118 C 
BRANCH  31  32
ATOM     32  O   UNL     1     149.673 143.259 141.802  1.00  0.00    -0.393 OA
ATOM     33  H   UNL     1     150.326 143.424 141.073  1.00  0.00     0.210 HD
ENDBRANCH  31  32
ENDBRANCH  10  12
ENDBRANCH   8  10
ENDBRANCH   1   8
TORSDOF 8
ENDMDL
MODEL 4
REMARK VINA RESULT:    -6.196      2.074      3.210
REMARK INTER + INTRA:         -10.330
REMARK INTER:                  -9.088
REMARK INTRA:                  -1.242
REMARK UNBOUND:                -1.598
REMARK SMILES C[C@@H](CO)CCC(=O)[C@@H](C)[C@@H]1C(=O)C[C@@H]2[C@H]3CC=C4C[C@@H](O)CC[C@]4(C)[C@H]3CC[C@@]21C
REMARK SMILES IDX 6 1 5 2 2 3 1 4 3 5 4 6 7 8 8 9 9 10 10 11 11 12 12 13 30 14
REMARK SMILES IDX 13 15 14 16 15 17 29 18 31 19 16 20 28 21 27 22 17 23 25 24
REMARK SMILES IDX 18 25 19 26 24 27 26 28 20 29 23 30 21 31 22 32
REMARK H PARENT 4 7 22 33
REMARK Flexibility Score: inf
ROOT
ATOM      1  C   UNL     1     147.554 139.915 139.547  1.00  0.00     0.076 C 
ENDROOT
BRANCH   1   2
ATOM      2  C   UNL     1     147.569 141.450 139.475  1.00  0.00     0.013 C 
BRANCH   2   3
ATOM      3  C   UNL     1     147.824 142.115 140.849  1.00  0.00     0.012 C 
ATOM      4  C   UNL     1     147.521 141.152 142.011  1.00  0.00     0.010 C 
BRANCH   3   5
ATOM      5  C   UNL     1     149.286 142.605 140.929  1.00  0.00     0.159 C 
BRANCH   5   6
ATOM      6  O   UNL     1     149.354 143.899 141.467  1.00  0.00    -0.396 OA
ATOM      7  H   UNL     1     148.824 143.886 142.308  1.00  0.00     0.210 HD
ENDBRANCH   5   6
ENDBRANCH   3   5
ENDBRANCH   2   3
ENDBRANCH   1   2
BRANCH   1   8
ATOM      8  C   UNL     1     148.815 139.337 138.954  1.00  0.00     0.136 C 
ATOM      9  O   UNL     1     149.217 139.789 137.895  1.00  0.00    -0.299 OA
BRANCH   8  10
ATOM     10  C   UNL     1     149.541 138.184 139.633  1.00  0.00     0.064 C 
ATOM     11  C   UNL     1     150.124 138.600 140.993  1.00  0.00     0.017 C 
BRANCH  10  12
ATOM     12  C   UNL     1     148.804 136.796 139.629  1.00  0.00     0.072 C 
ATOM     13  C   UNL     1     148.283 136.486 138.271  1.00  0.00     0.137 C 
ATOM     14  C   UNL     1     147.587 136.452 140.579  1.00  0.00    -0.019 C 
ATOM     15  O   UNL     1     149.003 136.415 137.287  1.00  0.00    -0.299 OA
ATOM     16  C   UNL     1     146.831 136.222 138.201  1.00  0.00     0.080 C 
ATOM     17  C   UNL     1     146.321 136.278 139.657  1.00  0.00     0.007 C 
ATOM     18  C   UNL     1     147.324 137.471 141.717  1.00  0.00     0.008 C 
ATOM     19  C   UNL     1     147.899 135.073 141.236  1.00  0.00     0.012 C 
ATOM     20  C   UNL     1     145.196 137.352 139.845  1.00  0.00     0.001 C 
ATOM     21  C   UNL     1     145.945 137.286 142.349  1.00  0.00     0.005 C 
ATOM     22  C   UNL     1     144.802 137.618 141.353  1.00  0.00     0.003 C 
ATOM     23  C   UNL     1     143.978 137.031 138.928  1.00  0.00     0.031 C 
ATOM     24  C   UNL     1     143.385 137.055 141.768  1.00  0.00    -0.008 C 
ATOM     25  C   UNL     1     142.686 137.591 139.435  1.00  0.00    -0.027 C 
ATOM     26  C   UNL     1     142.371 137.609 140.745  1.00  0.00    -0.065 C 
ATOM     27  C   UNL     1     143.006 137.473 143.231  1.00  0.00     0.014 C 
ATOM     28  C   UNL     1     143.347 135.503 141.727  1.00  0.00     0.016 C 
ATOM     29  C   UNL     1     141.114 138.390 141.118  1.00  0.00     0.063 C 
ATOM     30  C   UNL     1     142.300 138.821 143.312  1.00  0.00     0.033 C 
ATOM     31  C   UNL     1     140.945 138.729 142.606  1.00  0.00     0.118 C 
BRANCH  31  32
ATOM     32  O   UNL     1     140.126 137.765 143.220  1.00  0.00    -0.393 OA
ATOM     33  H   UNL     1     139.877 137.109 142.518  1.00  0.00     0.210 HD
ENDBRANCH  31  32
ENDBRANCH  10  12
ENDBRANCH   8  10
ENDBRANCH   1   8
TORSDOF 8
ENDMDL
MODEL 5
REMARK VINA RESULT:    -6.172      2.483      5.232
REMARK INTER + INTRA:         -10.295
REMARK INTER:                  -9.031
REMARK INTRA:                  -1.265
REMARK UNBOUND:                -1.598
REMARK SMILES C[C@@H](CO)CCC(=O)[C@@H](C)[C@@H]1C(=O)C[C@@H]2[C@H]3CC=C4C[C@@H](O)CC[C@]4(C)[C@H]3CC[C@@]21C
REMARK SMILES IDX 6 1 5 2 2 3 1 4 3 5 4 6 7 8 8 9 9 10 10 11 11 12 12 13 30 14
REMARK SMILES IDX 13 15 14 16 15 17 29 18 31 19 16 20 28 21 27 22 17 23 25 24
REMARK SMILES IDX 18 25 19 26 24 27 26 28 20 29 23 30 21 31 22 32
REMARK H PARENT 4 7 22 33
REMARK Flexibility Score: inf
ROOT
ATOM      1  C   UNL     1     146.326 139.007 142.116  1.00  0.00     0.076 C 
ENDROOT
BRANCH   1   2
ATOM      2  C   UNL     1     145.316 139.234 143.252  1.00  0.00     0.013 C 
BRANCH   2   3
ATOM      3  C   UNL     1     143.987 138.470 143.037  1.00  0.00     0.012 C 
ATOM      4  C   UNL     1     143.876 137.915 141.606  1.00  0.00     0.010 C 
BRANCH   3   5
ATOM      5  C   UNL     1     143.871 137.324 144.065  1.00  0.00     0.159 C 
BRANCH   5   6
ATOM      6  O   UNL     1     144.942 137.351 144.971  1.00  0.00    -0.396 OA
ATOM      7  H   UNL     1     144.885 138.216 145.455  1.00  0.00     0.210 HD
ENDBRANCH   5   6
ENDBRANCH   3   5
ENDBRANCH   2   3
ENDBRANCH   1   2
BRANCH   1   8
ATOM      8  C   UNL     1     147.380 140.085 142.112  1.00  0.00     0.136 C 
ATOM      9  O   UNL     1     147.105 141.166 142.603  1.00  0.00    -0.299 OA
BRANCH   8  10
ATOM     10  C   UNL     1     148.738 139.848 141.464  1.00  0.00     0.064 C 
ATOM     11  C   UNL     1     149.411 138.575 142.002  1.00  0.00     0.017 C 
BRANCH  10  12
ATOM     12  C   UNL     1     148.807 140.020 139.904  1.00  0.00     0.072 C 
ATOM     13  C   UNL     1     148.248 141.338 139.499  1.00  0.00     0.137 C 
ATOM     14  C   UNL     1     148.141 139.009 138.885  1.00  0.00    -0.019 C 
ATOM     15  O   UNL     1     148.693 142.399 139.911  1.00  0.00    -0.299 OA
ATOM     16  C   UNL     1     147.141 141.278 138.524  1.00  0.00     0.080 C 
ATOM     17  C   UNL     1     146.975 139.786 138.164  1.00  0.00     0.007 C 
ATOM     18  C   UNL     1     147.641 137.678 139.501  1.00  0.00     0.008 C 
ATOM     19  C   UNL     1     149.223 138.664 137.816  1.00  0.00     0.012 C 
ATOM     20  C   UNL     1     145.529 139.265 138.468  1.00  0.00     0.001 C 
ATOM     21  C   UNL     1     146.697 136.928 138.562  1.00  0.00     0.005 C 
ATOM     22  C   UNL     1     145.368 137.697 138.341  1.00  0.00     0.003 C 
ATOM     23  C   UNL     1     144.477 140.070 137.647  1.00  0.00     0.031 C 
ATOM     24  C   UNL     1     144.535 137.225 137.084  1.00  0.00    -0.008 C 
ATOM     25  C   UNL     1     143.209 139.314 137.397  1.00  0.00    -0.027 C 
ATOM     26  C   UNL     1     143.199 137.994 137.122  1.00  0.00    -0.065 C 
ATOM     27  C   UNL     1     144.302 135.674 137.099  1.00  0.00     0.014 C 
ATOM     28  C   UNL     1     145.268 137.549 135.753  1.00  0.00     0.016 C 
ATOM     29  C   UNL     1     141.825 137.332 137.090  1.00  0.00     0.063 C 
ATOM     30  C   UNL     1     143.051 135.257 137.864  1.00  0.00     0.033 C 
ATOM     31  C   UNL     1     141.812 135.798 137.145  1.00  0.00     0.118 C 
BRANCH  31  32
ATOM     32  O   UNL     1     141.724 135.279 135.842  1.00  0.00    -0.393 OA
ATOM     33  H   UNL     1     142.255 135.878 135.256  1.00  0.00     0.210 HD
ENDBRANCH  31  32
ENDBRANCH  10  12
ENDBRANCH   8  10
ENDBRANCH   1   8
TORSDOF 8
ENDMDL
MODEL 6
REMARK VINA RESULT:    -6.119      2.297      6.085
REMARK INTER + INTRA:         -10.220
REMARK INTER:                  -8.829
REMARK INTRA:                  -1.391
REMARK UNBOUND:                -1.598
REMARK SMILES C[C@@H](CO)CCC(=O)[C@@H](C)[C@@H]1C(=O)C[C@@H]2[C@H]3CC=C4C[C@@H](O)CC[C@]4(C)[C@H]3CC[C@@]21C
REMARK SMILES IDX 6 1 5 2 2 3 1 4 3 5 4 6 7 8 8 9 9 10 10 11 11 12 12 13 30 14
REMARK SMILES IDX 13 15 14 16 15 17 29 18 31 19 16 20 28 21 27 22 17 23 25 24
REMARK SMILES IDX 18 25 19 26 24 27 26 28 20 29 23 30 21 31 22 32
REMARK H PARENT 4 7 22 33
REMARK Flexibility Score: inf
ROOT
ATOM      1  C   UNL     1     142.047 137.463 139.331  1.00  0.00     0.076 C 
ENDROOT
BRANCH   1   2
ATOM      2  C   UNL     1     142.545 138.428 140.418  1.00  0.00     0.013 C 
BRANCH   2   3
ATOM      3  C   UNL     1     142.045 138.052 141.833  1.00  0.00     0.012 C 
ATOM      4  C   UNL     1     143.081 138.409 142.915  1.00  0.00     0.010 C 
BRANCH   3   5
ATOM      5  C   UNL     1     140.706 138.764 142.121  1.00  0.00     0.159 C 
BRANCH   5   6
ATOM      6  O   UNL     1     140.773 139.498 143.315  1.00  0.00    -0.396 OA
ATOM      7  H   UNL     1     140.764 140.458 143.061  1.00  0.00     0.210 HD
ENDBRANCH   5   6
ENDBRANCH   3   5
ENDBRANCH   2   3
ENDBRANCH   1   2
BRANCH   1   8
ATOM      8  C   UNL     1     142.757 137.712 138.025  1.00  0.00     0.136 C 
ATOM      9  O   UNL     1     142.783 138.850 137.587  1.00  0.00    -0.299 OA
BRANCH   8  10
ATOM     10  C   UNL     1     143.382 136.565 137.243  1.00  0.00     0.064 C 
ATOM     11  C   UNL     1     143.358 136.827 135.729  1.00  0.00     0.017 C 
BRANCH  10  12
ATOM     12  C   UNL     1     144.744 136.006 137.793  1.00  0.00     0.072 C 
ATOM     13  C   UNL     1     144.546 135.358 139.117  1.00  0.00     0.137 C 
ATOM     14  C   UNL     1     146.030 136.901 138.010  1.00  0.00    -0.019 C 
ATOM     15  O   UNL     1     143.779 134.423 139.286  1.00  0.00    -0.299 OA
ATOM     16  C   UNL     1     145.379 135.896 140.211  1.00  0.00     0.080 C 
ATOM     17  C   UNL     1     146.292 136.960 139.562  1.00  0.00     0.007 C 
ATOM     18  C   UNL     1     145.963 138.322 137.392  1.00  0.00     0.008 C 
ATOM     19  C   UNL     1     147.225 136.149 137.347  1.00  0.00     0.012 C 
ATOM     20  C   UNL     1     146.116 138.368 140.225  1.00  0.00     0.001 C 
ATOM     21  C   UNL     1     147.051 139.241 137.944  1.00  0.00     0.005 C 
ATOM     22  C   UNL     1     146.847 139.540 139.453  1.00  0.00     0.003 C 
ATOM     23  C   UNL     1     146.467 138.304 141.741  1.00  0.00     0.031 C 
ATOM     24  C   UNL     1     148.123 140.111 140.189  1.00  0.00    -0.008 C 
ATOM     25  C   UNL     1     146.904 139.619 142.309  1.00  0.00    -0.027 C 
ATOM     26  C   UNL     1     147.682 140.478 141.621  1.00  0.00    -0.065 C 
ATOM     27  C   UNL     1     148.712 141.354 139.437  1.00  0.00     0.014 C 
ATOM     28  C   UNL     1     149.263 139.059 140.265  1.00  0.00     0.016 C 
ATOM     29  C   UNL     1     147.875 141.854 142.253  1.00  0.00     0.063 C 
ATOM     30  C   UNL     1     148.088 142.676 139.869  1.00  0.00     0.033 C 
ATOM     31  C   UNL     1     148.437 142.948 141.334  1.00  0.00     0.118 C 
BRANCH  31  32
ATOM     32  O   UNL     1     149.829 143.041 141.507  1.00  0.00    -0.393 OA
ATOM     33  H   UNL     1     150.189 143.500 140.704  1.00  0.00     0.210 HD
ENDBRANCH  31  32
ENDBRANCH  10  12
ENDBRANCH   8  10
ENDBRANCH   1   8
TORSDOF 8
ENDMDL
MODEL 7
REMARK VINA RESULT:    -5.989      1.977      4.109
REMARK INTER + INTRA:         -10.038
REMARK INTER:                  -8.692
REMARK INTRA:                  -1.346
REMARK UNBOUND:                -1.598
REMARK SMILES C[C@@H](CO)CCC(=O)[C@@H](C)[C@@H]1C(=O)C[C@@H]2[C@H]3CC=C4C[C@@H](O)CC[C@]4(C)[C@H]3CC[C@@]21C
REMARK SMILES IDX 6 1 5 2 2 3 1 4 3 5 4 6 7 8 8 9 9 10 10 11 11 12 12 13 30 14
REMARK SMILES IDX 13 15 14 16 15 17 29 18 31 19 16 20 28 21 27 22 17 23 25 24
REMARK SMILES IDX 18 25 19 26 24 27 26 28 20 29 23 30 21 31 22 32
REMARK H PARENT 4 7 22 33
REMARK Flexibility Score: inf
ROOT
ATOM      1  C   UNL     1     147.544 141.833 138.295  1.00  0.00     0.076 C 
ENDROOT
BRANCH   1   2
ATOM      2  C   UNL     1     147.143 141.527 139.747  1.00  0.00     0.013 C 
BRANCH   2   3
ATOM      3  C   UNL     1     148.349 141.151 140.639  1.00  0.00     0.012 C 
ATOM      4  C   UNL     1     149.636 140.980 139.812  1.00  0.00     0.010 C 
BRANCH   3   5
ATOM      5  C   UNL     1     148.553 142.231 141.725  1.00  0.00     0.159 C 
BRANCH   5   6
ATOM      6  O   UNL     1     147.859 143.406 141.400  1.00  0.00    -0.396 OA
ATOM      7  H   UNL     1     147.883 143.488 140.410  1.00  0.00     0.210 HD
ENDBRANCH   5   6
ENDBRANCH   3   5
ENDBRANCH   2   3
ENDBRANCH   1   2
BRANCH   1   8
ATOM      8  C   UNL     1     146.585 141.190 137.325  1.00  0.00     0.136 C 
ATOM      9  O   UNL     1     145.395 141.430 137.442  1.00  0.00    -0.299 OA
BRANCH   8  10
ATOM     10  C   UNL     1     147.081 140.224 136.258  1.00  0.00     0.064 C 
ATOM     11  C   UNL     1     148.612 140.091 136.280  1.00  0.00     0.017 C 
BRANCH  10  12
ATOM     12  C   UNL     1     146.304 138.865 136.130  1.00  0.00     0.072 C 
ATOM     13  C   UNL     1     144.946 139.092 135.569  1.00  0.00     0.137 C 
ATOM     14  C   UNL     1     146.041 137.892 137.350  1.00  0.00    -0.019 C 
ATOM     15  O   UNL     1     144.759 139.617 134.482  1.00  0.00    -0.299 OA
ATOM     16  C   UNL     1     143.831 138.595 136.401  1.00  0.00     0.080 C 
ATOM     17  C   UNL     1     144.487 137.891 137.608  1.00  0.00     0.007 C 
ATOM     18  C   UNL     1     146.831 138.219 138.643  1.00  0.00     0.008 C 
ATOM     19  C   UNL     1     146.455 136.461 136.887  1.00  0.00     0.012 C 
ATOM     20  C   UNL     1     144.028 138.511 138.971  1.00  0.00     0.001 C 
ATOM     21  C   UNL     1     146.265 137.493 139.862  1.00  0.00     0.005 C 
ATOM     22  C   UNL     1     144.841 137.990 140.224  1.00  0.00     0.003 C 
ATOM     23  C   UNL     1     142.483 138.389 139.133  1.00  0.00     0.031 C 
ATOM     24  C   UNL     1     144.028 137.024 141.174  1.00  0.00    -0.008 C 
ATOM     25  C   UNL     1     142.031 138.386 140.560  1.00  0.00    -0.027 C 
ATOM     26  C   UNL     1     142.717 137.754 141.533  1.00  0.00    -0.065 C 
ATOM     27  C   UNL     1     144.849 136.658 142.460  1.00  0.00     0.014 C 
ATOM     28  C   UNL     1     143.684 135.682 140.473  1.00  0.00     0.016 C 
ATOM     29  C   UNL     1     142.239 138.009 142.959  1.00  0.00     0.063 C 
ATOM     30  C   UNL     1     144.662 137.652 143.600  1.00  0.00     0.033 C 
ATOM     31  C   UNL     1     143.208 137.607 144.080  1.00  0.00     0.118 C 
BRANCH  31  32
ATOM     32  O   UNL     1     142.878 136.326 144.554  1.00  0.00    -0.393 OA
ATOM     33  H   UNL     1     143.733 135.846 144.710  1.00  0.00     0.210 HD
ENDBRANCH  31  32
ENDBRANCH  10  12
ENDBRANCH   8  10
ENDBRANCH   1   8
TORSDOF 8
ENDMDL
MODEL 8
REMARK VINA RESULT:    -5.892      5.091     10.052
REMARK INTER + INTRA:          -9.900
REMARK INTER:                  -8.642
REMARK INTRA:                  -1.259
REMARK UNBOUND:                -1.598
REMARK SMILES C[C@@H](CO)CCC(=O)[C@@H](C)[C@@H]1C(=O)C[C@@H]2[C@H]3CC=C4C[C@@H](O)CC[C@]4(C)[C@H]3CC[C@@]21C
REMARK SMILES IDX 6 1 5 2 2 3 1 4 3 5 4 6 7 8 8 9 9 10 10 11 11 12 12 13 30 14
REMARK SMILES IDX 13 15 14 16 15 17 29 18 31 19 16 20 28 21 27 22 17 23 25 24
REMARK SMILES IDX 18 25 19 26 24 27 26 28 20 29 23 30 21 31 22 32
REMARK H PARENT 4 7 22 33
REMARK Flexibility Score: inf
ROOT
ATOM      1  C   UNL     1     134.197 139.140 142.439  1.00  0.00     0.076 C 
ENDROOT
BRANCH   1   2
ATOM      2  C   UNL     1     133.250 137.992 142.058  1.00  0.00     0.013 C 
BRANCH   2   3
ATOM      3  C   UNL     1     133.580 137.372 140.679  1.00  0.00     0.012 C 
ATOM      4  C   UNL     1     134.324 136.032 140.822  1.00  0.00     0.010 C 
BRANCH   3   5
ATOM      5  C   UNL     1     132.280 137.176 139.869  1.00  0.00     0.159 C 
BRANCH   5   6
ATOM      6  O   UNL     1     132.506 136.373 138.742  1.00  0.00    -0.396 OA
ATOM      7  H   UNL     1     133.433 136.025 138.821  1.00  0.00     0.210 HD
ENDBRANCH   5   6
ENDBRANCH   3   5
ENDBRANCH   2   3
ENDBRANCH   1   2
BRANCH   1   8
ATOM      8  C   UNL     1     134.887 138.856 143.750  1.00  0.00     0.136 C 
ATOM      9  O   UNL     1     134.232 138.923 144.776  1.00  0.00    -0.299 OA
BRANCH   8  10
ATOM     10  C   UNL     1     136.376 138.542 143.797  1.00  0.00     0.064 C 
ATOM     11  C   UNL     1     136.918 138.571 145.235  1.00  0.00     0.017 C 
BRANCH  10  12
ATOM     12  C   UNL     1     136.861 137.322 142.935  1.00  0.00     0.072 C 
ATOM     13  C   UNL     1     136.802 136.066 143.729  1.00  0.00     0.137 C 
ATOM     14  C   UNL     1     138.281 137.253 142.241  1.00  0.00    -0.019 C 
ATOM     15  O   UNL     1     135.770 135.651 144.234  1.00  0.00    -0.299 OA
ATOM     16  C   UNL     1     138.076 135.326 143.830  1.00  0.00     0.080 C 
ATOM     17  C   UNL     1     139.086 136.103 142.957  1.00  0.00     0.007 C 
ATOM     18  C   UNL     1     139.080 138.582 142.230  1.00  0.00     0.008 C 
ATOM     19  C   UNL     1     138.043 136.827 140.760  1.00  0.00     0.012 C 
ATOM     20  C   UNL     1     140.339 136.564 143.777  1.00  0.00     0.001 C 
ATOM     21  C   UNL     1     140.554 138.364 141.893  1.00  0.00     0.005 C 
ATOM     22  C   UNL     1     141.289 137.560 142.998  1.00  0.00     0.003 C 
ATOM     23  C   UNL     1     141.080 135.332 144.377  1.00  0.00     0.031 C 
ATOM     24  C   UNL     1     142.667 136.932 142.549  1.00  0.00    -0.008 C 
ATOM     25  C   UNL     1     142.533 135.582 144.641  1.00  0.00    -0.027 C 
ATOM     26  C   UNL     1     143.303 136.310 143.809  1.00  0.00    -0.065 C 
ATOM     27  C   UNL     1     143.608 138.010 141.907  1.00  0.00     0.014 C 
ATOM     28  C   UNL     1     142.473 135.822 141.480  1.00  0.00     0.016 C 
ATOM     29  C   UNL     1     144.704 136.639 144.315  1.00  0.00     0.063 C 
ATOM     30  C   UNL     1     144.474 138.742 142.925  1.00  0.00     0.033 C 
ATOM     31  C   UNL     1     145.450 137.752 143.566  1.00  0.00     0.118 C 
BRANCH  31  32
ATOM     32  O   UNL     1     146.296 137.185 142.597  1.00  0.00    -0.393 OA
ATOM     33  H   UNL     1     145.744 137.035 141.785  1.00  0.00     0.210 HD
ENDBRANCH  31  32
ENDBRANCH  10  12
ENDBRANCH   8  10
ENDBRANCH   1   8
TORSDOF 8
ENDMDL
MODEL 9
REMARK VINA RESULT:    -5.775      3.571      5.906
REMARK INTER + INTRA:          -9.736
REMARK INTER:                  -8.235
REMARK INTRA:                  -1.500
REMARK UNBOUND:                -1.598
REMARK SMILES C[C@@H](CO)CCC(=O)[C@@H](C)[C@@H]1C(=O)C[C@@H]2[C@H]3CC=C4C[C@@H](O)CC[C@]4(C)[C@H]3CC[C@@]21C
REMARK SMILES IDX 6 1 5 2 2 3 1 4 3 5 4 6 7 8 8 9 9 10 10 11 11 12 12 13 30 14
REMARK SMILES IDX 13 15 14 16 15 17 29 18 31 19 16 20 28 21 27 22 17 23 25 24
REMARK SMILES IDX 18 25 19 26 24 27 26 28 20 29 23 30 21 31 22 32
REMARK H PARENT 4 7 22 33
REMARK Flexibility Score: inf
ROOT
ATOM      1  C   UNL     1     147.561 141.693 138.409  1.00  0.00     0.076 C 
ENDROOT
BRANCH   1   2
ATOM      2  C   UNL     1     147.574 140.974 137.051  1.00  0.00     0.013 C 
BRANCH   2   3
ATOM      3  C   UNL     1     146.169 140.864 136.414  1.00  0.00     0.012 C 
ATOM      4  C   UNL     1     145.986 139.529 135.669  1.00  0.00     0.010 C 
BRANCH   3   5
ATOM      5  C   UNL     1     145.087 141.018 137.505  1.00  0.00     0.159 C 
BRANCH   5   6
ATOM      6  O   UNL     1     144.057 141.868 137.074  1.00  0.00    -0.396 OA
ATOM      7  H   UNL     1     144.453 142.774 136.985  1.00  0.00     0.210 HD
ENDBRANCH   5   6
ENDBRANCH   3   5
ENDBRANCH   2   3
ENDBRANCH   1   2
BRANCH   1   8
ATOM      8  C   UNL     1     148.581 141.094 139.344  1.00  0.00     0.136 C 
ATOM      9  O   UNL     1     149.247 141.847 140.035  1.00  0.00    -0.299 OA
BRANCH   8  10
ATOM     10  C   UNL     1     148.812 139.590 139.390  1.00  0.00     0.064 C 
ATOM     11  C   UNL     1     150.115 139.236 140.123  1.00  0.00     0.017 C 
BRANCH  10  12
ATOM     12  C   UNL     1     147.574 138.705 139.783  1.00  0.00     0.072 C 
ATOM     13  C   UNL     1     147.669 138.278 141.204  1.00  0.00     0.137 C 
ATOM     14  C   UNL     1     147.177 137.375 139.024  1.00  0.00    -0.019 C 
ATOM     15  O   UNL     1     147.742 139.072 142.130  1.00  0.00    -0.299 OA
ATOM     16  C   UNL     1     147.623 136.819 141.426  1.00  0.00     0.080 C 
ATOM     17  C   UNL     1     147.396 136.187 140.035  1.00  0.00     0.007 C 
ATOM     18  C   UNL     1     147.919 137.127 137.686  1.00  0.00     0.008 C 
ATOM     19  C   UNL     1     145.651 137.469 138.713  1.00  0.00     0.012 C 
ATOM     20  C   UNL     1     148.532 135.178 139.655  1.00  0.00     0.001 C 
ATOM     21  C   UNL     1     147.771 135.684 137.206  1.00  0.00     0.005 C 
ATOM     22  C   UNL     1     148.479 134.681 138.154  1.00  0.00     0.003 C 
ATOM     23  C   UNL     1     148.602 134.021 140.695  1.00  0.00     0.031 C 
ATOM     24  C   UNL     1     148.025 133.178 137.980  1.00  0.00    -0.008 C 
ATOM     25  C   UNL     1     149.191 132.758 140.144  1.00  0.00    -0.027 C 
ATOM     26  C   UNL     1     148.936 132.330 138.892  1.00  0.00    -0.065 C 
ATOM     27  C   UNL     1     148.126 132.717 136.484  1.00  0.00     0.014 C 
ATOM     28  C   UNL     1     146.546 132.969 138.407  1.00  0.00     0.016 C 
ATOM     29  C   UNL     1     149.763 131.141 138.413  1.00  0.00     0.063 C 
ATOM     30  C   UNL     1     149.497 132.162 136.113  1.00  0.00     0.033 C 
ATOM     31  C   UNL     1     149.755 130.876 136.902  1.00  0.00     0.118 C 
BRANCH  31  32
ATOM     32  O   UNL     1     148.789 129.901 136.597  1.00  0.00    -0.393 OA
ATOM     33  H   UNL     1     148.244 129.769 137.416  1.00  0.00     0.210 HD
ENDBRANCH  31  32
ENDBRANCH  10  12
ENDBRANCH   8  10
ENDBRANCH   1   8
TORSDOF 8
ENDMDL
