MODEL 1
REMARK VINA RESULT:     0.070      0.000      0.000
REMARK INTER + INTRA:           0.070
REMARK INTER:                   0.070
REMARK INTRA:                   0.000
REMARK UNBOUND:                 0.000
REMARK SMILES CC(C)=C1CC[C@H](C)CC1=O
REMARK SMILES IDX 8 1 7 2 6 3 5 4 4 5 2 6 1 7 3 8 10 9 11 10 9 11
REMARK H PARENT
REMARK Flexibility Score: inf
ROOT
ATOM      1  C   UNL     1      -6.932   3.377   9.515  1.00  0.00     0.008 C 
ATOM      2  C   UNL     1      -5.451   3.269   9.913  1.00  0.00    -0.006 C 
ATOM      3  C   UNL     1      -4.631   2.459   8.893  1.00  0.00     0.008 C 
ATOM      4  C   UNL     1      -4.511   3.155   7.528  1.00  0.00     0.039 C 
ATOM      5  C   UNL     1      -4.078   4.611   7.640  1.00  0.00    -0.006 C 
ATOM      6  C   UNL     1      -3.355   5.210   6.648  1.00  0.00    -0.070 C 
ATOM      7  C   UNL     1      -2.972   4.458   5.393  1.00  0.00     0.039 C 
ATOM      8  C   UNL     1      -2.869   6.637   6.768  1.00  0.00     0.039 C 
ATOM      9  C   UNL     1      -4.587   5.363   8.824  1.00  0.00     0.159 C 
ATOM     10  O   UNL     1      -4.843   6.596   8.755  1.00  0.00    -0.295 OA
ATOM     11  C   UNL     1      -4.817   4.652  10.125  1.00  0.00     0.084 C 
ENDROOT
TORSDOF 0
ENDMDL
MODEL 2
REMARK VINA RESULT:     0.330      1.774      4.267
REMARK INTER + INTRA:           0.330
REMARK INTER:                   0.330
REMARK INTRA:                   0.000
REMARK UNBOUND:                 0.000
REMARK SMILES CC(C)=C1CC[C@H](C)CC1=O
REMARK SMILES IDX 8 1 7 2 6 3 5 4 4 5 2 6 1 7 3 8 10 9 11 10 9 11
REMARK H PARENT
REMARK Flexibility Score: inf
ROOT
ATOM      1  C   UNL     1      -2.593   7.175   7.784  1.00  0.00     0.008 C 
ATOM      2  C   UNL     1      -2.325   6.164   8.911  1.00  0.00    -0.006 C 
ATOM      3  C   UNL     1      -3.261   6.372  10.115  1.00  0.00     0.008 C 
ATOM      4  C   UNL     1      -4.732   6.061   9.794  1.00  0.00     0.039 C 
ATOM      5  C   UNL     1      -4.918   4.717   9.102  1.00  0.00    -0.006 C 
ATOM      6  C   UNL     1      -6.063   3.992   9.266  1.00  0.00    -0.070 C 
ATOM      7  C   UNL     1      -7.199   4.502  10.125  1.00  0.00     0.039 C 
ATOM      8  C   UNL     1      -6.241   2.631   8.632  1.00  0.00     0.039 C 
ATOM      9  C   UNL     1      -3.840   4.307   8.156  1.00  0.00     0.159 C 
ATOM     10  O   UNL     1      -4.098   3.625   7.126  1.00  0.00    -0.295 OA
ATOM     11  C   UNL     1      -2.419   4.716   8.410  1.00  0.00     0.084 C 
ENDROOT
TORSDOF 0
ENDMDL
MODEL 3
REMARK VINA RESULT:     0.523     20.681     21.639
REMARK INTER + INTRA:           0.523
REMARK INTER:                   0.523
REMARK INTRA:                   0.000
REMARK UNBOUND:                 0.000
REMARK SMILES CC(C)=C1CC[C@H](C)CC1=O
REMARK SMILES IDX 8 1 7 2 6 3 5 4 4 5 2 6 1 7 3 8 10 9 11 10 9 11
REMARK H PARENT
REMARK Flexibility Score: inf
ROOT
ATOM      1  C   UNL     1      -3.221 -10.074  -7.995  1.00  0.00     0.008 C 
ATOM      2  C   UNL     1      -3.090  -9.847  -9.510  1.00  0.00    -0.006 C 
ATOM      3  C   UNL     1      -4.362  -9.228 -10.118  1.00  0.00     0.008 C 
ATOM      4  C   UNL     1      -4.624  -7.793  -9.634  1.00  0.00     0.039 C 
ATOM      5  C   UNL     1      -3.397  -6.896  -9.743  1.00  0.00    -0.006 C 
ATOM      6  C   UNL     1      -3.521  -5.553  -9.956  1.00  0.00    -0.070 C 
ATOM      7  C   UNL     1      -4.881  -4.900 -10.073  1.00  0.00     0.039 C 
ATOM      8  C   UNL     1      -2.314  -4.658 -10.123  1.00  0.00     0.039 C 
ATOM      9  C   UNL     1      -2.079  -7.546  -9.488  1.00  0.00     0.159 C 
ATOM     10  O   UNL     1      -1.128  -6.911  -8.954  1.00  0.00    -0.295 OA
ATOM     11  C   UNL     1      -1.866  -8.986  -9.853  1.00  0.00     0.084 C 
ENDROOT
TORSDOF 0
ENDMDL
MODEL 4
REMARK VINA RESULT:     0.834     20.925     21.909
REMARK INTER + INTRA:           0.834
REMARK INTER:                   0.834
REMARK INTRA:                   0.000
REMARK UNBOUND:                 0.000
REMARK SMILES CC(C)=C1CC[C@H](C)CC1=O
REMARK SMILES IDX 8 1 7 2 6 3 5 4 4 5 2 6 1 7 3 8 10 9 11 10 9 11
REMARK H PARENT
REMARK Flexibility Score: inf
ROOT
ATOM      1  C   UNL     1      -6.418 -10.035  -7.865  1.00  0.00     0.008 C 
ATOM      2  C   UNL     1      -6.163 -10.001  -9.380  1.00  0.00    -0.006 C 
ATOM      3  C   UNL     1      -6.751  -8.742 -10.042  1.00  0.00     0.008 C 
ATOM      4  C   UNL     1      -6.047  -7.447  -9.604  1.00  0.00     0.039 C 
ATOM      5  C   UNL     1      -4.530  -7.534  -9.700  1.00  0.00    -0.006 C 
ATOM      6  C   UNL     1      -3.774  -6.425  -9.951  1.00  0.00    -0.070 C 
ATOM      7  C   UNL     1      -4.412  -5.064 -10.125  1.00  0.00     0.039 C 
ATOM      8  C   UNL     1      -2.272  -6.503 -10.105  1.00  0.00     0.039 C 
ATOM      9  C   UNL     1      -3.923  -8.861  -9.388  1.00  0.00     0.159 C 
ATOM     10  O   UNL     1      -2.789  -8.950  -8.843  1.00  0.00    -0.295 OA
ATOM     11  C   UNL     1      -4.668 -10.123  -9.709  1.00  0.00     0.084 C 
ENDROOT
TORSDOF 0
ENDMDL
MODEL 5
REMARK VINA RESULT:     1.454      1.472      3.584
REMARK INTER + INTRA:           1.454
REMARK INTER:                   1.454
REMARK INTRA:                   0.000
REMARK UNBOUND:                 0.000
REMARK SMILES CC(C)=C1CC[C@H](C)CC1=O
REMARK SMILES IDX 8 1 7 2 6 3 5 4 4 5 2 6 1 7 3 8 10 9 11 10 9 11
REMARK H PARENT
REMARK Flexibility Score: inf
ROOT
ATOM      1  C   UNL     1      -1.846   6.512   9.152  1.00  0.00     0.008 C 
ATOM      2  C   UNL     1      -3.095   6.756   8.289  1.00  0.00    -0.006 C 
ATOM      3  C   UNL     1      -2.994   6.073   6.913  1.00  0.00     0.008 C 
ATOM      4  C   UNL     1      -3.001   4.538   7.001  1.00  0.00     0.039 C 
ATOM      5  C   UNL     1      -4.130   3.998   7.869  1.00  0.00    -0.006 C 
ATOM      6  C   UNL     1      -4.687   2.776   7.622  1.00  0.00    -0.070 C 
ATOM      7  C   UNL     1      -4.193   1.903   6.490  1.00  0.00     0.039 C 
ATOM      8  C   UNL     1      -5.846   2.249   8.439  1.00  0.00     0.039 C 
ATOM      9  C   UNL     1      -4.501   4.820   9.058  1.00  0.00     0.159 C 
ATOM     10  O   UNL     1      -4.910   4.282  10.123  1.00  0.00    -0.295 OA
ATOM     11  C   UNL     1      -4.378   6.314   9.007  1.00  0.00     0.084 C 
ENDROOT
TORSDOF 0
ENDMDL
MODEL 6
REMARK VINA RESULT:     1.764      1.789      2.950
REMARK INTER + INTRA:           1.764
REMARK INTER:                   1.764
REMARK INTRA:                   0.000
REMARK UNBOUND:                 0.000
REMARK SMILES CC(C)=C1CC[C@H](C)CC1=O
REMARK SMILES IDX 8 1 7 2 6 3 5 4 4 5 2 6 1 7 3 8 10 9 11 10 9 11
REMARK H PARENT
REMARK Flexibility Score: inf
ROOT
ATOM      1  C   UNL     1      -5.306   2.397  10.111  1.00  0.00     0.008 C 
ATOM      2  C   UNL     1      -5.822   3.327   9.001  1.00  0.00    -0.006 C 
ATOM      3  C   UNL     1      -6.292   4.686   9.552  1.00  0.00     0.008 C 
ATOM      4  C   UNL     1      -5.144   5.533  10.124  1.00  0.00     0.039 C 
ATOM      5  C   UNL     1      -3.954   5.636   9.180  1.00  0.00    -0.006 C 
ATOM      6  C   UNL     1      -3.147   6.738   9.177  1.00  0.00    -0.070 C 
ATOM      7  C   UNL     1      -3.393   7.891  10.125  1.00  0.00     0.039 C 
ATOM      8  C   UNL     1      -1.996   6.881   8.208  1.00  0.00     0.039 C 
ATOM      9  C   UNL     1      -3.657   4.428   8.356  1.00  0.00     0.159 C 
ATOM     10  O   UNL     1      -2.474   4.126   8.039  1.00  0.00    -0.295 OA
ATOM     11  C   UNL     1      -4.774   3.536   7.899  1.00  0.00     0.084 C 
ENDROOT
TORSDOF 0
ENDMDL
MODEL 7
REMARK VINA RESULT:     2.878      1.594      3.586
REMARK INTER + INTRA:           2.878
REMARK INTER:                   2.878
REMARK INTRA:                   0.000
REMARK UNBOUND:                 0.000
REMARK SMILES CC(C)=C1CC[C@H](C)CC1=O
REMARK SMILES IDX 8 1 7 2 6 3 5 4 4 5 2 6 1 7 3 8 10 9 11 10 9 11
REMARK H PARENT
REMARK Flexibility Score: inf
ROOT
ATOM      1  C   UNL     1      -2.673   1.634   8.129  1.00  0.00     0.008 C 
ATOM      2  C   UNL     1      -3.457   2.523   7.151  1.00  0.00    -0.006 C 
ATOM      3  C   UNL     1      -4.967   2.225   7.173  1.00  0.00     0.008 C 
ATOM      4  C   UNL     1      -5.636   2.606   8.504  1.00  0.00     0.039 C 
ATOM      5  C   UNL     1      -5.285   4.015   8.963  1.00  0.00    -0.006 C 
ATOM      6  C   UNL     1      -6.159   4.753   9.709  1.00  0.00    -0.070 C 
ATOM      7  C   UNL     1      -7.502   4.193  10.123  1.00  0.00     0.039 C 
ATOM      8  C   UNL     1      -5.851   6.173  10.125  1.00  0.00     0.039 C 
ATOM      9  C   UNL     1      -3.903   4.486   8.656  1.00  0.00     0.159 C 
ATOM     10  O   UNL     1      -3.291   5.271   9.431  1.00  0.00    -0.295 OA
ATOM     11  C   UNL     1      -3.207   4.016   7.412  1.00  0.00     0.084 C 
ENDROOT
TORSDOF 0
ENDMDL
