MODEL 1
REMARK VINA RESULT:    -3.200      0.000      0.000
REMARK INTER + INTRA:          -4.012
REMARK INTER:                  -3.668
REMARK INTRA:                  -0.344
REMARK UNBOUND:                -0.344
REMARK SMILES COc1ccc(C(C)=O)c(O)c1
REMARK SMILES IDX 6 1 10 2 12 3 3 4 4 5 5 6 7 7 8 8 9 9 11 10 2 12 1 13
REMARK H PARENT 11 11
REMARK Flexibility Score: inf
ROOT
ATOM      1  C   UNL     1     -26.047  51.423  42.277  1.00  0.00     0.059 A 
ATOM      2  C   UNL     1     -26.115  52.836  42.285  1.00  0.00     0.130 A 
ATOM      3  C   UNL     1     -26.132  53.533  43.502  1.00  0.00     0.093 A 
ATOM      4  C   UNL     1     -26.079  52.851  44.721  1.00  0.00     0.122 A 
ATOM      5  C   UNL     1     -26.008  51.448  44.717  1.00  0.00     0.047 A 
ATOM      6  C   UNL     1     -25.992  50.745  43.511  1.00  0.00     0.019 A 
ENDROOT
BRANCH   1   7
ATOM      7  C   UNL     1     -26.037  50.656  40.997  1.00  0.00     0.163 C 
ATOM      8  C   UNL     1     -27.061  49.601  40.702  1.00  0.00     0.093 C 
ATOM      9  O   UNL     1     -25.172  50.908  40.115  1.00  0.00    -0.294 OA
ENDBRANCH   1   7
BRANCH   2  10
ATOM     10  O   UNL     1     -26.154  53.553  41.088  1.00  0.00    -0.507 OA
ATOM     11  H   UNL     1     -25.308  53.797  40.586  1.00  0.00     0.293 HD
ENDBRANCH   2  10
BRANCH   4  12
ATOM     12  O   UNL     1     -26.099  53.601  45.906  1.00  0.00    -0.497 OA
ATOM     13  C   UNL     1     -26.497  54.966  45.989  1.00  0.00     0.278 C 
ENDBRANCH   4  12
TORSDOF 3
ENDMDL
MODEL 2
REMARK VINA RESULT:    -3.199      9.499     10.674
REMARK INTER + INTRA:          -4.011
REMARK INTER:                  -3.679
REMARK INTRA:                  -0.332
REMARK UNBOUND:                -0.344
REMARK SMILES COc1ccc(C(C)=O)c(O)c1
REMARK SMILES IDX 6 1 10 2 12 3 3 4 4 5 5 6 7 7 8 8 9 9 11 10 2 12 1 13
REMARK H PARENT 11 11
REMARK Flexibility Score: inf
ROOT
ATOM      1  C   UNL     1     -27.897  52.270  33.433  1.00  0.00     0.059 A 
ATOM      2  C   UNL     1     -29.168  51.776  33.055  1.00  0.00     0.130 A 
ATOM      3  C   UNL     1     -29.484  50.424  33.251  1.00  0.00     0.093 A 
ATOM      4  C   UNL     1     -28.560  49.546  33.824  1.00  0.00     0.122 A 
ATOM      5  C   UNL     1     -27.299  50.033  34.205  1.00  0.00     0.047 A 
ATOM      6  C   UNL     1     -26.973  51.377  34.012  1.00  0.00     0.019 A 
ENDROOT
BRANCH   1   7
ATOM      7  C   UNL     1     -27.531  53.701  33.227  1.00  0.00     0.163 C 
ATOM      8  C   UNL     1     -27.109  54.579  34.367  1.00  0.00     0.093 C 
ATOM      9  O   UNL     1     -27.542  54.197  32.067  1.00  0.00    -0.294 OA
ENDBRANCH   1   7
BRANCH   2  10
ATOM     10  O   UNL     1     -30.123  52.625  32.494  1.00  0.00    -0.507 OA
ATOM     11  H   UNL     1     -31.054  52.711  32.885  1.00  0.00     0.293 HD
ENDBRANCH   2  10
BRANCH   4  12
ATOM     12  O   UNL     1     -28.933  48.205  33.997  1.00  0.00    -0.497 OA
ATOM     13  C   UNL     1     -29.675  47.446  33.048  1.00  0.00     0.278 C 
ENDBRANCH   4  12
TORSDOF 3
ENDMDL
MODEL 3
REMARK VINA RESULT:    -3.073      8.781      9.900
REMARK INTER + INTRA:          -3.866
REMARK INTER:                  -3.569
REMARK INTRA:                  -0.297
REMARK UNBOUND:                -0.344
REMARK SMILES COc1ccc(C(C)=O)c(O)c1
REMARK SMILES IDX 6 1 10 2 12 3 3 4 4 5 5 6 7 7 8 8 9 9 11 10 2 12 1 13
REMARK H PARENT 11 11
REMARK Flexibility Score: inf
ROOT
ATOM      1  C   UNL     1     -27.826  56.853  33.862  1.00  0.00     0.059 A 
ATOM      2  C   UNL     1     -27.478  55.976  34.916  1.00  0.00     0.130 A 
ATOM      3  C   UNL     1     -27.231  56.484  36.201  1.00  0.00     0.093 A 
ATOM      4  C   UNL     1     -27.328  57.853  36.463  1.00  0.00     0.122 A 
ATOM      5  C   UNL     1     -27.677  58.726  35.420  1.00  0.00     0.047 A 
ATOM      6  C   UNL     1     -27.922  58.232  34.137  1.00  0.00     0.019 A 
ENDROOT
BRANCH   1   7
ATOM      7  C   UNL     1     -28.084  56.342  32.485  1.00  0.00     0.163 C 
ATOM      8  C   UNL     1     -27.800  57.173  31.269  1.00  0.00     0.093 C 
ATOM      9  O   UNL     1     -28.525  55.172  32.316  1.00  0.00    -0.294 OA
ENDBRANCH   1   7
BRANCH   2  10
ATOM     10  O   UNL     1     -27.387  54.601  34.698  1.00  0.00    -0.507 OA
ATOM     11  H   UNL     1     -26.496  54.145  34.539  1.00  0.00     0.293 HD
ENDBRANCH   2  10
BRANCH   4  12
ATOM     12  O   UNL     1     -27.071  58.302  37.766  1.00  0.00    -0.497 OA
ATOM     13  C   UNL     1     -27.658  59.461  38.349  1.00  0.00     0.278 C 
ENDBRANCH   4  12
TORSDOF 3
ENDMDL
MODEL 4
REMARK VINA RESULT:    -3.002      1.609      4.271
REMARK INTER + INTRA:          -3.785
REMARK INTER:                  -3.444
REMARK INTRA:                  -0.342
REMARK UNBOUND:                -0.344
REMARK SMILES COc1ccc(C(C)=O)c(O)c1
REMARK SMILES IDX 6 1 10 2 12 3 3 4 4 5 5 6 7 7 8 8 9 9 11 10 2 12 1 13
REMARK H PARENT 11 11
REMARK Flexibility Score: inf
ROOT
ATOM      1  C   UNL     1     -25.817  53.121  43.794  1.00  0.00     0.059 A 
ATOM      2  C   UNL     1     -26.085  52.571  42.518  1.00  0.00     0.130 A 
ATOM      3  C   UNL     1     -26.186  51.181  42.359  1.00  0.00     0.093 A 
ATOM      4  C   UNL     1     -26.030  50.320  43.449  1.00  0.00     0.122 A 
ATOM      5  C   UNL     1     -25.767  50.863  44.718  1.00  0.00     0.047 A 
ATOM      6  C   UNL     1     -25.663  52.246  44.886  1.00  0.00     0.019 A 
ENDROOT
BRANCH   1   7
ATOM      7  C   UNL     1     -25.696  54.596  43.989  1.00  0.00     0.163 C 
ATOM      8  C   UNL     1     -26.355  55.296  45.140  1.00  0.00     0.093 C 
ATOM      9  O   UNL     1     -25.000  55.285  43.194  1.00  0.00    -0.294 OA
ENDBRANCH   1   7
BRANCH   2  10
ATOM     10  O   UNL     1     -26.263  53.399  41.409  1.00  0.00    -0.507 OA
ATOM     11  H   UNL     1     -26.079  53.074  40.467  1.00  0.00     0.293 HD
ENDBRANCH   2  10
BRANCH   4  12
ATOM     12  O   UNL     1     -26.142  48.940  43.230  1.00  0.00    -0.497 OA
ATOM     13  C   UNL     1     -26.723  48.353  42.069  1.00  0.00     0.278 C 
ENDBRANCH   4  12
TORSDOF 3
ENDMDL
MODEL 5
REMARK VINA RESULT:    -2.980      2.429      3.294
REMARK INTER + INTRA:          -3.760
REMARK INTER:                  -3.438
REMARK INTRA:                  -0.322
REMARK UNBOUND:                -0.344
REMARK SMILES COc1ccc(C(C)=O)c(O)c1
REMARK SMILES IDX 6 1 10 2 12 3 3 4 4 5 5 6 7 7 8 8 9 9 11 10 2 12 1 13
REMARK H PARENT 11 11
REMARK Flexibility Score: inf
ROOT
ATOM      1  C   UNL     1     -25.446  54.350  43.003  1.00  0.00     0.059 A 
ATOM      2  C   UNL     1     -26.359  53.449  43.599  1.00  0.00     0.130 A 
ATOM      3  C   UNL     1     -26.775  53.645  44.925  1.00  0.00     0.093 A 
ATOM      4  C   UNL     1     -26.303  54.726  45.674  1.00  0.00     0.122 A 
ATOM      5  C   UNL     1     -25.399  55.625  45.083  1.00  0.00     0.047 A 
ATOM      6  C   UNL     1     -24.978  55.438  43.765  1.00  0.00     0.019 A 
ENDROOT
BRANCH   1   7
ATOM      7  C   UNL     1     -24.980  54.161  41.598  1.00  0.00     0.163 C 
ATOM      8  C   UNL     1     -24.689  55.326  40.700  1.00  0.00     0.093 C 
ATOM      9  O   UNL     1     -24.791  52.999  41.145  1.00  0.00    -0.294 OA
ENDBRANCH   1   7
BRANCH   2  10
ATOM     10  O   UNL     1     -26.865  52.367  42.879  1.00  0.00    -0.507 OA
ATOM     11  H   UNL     1     -26.985  51.454  43.303  1.00  0.00     0.293 HD
ENDBRANCH   2  10
BRANCH   4  12
ATOM     12  O   UNL     1     -26.755  54.871  46.994  1.00  0.00    -0.497 OA
ATOM     13  C   UNL     1     -26.359  55.922  47.869  1.00  0.00     0.278 C 
ENDBRANCH   4  12
TORSDOF 3
ENDMDL
MODEL 6
REMARK VINA RESULT:    -2.959      8.928     10.901
REMARK INTER + INTRA:          -3.735
REMARK INTER:                  -3.407
REMARK INTRA:                  -0.329
REMARK UNBOUND:                -0.344
REMARK SMILES COc1ccc(C(C)=O)c(O)c1
REMARK SMILES IDX 6 1 10 2 12 3 3 4 4 5 5 6 7 7 8 8 9 9 11 10 2 12 1 13
REMARK H PARENT 11 11
REMARK Flexibility Score: inf
ROOT
ATOM      1  C   UNL     1     -27.547  57.098  34.310  1.00  0.00     0.059 A 
ATOM      2  C   UNL     1     -27.170  55.929  35.011  1.00  0.00     0.130 A 
ATOM      3  C   UNL     1     -27.234  54.678  34.378  1.00  0.00     0.093 A 
ATOM      4  C   UNL     1     -27.665  54.564  33.054  1.00  0.00     0.122 A 
ATOM      5  C   UNL     1     -28.036  55.724  32.354  1.00  0.00     0.047 A 
ATOM      6  C   UNL     1     -27.978  56.974  32.975  1.00  0.00     0.019 A 
ENDROOT
BRANCH   1   7
ATOM      7  C   UNL     1     -27.497  58.439  34.962  1.00  0.00     0.163 C 
ATOM      8  C   UNL     1     -28.602  59.439  34.794  1.00  0.00     0.093 C 
ATOM      9  O   UNL     1     -26.523  58.749  35.701  1.00  0.00    -0.294 OA
ENDBRANCH   1   7
BRANCH   2  10
ATOM     10  O   UNL     1     -26.720  56.002  36.330  1.00  0.00    -0.507 OA
ATOM     11  H   UNL     1     -26.913  55.268  37.001  1.00  0.00     0.293 HD
ENDBRANCH   2  10
BRANCH   4  12
ATOM     12  O   UNL     1     -27.707  53.289  32.473  1.00  0.00    -0.497 OA
ATOM     13  C   UNL     1     -28.441  52.188  33.001  1.00  0.00     0.278 C 
ENDBRANCH   4  12
TORSDOF 3
ENDMDL
MODEL 7
REMARK VINA RESULT:    -2.918      2.948      5.733
REMARK INTER + INTRA:          -3.689
REMARK INTER:                  -3.347
REMARK INTRA:                  -0.342
REMARK UNBOUND:                -0.344
REMARK SMILES COc1ccc(C(C)=O)c(O)c1
REMARK SMILES IDX 6 1 10 2 12 3 3 4 4 5 5 6 7 7 8 8 9 9 11 10 2 12 1 13
REMARK H PARENT 11 11
REMARK Flexibility Score: inf
ROOT
ATOM      1  C   UNL     1     -26.409  49.215  41.945  1.00  0.00     0.059 A 
ATOM      2  C   UNL     1     -26.825  49.860  40.756  1.00  0.00     0.130 A 
ATOM      3  C   UNL     1     -27.790  49.261  39.933  1.00  0.00     0.093 A 
ATOM      4  C   UNL     1     -28.359  48.030  40.270  1.00  0.00     0.122 A 
ATOM      5  C   UNL     1     -27.951  47.389  41.452  1.00  0.00     0.047 A 
ATOM      6  C   UNL     1     -26.989  47.975  42.277  1.00  0.00     0.019 A 
ENDROOT
BRANCH   1   7
ATOM      7  C   UNL     1     -25.377  49.824  42.834  1.00  0.00     0.163 C 
ATOM      8  C   UNL     1     -25.605  49.995  44.306  1.00  0.00     0.093 C 
ATOM      9  O   UNL     1     -24.265  50.184  42.359  1.00  0.00    -0.294 OA
ENDBRANCH   1   7
BRANCH   2  10
ATOM     10  O   UNL     1     -26.292  51.097  40.393  1.00  0.00    -0.507 OA
ATOM     11  H   UNL     1     -26.869  51.829  39.994  1.00  0.00     0.293 HD
ENDBRANCH   2  10
BRANCH   4  12
ATOM     12  O   UNL     1     -29.320  47.481  39.409  1.00  0.00    -0.497 OA
ATOM     13  C   UNL     1     -29.733  46.119  39.427  1.00  0.00     0.278 C 
ENDBRANCH   4  12
TORSDOF 3
ENDMDL
MODEL 8
REMARK VINA RESULT:    -2.915      1.125      5.002
REMARK INTER + INTRA:          -3.685
REMARK INTER:                  -3.356
REMARK INTRA:                  -0.329
REMARK UNBOUND:                -0.344
REMARK SMILES COc1ccc(C(C)=O)c(O)c1
REMARK SMILES IDX 6 1 10 2 12 3 3 4 4 5 5 6 7 7 8 8 9 9 11 10 2 12 1 13
REMARK H PARENT 11 11
REMARK Flexibility Score: inf
ROOT
ATOM      1  C   UNL     1     -25.911  52.944  44.048  1.00  0.00     0.059 A 
ATOM      2  C   UNL     1     -26.104  51.544  44.005  1.00  0.00     0.130 A 
ATOM      3  C   UNL     1     -26.072  50.866  42.777  1.00  0.00     0.093 A 
ATOM      4  C   UNL     1     -25.847  51.555  41.583  1.00  0.00     0.122 A 
ATOM      5  C   UNL     1     -25.651  52.946  41.621  1.00  0.00     0.047 A 
ATOM      6  C   UNL     1     -25.683  53.630  42.838  1.00  0.00     0.019 A 
ENDROOT
BRANCH   1   7
ATOM      7  C   UNL     1     -25.950  53.691  45.339  1.00  0.00     0.163 C 
ATOM      8  C   UNL     1     -26.632  55.022  45.460  1.00  0.00     0.093 C 
ATOM      9  O   UNL     1     -25.427  53.195  46.374  1.00  0.00    -0.294 OA
ENDBRANCH   1   7
BRANCH   2  10
ATOM     10  O   UNL     1     -26.317  50.818  45.178  1.00  0.00    -0.507 OA
ATOM     11  H   UNL     1     -25.753  50.010  45.414  1.00  0.00     0.293 HD
ENDBRANCH   2  10
BRANCH   4  12
ATOM     12  O   UNL     1     -25.824  50.825  40.386  1.00  0.00    -0.497 OA
ATOM     13  C   UNL     1     -26.381  49.524  40.226  1.00  0.00     0.278 C 
ENDBRANCH   4  12
TORSDOF 3
ENDMDL
MODEL 9
REMARK VINA RESULT:    -2.890      2.041      3.045
REMARK INTER + INTRA:          -3.657
REMARK INTER:                  -3.351
REMARK INTRA:                  -0.306
REMARK UNBOUND:                -0.344
REMARK SMILES COc1ccc(C(C)=O)c(O)c1
REMARK SMILES IDX 6 1 10 2 12 3 3 4 4 5 5 6 7 7 8 8 9 9 11 10 2 12 1 13
REMARK H PARENT 11 11
REMARK Flexibility Score: inf
ROOT
ATOM      1  C   UNL     1     -25.893  53.140  43.347  1.00  0.00     0.059 A 
ATOM      2  C   UNL     1     -26.754  53.400  44.439  1.00  0.00     0.130 A 
ATOM      3  C   UNL     1     -26.629  54.595  45.163  1.00  0.00     0.093 A 
ATOM      4  C   UNL     1     -25.663  55.545  44.821  1.00  0.00     0.122 A 
ATOM      5  C   UNL     1     -24.809  55.291  43.735  1.00  0.00     0.047 A 
ATOM      6  C   UNL     1     -24.924  54.104  43.008  1.00  0.00     0.019 A 
ENDROOT
BRANCH   1   7
ATOM      7  C   UNL     1     -25.998  51.873  42.565  1.00  0.00     0.163 C 
ATOM      8  C   UNL     1     -25.611  51.806  41.117  1.00  0.00     0.093 C 
ATOM      9  O   UNL     1     -26.391  50.814  43.125  1.00  0.00    -0.294 OA
ENDBRANCH   1   7
BRANCH   2  10
ATOM     10  O   UNL     1     -27.741  52.483  44.802  1.00  0.00    -0.507 OA
ATOM     11  H   UNL     1     -27.616  51.846  45.580  1.00  0.00     0.293 HD
ENDBRANCH   2  10
BRANCH   4  12
ATOM     12  O   UNL     1     -25.585  56.721  45.581  1.00  0.00    -0.497 OA
ATOM     13  C   UNL     1     -24.448  57.576  45.628  1.00  0.00     0.278 C 
ENDBRANCH   4  12
TORSDOF 3
ENDMDL
