MODEL 1
REMARK VINA RESULT:    -3.376      0.000      0.000
REMARK INTER + INTRA:          -5.558
REMARK INTER:                  -4.954
REMARK INTRA:                  -0.604
REMARK UNBOUND:                -0.604
REMARK SMILES O=C([O-])CCCCCCCC(=O)[O-]
REMARK SMILES IDX 7 1 6 2 5 3 4 4 2 5 1 6 3 7 8 8 9 9 10 10 11 11 12 12 13 13
REMARK H PARENT
REMARK Flexibility Score: inf
ROOT
ATOM      1  C   UNL     1       4.689   8.981  -2.550  1.00  0.00     0.000 C 
ENDROOT
BRANCH   1   2
ATOM      2  C   UNL     1       6.159   9.424  -2.503  1.00  0.00     0.000 C 
BRANCH   2   3
ATOM      3  C   UNL     1       6.961   8.565  -1.515  1.00  0.00     0.006 C 
BRANCH   3   4
ATOM      4  C   UNL     1       8.281   8.065  -2.118  1.00  0.00     0.053 C 
BRANCH   4   5
ATOM      5  C   UNL     1       8.050   7.175  -3.300  1.00  0.00     0.041 C 
ATOM      6  O   UNL     1       8.726   7.330  -4.351  1.00  0.00    -0.550 OA
ATOM      7  O   UNL     1       7.110   6.154  -3.230  1.00  0.00    -0.550 OA
ENDBRANCH   4   5
ENDBRANCH   3   4
ENDBRANCH   2   3
ENDBRANCH   1   2
BRANCH   1   8
ATOM      8  C   UNL     1       4.286   8.409  -3.917  1.00  0.00     0.000 C 
BRANCH   8   9
ATOM      9  C   UNL     1       5.303   8.742  -5.023  1.00  0.00     0.006 C 
BRANCH   9  10
ATOM     10  C   UNL     1       4.638   9.380  -6.249  1.00  0.00     0.053 C 
BRANCH  10  11
ATOM     11  C   UNL     1       5.284   8.935  -7.526  1.00  0.00     0.041 C 
ATOM     12  O   UNL     1       6.358   8.279  -7.497  1.00  0.00    -0.550 OA
ATOM     13  O   UNL     1       4.718   9.276  -8.749  1.00  0.00    -0.550 OA
ENDBRANCH  10  11
ENDBRANCH   9  10
ENDBRANCH   8   9
ENDBRANCH   1   8
TORSDOF 8
ENDMDL
MODEL 2
REMARK VINA RESULT:    -3.344     14.122     15.319
REMARK INTER + INTRA:          -5.511
REMARK INTER:                  -5.211
REMARK INTRA:                  -0.301
REMARK UNBOUND:                -0.604
REMARK SMILES O=C([O-])CCCCCCCC(=O)[O-]
REMARK SMILES IDX 7 1 6 2 5 3 4 4 2 5 1 6 3 7 8 8 9 9 10 10 11 11 12 12 13 13
REMARK H PARENT
REMARK Flexibility Score: inf
ROOT
ATOM      1  C   UNL     1      -6.888   1.574  -3.435  1.00  0.00     0.000 C 
ENDROOT
BRANCH   1   2
ATOM      2  C   UNL     1      -5.829   2.180  -2.503  1.00  0.00     0.000 C 
BRANCH   2   3
ATOM      3  C   UNL     1      -6.477   2.752  -1.234  1.00  0.00     0.006 C 
BRANCH   3   4
ATOM      4  C   UNL     1      -5.434   3.257  -0.225  1.00  0.00     0.053 C 
BRANCH   4   5
ATOM      5  C   UNL     1      -5.167   2.248   0.848  1.00  0.00     0.041 C 
ATOM      6  O   UNL     1      -4.846   1.068   0.544  1.00  0.00    -0.550 OA
ATOM      7  O   UNL     1      -5.240   2.617   2.186  1.00  0.00    -0.550 OA
ENDBRANCH   4   5
ENDBRANCH   3   4
ENDBRANCH   2   3
ENDBRANCH   1   2
BRANCH   1   8
ATOM      8  C   UNL     1      -8.060   2.531  -3.701  1.00  0.00     0.000 C 
BRANCH   8   9
ATOM      9  C   UNL     1      -9.054   1.978  -4.737  1.00  0.00     0.006 C 
BRANCH   9  10
ATOM     10  C   UNL     1      -8.894   0.467  -4.945  1.00  0.00     0.053 C 
BRANCH  10  11
ATOM     11  C   UNL     1      -8.979   0.093  -6.394  1.00  0.00     0.041 C 
ATOM     12  O   UNL     1      -8.273   0.694  -7.245  1.00  0.00    -0.550 OA
ATOM     13  O   UNL     1      -9.866  -0.893  -6.808  1.00  0.00    -0.550 OA
ENDBRANCH  10  11
ENDBRANCH   9  10
ENDBRANCH   8   9
ENDBRANCH   1   8
TORSDOF 8
ENDMDL
MODEL 3
REMARK VINA RESULT:    -3.291     14.094     16.117
REMARK INTER + INTRA:          -5.435
REMARK INTER:                  -5.239
REMARK INTRA:                  -0.196
REMARK UNBOUND:                -0.604
REMARK SMILES O=C([O-])CCCCCCCC(=O)[O-]
REMARK SMILES IDX 7 1 6 2 5 3 4 4 2 5 1 6 3 7 8 8 9 9 10 10 11 11 12 12 13 13
REMARK H PARENT
REMARK Flexibility Score: inf
ROOT
ATOM      1  C   UNL     1      -6.605   1.546  -3.427  1.00  0.00     0.000 C 
ENDROOT
BRANCH   1   2
ATOM      2  C   UNL     1      -7.942   2.301  -3.445  1.00  0.00     0.000 C 
BRANCH   2   3
ATOM      3  C   UNL     1      -8.735   1.986  -4.722  1.00  0.00     0.006 C 
BRANCH   3   4
ATOM      4  C   UNL     1      -9.016   0.484  -4.875  1.00  0.00     0.053 C 
BRANCH   4   5
ATOM      5  C   UNL     1      -9.053   0.070  -6.314  1.00  0.00     0.041 C 
ATOM      6  O   UNL     1      -8.293   0.624  -7.152  1.00  0.00    -0.550 OA
ATOM      7  O   UNL     1      -9.902  -0.950  -6.724  1.00  0.00    -0.550 OA
ENDBRANCH   4   5
ENDBRANCH   3   4
ENDBRANCH   2   3
ENDBRANCH   1   2
BRANCH   1   8
ATOM      8  C   UNL     1      -5.628   2.095  -2.377  1.00  0.00     0.000 C 
BRANCH   8   9
ATOM      9  C   UNL     1      -6.340   2.851  -1.242  1.00  0.00     0.006 C 
BRANCH   9  10
ATOM     10  C   UNL     1      -5.365   3.312  -0.152  1.00  0.00     0.053 C 
BRANCH  10  11
ATOM     11  C   UNL     1      -5.180   2.267   0.906  1.00  0.00     0.041 C 
ATOM     12  O   UNL     1      -5.270   2.575   2.123  1.00  0.00    -0.550 OA
ATOM     13  O   UNL     1      -4.874   0.960   0.548  1.00  0.00    -0.550 OA
ENDBRANCH  10  11
ENDBRANCH   9  10
ENDBRANCH   8   9
ENDBRANCH   1   8
TORSDOF 8
ENDMDL
MODEL 4
REMARK VINA RESULT:    -3.240      1.405      2.498
REMARK INTER + INTRA:          -5.359
REMARK INTER:                  -4.879
REMARK INTRA:                  -0.479
REMARK UNBOUND:                -0.604
REMARK SMILES O=C([O-])CCCCCCCC(=O)[O-]
REMARK SMILES IDX 7 1 6 2 5 3 4 4 2 5 1 6 3 7 8 8 9 9 10 10 11 11 12 12 13 13
REMARK H PARENT
REMARK Flexibility Score: inf
ROOT
ATOM      1  C   UNL     1       4.849   9.101  -4.791  1.00  0.00     0.000 C 
ENDROOT
BRANCH   1   2
ATOM      2  C   UNL     1       4.010   8.260  -3.817  1.00  0.00     0.000 C 
BRANCH   2   3
ATOM      3  C   UNL     1       4.903   7.321  -2.993  1.00  0.00     0.006 C 
BRANCH   3   4
ATOM      4  C   UNL     1       6.157   8.029  -2.462  1.00  0.00     0.053 C 
BRANCH   4   5
ATOM      5  C   UNL     1       7.403   7.255  -2.765  1.00  0.00     0.041 C 
ATOM      6  O   UNL     1       7.331   6.141  -3.348  1.00  0.00    -0.550 OA
ATOM      7  O   UNL     1       8.646   7.779  -2.433  1.00  0.00    -0.550 OA
ENDBRANCH   4   5
ENDBRANCH   3   4
ENDBRANCH   2   3
ENDBRANCH   1   2
BRANCH   1   8
ATOM      8  C   UNL     1       4.337   9.016  -6.237  1.00  0.00     0.000 C 
BRANCH   8   9
ATOM      9  C   UNL     1       5.277   9.708  -7.240  1.00  0.00     0.006 C 
BRANCH   9  10
ATOM     10  C   UNL     1       6.710   9.824  -6.706  1.00  0.00     0.053 C 
BRANCH  10  11
ATOM     11  C   UNL     1       7.570   8.689  -7.172  1.00  0.00     0.041 C 
ATOM     12  O   UNL     1       7.539   8.323  -8.376  1.00  0.00    -0.550 OA
ATOM     13  O   UNL     1       8.380   8.012  -6.268  1.00  0.00    -0.550 OA
ENDBRANCH  10  11
ENDBRANCH   9  10
ENDBRANCH   8   9
ENDBRANCH   1   8
TORSDOF 8
ENDMDL
MODEL 5
REMARK VINA RESULT:    -3.170     13.835     14.767
REMARK INTER + INTRA:          -5.256
REMARK INTER:                  -4.971
REMARK INTRA:                  -0.285
REMARK UNBOUND:                -0.604
REMARK SMILES O=C([O-])CCCCCCCC(=O)[O-]
REMARK SMILES IDX 7 1 6 2 5 3 4 4 2 5 1 6 3 7 8 8 9 9 10 10 11 11 12 12 13 13
REMARK H PARENT
REMARK Flexibility Score: inf
ROOT
ATOM      1  C   UNL     1      -7.382   1.560  -3.741  1.00  0.00     0.000 C 
ENDROOT
BRANCH   1   2
ATOM      2  C   UNL     1      -7.183   2.555  -2.588  1.00  0.00     0.000 C 
BRANCH   2   3
ATOM      3  C   UNL     1      -5.827   2.338  -1.901  1.00  0.00     0.006 C 
BRANCH   3   4
ATOM      4  C   UNL     1      -5.753   3.025  -0.530  1.00  0.00     0.053 C 
BRANCH   4   5
ATOM      5  C   UNL     1      -5.262   2.092   0.533  1.00  0.00     0.041 C 
ATOM      6  O   UNL     1      -4.749   0.986   0.218  1.00  0.00    -0.550 OA
ATOM      7  O   UNL     1      -5.342   2.458   1.871  1.00  0.00    -0.550 OA
ENDBRANCH   4   5
ENDBRANCH   3   4
ENDBRANCH   2   3
ENDBRANCH   1   2
BRANCH   1   8
ATOM      8  C   UNL     1      -8.696   1.790  -4.501  1.00  0.00     0.000 C 
BRANCH   8   9
ATOM      9  C   UNL     1      -9.119   3.269  -4.524  1.00  0.00     0.006 C 
BRANCH   9  10
ATOM     10  C   UNL     1      -9.700   3.685  -5.881  1.00  0.00     0.053 C 
BRANCH  10  11
ATOM     11  C   UNL     1      -8.630   4.130  -6.830  1.00  0.00     0.041 C 
ATOM     12  O   UNL     1      -8.106   3.307  -7.626  1.00  0.00    -0.550 OA
ATOM     13  O   UNL     1      -8.186   5.447  -6.812  1.00  0.00    -0.550 OA
ENDBRANCH  10  11
ENDBRANCH   9  10
ENDBRANCH   8   9
ENDBRANCH   1   8
TORSDOF 8
ENDMDL
MODEL 6
REMARK VINA RESULT:    -3.153      1.541      4.358
REMARK INTER + INTRA:          -5.231
REMARK INTER:                  -4.641
REMARK INTRA:                  -0.590
REMARK UNBOUND:                -0.604
REMARK SMILES O=C([O-])CCCCCCCC(=O)[O-]
REMARK SMILES IDX 7 1 6 2 5 3 4 4 2 5 1 6 3 7 8 8 9 9 10 10 11 11 12 12 13 13
REMARK H PARENT
REMARK Flexibility Score: inf
ROOT
ATOM      1  C   UNL     1       4.011   8.622  -4.482  1.00  0.00     0.000 C 
ENDROOT
BRANCH   1   2
ATOM      2  C   UNL     1       4.637   9.655  -5.431  1.00  0.00     0.000 C 
BRANCH   2   3
ATOM      3  C   UNL     1       5.721   9.011  -6.307  1.00  0.00     0.006 C 
BRANCH   3   4
ATOM      4  C   UNL     1       7.068   8.901  -5.578  1.00  0.00     0.053 C 
BRANCH   4   5
ATOM      5  C   UNL     1       8.146   8.379  -6.477  1.00  0.00     0.041 C 
ATOM      6  O   UNL     1       9.197   7.889  -5.988  1.00  0.00    -0.550 OA
ATOM      7  O   UNL     1       7.975   8.404  -7.856  1.00  0.00    -0.550 OA
ENDBRANCH   4   5
ENDBRANCH   3   4
ENDBRANCH   2   3
ENDBRANCH   1   2
BRANCH   1   8
ATOM      8  C   UNL     1       4.521   8.759  -3.040  1.00  0.00     0.000 C 
BRANCH   8   9
ATOM      9  C   UNL     1       5.378   7.560  -2.597  1.00  0.00     0.006 C 
BRANCH   9  10
ATOM     10  C   UNL     1       6.706   7.999  -1.967  1.00  0.00     0.053 C 
BRANCH  10  11
ATOM     11  C   UNL     1       7.861   7.205  -2.498  1.00  0.00     0.041 C 
ATOM     12  O   UNL     1       9.038   7.494  -2.157  1.00  0.00    -0.550 OA
ATOM     13  O   UNL     1       7.640   6.170  -3.398  1.00  0.00    -0.550 OA
ENDBRANCH  10  11
ENDBRANCH   9  10
ENDBRANCH   8   9
ENDBRANCH   1   8
TORSDOF 8
ENDMDL
MODEL 7
REMARK VINA RESULT:    -3.149      2.107      3.529
REMARK INTER + INTRA:          -5.225
REMARK INTER:                  -4.645
REMARK INTRA:                  -0.580
REMARK UNBOUND:                -0.604
REMARK SMILES O=C([O-])CCCCCCCC(=O)[O-]
REMARK SMILES IDX 7 1 6 2 5 3 4 4 2 5 1 6 3 7 8 8 9 9 10 10 11 11 12 12 13 13
REMARK H PARENT
REMARK Flexibility Score: inf
ROOT
ATOM      1  C   UNL     1       5.140   9.670  -6.360  1.00  0.00     0.000 C 
ENDROOT
BRANCH   1   2
ATOM      2  C   UNL     1       4.820   9.061  -4.987  1.00  0.00     0.000 C 
BRANCH   2   3
ATOM      3  C   UNL     1       5.981   9.276  -4.006  1.00  0.00     0.006 C 
BRANCH   3   4
ATOM      4  C   UNL     1       5.769   8.530  -2.681  1.00  0.00     0.053 C 
BRANCH   4   5
ATOM      5  C   UNL     1       5.745   7.046  -2.877  1.00  0.00     0.041 C 
ATOM      6  O   UNL     1       4.691   6.393  -2.654  1.00  0.00    -0.550 OA
ATOM      7  O   UNL     1       6.879   6.386  -3.336  1.00  0.00    -0.550 OA
ENDBRANCH   4   5
ENDBRANCH   3   4
ENDBRANCH   2   3
ENDBRANCH   1   2
BRANCH   1   8
ATOM      8  C   UNL     1       5.877   8.689  -7.285  1.00  0.00     0.000 C 
BRANCH   8   9
ATOM      9  C   UNL     1       7.154   9.294  -7.894  1.00  0.00     0.006 C 
BRANCH   9  10
ATOM     10  C   UNL     1       8.267   9.469  -6.853  1.00  0.00     0.053 C 
BRANCH  10  11
ATOM     11  C   UNL     1       8.961   8.174  -6.560  1.00  0.00     0.041 C 
ATOM     12  O   UNL     1       9.337   7.429  -7.503  1.00  0.00    -0.550 OA
ATOM     13  O   UNL     1       9.162   7.772  -5.244  1.00  0.00    -0.550 OA
ENDBRANCH  10  11
ENDBRANCH   9  10
ENDBRANCH   8   9
ENDBRANCH   1   8
TORSDOF 8
ENDMDL
MODEL 8
REMARK VINA RESULT:    -3.137     13.758     15.724
REMARK INTER + INTRA:          -5.207
REMARK INTER:                  -4.917
REMARK INTRA:                  -0.290
REMARK UNBOUND:                -0.604
REMARK SMILES O=C([O-])CCCCCCCC(=O)[O-]
REMARK SMILES IDX 7 1 6 2 5 3 4 4 2 5 1 6 3 7 8 8 9 9 10 10 11 11 12 12 13 13
REMARK H PARENT
REMARK Flexibility Score: inf
ROOT
ATOM      1  C   UNL     1      -7.380   1.641  -3.803  1.00  0.00     0.000 C 
ENDROOT
BRANCH   1   2
ATOM      2  C   UNL     1      -8.743   1.884  -4.467  1.00  0.00     0.000 C 
BRANCH   2   3
ATOM      3  C   UNL     1      -9.040   3.387  -4.576  1.00  0.00     0.006 C 
BRANCH   3   4
ATOM      4  C   UNL     1      -9.598   3.770  -5.955  1.00  0.00     0.053 C 
BRANCH   4   5
ATOM      5  C   UNL     1      -8.511   4.177  -6.901  1.00  0.00     0.041 C 
ATOM      6  O   UNL     1      -7.970   3.321  -7.651  1.00  0.00    -0.550 OA
ATOM      7  O   UNL     1      -8.115   5.506  -6.978  1.00  0.00    -0.550 OA
ENDBRANCH   4   5
ENDBRANCH   3   4
ENDBRANCH   2   3
ENDBRANCH   1   2
BRANCH   1   8
ATOM      8  C   UNL     1      -7.191   2.464  -2.519  1.00  0.00     0.000 C 
BRANCH   8   9
ATOM      9  C   UNL     1      -5.770   2.345  -1.942  1.00  0.00     0.006 C 
BRANCH   9  10
ATOM     10  C   UNL     1      -5.635   3.050  -0.586  1.00  0.00     0.053 C 
BRANCH  10  11
ATOM     11  C   UNL     1      -5.213   2.100   0.494  1.00  0.00     0.041 C 
ATOM     12  O   UNL     1      -4.824   0.940   0.200  1.00  0.00    -0.550 OA
ATOM     13  O   UNL     1      -5.283   2.485   1.827  1.00  0.00    -0.550 OA
ENDBRANCH  10  11
ENDBRANCH   9  10
ENDBRANCH   8   9
ENDBRANCH   1   8
TORSDOF 8
ENDMDL
MODEL 9
REMARK VINA RESULT:    -3.121      2.482      3.530
REMARK INTER + INTRA:          -5.184
REMARK INTER:                  -4.299
REMARK INTRA:                  -0.885
REMARK UNBOUND:                -0.604
REMARK SMILES O=C([O-])CCCCCCCC(=O)[O-]
REMARK SMILES IDX 7 1 6 2 5 3 4 4 2 5 1 6 3 7 8 8 9 9 10 10 11 11 12 12 13 13
REMARK H PARENT
REMARK Flexibility Score: inf
ROOT
ATOM      1  C   UNL     1       7.716   8.943  -0.408  1.00  0.00     0.000 C 
ENDROOT
BRANCH   1   2
ATOM      2  C   UNL     1       9.189   9.104  -0.813  1.00  0.00     0.000 C 
BRANCH   2   3
ATOM      3  C   UNL     1       9.621   7.982  -1.769  1.00  0.00     0.006 C 
BRANCH   3   4
ATOM      4  C   UNL     1       9.804   8.484  -3.209  1.00  0.00     0.053 C 
BRANCH   4   5
ATOM      5  C   UNL     1       9.806   7.356  -4.194  1.00  0.00     0.041 C 
ATOM      6  O   UNL     1      10.009   6.176  -3.806  1.00  0.00    -0.550 OA
ATOM      7  O   UNL     1       9.552   7.604  -5.537  1.00  0.00    -0.550 OA
ENDBRANCH   4   5
ENDBRANCH   3   4
ENDBRANCH   2   3
ENDBRANCH   1   2
BRANCH   1   8
ATOM      8  C   UNL     1       6.823  10.061  -0.967  1.00  0.00     0.000 C 
BRANCH   8   9
ATOM      9  C   UNL     1       6.232   9.715  -2.345  1.00  0.00     0.006 C 
BRANCH   9  10
ATOM     10  C   UNL     1       5.640   8.300  -2.383  1.00  0.00     0.053 C 
BRANCH  10  11
ATOM     11  C   UNL     1       6.208   7.492  -3.510  1.00  0.00     0.041 C 
ATOM     12  O   UNL     1       6.618   6.319  -3.304  1.00  0.00    -0.550 OA
ATOM     13  O   UNL     1       6.318   8.046  -4.779  1.00  0.00    -0.550 OA
ENDBRANCH  10  11
ENDBRANCH   9  10
ENDBRANCH   8   9
ENDBRANCH   1   8
TORSDOF 8
ENDMDL
