MODEL 1
REMARK VINA RESULT:    -3.461      0.000      0.000
REMARK INTER + INTRA:          -7.540
REMARK INTER:                  -5.889
REMARK INTRA:                  -1.651
REMARK UNBOUND:                -1.651
REMARK SMILES CCCCCCCCCCCCCC(=O)[O-]
REMARK SMILES IDX 8 1 9 2 10 3 11 4 12 5 13 6 14 7 15 8 16 9 7 10 6 11 5 12
REMARK SMILES IDX 4 13 3 14 2 15 1 16
REMARK H PARENT
REMARK Flexibility Score: inf
ROOT
ATOM      1  C   UNL     1      35.179 -43.606   1.522  1.00  0.00     0.000 C 
ENDROOT
BRANCH   1   2
ATOM      2  C   UNL     1      34.350 -44.437   2.514  1.00  0.00     0.000 C 
BRANCH   2   3
ATOM      3  C   UNL     1      33.343 -45.366   1.812  1.00  0.00     0.000 C 
BRANCH   3   4
ATOM      4  C   UNL     1      33.884 -46.793   1.628  1.00  0.00     0.000 C 
BRANCH   4   5
ATOM      5  C   UNL     1      33.290 -47.495   0.394  1.00  0.00     0.006 C 
BRANCH   5   6
ATOM      6  C   UNL     1      33.887 -48.891   0.179  1.00  0.00     0.053 C 
BRANCH   6   7
ATOM      7  C   UNL     1      33.350 -49.884   1.164  1.00  0.00     0.041 C 
ATOM      8  O   UNL     1      32.164 -50.295   1.068  1.00  0.00    -0.550 OA
ATOM      9  O   UNL     1      34.153 -50.333   2.206  1.00  0.00    -0.550 OA
ENDBRANCH   6   7
ENDBRANCH   5   6
ENDBRANCH   4   5
ENDBRANCH   3   4
ENDBRANCH   2   3
ENDBRANCH   1   2
BRANCH   1  10
ATOM     10  C   UNL     1      34.348 -43.108   0.327  1.00  0.00     0.000 C 
BRANCH  10  11
ATOM     11  C   UNL     1      34.977 -43.496  -1.029  1.00  0.00    -0.000 C 
BRANCH  11  12
ATOM     12  C   UNL     1      34.221 -44.620  -1.763  1.00  0.00    -0.000 C 
BRANCH  12  13
ATOM     13  C   UNL     1      32.691 -44.455  -1.807  1.00  0.00    -0.000 C 
BRANCH  13  14
ATOM     14  C   UNL     1      31.927 -45.650  -2.407  1.00  0.00    -0.000 C 
BRANCH  14  15
ATOM     15  C   UNL     1      32.817 -46.551  -3.276  1.00  0.00    -0.003 C 
ATOM     16  C   UNL     1      32.348 -48.002  -3.221  1.00  0.00     0.004 C 
ENDBRANCH  14  15
ENDBRANCH  13  14
ENDBRANCH  12  13
ENDBRANCH  11  12
ENDBRANCH  10  11
ENDBRANCH   1  10
TORSDOF 12
ENDMDL
MODEL 2
REMARK VINA RESULT:    -3.453      1.419      4.046
REMARK INTER + INTRA:          -7.526
REMARK INTER:                  -5.683
REMARK INTRA:                  -1.844
REMARK UNBOUND:                -1.651
REMARK SMILES CCCCCCCCCCCCCC(=O)[O-]
REMARK SMILES IDX 8 1 9 2 10 3 11 4 12 5 13 6 14 7 15 8 16 9 7 10 6 11 5 12
REMARK SMILES IDX 4 13 3 14 2 15 1 16
REMARK H PARENT
REMARK Flexibility Score: inf
ROOT
ATOM      1  C   UNL     1      33.809 -44.110  -1.646  1.00  0.00     0.000 C 
ENDROOT
BRANCH   1   2
ATOM      2  C   UNL     1      34.442 -45.507  -1.535  1.00  0.00     0.000 C 
BRANCH   2   3
ATOM      3  C   UNL     1      33.744 -46.546  -2.431  1.00  0.00     0.000 C 
BRANCH   3   4
ATOM      4  C   UNL     1      33.350 -47.819  -1.664  1.00  0.00     0.000 C 
BRANCH   4   5
ATOM      5  C   UNL     1      33.885 -47.828  -0.221  1.00  0.00     0.006 C 
BRANCH   5   6
ATOM      6  C   UNL     1      32.956 -48.587   0.735  1.00  0.00     0.053 C 
BRANCH   6   7
ATOM      7  C   UNL     1      33.608 -49.822   1.280  1.00  0.00     0.041 C 
ATOM      8  O   UNL     1      34.862 -49.916   1.312  1.00  0.00    -0.550 OA
ATOM      9  O   UNL     1      32.825 -50.880   1.727  1.00  0.00    -0.550 OA
ENDBRANCH   6   7
ENDBRANCH   5   6
ENDBRANCH   4   5
ENDBRANCH   3   4
ENDBRANCH   2   3
ENDBRANCH   1   2
BRANCH   1  10
ATOM     10  C   UNL     1      33.518 -43.480  -0.273  1.00  0.00     0.000 C 
BRANCH  10  11
ATOM     11  C   UNL     1      32.563 -44.344   0.578  1.00  0.00    -0.000 C 
BRANCH  11  12
ATOM     12  C   UNL     1      33.110 -44.675   1.979  1.00  0.00    -0.000 C 
BRANCH  12  13
ATOM     13  C   UNL     1      34.598 -44.341   2.192  1.00  0.00    -0.000 C 
BRANCH  13  14
ATOM     14  C   UNL     1      35.524 -45.564   2.322  1.00  0.00    -0.000 C 
BRANCH  14  15
ATOM     15  C   UNL     1      34.949 -46.654   3.240  1.00  0.00    -0.003 C 
ATOM     16  C   UNL     1      36.030 -47.647   3.656  1.00  0.00     0.004 C 
ENDBRANCH  14  15
ENDBRANCH  13  14
ENDBRANCH  12  13
ENDBRANCH  11  12
ENDBRANCH  10  11
ENDBRANCH   1  10
TORSDOF 12
ENDMDL
MODEL 3
REMARK VINA RESULT:    -3.425      3.016      6.309
REMARK INTER + INTRA:          -7.479
REMARK INTER:                  -6.387
REMARK INTRA:                  -1.092
REMARK UNBOUND:                -1.651
REMARK SMILES CCCCCCCCCCCCCC(=O)[O-]
REMARK SMILES IDX 8 1 9 2 10 3 11 4 12 5 13 6 14 7 15 8 16 9 7 10 6 11 5 12
REMARK SMILES IDX 4 13 3 14 2 15 1 16
REMARK H PARENT
REMARK Flexibility Score: inf
ROOT
ATOM      1  C   UNL     1      34.559 -50.167   2.543  1.00  0.00     0.000 C 
ENDROOT
BRANCH   1   2
ATOM      2  C   UNL     1      33.275 -50.895   2.113  1.00  0.00     0.000 C 
BRANCH   2   3
ATOM      3  C   UNL     1      32.510 -50.143   1.009  1.00  0.00     0.000 C 
BRANCH   3   4
ATOM      4  C   UNL     1      33.144 -48.784   0.671  1.00  0.00     0.000 C 
BRANCH   4   5
ATOM      5  C   UNL     1      33.698 -48.732  -0.764  1.00  0.00     0.006 C 
BRANCH   5   6
ATOM      6  C   UNL     1      33.315 -47.433  -1.485  1.00  0.00     0.053 C 
BRANCH   6   7
ATOM      7  C   UNL     1      32.717 -47.701  -2.833  1.00  0.00     0.041 C 
ATOM      8  O   UNL     1      32.224 -48.829  -3.095  1.00  0.00    -0.550 OA
ATOM      9  O   UNL     1      32.730 -46.710  -3.807  1.00  0.00    -0.550 OA
ENDBRANCH   6   7
ENDBRANCH   5   6
ENDBRANCH   4   5
ENDBRANCH   3   4
ENDBRANCH   2   3
ENDBRANCH   1   2
BRANCH   1  10
ATOM     10  C   UNL     1      35.652 -51.133   3.032  1.00  0.00     0.000 C 
BRANCH  10  11
ATOM     11  C   UNL     1      36.550 -50.503   4.119  1.00  0.00    -0.000 C 
BRANCH  11  12
ATOM     12  C   UNL     1      36.221 -49.028   4.414  1.00  0.00    -0.000 C 
BRANCH  12  13
ATOM     13  C   UNL     1      37.156 -48.006   3.741  1.00  0.00    -0.000 C 
BRANCH  13  14
ATOM     14  C   UNL     1      36.467 -47.056   2.744  1.00  0.00    -0.000 C 
BRANCH  14  15
ATOM     15  C   UNL     1      35.067 -46.622   3.203  1.00  0.00    -0.003 C 
ATOM     16  C   UNL     1      34.694 -45.264   2.617  1.00  0.00     0.004 C 
ENDBRANCH  14  15
ENDBRANCH  13  14
ENDBRANCH  12  13
ENDBRANCH  11  12
ENDBRANCH  10  11
ENDBRANCH   1  10
TORSDOF 12
ENDMDL
MODEL 4
REMARK VINA RESULT:    -3.416      3.802      6.766
REMARK INTER + INTRA:          -7.464
REMARK INTER:                  -5.837
REMARK INTRA:                  -1.627
REMARK UNBOUND:                -1.651
REMARK SMILES CCCCCCCCCCCCCC(=O)[O-]
REMARK SMILES IDX 8 1 9 2 10 3 11 4 12 5 13 6 14 7 15 8 16 9 7 10 6 11 5 12
REMARK SMILES IDX 4 13 3 14 2 15 1 16
REMARK H PARENT
REMARK Flexibility Score: inf
ROOT
ATOM      1  C   UNL     1      35.396 -49.695   2.290  1.00  0.00     0.000 C 
ENDROOT
BRANCH   1   2
ATOM      2  C   UNL     1      34.008 -50.329   2.109  1.00  0.00     0.000 C 
BRANCH   2   3
ATOM      3  C   UNL     1      33.258 -49.772   0.885  1.00  0.00     0.000 C 
BRANCH   3   4
ATOM      4  C   UNL     1      34.195 -49.079  -0.117  1.00  0.00     0.000 C 
BRANCH   4   5
ATOM      5  C   UNL     1      33.729 -47.656  -0.474  1.00  0.00     0.006 C 
BRANCH   5   6
ATOM      6  C   UNL     1      33.099 -46.936   0.725  1.00  0.00     0.053 C 
BRANCH   6   7
ATOM      7  C   UNL     1      33.982 -45.843   1.245  1.00  0.00     0.041 C 
ATOM      8  O   UNL     1      35.033 -45.530   0.629  1.00  0.00    -0.550 OA
ATOM      9  O   UNL     1      33.655 -45.190   2.428  1.00  0.00    -0.550 OA
ENDBRANCH   6   7
ENDBRANCH   5   6
ENDBRANCH   4   5
ENDBRANCH   3   4
ENDBRANCH   2   3
ENDBRANCH   1   2
BRANCH   1  10
ATOM     10  C   UNL     1      35.392 -48.538   3.304  1.00  0.00     0.000 C 
BRANCH  10  11
ATOM     11  C   UNL     1      36.648 -47.648   3.186  1.00  0.00    -0.000 C 
BRANCH  11  12
ATOM     12  C   UNL     1      37.965 -48.394   3.471  1.00  0.00    -0.000 C 
BRANCH  12  13
ATOM     13  C   UNL     1      38.037 -49.082   4.847  1.00  0.00    -0.000 C 
BRANCH  13  14
ATOM     14  C   UNL     1      38.002 -50.621   4.804  1.00  0.00    -0.000 C 
BRANCH  14  15
ATOM     15  C   UNL     1      36.725 -51.207   5.426  1.00  0.00    -0.003 C 
ATOM     16  C   UNL     1      36.265 -52.448   4.668  1.00  0.00     0.004 C 
ENDBRANCH  14  15
ENDBRANCH  13  14
ENDBRANCH  12  13
ENDBRANCH  11  12
ENDBRANCH  10  11
ENDBRANCH   1  10
TORSDOF 12
ENDMDL
MODEL 5
REMARK VINA RESULT:    -3.383      2.518      5.242
REMARK INTER + INTRA:          -7.407
REMARK INTER:                  -5.613
REMARK INTRA:                  -1.794
REMARK UNBOUND:                -1.651
REMARK SMILES CCCCCCCCCCCCCC(=O)[O-]
REMARK SMILES IDX 8 1 9 2 10 3 11 4 12 5 13 6 14 7 15 8 16 9 7 10 6 11 5 12
REMARK SMILES IDX 4 13 3 14 2 15 1 16
REMARK H PARENT
REMARK Flexibility Score: inf
ROOT
ATOM      1  C   UNL     1      34.949 -49.533   1.570  1.00  0.00     0.000 C 
ENDROOT
BRANCH   1   2
ATOM      2  C   UNL     1      33.472 -49.316   1.205  1.00  0.00     0.000 C 
BRANCH   2   3
ATOM      3  C   UNL     1      33.259 -48.082   0.309  1.00  0.00     0.000 C 
BRANCH   3   4
ATOM      4  C   UNL     1      34.552 -47.626  -0.386  1.00  0.00     0.000 C 
BRANCH   4   5
ATOM      5  C   UNL     1      34.312 -46.480  -1.385  1.00  0.00     0.006 C 
BRANCH   5   6
ATOM      6  C   UNL     1      32.948 -46.593  -2.079  1.00  0.00     0.053 C 
BRANCH   6   7
ATOM      7  C   UNL     1      32.970 -47.602  -3.186  1.00  0.00     0.041 C 
ATOM      8  O   UNL     1      34.030 -47.814  -3.831  1.00  0.00    -0.550 OA
ATOM      9  O   UNL     1      31.809 -48.287  -3.524  1.00  0.00    -0.550 OA
ENDBRANCH   6   7
ENDBRANCH   5   6
ENDBRANCH   4   5
ENDBRANCH   3   4
ENDBRANCH   2   3
ENDBRANCH   1   2
BRANCH   1  10
ATOM     10  C   UNL     1      35.208 -49.423   3.082  1.00  0.00     0.000 C 
BRANCH  10  11
ATOM     11  C   UNL     1      35.977 -48.136   3.454  1.00  0.00    -0.000 C 
BRANCH  11  12
ATOM     12  C   UNL     1      35.135 -46.853   3.327  1.00  0.00    -0.000 C 
BRANCH  12  13
ATOM     13  C   UNL     1      35.749 -45.757   2.436  1.00  0.00    -0.000 C 
BRANCH  13  14
ATOM     14  C   UNL     1      34.837 -44.543   2.180  1.00  0.00    -0.000 C 
BRANCH  14  15
ATOM     15  C   UNL     1      33.348 -44.915   2.127  1.00  0.00    -0.003 C 
ATOM     16  C   UNL     1      32.649 -44.216   0.965  1.00  0.00     0.004 C 
ENDBRANCH  14  15
ENDBRANCH  13  14
ENDBRANCH  12  13
ENDBRANCH  11  12
ENDBRANCH  10  11
ENDBRANCH   1  10
TORSDOF 12
ENDMDL
MODEL 6
REMARK VINA RESULT:    -3.382      2.986      4.608
REMARK INTER + INTRA:          -7.406
REMARK INTER:                  -5.122
REMARK INTRA:                  -2.284
REMARK UNBOUND:                -1.651
REMARK SMILES CCCCCCCCCCCCCC(=O)[O-]
REMARK SMILES IDX 8 1 9 2 10 3 11 4 12 5 13 6 14 7 15 8 16 9 7 10 6 11 5 12
REMARK SMILES IDX 4 13 3 14 2 15 1 16
REMARK H PARENT
REMARK Flexibility Score: inf
ROOT
ATOM      1  C   UNL     1      35.916 -46.707  -0.702  1.00  0.00     0.000 C 
ENDROOT
BRANCH   1   2
ATOM      2  C   UNL     1      34.861 -47.493   0.093  1.00  0.00     0.000 C 
BRANCH   2   3
ATOM      3  C   UNL     1      35.461 -48.231   1.303  1.00  0.00     0.000 C 
BRANCH   3   4
ATOM      4  C   UNL     1      34.644 -48.020   2.588  1.00  0.00     0.000 C 
BRANCH   4   5
ATOM      5  C   UNL     1      35.523 -47.629   3.789  1.00  0.00     0.006 C 
BRANCH   5   6
ATOM      6  C   UNL     1      36.991 -48.023   3.584  1.00  0.00     0.053 C 
BRANCH   6   7
ATOM      7  C   UNL     1      37.483 -48.927   4.673  1.00  0.00     0.041 C 
ATOM      8  O   UNL     1      36.666 -49.587   5.367  1.00  0.00    -0.550 OA
ATOM      9  O   UNL     1      38.844 -49.019   4.937  1.00  0.00    -0.550 OA
ENDBRANCH   6   7
ENDBRANCH   5   6
ENDBRANCH   4   5
ENDBRANCH   3   4
ENDBRANCH   2   3
ENDBRANCH   1   2
BRANCH   1  10
ATOM     10  C   UNL     1      37.165 -46.379   0.134  1.00  0.00     0.000 C 
BRANCH  10  11
ATOM     11  C   UNL     1      37.240 -44.884   0.515  1.00  0.00    -0.000 C 
BRANCH  11  12
ATOM     12  C   UNL     1      36.596 -44.559   1.876  1.00  0.00    -0.000 C 
BRANCH  12  13
ATOM     13  C   UNL     1      35.262 -43.794   1.798  1.00  0.00    -0.000 C 
BRANCH  13  14
ATOM     14  C   UNL     1      34.107 -44.420   2.602  1.00  0.00    -0.000 C 
BRANCH  14  15
ATOM     15  C   UNL     1      32.912 -44.815   1.722  1.00  0.00    -0.003 C 
ATOM     16  C   UNL     1      33.023 -44.191   0.334  1.00  0.00     0.004 C 
ENDBRANCH  14  15
ENDBRANCH  13  14
ENDBRANCH  12  13
ENDBRANCH  11  12
ENDBRANCH  10  11
ENDBRANCH   1  10
TORSDOF 12
ENDMDL
MODEL 7
REMARK VINA RESULT:    -3.326      2.617      4.439
REMARK INTER + INTRA:          -7.310
REMARK INTER:                  -5.418
REMARK INTRA:                  -1.892
REMARK UNBOUND:                -1.651
REMARK SMILES CCCCCCCCCCCCCC(=O)[O-]
REMARK SMILES IDX 8 1 9 2 10 3 11 4 12 5 13 6 14 7 15 8 16 9 7 10 6 11 5 12
REMARK SMILES IDX 4 13 3 14 2 15 1 16
REMARK H PARENT
REMARK Flexibility Score: inf
ROOT
ATOM      1  C   UNL     1      35.539 -47.235   0.937  1.00  0.00     0.000 C 
ENDROOT
BRANCH   1   2
ATOM      2  C   UNL     1      34.478 -48.181   1.522  1.00  0.00     0.000 C 
BRANCH   2   3
ATOM      3  C   UNL     1      33.248 -48.328   0.608  1.00  0.00     0.000 C 
BRANCH   3   4
ATOM      4  C   UNL     1      33.394 -47.551  -0.710  1.00  0.00     0.000 C 
BRANCH   4   5
ATOM      5  C   UNL     1      33.555 -48.479  -1.927  1.00  0.00     0.006 C 
BRANCH   5   6
ATOM      6  C   UNL     1      32.452 -48.260  -2.971  1.00  0.00     0.053 C 
BRANCH   6   7
ATOM      7  C   UNL     1      32.334 -46.819  -3.363  1.00  0.00     0.041 C 
ATOM      8  O   UNL     1      33.274 -46.248  -3.974  1.00  0.00    -0.550 OA
ATOM      9  O   UNL     1      31.194 -46.099  -3.026  1.00  0.00    -0.550 OA
ENDBRANCH   6   7
ENDBRANCH   5   6
ENDBRANCH   4   5
ENDBRANCH   3   4
ENDBRANCH   2   3
ENDBRANCH   1   2
BRANCH   1  10
ATOM     10  C   UNL     1      35.903 -46.087   1.895  1.00  0.00     0.000 C 
BRANCH  10  11
ATOM     11  C   UNL     1      34.763 -45.767   2.887  1.00  0.00    -0.000 C 
BRANCH  11  12
ATOM     12  C   UNL     1      33.993 -44.477   2.550  1.00  0.00    -0.000 C 
BRANCH  12  13
ATOM     13  C   UNL     1      32.666 -44.688   1.798  1.00  0.00    -0.000 C 
BRANCH  13  14
ATOM     14  C   UNL     1      32.671 -44.219   0.331  1.00  0.00    -0.000 C 
BRANCH  14  15
ATOM     15  C   UNL     1      33.917 -43.395  -0.028  1.00  0.00    -0.003 C 
ATOM     16  C   UNL     1      34.707 -44.056  -1.153  1.00  0.00     0.004 C 
ENDBRANCH  14  15
ENDBRANCH  13  14
ENDBRANCH  12  13
ENDBRANCH  11  12
ENDBRANCH  10  11
ENDBRANCH   1  10
TORSDOF 12
ENDMDL
MODEL 8
REMARK VINA RESULT:    -3.303      1.650      2.291
REMARK INTER + INTRA:          -7.272
REMARK INTER:                  -5.290
REMARK INTRA:                  -1.982
REMARK UNBOUND:                -1.651
REMARK SMILES CCCCCCCCCCCCCC(=O)[O-]
REMARK SMILES IDX 8 1 9 2 10 3 11 4 12 5 13 6 14 7 15 8 16 9 7 10 6 11 5 12
REMARK SMILES IDX 4 13 3 14 2 15 1 16
REMARK H PARENT
REMARK Flexibility Score: inf
ROOT
ATOM      1  C   UNL     1      35.564 -43.606   1.759  1.00  0.00     0.000 C 
ENDROOT
BRANCH   1   2
ATOM      2  C   UNL     1      34.389 -44.201   2.551  1.00  0.00     0.000 C 
BRANCH   2   3
ATOM      3  C   UNL     1      34.545 -45.713   2.797  1.00  0.00     0.000 C 
BRANCH   3   4
ATOM      4  C   UNL     1      35.928 -46.239   2.383  1.00  0.00     0.000 C 
BRANCH   4   5
ATOM      5  C   UNL     1      36.116 -47.730   2.715  1.00  0.00     0.006 C 
BRANCH   5   6
ATOM      6  C   UNL     1      34.776 -48.461   2.872  1.00  0.00     0.053 C 
BRANCH   6   7
ATOM      7  C   UNL     1      34.874 -49.898   2.460  1.00  0.00     0.041 C 
ATOM      8  O   UNL     1      35.968 -50.513   2.559  1.00  0.00    -0.550 OA
ATOM      9  O   UNL     1      33.762 -50.548   1.939  1.00  0.00    -0.550 OA
ENDBRANCH   6   7
ENDBRANCH   5   6
ENDBRANCH   4   5
ENDBRANCH   3   4
ENDBRANCH   2   3
ENDBRANCH   1   2
BRANCH   1  10
ATOM     10  C   UNL     1      35.131 -42.465   0.823  1.00  0.00     0.000 C 
BRANCH  10  11
ATOM     11  C   UNL     1      34.787 -42.967  -0.596  1.00  0.00    -0.000 C 
BRANCH  11  12
ATOM     12  C   UNL     1      35.463 -44.302  -0.960  1.00  0.00    -0.000 C 
BRANCH  12  13
ATOM     13  C   UNL     1      34.526 -45.359  -1.575  1.00  0.00    -0.000 C 
BRANCH  13  14
ATOM     14  C   UNL     1      33.280 -45.689  -0.733  1.00  0.00    -0.000 C 
BRANCH  14  15
ATOM     15  C   UNL     1      33.251 -47.149  -0.256  1.00  0.00    -0.003 C 
ATOM     16  C   UNL     1      34.493 -47.903  -0.723  1.00  0.00     0.004 C 
ENDBRANCH  14  15
ENDBRANCH  13  14
ENDBRANCH  12  13
ENDBRANCH  11  12
ENDBRANCH  10  11
ENDBRANCH   1  10
TORSDOF 12
ENDMDL
MODEL 9
REMARK VINA RESULT:    -3.282      1.810      3.776
REMARK INTER + INTRA:          -7.236
REMARK INTER:                  -5.386
REMARK INTRA:                  -1.850
REMARK UNBOUND:                -1.651
REMARK SMILES CCCCCCCCCCCCCC(=O)[O-]
REMARK SMILES IDX 8 1 9 2 10 3 11 4 12 5 13 6 14 7 15 8 16 9 7 10 6 11 5 12
REMARK SMILES IDX 4 13 3 14 2 15 1 16
REMARK H PARENT
REMARK Flexibility Score: inf
ROOT
ATOM      1  C   UNL     1      35.066 -46.111  -2.226  1.00  0.00     0.000 C 
ENDROOT
BRANCH   1   2
ATOM      2  C   UNL     1      34.288 -47.390  -1.880  1.00  0.00     0.000 C 
BRANCH   2   3
ATOM      3  C   UNL     1      34.514 -47.847  -0.427  1.00  0.00     0.000 C 
BRANCH   3   4
ATOM      4  C   UNL     1      33.249 -48.444   0.209  1.00  0.00     0.000 C 
BRANCH   4   5
ATOM      5  C   UNL     1      33.569 -49.409   1.365  1.00  0.00     0.006 C 
BRANCH   5   6
ATOM      6  C   UNL     1      35.072 -49.474   1.665  1.00  0.00     0.053 C 
BRANCH   6   7
ATOM      7  C   UNL     1      35.351 -50.156   2.970  1.00  0.00     0.041 C 
ATOM      8  O   UNL     1      35.849 -49.511   3.929  1.00  0.00    -0.550 OA
ATOM      9  O   UNL     1      35.085 -51.512   3.115  1.00  0.00    -0.550 OA
ENDBRANCH   6   7
ENDBRANCH   5   6
ENDBRANCH   4   5
ENDBRANCH   3   4
ENDBRANCH   2   3
ENDBRANCH   1   2
BRANCH   1  10
ATOM     10  C   UNL     1      35.534 -45.346  -0.975  1.00  0.00     0.000 C 
BRANCH  10  11
ATOM     11  C   UNL     1      35.177 -43.845  -1.038  1.00  0.00    -0.000 C 
BRANCH  11  12
ATOM     12  C   UNL     1      34.166 -43.404   0.037  1.00  0.00    -0.000 C 
BRANCH  12  13
ATOM     13  C   UNL     1      32.968 -44.352   0.232  1.00  0.00    -0.000 C 
BRANCH  13  14
ATOM     14  C   UNL     1      32.876 -45.001   1.625  1.00  0.00    -0.000 C 
BRANCH  14  15
ATOM     15  C   UNL     1      34.081 -44.671   2.519  1.00  0.00    -0.003 C 
ATOM     16  C   UNL     1      34.921 -45.915   2.789  1.00  0.00     0.004 C 
ENDBRANCH  14  15
ENDBRANCH  13  14
ENDBRANCH  12  13
ENDBRANCH  11  12
ENDBRANCH  10  11
ENDBRANCH   1  10
TORSDOF 12
ENDMDL
