MODEL 1
REMARK VINA RESULT:    -5.021      0.000      0.000
REMARK INTER + INTRA:         -13.631
REMARK INTER:                 -11.478
REMARK INTRA:                  -2.154
REMARK UNBOUND:                -2.154
REMARK SMILES CCCCCCCCCCCCCCCCCCCCCCCC(=O)[O-]
REMARK SMILES IDX 13 1 14 2 15 3 16 4 17 5 18 6 19 7 20 8 21 9 22 10 23 11
REMARK SMILES IDX 24 12 25 13 26 14 12 15 11 16 10 17 9 18 8 19 7 20 6 21 5 22
REMARK SMILES IDX 4 23 3 24 2 25 1 26
REMARK H PARENT
REMARK Flexibility Score: inf
ROOT
ATOM      1  C   UNL     1      12.099  16.171  63.508  1.00  0.00     0.000 C 
ENDROOT
BRANCH   1   2
ATOM      2  C   UNL     1      11.097  16.433  64.643  1.00  0.00     0.000 C 
BRANCH   2   3
ATOM      3  C   UNL     1      10.179  17.632  64.356  1.00  0.00     0.000 C 
BRANCH   3   4
ATOM      4  C   UNL     1      10.881  18.746  63.556  1.00  0.00     0.000 C 
BRANCH   4   5
ATOM      5  C   UNL     1      10.630  20.175  64.074  1.00  0.00     0.000 C 
BRANCH   5   6
ATOM      6  C   UNL     1      11.711  21.175  63.626  1.00  0.00     0.000 C 
BRANCH   6   7
ATOM      7  C   UNL     1      12.557  20.646  62.453  1.00  0.00     0.000 C 
BRANCH   7   8
ATOM      8  C   UNL     1      13.825  21.472  62.165  1.00  0.00     0.000 C 
BRANCH   8   9
ATOM      9  C   UNL     1      13.706  22.305  60.876  1.00  0.00     0.000 C 
BRANCH   9  10
ATOM     10  C   UNL     1      13.847  23.813  61.131  1.00  0.00     0.006 C 
BRANCH  10  11
ATOM     11  C   UNL     1      14.517  24.126  62.475  1.00  0.00     0.053 C 
BRANCH  11  12
ATOM     12  C   UNL     1      14.499  25.600  62.735  1.00  0.00     0.041 C 
ATOM     13  O   UNL     1      13.413  26.236  62.703  1.00  0.00    -0.550 OA
ATOM     14  O   UNL     1      15.689  26.281  62.956  1.00  0.00    -0.550 OA
ENDBRANCH  11  12
ENDBRANCH  10  11
ENDBRANCH   9  10
ENDBRANCH   8   9
ENDBRANCH   7   8
ENDBRANCH   6   7
ENDBRANCH   5   6
ENDBRANCH   4   5
ENDBRANCH   3   4
ENDBRANCH   2   3
ENDBRANCH   1   2
BRANCH   1  15
ATOM     15  C   UNL     1      13.558  16.231  63.986  1.00  0.00     0.000 C 
BRANCH  15  16
ATOM     16  C   UNL     1      14.308  17.397  63.326  1.00  0.00     0.000 C 
BRANCH  16  17
ATOM     17  C   UNL     1      15.669  16.981  62.740  1.00  0.00     0.000 C 
BRANCH  17  18
ATOM     18  C   UNL     1      15.622  15.801  61.747  1.00  0.00    -0.000 C 
BRANCH  18  19
ATOM     19  C   UNL     1      15.111  16.156  60.339  1.00  0.00    -0.000 C 
BRANCH  19  20
ATOM     20  C   UNL     1      15.359  15.035  59.316  1.00  0.00    -0.000 C 
BRANCH  20  21
ATOM     21  C   UNL     1      16.488  15.383  58.332  1.00  0.00    -0.000 C 
BRANCH  21  22
ATOM     22  C   UNL     1      17.369  16.568  58.791  1.00  0.00    -0.000 C 
BRANCH  22  23
ATOM     23  C   UNL     1      18.729  16.138  59.375  1.00  0.00    -0.000 C 
BRANCH  23  24
ATOM     24  C   UNL     1      19.340  17.127  60.385  1.00  0.00    -0.000 C 
BRANCH  24  25
ATOM     25  C   UNL     1      19.199  16.713  61.861  1.00  0.00    -0.003 C 
ATOM     26  C   UNL     1      20.290  17.300  62.755  1.00  0.00     0.004 C 
ENDBRANCH  24  25
ENDBRANCH  23  24
ENDBRANCH  22  23
ENDBRANCH  21  22
ENDBRANCH  20  21
ENDBRANCH  19  20
ENDBRANCH  18  19
ENDBRANCH  17  18
ENDBRANCH  16  17
ENDBRANCH  15  16
ENDBRANCH   1  15
TORSDOF 22
ENDMDL
MODEL 2
REMARK VINA RESULT:    -4.912      3.178      8.165
REMARK INTER + INTRA:         -13.384
REMARK INTER:                 -10.557
REMARK INTRA:                  -2.827
REMARK UNBOUND:                -2.154
REMARK SMILES CCCCCCCCCCCCCCCCCCCCCCCC(=O)[O-]
REMARK SMILES IDX 13 1 14 2 15 3 16 4 17 5 18 6 19 7 20 8 21 9 22 10 23 11
REMARK SMILES IDX 24 12 25 13 26 14 12 15 11 16 10 17 9 18 8 19 7 20 6 21 5 22
REMARK SMILES IDX 4 23 3 24 2 25 1 26
REMARK H PARENT
REMARK Flexibility Score: inf
ROOT
ATOM      1  C   UNL     1      11.767  18.843  63.515  1.00  0.00     0.000 C 
ENDROOT
BRANCH   1   2
ATOM      2  C   UNL     1      11.567  17.334  63.720  1.00  0.00     0.000 C 
BRANCH   2   3
ATOM      3  C   UNL     1      12.853  16.528  63.477  1.00  0.00     0.000 C 
BRANCH   3   4
ATOM      4  C   UNL     1      14.129  17.380  63.616  1.00  0.00     0.000 C 
BRANCH   4   5
ATOM      5  C   UNL     1      15.242  17.055  62.600  1.00  0.00     0.000 C 
BRANCH   5   6
ATOM      6  C   UNL     1      15.284  15.567  62.211  1.00  0.00     0.000 C 
BRANCH   6   7
ATOM      7  C   UNL     1      15.919  15.334  60.827  1.00  0.00     0.000 C 
BRANCH   7   8
ATOM      8  C   UNL     1      15.626  16.447  59.802  1.00  0.00     0.000 C 
BRANCH   8   9
ATOM      9  C   UNL     1      16.907  17.144  59.309  1.00  0.00     0.000 C 
BRANCH   9  10
ATOM     10  C   UNL     1      18.182  16.379  59.694  1.00  0.00     0.006 C 
BRANCH  10  11
ATOM     11  C   UNL     1      19.220  17.270  60.388  1.00  0.00     0.053 C 
BRANCH  11  12
ATOM     12  C   UNL     1      19.147  17.096  61.873  1.00  0.00     0.041 C 
ATOM     13  O   UNL     1      19.177  18.100  62.631  1.00  0.00    -0.550 OA
ATOM     14  O   UNL     1      19.102  15.821  62.422  1.00  0.00    -0.550 OA
ENDBRANCH  11  12
ENDBRANCH  10  11
ENDBRANCH   9  10
ENDBRANCH   8   9
ENDBRANCH   7   8
ENDBRANCH   6   7
ENDBRANCH   5   6
ENDBRANCH   4   5
ENDBRANCH   3   4
ENDBRANCH   2   3
ENDBRANCH   1   2
BRANCH   1  15
ATOM     15  C   UNL     1      10.436  19.600  63.390  1.00  0.00     0.000 C 
BRANCH  15  16
ATOM     16  C   UNL     1      10.521  20.693  62.314  1.00  0.00     0.000 C 
BRANCH  16  17
ATOM     17  C   UNL     1      11.829  21.503  62.382  1.00  0.00     0.000 C 
BRANCH  17  18
ATOM     18  C   UNL     1      12.653  21.527  61.079  1.00  0.00    -0.000 C 
BRANCH  18  19
ATOM     19  C   UNL     1      13.844  22.502  61.080  1.00  0.00    -0.000 C 
BRANCH  19  20
ATOM     20  C   UNL     1      14.100  23.127  62.462  1.00  0.00    -0.000 C 
BRANCH  20  21
ATOM     21  C   UNL     1      13.914  24.653  62.456  1.00  0.00    -0.000 C 
BRANCH  21  22
ATOM     22  C   UNL     1      12.602  25.122  63.125  1.00  0.00    -0.000 C 
BRANCH  22  23
ATOM     23  C   UNL     1      11.641  25.846  62.164  1.00  0.00    -0.000 C 
BRANCH  23  24
ATOM     24  C   UNL     1      11.987  25.698  60.671  1.00  0.00    -0.000 C 
BRANCH  24  25
ATOM     25  C   UNL     1      11.028  24.796  59.871  1.00  0.00    -0.003 C 
ATOM     26  C   UNL     1       9.952  24.147  60.740  1.00  0.00     0.004 C 
ENDBRANCH  24  25
ENDBRANCH  23  24
ENDBRANCH  22  23
ENDBRANCH  21  22
ENDBRANCH  20  21
ENDBRANCH  19  20
ENDBRANCH  18  19
ENDBRANCH  17  18
ENDBRANCH  16  17
ENDBRANCH  15  16
ENDBRANCH   1  15
TORSDOF 22
ENDMDL
MODEL 3
REMARK VINA RESULT:    -4.911      2.285      2.866
REMARK INTER + INTRA:         -13.380
REMARK INTER:                 -10.928
REMARK INTRA:                  -2.451
REMARK UNBOUND:                -2.154
REMARK SMILES CCCCCCCCCCCCCCCCCCCCCCCC(=O)[O-]
REMARK SMILES IDX 13 1 14 2 15 3 16 4 17 5 18 6 19 7 20 8 21 9 22 10 23 11
REMARK SMILES IDX 24 12 25 13 26 14 12 15 11 16 10 17 9 18 8 19 7 20 6 21 5 22
REMARK SMILES IDX 4 23 3 24 2 25 1 26
REMARK H PARENT
REMARK Flexibility Score: inf
ROOT
ATOM      1  C   UNL     1      11.968  17.939  63.520  1.00  0.00     0.000 C 
ENDROOT
BRANCH   1   2
ATOM      2  C   UNL     1      10.642  18.681  63.746  1.00  0.00     0.000 C 
BRANCH   2   3
ATOM      3  C   UNL     1      10.668  20.118  63.201  1.00  0.00     0.000 C 
BRANCH   3   4
ATOM      4  C   UNL     1       9.712  20.325  62.012  1.00  0.00     0.000 C 
BRANCH   4   5
ATOM      5  C   UNL     1      10.067  21.507  61.089  1.00  0.00     0.000 C 
BRANCH   5   6
ATOM      6  C   UNL     1       9.303  22.796  61.443  1.00  0.00     0.000 C 
BRANCH   6   7
ATOM      7  C   UNL     1      10.189  24.052  61.361  1.00  0.00     0.000 C 
BRANCH   7   8
ATOM      8  C   UNL     1      11.355  23.939  60.360  1.00  0.00     0.000 C 
BRANCH   8   9
ATOM      9  C   UNL     1      12.676  24.484  60.931  1.00  0.00     0.000 C 
BRANCH   9  10
ATOM     10  C   UNL     1      13.800  23.438  60.922  1.00  0.00     0.006 C 
BRANCH  10  11
ATOM     11  C   UNL     1      13.590  22.333  61.966  1.00  0.00     0.053 C 
BRANCH  11  12
ATOM     12  C   UNL     1      13.801  20.986  61.349  1.00  0.00     0.041 C 
ATOM     13  O   UNL     1      14.208  20.025  62.052  1.00  0.00    -0.550 OA
ATOM     14  O   UNL     1      13.602  20.806  59.987  1.00  0.00    -0.550 OA
ENDBRANCH  11  12
ENDBRANCH  10  11
ENDBRANCH   9  10
ENDBRANCH   8   9
ENDBRANCH   7   8
ENDBRANCH   6   7
ENDBRANCH   5   6
ENDBRANCH   4   5
ENDBRANCH   3   4
ENDBRANCH   2   3
ENDBRANCH   1   2
BRANCH   1  15
ATOM     15  C   UNL     1      11.889  16.459  63.925  1.00  0.00     0.000 C 
BRANCH  15  16
ATOM     16  C   UNL     1      13.274  15.796  63.870  1.00  0.00     0.000 C 
BRANCH  16  17
ATOM     17  C   UNL     1      14.424  16.815  63.788  1.00  0.00     0.000 C 
BRANCH  17  18
ATOM     18  C   UNL     1      15.484  16.522  62.706  1.00  0.00    -0.000 C 
BRANCH  18  19
ATOM     19  C   UNL     1      14.917  16.165  61.320  1.00  0.00    -0.000 C 
BRANCH  19  20
ATOM     20  C   UNL     1      15.680  15.014  60.643  1.00  0.00    -0.000 C 
BRANCH  20  21
ATOM     21  C   UNL     1      16.026  15.326  59.178  1.00  0.00    -0.000 C 
BRANCH  21  22
ATOM     22  C   UNL     1      16.885  16.599  58.999  1.00  0.00    -0.000 C 
BRANCH  22  23
ATOM     23  C   UNL     1      18.399  16.346  59.123  1.00  0.00    -0.000 C 
BRANCH  23  24
ATOM     24  C   UNL     1      19.108  17.183  60.204  1.00  0.00    -0.000 C 
BRANCH  24  25
ATOM     25  C   UNL     1      19.084  16.568  61.616  1.00  0.00    -0.003 C 
ATOM     26  C   UNL     1      19.939  17.340  62.620  1.00  0.00     0.004 C 
ENDBRANCH  24  25
ENDBRANCH  23  24
ENDBRANCH  22  23
ENDBRANCH  21  22
ENDBRANCH  20  21
ENDBRANCH  19  20
ENDBRANCH  18  19
ENDBRANCH  17  18
ENDBRANCH  16  17
ENDBRANCH  15  16
ENDBRANCH   1  15
TORSDOF 22
ENDMDL
MODEL 4
REMARK VINA RESULT:    -4.902      4.533      8.828
REMARK INTER + INTRA:         -13.360
REMARK INTER:                 -10.737
REMARK INTRA:                  -2.623
REMARK UNBOUND:                -2.154
REMARK SMILES CCCCCCCCCCCCCCCCCCCCCCCC(=O)[O-]
REMARK SMILES IDX 13 1 14 2 15 3 16 4 17 5 18 6 19 7 20 8 21 9 22 10 23 11
REMARK SMILES IDX 24 12 25 13 26 14 12 15 11 16 10 17 9 18 8 19 7 20 6 21 5 22
REMARK SMILES IDX 4 23 3 24 2 25 1 26
REMARK H PARENT
REMARK Flexibility Score: inf
ROOT
ATOM      1  C   UNL     1      12.752  17.109  63.440  1.00  0.00     0.000 C 
ENDROOT
BRANCH   1   2
ATOM      2  C   UNL     1      13.451  15.765  63.192  1.00  0.00     0.000 C 
BRANCH   2   3
ATOM      3  C   UNL     1      14.980  15.858  63.328  1.00  0.00     0.000 C 
BRANCH   3   4
ATOM      4  C   UNL     1      15.601  16.911  62.391  1.00  0.00     0.000 C 
BRANCH   4   5
ATOM      5  C   UNL     1      17.020  16.578  61.889  1.00  0.00     0.000 C 
BRANCH   5   6
ATOM      6  C   UNL     1      17.063  16.250  60.386  1.00  0.00     0.000 C 
BRANCH   6   7
ATOM      7  C   UNL     1      15.660  16.074  59.777  1.00  0.00     0.000 C 
BRANCH   7   8
ATOM      8  C   UNL     1      15.330  14.629  59.357  1.00  0.00     0.000 C 
BRANCH   8   9
ATOM      9  C   UNL     1      16.377  13.617  59.856  1.00  0.00     0.000 C 
BRANCH   9  10
ATOM     10  C   UNL     1      15.741  12.341  60.427  1.00  0.00     0.006 C 
BRANCH  10  11
ATOM     11  C   UNL     1      14.740  12.631  61.553  1.00  0.00     0.053 C 
BRANCH  11  12
ATOM     12  C   UNL     1      15.155  11.935  62.811  1.00  0.00     0.041 C 
ATOM     13  O   UNL     1      14.705  12.317  63.924  1.00  0.00    -0.550 OA
ATOM     14  O   UNL     1      16.082  10.903  62.762  1.00  0.00    -0.550 OA
ENDBRANCH  11  12
ENDBRANCH  10  11
ENDBRANCH   9  10
ENDBRANCH   8   9
ENDBRANCH   7   8
ENDBRANCH   6   7
ENDBRANCH   5   6
ENDBRANCH   4   5
ENDBRANCH   3   4
ENDBRANCH   2   3
ENDBRANCH   1   2
BRANCH   1  15
ATOM     15  C   UNL     1      11.305  16.938  63.927  1.00  0.00     0.000 C 
BRANCH  15  16
ATOM     16  C   UNL     1      10.506  18.238  63.752  1.00  0.00     0.000 C 
BRANCH  16  17
ATOM     17  C   UNL     1      11.404  19.478  63.589  1.00  0.00     0.000 C 
BRANCH  17  18
ATOM     18  C   UNL     1      10.729  20.693  62.919  1.00  0.00    -0.000 C 
BRANCH  18  19
ATOM     19  C   UNL     1       9.675  20.345  61.853  1.00  0.00    -0.000 C 
BRANCH  19  20
ATOM     20  C   UNL     1       9.092  21.591  61.164  1.00  0.00    -0.000 C 
BRANCH  20  21
ATOM     21  C   UNL     1       9.718  22.894  61.687  1.00  0.00    -0.000 C 
BRANCH  21  22
ATOM     22  C   UNL     1      10.526  23.667  60.619  1.00  0.00    -0.000 C 
BRANCH  22  23
ATOM     23  C   UNL     1      11.840  24.269  61.152  1.00  0.00    -0.000 C 
BRANCH  23  24
ATOM     24  C   UNL     1      13.117  23.725  60.486  1.00  0.00    -0.000 C 
BRANCH  24  25
ATOM     25  C   UNL     1      13.812  22.586  61.255  1.00  0.00    -0.003 C 
ATOM     26  C   UNL     1      13.528  21.204  60.668  1.00  0.00     0.004 C 
ENDBRANCH  24  25
ENDBRANCH  23  24
ENDBRANCH  22  23
ENDBRANCH  21  22
ENDBRANCH  20  21
ENDBRANCH  19  20
ENDBRANCH  18  19
ENDBRANCH  17  18
ENDBRANCH  16  17
ENDBRANCH  15  16
ENDBRANCH   1  15
TORSDOF 22
ENDMDL
MODEL 5
REMARK VINA RESULT:    -4.881      5.628      9.937
REMARK INTER + INTRA:         -13.312
REMARK INTER:                 -10.013
REMARK INTRA:                  -3.299
REMARK UNBOUND:                -2.154
REMARK SMILES CCCCCCCCCCCCCCCCCCCCCCCC(=O)[O-]
REMARK SMILES IDX 13 1 14 2 15 3 16 4 17 5 18 6 19 7 20 8 21 9 22 10 23 11
REMARK SMILES IDX 24 12 25 13 26 14 12 15 11 16 10 17 9 18 8 19 7 20 6 21 5 22
REMARK SMILES IDX 4 23 3 24 2 25 1 26
REMARK H PARENT
REMARK Flexibility Score: inf
ROOT
ATOM      1  C   UNL     1      13.500  21.339  61.750  1.00  0.00     0.000 C 
ENDROOT
BRANCH   1   2
ATOM      2  C   UNL     1      13.407  22.262  60.525  1.00  0.00     0.000 C 
BRANCH   2   3
ATOM      3  C   UNL     1      13.844  23.703  60.834  1.00  0.00     0.000 C 
BRANCH   3   4
ATOM      4  C   UNL     1      12.709  24.726  60.645  1.00  0.00     0.000 C 
BRANCH   4   5
ATOM      5  C   UNL     1      11.821  24.491  59.408  1.00  0.00     0.000 C 
BRANCH   5   6
ATOM      6  C   UNL     1      10.806  25.625  59.173  1.00  0.00     0.000 C 
BRANCH   6   7
ATOM      7  C   UNL     1      10.850  26.170  57.733  1.00  0.00     0.000 C 
BRANCH   7   8
ATOM      8  C   UNL     1       9.994  27.431  57.509  1.00  0.00     0.000 C 
BRANCH   8   9
ATOM      9  C   UNL     1      10.841  28.716  57.459  1.00  0.00     0.000 C 
BRANCH   9  10
ATOM     10  C   UNL     1      10.880  29.344  56.058  1.00  0.00     0.006 C 
BRANCH  10  11
ATOM     11  C   UNL     1      10.347  28.402  54.971  1.00  0.00     0.053 C 
BRANCH  11  12
ATOM     12  C   UNL     1      11.176  28.517  53.730  1.00  0.00     0.041 C 
ATOM     13  O   UNL     1      12.082  27.676  53.493  1.00  0.00    -0.550 OA
ATOM     14  O   UNL     1      10.985  29.585  52.863  1.00  0.00    -0.550 OA
ENDBRANCH  11  12
ENDBRANCH  10  11
ENDBRANCH   9  10
ENDBRANCH   8   9
ENDBRANCH   7   8
ENDBRANCH   6   7
ENDBRANCH   5   6
ENDBRANCH   4   5
ENDBRANCH   3   4
ENDBRANCH   2   3
ENDBRANCH   1   2
BRANCH   1  15
ATOM     15  C   UNL     1      12.218  21.354  62.596  1.00  0.00     0.000 C 
BRANCH  15  16
ATOM     16  C   UNL     1      10.967  21.302  61.705  1.00  0.00     0.000 C 
BRANCH  16  17
ATOM     17  C   UNL     1      10.050  22.525  61.885  1.00  0.00     0.000 C 
BRANCH  17  18
ATOM     18  C   UNL     1      10.182  23.249  63.241  1.00  0.00    -0.000 C 
BRANCH  18  19
ATOM     19  C   UNL     1      10.003  24.777  63.183  1.00  0.00    -0.000 C 
BRANCH  19  20
ATOM     20  C   UNL     1      11.035  25.530  64.039  1.00  0.00    -0.000 C 
BRANCH  20  21
ATOM     21  C   UNL     1      11.530  26.816  63.357  1.00  0.00    -0.000 C 
BRANCH  21  22
ATOM     22  C   UNL     1      10.603  27.316  62.225  1.00  0.00    -0.000 C 
BRANCH  22  23
ATOM     23  C   UNL     1      11.014  28.684  61.647  1.00  0.00    -0.000 C 
BRANCH  23  24
ATOM     24  C   UNL     1      12.237  28.650  60.713  1.00  0.00    -0.000 C 
BRANCH  24  25
ATOM     25  C   UNL     1      13.323  29.694  61.033  1.00  0.00    -0.003 C 
ATOM     26  C   UNL     1      14.070  29.404  62.334  1.00  0.00     0.004 C 
ENDBRANCH  24  25
ENDBRANCH  23  24
ENDBRANCH  22  23
ENDBRANCH  21  22
ENDBRANCH  20  21
ENDBRANCH  19  20
ENDBRANCH  18  19
ENDBRANCH  17  18
ENDBRANCH  16  17
ENDBRANCH  15  16
ENDBRANCH   1  15
TORSDOF 22
ENDMDL
MODEL 6
REMARK VINA RESULT:    -4.850      3.513      8.159
REMARK INTER + INTRA:         -13.241
REMARK INTER:                 -10.634
REMARK INTRA:                  -2.607
REMARK UNBOUND:                -2.154
REMARK SMILES CCCCCCCCCCCCCCCCCCCCCCCC(=O)[O-]
REMARK SMILES IDX 13 1 14 2 15 3 16 4 17 5 18 6 19 7 20 8 21 9 22 10 23 11
REMARK SMILES IDX 24 12 25 13 26 14 12 15 11 16 10 17 9 18 8 19 7 20 6 21 5 22
REMARK SMILES IDX 4 23 3 24 2 25 1 26
REMARK H PARENT
REMARK Flexibility Score: inf
ROOT
ATOM      1  C   UNL     1      11.625  16.353  64.137  1.00  0.00     0.000 C 
ENDROOT
BRANCH   1   2
ATOM      2  C   UNL     1      12.941  16.873  63.541  1.00  0.00     0.000 C 
BRANCH   2   3
ATOM      3  C   UNL     1      14.134  15.955  63.849  1.00  0.00     0.000 C 
BRANCH   3   4
ATOM      4  C   UNL     1      13.851  14.971  65.000  1.00  0.00     0.000 C 
BRANCH   4   5
ATOM      5  C   UNL     1      13.838  13.484  64.596  1.00  0.00     0.000 C 
BRANCH   5   6
ATOM      6  C   UNL     1      13.535  13.269  63.102  1.00  0.00     0.000 C 
BRANCH   6   7
ATOM      7  C   UNL     1      14.636  12.467  62.383  1.00  0.00     0.000 C 
BRANCH   7   8
ATOM      8  C   UNL     1      14.915  12.928  60.940  1.00  0.00     0.000 C 
BRANCH   8   9
ATOM      9  C   UNL     1      15.383  14.393  60.871  1.00  0.00     0.000 C 
BRANCH   9  10
ATOM     10  C   UNL     1      16.817  14.531  60.338  1.00  0.00     0.006 C 
BRANCH  10  11
ATOM     11  C   UNL     1      17.163  15.970  59.932  1.00  0.00     0.053 C 
BRANCH  11  12
ATOM     12  C   UNL     1      18.280  16.495  60.778  1.00  0.00     0.041 C 
ATOM     13  O   UNL     1      18.863  17.566  60.463  1.00  0.00    -0.550 OA
ATOM     14  O   UNL     1      18.716  15.773  61.881  1.00  0.00    -0.550 OA
ENDBRANCH  11  12
ENDBRANCH  10  11
ENDBRANCH   9  10
ENDBRANCH   8   9
ENDBRANCH   7   8
ENDBRANCH   6   7
ENDBRANCH   5   6
ENDBRANCH   4   5
ENDBRANCH   3   4
ENDBRANCH   2   3
ENDBRANCH   1   2
BRANCH   1  15
ATOM     15  C   UNL     1      10.557  17.452  64.253  1.00  0.00     0.000 C 
BRANCH  15  16
ATOM     16  C   UNL     1      10.919  18.667  63.386  1.00  0.00     0.000 C 
BRANCH  16  17
ATOM     17  C   UNL     1      10.952  19.985  64.182  1.00  0.00     0.000 C 
BRANCH  17  18
ATOM     18  C   UNL     1      12.108  20.940  63.821  1.00  0.00    -0.000 C 
BRANCH  18  19
ATOM     19  C   UNL     1      13.072  20.415  62.742  1.00  0.00    -0.000 C 
BRANCH  19  20
ATOM     20  C   UNL     1      13.564  21.522  61.794  1.00  0.00    -0.000 C 
BRANCH  20  21
ATOM     21  C   UNL     1      12.560  21.814  60.667  1.00  0.00    -0.000 C 
BRANCH  21  22
ATOM     22  C   UNL     1      12.164  23.305  60.558  1.00  0.00    -0.000 C 
BRANCH  22  23
ATOM     23  C   UNL     1      10.659  23.562  60.762  1.00  0.00    -0.000 C 
BRANCH  23  24
ATOM     24  C   UNL     1       9.918  22.471  61.557  1.00  0.00    -0.000 C 
BRANCH  24  25
ATOM     25  C   UNL     1       8.741  21.814  60.811  1.00  0.00    -0.003 C 
ATOM     26  C   UNL     1       8.739  20.290  60.918  1.00  0.00     0.004 C 
ENDBRANCH  24  25
ENDBRANCH  23  24
ENDBRANCH  22  23
ENDBRANCH  21  22
ENDBRANCH  20  21
ENDBRANCH  19  20
ENDBRANCH  18  19
ENDBRANCH  17  18
ENDBRANCH  16  17
ENDBRANCH  15  16
ENDBRANCH   1  15
TORSDOF 22
ENDMDL
MODEL 7
REMARK VINA RESULT:    -4.846      4.340      9.032
REMARK INTER + INTRA:         -13.233
REMARK INTER:                 -10.822
REMARK INTRA:                  -2.412
REMARK UNBOUND:                -2.154
REMARK SMILES CCCCCCCCCCCCCCCCCCCCCCCC(=O)[O-]
REMARK SMILES IDX 13 1 14 2 15 3 16 4 17 5 18 6 19 7 20 8 21 9 22 10 23 11
REMARK SMILES IDX 24 12 25 13 26 14 12 15 11 16 10 17 9 18 8 19 7 20 6 21 5 22
REMARK SMILES IDX 4 23 3 24 2 25 1 26
REMARK H PARENT
REMARK Flexibility Score: inf
ROOT
ATOM      1  C   UNL     1      16.080  16.709  61.323  1.00  0.00     0.000 C 
ENDROOT
BRANCH   1   2
ATOM      2  C   UNL     1      17.509  16.291  61.702  1.00  0.00     0.000 C 
BRANCH   2   3
ATOM      3  C   UNL     1      18.545  16.693  60.640  1.00  0.00     0.000 C 
BRANCH   3   4
ATOM      4  C   UNL     1      17.912  16.981  59.266  1.00  0.00     0.000 C 
BRANCH   4   5
ATOM      5  C   UNL     1      17.965  15.808  58.267  1.00  0.00     0.000 C 
BRANCH   5   6
ATOM      6  C   UNL     1      16.664  14.986  58.237  1.00  0.00     0.000 C 
BRANCH   6   7
ATOM      7  C   UNL     1      16.753  13.704  59.086  1.00  0.00     0.000 C 
BRANCH   7   8
ATOM      8  C   UNL     1      15.472  13.380  59.877  1.00  0.00     0.000 C 
BRANCH   8   9
ATOM      9  C   UNL     1      15.430  11.917  60.356  1.00  0.00     0.000 C 
BRANCH   9  10
ATOM     10  C   UNL     1      15.350  11.798  61.885  1.00  0.00     0.006 C 
BRANCH  10  11
ATOM     11  C   UNL     1      14.265  12.696  62.493  1.00  0.00     0.053 C 
BRANCH  11  12
ATOM     12  C   UNL     1      13.985  12.291  63.907  1.00  0.00     0.041 C 
ATOM     13  O   UNL     1      13.863  13.166  64.804  1.00  0.00    -0.550 OA
ATOM     14  O   UNL     1      13.916  10.946  64.244  1.00  0.00    -0.550 OA
ENDBRANCH  11  12
ENDBRANCH  10  11
ENDBRANCH   9  10
ENDBRANCH   8   9
ENDBRANCH   7   8
ENDBRANCH   6   7
ENDBRANCH   5   6
ENDBRANCH   4   5
ENDBRANCH   3   4
ENDBRANCH   2   3
ENDBRANCH   1   2
BRANCH   1  15
ATOM     15  C   UNL     1      15.021  16.089  62.248  1.00  0.00     0.000 C 
BRANCH  15  16
ATOM     16  C   UNL     1      14.659  17.046  63.393  1.00  0.00     0.000 C 
BRANCH  16  17
ATOM     17  C   UNL     1      13.457  16.562  64.223  1.00  0.00     0.000 C 
BRANCH  17  18
ATOM     18  C   UNL     1      12.154  16.348  63.426  1.00  0.00    -0.000 C 
BRANCH  18  19
ATOM     19  C   UNL     1      10.858  16.546  64.233  1.00  0.00    -0.000 C 
BRANCH  19  20
ATOM     20  C   UNL     1      10.529  18.028  64.479  1.00  0.00    -0.000 C 
BRANCH  20  21
ATOM     21  C   UNL     1      10.955  18.922  63.303  1.00  0.00    -0.000 C 
BRANCH  21  22
ATOM     22  C   UNL     1      11.956  20.033  63.698  1.00  0.00    -0.000 C 
BRANCH  22  23
ATOM     23  C   UNL     1      11.473  21.453  63.350  1.00  0.00    -0.000 C 
BRANCH  23  24
ATOM     24  C   UNL     1      12.403  22.239  62.407  1.00  0.00    -0.000 C 
BRANCH  24  25
ATOM     25  C   UNL     1      12.420  21.740  60.951  1.00  0.00    -0.003 C 
ATOM     26  C   UNL     1      13.745  21.091  60.555  1.00  0.00     0.004 C 
ENDBRANCH  24  25
ENDBRANCH  23  24
ENDBRANCH  22  23
ENDBRANCH  21  22
ENDBRANCH  20  21
ENDBRANCH  19  20
ENDBRANCH  18  19
ENDBRANCH  17  18
ENDBRANCH  16  17
ENDBRANCH  15  16
ENDBRANCH   1  15
TORSDOF 22
ENDMDL
MODEL 8
REMARK VINA RESULT:    -4.815      3.175      7.962
REMARK INTER + INTRA:         -13.161
REMARK INTER:                 -10.818
REMARK INTRA:                  -2.343
REMARK UNBOUND:                -2.154
REMARK SMILES CCCCCCCCCCCCCCCCCCCCCCCC(=O)[O-]
REMARK SMILES IDX 13 1 14 2 15 3 16 4 17 5 18 6 19 7 20 8 21 9 22 10 23 11
REMARK SMILES IDX 24 12 25 13 26 14 12 15 11 16 10 17 9 18 8 19 7 20 6 21 5 22
REMARK SMILES IDX 4 23 3 24 2 25 1 26
REMARK H PARENT
REMARK Flexibility Score: inf
ROOT
ATOM      1  C   UNL     1      13.249  17.082  63.474  1.00  0.00     0.000 C 
ENDROOT
BRANCH   1   2
ATOM      2  C   UNL     1      14.329  16.078  63.904  1.00  0.00     0.000 C 
BRANCH   2   3
ATOM      3  C   UNL     1      13.848  15.132  65.017  1.00  0.00     0.000 C 
BRANCH   3   4
ATOM      4  C   UNL     1      13.913  13.648  64.610  1.00  0.00     0.000 C 
BRANCH   4   5
ATOM      5  C   UNL     1      13.586  13.364  63.131  1.00  0.00     0.000 C 
BRANCH   5   6
ATOM      6  C   UNL     1      14.631  12.465  62.447  1.00  0.00     0.000 C 
BRANCH   6   7
ATOM      7  C   UNL     1      14.828  12.813  60.959  1.00  0.00     0.000 C 
BRANCH   7   8
ATOM      8  C   UNL     1      15.314  14.252  60.706  1.00  0.00     0.000 C 
BRANCH   8   9
ATOM      9  C   UNL     1      15.834  14.454  59.270  1.00  0.00     0.000 C 
BRANCH   9  10
ATOM     10  C   UNL     1      17.362  14.598  59.210  1.00  0.00     0.006 C 
BRANCH  10  11
ATOM     11  C   UNL     1      17.808  15.886  58.505  1.00  0.00     0.053 C 
BRANCH  11  12
ATOM     12  C   UNL     1      17.681  17.056  59.429  1.00  0.00     0.041 C 
ATOM     13  O   UNL     1      18.666  17.427  60.120  1.00  0.00    -0.550 OA
ATOM     14  O   UNL     1      16.460  17.701  59.571  1.00  0.00    -0.550 OA
ENDBRANCH  11  12
ENDBRANCH  10  11
ENDBRANCH   9  10
ENDBRANCH   8   9
ENDBRANCH   7   8
ENDBRANCH   6   7
ENDBRANCH   5   6
ENDBRANCH   4   5
ENDBRANCH   3   4
ENDBRANCH   2   3
ENDBRANCH   1   2
BRANCH   1  15
ATOM     15  C   UNL     1      11.833  16.621  63.851  1.00  0.00     0.000 C 
BRANCH  15  16
ATOM     16  C   UNL     1      10.848  17.800  63.848  1.00  0.00     0.000 C 
BRANCH  16  17
ATOM     17  C   UNL     1      11.518  19.140  63.496  1.00  0.00     0.000 C 
BRANCH  17  18
ATOM     18  C   UNL     1      10.555  20.338  63.358  1.00  0.00    -0.000 C 
BRANCH  18  19
ATOM     19  C   UNL     1      10.110  20.652  61.919  1.00  0.00    -0.000 C 
BRANCH  19  20
ATOM     20  C   UNL     1      10.069  22.161  61.625  1.00  0.00    -0.000 C 
BRANCH  20  21
ATOM     21  C   UNL     1      10.480  23.004  62.843  1.00  0.00    -0.000 C 
BRANCH  21  22
ATOM     22  C   UNL     1      11.605  24.022  62.543  1.00  0.00    -0.000 C 
BRANCH  22  23
ATOM     23  C   UNL     1      11.918  24.175  61.043  1.00  0.00    -0.000 C 
BRANCH  23  24
ATOM     24  C   UNL     1      13.332  23.728  60.628  1.00  0.00    -0.000 C 
BRANCH  24  25
ATOM     25  C   UNL     1      13.882  22.519  61.407  1.00  0.00    -0.003 C 
ATOM     26  C   UNL     1      13.606  21.185  60.716  1.00  0.00     0.004 C 
ENDBRANCH  24  25
ENDBRANCH  23  24
ENDBRANCH  22  23
ENDBRANCH  21  22
ENDBRANCH  20  21
ENDBRANCH  19  20
ENDBRANCH  18  19
ENDBRANCH  17  18
ENDBRANCH  16  17
ENDBRANCH  15  16
ENDBRANCH   1  15
TORSDOF 22
ENDMDL
MODEL 9
REMARK VINA RESULT:    -4.799      5.408      8.796
REMARK INTER + INTRA:         -13.124
REMARK INTER:                 -10.535
REMARK INTRA:                  -2.589
REMARK UNBOUND:                -2.154
REMARK SMILES CCCCCCCCCCCCCCCCCCCCCCCC(=O)[O-]
REMARK SMILES IDX 13 1 14 2 15 3 16 4 17 5 18 6 19 7 20 8 21 9 22 10 23 11
REMARK SMILES IDX 24 12 25 13 26 14 12 15 11 16 10 17 9 18 8 19 7 20 6 21 5 22
REMARK SMILES IDX 4 23 3 24 2 25 1 26
REMARK H PARENT
REMARK Flexibility Score: inf
ROOT
ATOM      1  C   UNL     1       8.949  22.799  61.078  1.00  0.00     0.000 C 
ENDROOT
BRANCH   1   2
ATOM      2  C   UNL     1       9.465  24.142  60.538  1.00  0.00     0.000 C 
BRANCH   2   3
ATOM      3  C   UNL     1      10.992  24.162  60.364  1.00  0.00     0.000 C 
BRANCH   3   4
ATOM      4  C   UNL     1      11.461  25.188  59.316  1.00  0.00     0.000 C 
BRANCH   4   5
ATOM      5  C   UNL     1      10.538  26.410  59.142  1.00  0.00     0.000 C 
BRANCH   5   6
ATOM      6  C   UNL     1      10.830  27.532  60.155  1.00  0.00     0.000 C 
BRANCH   6   7
ATOM      7  C   UNL     1      10.589  28.936  59.569  1.00  0.00     0.000 C 
BRANCH   7   8
ATOM      8  C   UNL     1      11.231  29.164  58.188  1.00  0.00     0.000 C 
BRANCH   8   9
ATOM      9  C   UNL     1      10.185  29.401  57.084  1.00  0.00     0.000 C 
BRANCH   9  10
ATOM     10  C   UNL     1      10.815  29.516  55.687  1.00  0.00     0.006 C 
BRANCH  10  11
ATOM     11  C   UNL     1      10.868  28.172  54.949  1.00  0.00     0.053 C 
BRANCH  11  12
ATOM     12  C   UNL     1      11.455  28.350  53.584  1.00  0.00     0.041 C 
ATOM     13  O   UNL     1      11.499  29.493  53.058  1.00  0.00    -0.550 OA
ATOM     14  O   UNL     1      11.901  27.247  52.870  1.00  0.00    -0.550 OA
ENDBRANCH  11  12
ENDBRANCH  10  11
ENDBRANCH   9  10
ENDBRANCH   8   9
ENDBRANCH   7   8
ENDBRANCH   6   7
ENDBRANCH   5   6
ENDBRANCH   4   5
ENDBRANCH   3   4
ENDBRANCH   2   3
ENDBRANCH   1   2
BRANCH   1  15
ATOM     15  C   UNL     1      10.086  21.811  61.378  1.00  0.00     0.000 C 
BRANCH  15  16
ATOM     16  C   UNL     1       9.542  20.517  62.004  1.00  0.00     0.000 C 
BRANCH  16  17
ATOM     17  C   UNL     1      10.355  20.053  63.226  1.00  0.00     0.000 C 
BRANCH  17  18
ATOM     18  C   UNL     1       9.666  20.262  64.590  1.00  0.00    -0.000 C 
BRANCH  18  19
ATOM     19  C   UNL     1      10.398  21.218  65.549  1.00  0.00    -0.000 C 
BRANCH  19  20
ATOM     20  C   UNL     1       9.901  22.669  65.437  1.00  0.00    -0.000 C 
BRANCH  20  21
ATOM     21  C   UNL     1      10.704  23.482  64.408  1.00  0.00    -0.000 C 
BRANCH  21  22
ATOM     22  C   UNL     1      12.209  23.596  64.744  1.00  0.00    -0.000 C 
BRANCH  22  23
ATOM     23  C   UNL     1      13.057  22.436  64.191  1.00  0.00    -0.000 C 
BRANCH  23  24
ATOM     24  C   UNL     1      13.487  22.593  62.721  1.00  0.00    -0.000 C 
BRANCH  24  25
ATOM     25  C   UNL     1      13.809  21.273  61.996  1.00  0.00    -0.003 C 
ATOM     26  C   UNL     1      13.496  21.317  60.501  1.00  0.00     0.004 C 
ENDBRANCH  24  25
ENDBRANCH  23  24
ENDBRANCH  22  23
ENDBRANCH  21  22
ENDBRANCH  20  21
ENDBRANCH  19  20
ENDBRANCH  18  19
ENDBRANCH  17  18
ENDBRANCH  16  17
ENDBRANCH  15  16
ENDBRANCH   1  15
TORSDOF 22
ENDMDL
