MODEL 1
REMARK VINA RESULT:    -2.367      0.000      0.000
REMARK INTER + INTRA:          -2.367
REMARK INTER:                  -2.367
REMARK INTRA:                   0.000
REMARK UNBOUND:                 0.000
REMARK SMILES CC(=O)[O-]
REMARK SMILES IDX 1 1 2 2 3 3 4 4
REMARK H PARENT
REMARK Flexibility Score: inf
ROOT
ATOM      1  C   UNL     1      17.796  25.792   8.420  1.00  0.00     0.063 C 
ATOM      2  C   UNL     1      17.977  27.176   8.944  1.00  0.00     0.038 C 
ATOM      3  O   UNL     1      19.122  27.581   9.276  1.00  0.00    -0.550 OA
ATOM      4  O   UNL     1      16.876  28.003   9.118  1.00  0.00    -0.550 OA
ENDROOT
TORSDOF 0
ENDMDL
MODEL 2
REMARK VINA RESULT:    -2.344      1.338      1.632
REMARK INTER + INTRA:          -2.344
REMARK INTER:                  -2.344
REMARK INTRA:                   0.000
REMARK UNBOUND:                 0.000
REMARK SMILES CC(=O)[O-]
REMARK SMILES IDX 1 1 2 2 3 3 4 4
REMARK H PARENT
REMARK Flexibility Score: inf
ROOT
ATOM      1  C   UNL     1      19.102  26.938   8.757  1.00  0.00     0.063 C 
ATOM      2  C   UNL     1      17.660  26.863   9.129  1.00  0.00     0.038 C 
ATOM      3  O   UNL     1      17.140  25.754   9.418  1.00  0.00    -0.550 OA
ATOM      4  O   UNL     1      16.875  28.008   9.104  1.00  0.00    -0.550 OA
ENDROOT
TORSDOF 0
ENDMDL
MODEL 3
REMARK VINA RESULT:    -2.278      2.246      2.763
REMARK INTER + INTRA:          -2.278
REMARK INTER:                  -2.278
REMARK INTRA:                   0.000
REMARK UNBOUND:                 0.000
REMARK SMILES CC(=O)[O-]
REMARK SMILES IDX 1 1 2 2 3 3 4 4
REMARK H PARENT
REMARK Flexibility Score: inf
ROOT
ATOM      1  C   UNL     1      18.948  27.258   9.080  1.00  0.00     0.063 C 
ATOM      2  C   UNL     1      18.863  25.790   9.331  1.00  0.00     0.038 C 
ATOM      3  O   UNL     1      18.254  25.357  10.344  1.00  0.00    -0.550 OA
ATOM      4  O   UNL     1      19.499  24.900   8.476  1.00  0.00    -0.550 OA
ENDROOT
TORSDOF 0
ENDMDL
MODEL 4
REMARK VINA RESULT:    -2.245      0.933      0.933
REMARK INTER + INTRA:          -2.245
REMARK INTER:                  -2.245
REMARK INTRA:                   0.000
REMARK UNBOUND:                 0.000
REMARK SMILES CC(=O)[O-]
REMARK SMILES IDX 1 1 2 2 3 3 4 4
REMARK H PARENT
REMARK Flexibility Score: inf
ROOT
ATOM      1  C   UNL     1      18.908  25.313   8.621  1.00  0.00     0.063 C 
ATOM      2  C   UNL     1      18.338  26.628   9.032  1.00  0.00     0.038 C 
ATOM      3  O   UNL     1      19.102  27.600   9.273  1.00  0.00    -0.550 OA
ATOM      4  O   UNL     1      16.967  26.770   9.202  1.00  0.00    -0.550 OA
ENDROOT
TORSDOF 0
ENDMDL
MODEL 5
REMARK VINA RESULT:    -2.082      4.547      5.287
REMARK INTER + INTRA:          -2.082
REMARK INTER:                  -2.082
REMARK INTRA:                   0.000
REMARK UNBOUND:                 0.000
REMARK SMILES CC(=O)[O-]
REMARK SMILES IDX 1 1 2 2 3 3 4 4
REMARK H PARENT
REMARK Flexibility Score: inf
ROOT
ATOM      1  C   UNL     1      21.362  22.520   7.219  1.00  0.00     0.063 C 
ATOM      2  C   UNL     1      21.093  23.316   8.450  1.00  0.00     0.038 C 
ATOM      3  O   UNL     1      20.244  24.245   8.429  1.00  0.00    -0.550 OA
ATOM      4  O   UNL     1      21.817  23.071   9.610  1.00  0.00    -0.550 OA
ENDROOT
TORSDOF 0
ENDMDL
MODEL 6
REMARK VINA RESULT:    -2.060     13.348     13.877
REMARK INTER + INTRA:          -2.060
REMARK INTER:                  -2.060
REMARK INTRA:                   0.000
REMARK UNBOUND:                 0.000
REMARK SMILES CC(=O)[O-]
REMARK SMILES IDX 1 1 2 2 3 3 4 4
REMARK H PARENT
REMARK Flexibility Score: inf
ROOT
ATOM      1  C   UNL     1      25.884  27.447  18.546  1.00  0.00     0.063 C 
ATOM      2  C   UNL     1      27.138  27.800  19.271  1.00  0.00     0.038 C 
ATOM      3  O   UNL     1      27.444  27.198  20.333  1.00  0.00    -0.550 OA
ATOM      4  O   UNL     1      27.944  28.830  18.806  1.00  0.00    -0.550 OA
ENDROOT
TORSDOF 0
ENDMDL
MODEL 7
REMARK VINA RESULT:    -2.054      5.176      5.367
REMARK INTER + INTRA:          -2.054
REMARK INTER:                  -2.054
REMARK INTRA:                   0.000
REMARK UNBOUND:                 0.000
REMARK SMILES CC(=O)[O-]
REMARK SMILES IDX 1 1 2 2 3 3 4 4
REMARK H PARENT
REMARK Flexibility Score: inf
ROOT
ATOM      1  C   UNL     1      21.233  23.216   8.140  1.00  0.00     0.063 C 
ATOM      2  C   UNL     1      20.657  22.812   9.455  1.00  0.00     0.038 C 
ATOM      3  O   UNL     1      21.006  23.409  10.507  1.00  0.00    -0.550 OA
ATOM      4  O   UNL     1      19.774  21.743   9.529  1.00  0.00    -0.550 OA
ENDROOT
TORSDOF 0
ENDMDL
MODEL 8
REMARK VINA RESULT:    -1.977      2.661      2.923
REMARK INTER + INTRA:          -1.977
REMARK INTER:                  -1.977
REMARK INTRA:                   0.000
REMARK UNBOUND:                 0.000
REMARK SMILES CC(=O)[O-]
REMARK SMILES IDX 1 1 2 2 3 3 4 4
REMARK H PARENT
REMARK Flexibility Score: inf
ROOT
ATOM      1  C   UNL     1      19.101  23.448   7.242  1.00  0.00     0.063 C 
ATOM      2  C   UNL     1      18.409  24.596   7.897  1.00  0.00     0.038 C 
ATOM      3  O   UNL     1      19.070  25.437   8.560  1.00  0.00    -0.550 OA
ATOM      4  O   UNL     1      17.027  24.710   7.821  1.00  0.00    -0.550 OA
ENDROOT
TORSDOF 0
ENDMDL
MODEL 9
REMARK VINA RESULT:    -1.304      1.365      1.915
REMARK INTER + INTRA:          -1.304
REMARK INTER:                  -1.304
REMARK INTRA:                   0.000
REMARK UNBOUND:                 0.000
REMARK SMILES CC(=O)[O-]
REMARK SMILES IDX 1 1 2 2 3 3 4 4
REMARK H PARENT
REMARK Flexibility Score: inf
ROOT
ATOM      1  C   UNL     1      19.118  27.255   8.796  1.00  0.00     0.063 C 
ATOM      2  C   UNL     1      17.680  27.036   9.123  1.00  0.00     0.038 C 
ATOM      3  O   UNL     1      16.875  28.004   9.114  1.00  0.00    -0.550 OA
ATOM      4  O   UNL     1      17.234  25.773   9.491  1.00  0.00    -0.550 OA
ENDROOT
TORSDOF 0
ENDMDL
