MODEL 1
REMARK VINA RESULT:    -4.834      0.000      0.000
REMARK INTER + INTRA:          -9.840
REMARK INTER:                  -8.791
REMARK INTRA:                  -1.049
REMARK UNBOUND:                -1.049
REMARK SMILES CCCCCCCCCCCCCCCC(=O)[O-]
REMARK SMILES IDX 9 1 10 2 11 3 12 4 13 5 14 6 15 7 16 8 17 9 18 10 8 11 7 12
REMARK SMILES IDX 6 13 5 14 4 15 3 16 2 17 1 18
REMARK H PARENT
REMARK Flexibility Score: inf
ROOT
ATOM      1  C   UNL     1      49.585  61.646  93.751  1.00  0.00     0.000 C 
ENDROOT
BRANCH   1   2
ATOM      2  C   UNL     1      50.335  60.308  93.834  1.00  0.00     0.000 C 
BRANCH   2   3
ATOM      3  C   UNL     1      49.811  59.404  94.958  1.00  0.00     0.000 C 
BRANCH   3   4
ATOM      4  C   UNL     1      50.203  57.941  94.717  1.00  0.00     0.000 C 
BRANCH   4   5
ATOM      5  C   UNL     1      50.081  57.575  93.234  1.00  0.00     0.000 C 
BRANCH   5   6
ATOM      6  C   UNL     1      51.278  56.733  92.774  1.00  0.00     0.006 C 
BRANCH   6   7
ATOM      7  C   UNL     1      51.996  57.395  91.594  1.00  0.00     0.053 C 
BRANCH   7   8
ATOM      8  C   UNL     1      53.021  58.368  92.084  1.00  0.00     0.041 C 
ATOM      9  O   UNL     1      53.450  58.296  93.267  1.00  0.00    -0.550 OA
ATOM     10  O   UNL     1      53.467  59.388  91.253  1.00  0.00    -0.550 OA
ENDBRANCH   7   8
ENDBRANCH   6   7
ENDBRANCH   5   6
ENDBRANCH   4   5
ENDBRANCH   3   4
ENDBRANCH   2   3
ENDBRANCH   1   2
BRANCH   1  11
ATOM     11  C   UNL     1      48.485  61.641  92.675  1.00  0.00     0.000 C 
BRANCH  11  12
ATOM     12  C   UNL     1      47.799  63.009  92.531  1.00  0.00    -0.000 C 
BRANCH  12  13
ATOM     13  C   UNL     1      48.684  64.166  93.024  1.00  0.00    -0.000 C 
BRANCH  13  14
ATOM     14  C   UNL     1      48.459  65.467  92.233  1.00  0.00    -0.000 C 
BRANCH  14  15
ATOM     15  C   UNL     1      47.105  66.160  92.489  1.00  0.00    -0.000 C 
BRANCH  15  16
ATOM     16  C   UNL     1      46.296  66.499  91.224  1.00  0.00    -0.000 C 
BRANCH  16  17
ATOM     17  C   UNL     1      44.868  65.937  91.262  1.00  0.00    -0.003 C 
ATOM     18  C   UNL     1      44.805  64.648  92.074  1.00  0.00     0.004 C 
ENDBRANCH  16  17
ENDBRANCH  15  16
ENDBRANCH  14  15
ENDBRANCH  13  14
ENDBRANCH  12  13
ENDBRANCH  11  12
ENDBRANCH   1  11
TORSDOF 14
ENDMDL
MODEL 2
REMARK VINA RESULT:    -4.703      2.281      3.945
REMARK INTER + INTRA:          -9.601
REMARK INTER:                  -8.679
REMARK INTRA:                  -0.921
REMARK UNBOUND:                -1.049
REMARK SMILES CCCCCCCCCCCCCCCC(=O)[O-]
REMARK SMILES IDX 9 1 10 2 11 3 12 4 13 5 14 6 15 7 16 8 17 9 18 10 8 11 7 12
REMARK SMILES IDX 6 13 5 14 4 15 3 16 2 17 1 18
REMARK H PARENT
REMARK Flexibility Score: inf
ROOT
ATOM      1  C   UNL     1      48.734  63.541  93.004  1.00  0.00     0.000 C 
ENDROOT
BRANCH   1   2
ATOM      2  C   UNL     1      48.263  62.115  92.682  1.00  0.00     0.000 C 
BRANCH   2   3
ATOM      3  C   UNL     1      49.312  61.051  93.038  1.00  0.00     0.000 C 
BRANCH   3   4
ATOM      4  C   UNL     1      49.570  61.016  94.549  1.00  0.00     0.000 C 
BRANCH   4   5
ATOM      5  C   UNL     1      49.706  59.574  95.052  1.00  0.00     0.000 C 
BRANCH   5   6
ATOM      6  C   UNL     1      50.084  58.626  93.907  1.00  0.00     0.006 C 
BRANCH   6   7
ATOM      7  C   UNL     1      51.300  57.772  94.280  1.00  0.00     0.053 C 
BRANCH   7   8
ATOM      8  C   UNL     1      52.537  58.313  93.636  1.00  0.00     0.041 C 
ATOM      9  O   UNL     1      53.651  57.762  93.840  1.00  0.00    -0.550 OA
ATOM     10  O   UNL     1      52.469  59.458  92.851  1.00  0.00    -0.550 OA
ENDBRANCH   7   8
ENDBRANCH   6   7
ENDBRANCH   5   6
ENDBRANCH   4   5
ENDBRANCH   3   4
ENDBRANCH   2   3
ENDBRANCH   1   2
BRANCH   1  11
ATOM     11  C   UNL     1      47.873  64.617  92.318  1.00  0.00     0.000 C 
BRANCH  11  12
ATOM     12  C   UNL     1      48.433  66.033  92.520  1.00  0.00    -0.000 C 
BRANCH  12  13
ATOM     13  C   UNL     1      48.086  66.975  91.354  1.00  0.00    -0.000 C 
BRANCH  13  14
ATOM     14  C   UNL     1      49.328  67.649  90.743  1.00  0.00    -0.000 C 
BRANCH  14  15
ATOM     15  C   UNL     1      50.676  67.016  91.142  1.00  0.00    -0.000 C 
BRANCH  15  16
ATOM     16  C   UNL     1      51.603  67.923  91.971  1.00  0.00    -0.000 C 
BRANCH  16  17
ATOM     17  C   UNL     1      51.818  67.408  93.401  1.00  0.00    -0.003 C 
ATOM     18  C   UNL     1      53.298  67.410  93.769  1.00  0.00     0.004 C 
ENDBRANCH  16  17
ENDBRANCH  15  16
ENDBRANCH  14  15
ENDBRANCH  13  14
ENDBRANCH  12  13
ENDBRANCH  11  12
ENDBRANCH   1  11
TORSDOF 14
ENDMDL
MODEL 3
REMARK VINA RESULT:    -4.659      2.072      2.806
REMARK INTER + INTRA:          -9.521
REMARK INTER:                  -8.556
REMARK INTRA:                  -0.965
REMARK UNBOUND:                -1.049
REMARK SMILES CCCCCCCCCCCCCCCC(=O)[O-]
REMARK SMILES IDX 9 1 10 2 11 3 12 4 13 5 14 6 15 7 16 8 17 9 18 10 8 11 7 12
REMARK SMILES IDX 6 13 5 14 4 15 3 16 2 17 1 18
REMARK H PARENT
REMARK Flexibility Score: inf
ROOT
ATOM      1  C   UNL     1      49.893  61.710  93.736  1.00  0.00     0.000 C 
ENDROOT
BRANCH   1   2
ATOM      2  C   UNL     1      49.463  60.835  94.924  1.00  0.00     0.000 C 
BRANCH   2   3
ATOM      3  C   UNL     1      49.858  59.362  94.746  1.00  0.00     0.000 C 
BRANCH   3   4
ATOM      4  C   UNL     1      50.527  59.132  93.385  1.00  0.00     0.000 C 
BRANCH   4   5
ATOM      5  C   UNL     1      50.130  57.773  92.798  1.00  0.00     0.000 C 
BRANCH   5   6
ATOM      6  C   UNL     1      51.368  56.924  92.487  1.00  0.00     0.006 C 
BRANCH   6   7
ATOM      7  C   UNL     1      52.533  57.292  93.411  1.00  0.00     0.053 C 
BRANCH   7   8
ATOM      8  C   UNL     1      52.704  56.256  94.476  1.00  0.00     0.041 C 
ATOM      9  O   UNL     1      53.114  55.103  94.179  1.00  0.00    -0.550 OA
ATOM     10  O   UNL     1      52.363  56.547  95.791  1.00  0.00    -0.550 OA
ENDBRANCH   7   8
ENDBRANCH   6   7
ENDBRANCH   5   6
ENDBRANCH   4   5
ENDBRANCH   3   4
ENDBRANCH   2   3
ENDBRANCH   1   2
BRANCH   1  11
ATOM     11  C   UNL     1      48.723  62.512  93.139  1.00  0.00     0.000 C 
BRANCH  11  12
ATOM     12  C   UNL     1      49.008  64.022  93.095  1.00  0.00    -0.000 C 
BRANCH  12  13
ATOM     13  C   UNL     1      47.836  64.825  92.506  1.00  0.00    -0.000 C 
BRANCH  13  14
ATOM     14  C   UNL     1      48.300  66.034  91.676  1.00  0.00    -0.000 C 
BRANCH  14  15
ATOM     15  C   UNL     1      48.109  67.405  92.356  1.00  0.00    -0.000 C 
BRANCH  15  16
ATOM     16  C   UNL     1      47.317  67.374  93.676  1.00  0.00    -0.000 C 
BRANCH  16  17
ATOM     17  C   UNL     1      48.059  68.058  94.832  1.00  0.00    -0.003 C 
ATOM     18  C   UNL     1      49.298  67.265  95.237  1.00  0.00     0.004 C 
ENDBRANCH  16  17
ENDBRANCH  15  16
ENDBRANCH  14  15
ENDBRANCH  13  14
ENDBRANCH  12  13
ENDBRANCH  11  12
ENDBRANCH   1  11
TORSDOF 14
ENDMDL
MODEL 4
REMARK VINA RESULT:    -4.650      3.638      8.572
REMARK INTER + INTRA:          -9.506
REMARK INTER:                  -8.435
REMARK INTRA:                  -1.070
REMARK UNBOUND:                -1.049
REMARK SMILES CCCCCCCCCCCCCCCC(=O)[O-]
REMARK SMILES IDX 9 1 10 2 11 3 12 4 13 5 14 6 15 7 16 8 17 9 18 10 8 11 7 12
REMARK SMILES IDX 6 13 5 14 4 15 3 16 2 17 1 18
REMARK H PARENT
REMARK Flexibility Score: inf
ROOT
ATOM      1  C   UNL     1      48.986  61.482  93.015  1.00  0.00     0.000 C 
ENDROOT
BRANCH   1   2
ATOM      2  C   UNL     1      49.266  62.864  93.625  1.00  0.00     0.000 C 
BRANCH   2   3
ATOM      3  C   UNL     1      48.557  63.998  92.871  1.00  0.00     0.000 C 
BRANCH   3   4
ATOM      4  C   UNL     1      49.067  65.369  93.333  1.00  0.00     0.000 C 
BRANCH   4   5
ATOM      5  C   UNL     1      48.294  66.503  92.650  1.00  0.00     0.000 C 
BRANCH   5   6
ATOM      6  C   UNL     1      47.642  66.019  91.349  1.00  0.00     0.006 C 
BRANCH   6   7
ATOM      7  C   UNL     1      46.188  66.492  91.253  1.00  0.00     0.053 C 
BRANCH   7   8
ATOM      8  C   UNL     1      45.315  65.691  92.167  1.00  0.00     0.041 C 
ATOM      9  O   UNL     1      45.037  66.123  93.317  1.00  0.00    -0.550 OA
ATOM     10  O   UNL     1      44.850  64.444  91.769  1.00  0.00    -0.550 OA
ENDBRANCH   7   8
ENDBRANCH   6   7
ENDBRANCH   5   6
ENDBRANCH   4   5
ENDBRANCH   3   4
ENDBRANCH   2   3
ENDBRANCH   1   2
BRANCH   1  11
ATOM     11  C   UNL     1      50.044  60.437  93.409  1.00  0.00     0.000 C 
BRANCH  11  12
ATOM     12  C   UNL     1      49.892  59.966  94.864  1.00  0.00    -0.000 C 
BRANCH  12  13
ATOM     13  C   UNL     1      49.687  58.445  94.973  1.00  0.00    -0.000 C 
BRANCH  13  14
ATOM     14  C   UNL     1      50.626  57.651  94.049  1.00  0.00    -0.000 C 
BRANCH  14  15
ATOM     15  C   UNL     1      52.073  57.502  94.561  1.00  0.00    -0.000 C 
BRANCH  15  16
ATOM     16  C   UNL     1      53.152  58.129  93.659  1.00  0.00    -0.000 C 
BRANCH  16  17
ATOM     17  C   UNL     1      52.755  58.147  92.177  1.00  0.00    -0.003 C 
ATOM     18  C   UNL     1      53.348  59.357  91.463  1.00  0.00     0.004 C 
ENDBRANCH  16  17
ENDBRANCH  15  16
ENDBRANCH  14  15
ENDBRANCH  13  14
ENDBRANCH  12  13
ENDBRANCH  11  12
ENDBRANCH   1  11
TORSDOF 14
ENDMDL
MODEL 5
REMARK VINA RESULT:    -4.637      1.862      3.346
REMARK INTER + INTRA:          -9.480
REMARK INTER:                  -8.371
REMARK INTRA:                  -1.109
REMARK UNBOUND:                -1.049
REMARK SMILES CCCCCCCCCCCCCCCC(=O)[O-]
REMARK SMILES IDX 9 1 10 2 11 3 12 4 13 5 14 6 15 7 16 8 17 9 18 10 8 11 7 12
REMARK SMILES IDX 6 13 5 14 4 15 3 16 2 17 1 18
REMARK H PARENT
REMARK Flexibility Score: inf
ROOT
ATOM      1  C   UNL     1      47.908  63.127  92.626  1.00  0.00     0.000 C 
ENDROOT
BRANCH   1   2
ATOM      2  C   UNL     1      48.523  61.724  92.741  1.00  0.00     0.000 C 
BRANCH   2   3
ATOM      3  C   UNL     1      49.613  61.643  93.819  1.00  0.00     0.000 C 
BRANCH   3   4
ATOM      4  C   UNL     1      50.532  60.439  93.583  1.00  0.00     0.000 C 
BRANCH   4   5
ATOM      5  C   UNL     1      50.082  59.230  94.411  1.00  0.00     0.000 C 
BRANCH   5   6
ATOM      6  C   UNL     1      50.986  58.018  94.153  1.00  0.00     0.006 C 
BRANCH   6   7
ATOM      7  C   UNL     1      50.577  57.291  92.868  1.00  0.00     0.053 C 
BRANCH   7   8
ATOM      8  C   UNL     1      51.709  57.279  91.890  1.00  0.00     0.041 C 
ATOM      9  O   UNL     1      52.719  58.007  92.081  1.00  0.00    -0.550 OA
ATOM     10  O   UNL     1      51.628  56.502  90.741  1.00  0.00    -0.550 OA
ENDBRANCH   7   8
ENDBRANCH   6   7
ENDBRANCH   5   6
ENDBRANCH   4   5
ENDBRANCH   3   4
ENDBRANCH   2   3
ENDBRANCH   1   2
BRANCH   1  11
ATOM     11  C   UNL     1      48.914  64.242  92.958  1.00  0.00     0.000 C 
BRANCH  11  12
ATOM     12  C   UNL     1      48.248  65.623  93.059  1.00  0.00    -0.000 C 
BRANCH  12  13
ATOM     13  C   UNL     1      47.289  65.902  91.888  1.00  0.00    -0.000 C 
BRANCH  13  14
ATOM     14  C   UNL     1      47.540  67.267  91.225  1.00  0.00    -0.000 C 
BRANCH  14  15
ATOM     15  C   UNL     1      48.828  67.356  90.382  1.00  0.00    -0.000 C 
BRANCH  15  16
ATOM     16  C   UNL     1      49.994  68.109  91.047  1.00  0.00    -0.000 C 
BRANCH  16  17
ATOM     17  C   UNL     1      51.163  67.188  91.421  1.00  0.00    -0.003 C 
ATOM     18  C   UNL     1      51.597  67.409  92.866  1.00  0.00     0.004 C 
ENDBRANCH  16  17
ENDBRANCH  15  16
ENDBRANCH  14  15
ENDBRANCH  13  14
ENDBRANCH  12  13
ENDBRANCH  11  12
ENDBRANCH   1  11
TORSDOF 14
ENDMDL
MODEL 6
REMARK VINA RESULT:    -4.623      1.852      3.484
REMARK INTER + INTRA:          -9.455
REMARK INTER:                  -8.307
REMARK INTRA:                  -1.149
REMARK UNBOUND:                -1.049
REMARK SMILES CCCCCCCCCCCCCCCC(=O)[O-]
REMARK SMILES IDX 9 1 10 2 11 3 12 4 13 5 14 6 15 7 16 8 17 9 18 10 8 11 7 12
REMARK SMILES IDX 6 13 5 14 4 15 3 16 2 17 1 18
REMARK H PARENT
REMARK Flexibility Score: inf
ROOT
ATOM      1  C   UNL     1      47.612  62.855  92.568  1.00  0.00     0.000 C 
ENDROOT
BRANCH   1   2
ATOM      2  C   UNL     1      48.566  61.654  92.665  1.00  0.00     0.000 C 
BRANCH   2   3
ATOM      3  C   UNL     1      49.582  61.797  93.807  1.00  0.00     0.000 C 
BRANCH   3   4
ATOM      4  C   UNL     1      50.460  60.545  93.923  1.00  0.00     0.000 C 
BRANCH   4   5
ATOM      5  C   UNL     1      49.784  59.475  94.788  1.00  0.00     0.000 C 
BRANCH   5   6
ATOM      6  C   UNL     1      50.434  58.103  94.575  1.00  0.00     0.006 C 
BRANCH   6   7
ATOM      7  C   UNL     1      50.126  57.560  93.176  1.00  0.00     0.053 C 
BRANCH   7   8
ATOM      8  C   UNL     1      51.347  56.941  92.573  1.00  0.00     0.041 C 
ATOM      9  O   UNL     1      51.705  57.250  91.406  1.00  0.00    -0.550 OA
ATOM     10  O   UNL     1      52.063  55.984  93.281  1.00  0.00    -0.550 OA
ENDBRANCH   7   8
ENDBRANCH   6   7
ENDBRANCH   5   6
ENDBRANCH   4   5
ENDBRANCH   3   4
ENDBRANCH   2   3
ENDBRANCH   1   2
BRANCH   1  11
ATOM     11  C   UNL     1      48.350  64.203  92.635  1.00  0.00     0.000 C 
BRANCH  11  12
ATOM     12  C   UNL     1      47.448  65.386  92.250  1.00  0.00    -0.000 C 
BRANCH  12  13
ATOM     13  C   UNL     1      47.586  66.571  93.221  1.00  0.00    -0.000 C 
BRANCH  13  14
ATOM     14  C   UNL     1      48.849  66.481  94.095  1.00  0.00    -0.000 C 
BRANCH  14  15
ATOM     15  C   UNL     1      49.838  67.653  93.934  1.00  0.00    -0.000 C 
BRANCH  15  16
ATOM     16  C   UNL     1      51.140  67.311  93.188  1.00  0.00    -0.000 C 
BRANCH  16  17
ATOM     17  C   UNL     1      50.894  66.819  91.755  1.00  0.00    -0.003 C 
ATOM     18  C   UNL     1      50.227  67.900  90.909  1.00  0.00     0.004 C 
ENDBRANCH  16  17
ENDBRANCH  15  16
ENDBRANCH  14  15
ENDBRANCH  13  14
ENDBRANCH  12  13
ENDBRANCH  11  12
ENDBRANCH   1  11
TORSDOF 14
ENDMDL
MODEL 7
REMARK VINA RESULT:    -4.582      3.570      8.264
REMARK INTER + INTRA:          -9.381
REMARK INTER:                  -8.418
REMARK INTRA:                  -0.964
REMARK UNBOUND:                -1.049
REMARK SMILES CCCCCCCCCCCCCCCC(=O)[O-]
REMARK SMILES IDX 9 1 10 2 11 3 12 4 13 5 14 6 15 7 16 8 17 9 18 10 8 11 7 12
REMARK SMILES IDX 6 13 5 14 4 15 3 16 2 17 1 18
REMARK H PARENT
REMARK Flexibility Score: inf
ROOT
ATOM      1  C   UNL     1      49.107  62.812  93.433  1.00  0.00     0.000 C 
ENDROOT
BRANCH   1   2
ATOM      2  C   UNL     1      48.301  63.827  92.608  1.00  0.00     0.000 C 
BRANCH   2   3
ATOM      3  C   UNL     1      48.632  65.281  92.974  1.00  0.00     0.000 C 
BRANCH   3   4
ATOM      4  C   UNL     1      48.472  66.205  91.760  1.00  0.00     0.000 C 
BRANCH   4   5
ATOM      5  C   UNL     1      49.788  66.920  91.434  1.00  0.00     0.000 C 
BRANCH   5   6
ATOM      6  C   UNL     1      50.878  66.557  92.450  1.00  0.00     0.006 C 
BRANCH   6   7
ATOM      7  C   UNL     1      51.823  67.739  92.687  1.00  0.00     0.053 C 
BRANCH   7   8
ATOM      8  C   UNL     1      52.611  67.536  93.942  1.00  0.00     0.041 C 
ATOM      9  O   UNL     1      53.763  67.028  93.893  1.00  0.00    -0.550 OA
ATOM     10  O   UNL     1      52.054  67.859  95.174  1.00  0.00    -0.550 OA
ENDBRANCH   7   8
ENDBRANCH   6   7
ENDBRANCH   5   6
ENDBRANCH   4   5
ENDBRANCH   3   4
ENDBRANCH   2   3
ENDBRANCH   1   2
BRANCH   1  11
ATOM     11  C   UNL     1      48.903  61.365  92.952  1.00  0.00     0.000 C 
BRANCH  11  12
ATOM     12  C   UNL     1      49.950  60.400  93.531  1.00  0.00    -0.000 C 
BRANCH  12  13
ATOM     13  C   UNL     1      51.327  61.063  93.707  1.00  0.00    -0.000 C 
BRANCH  13  14
ATOM     14  C   UNL     1      52.371  60.543  92.704  1.00  0.00    -0.000 C 
BRANCH  14  15
ATOM     15  C   UNL     1      52.420  59.010  92.549  1.00  0.00    -0.000 C 
BRANCH  15  16
ATOM     16  C   UNL     1      53.381  58.287  93.511  1.00  0.00    -0.000 C 
BRANCH  16  17
ATOM     17  C   UNL     1      52.828  56.945  94.009  1.00  0.00    -0.003 C 
ATOM     18  C   UNL     1      51.920  57.140  95.220  1.00  0.00     0.004 C 
ENDBRANCH  16  17
ENDBRANCH  15  16
ENDBRANCH  14  15
ENDBRANCH  13  14
ENDBRANCH  12  13
ENDBRANCH  11  12
ENDBRANCH   1  11
TORSDOF 14
ENDMDL
MODEL 8
REMARK VINA RESULT:    -4.517      3.311      8.336
REMARK INTER + INTRA:          -9.263
REMARK INTER:                  -8.244
REMARK INTRA:                  -1.019
REMARK UNBOUND:                -1.049
REMARK SMILES CCCCCCCCCCCCCCCC(=O)[O-]
REMARK SMILES IDX 9 1 10 2 11 3 12 4 13 5 14 6 15 7 16 8 17 9 18 10 8 11 7 12
REMARK SMILES IDX 6 13 5 14 4 15 3 16 2 17 1 18
REMARK H PARENT
REMARK Flexibility Score: inf
ROOT
ATOM      1  C   UNL     1      48.267  63.233  92.775  1.00  0.00     0.000 C 
ENDROOT
BRANCH   1   2
ATOM      2  C   UNL     1      48.436  64.756  92.661  1.00  0.00     0.000 C 
BRANCH   2   3
ATOM      3  C   UNL     1      47.144  65.463  92.227  1.00  0.00     0.000 C 
BRANCH   3   4
ATOM      4  C   UNL     1      47.426  66.907  91.791  1.00  0.00     0.000 C 
BRANCH   4   5
ATOM      5  C   UNL     1      48.471  66.950  90.670  1.00  0.00     0.000 C 
BRANCH   5   6
ATOM      6  C   UNL     1      49.620  67.901  91.026  1.00  0.00     0.006 C 
BRANCH   6   7
ATOM      7  C   UNL     1      50.898  67.122  91.351  1.00  0.00     0.053 C 
BRANCH   7   8
ATOM      8  C   UNL     1      51.300  67.345  92.775  1.00  0.00     0.041 C 
ATOM      9  O   UNL     1      50.423  67.528  93.660  1.00  0.00    -0.550 OA
ATOM     10  O   UNL     1      52.646  67.402  93.117  1.00  0.00    -0.550 OA
ENDBRANCH   7   8
ENDBRANCH   6   7
ENDBRANCH   5   6
ENDBRANCH   4   5
ENDBRANCH   3   4
ENDBRANCH   2   3
ENDBRANCH   1   2
BRANCH   1  11
ATOM     11  C   UNL     1      49.476  62.553  93.439  1.00  0.00     0.000 C 
BRANCH  11  12
ATOM     12  C   UNL     1      49.290  61.034  93.581  1.00  0.00    -0.000 C 
BRANCH  12  13
ATOM     13  C   UNL     1      49.592  60.535  95.005  1.00  0.00    -0.000 C 
BRANCH  13  14
ATOM     14  C   UNL     1      49.565  59.000  95.116  1.00  0.00    -0.000 C 
BRANCH  14  15
ATOM     15  C   UNL     1      50.382  58.254  94.043  1.00  0.00    -0.000 C 
BRANCH  15  16
ATOM     16  C   UNL     1      51.644  57.541  94.562  1.00  0.00    -0.000 C 
BRANCH  16  17
ATOM     17  C   UNL     1      52.909  57.924  93.782  1.00  0.00    -0.003 C 
ATOM     18  C   UNL     1      52.662  59.142  92.897  1.00  0.00     0.004 C 
ENDBRANCH  16  17
ENDBRANCH  15  16
ENDBRANCH  14  15
ENDBRANCH  13  14
ENDBRANCH  12  13
ENDBRANCH  11  12
ENDBRANCH   1  11
TORSDOF 14
ENDMDL
MODEL 9
REMARK VINA RESULT:    -4.475      3.106      4.745
REMARK INTER + INTRA:          -9.186
REMARK INTER:                  -8.395
REMARK INTRA:                  -0.791
REMARK UNBOUND:                -1.049
REMARK SMILES CCCCCCCCCCCCCCCC(=O)[O-]
REMARK SMILES IDX 9 1 10 2 11 3 12 4 13 5 14 6 15 7 16 8 17 9 18 10 8 11 7 12
REMARK SMILES IDX 6 13 5 14 4 15 3 16 2 17 1 18
REMARK H PARENT
REMARK Flexibility Score: inf
ROOT
ATOM      1  C   UNL     1      48.997  63.679  93.369  1.00  0.00     0.000 C 
ENDROOT
BRANCH   1   2
ATOM      2  C   UNL     1      48.496  62.363  92.754  1.00  0.00     0.000 C 
BRANCH   2   3
ATOM      3  C   UNL     1      49.129  61.126  93.407  1.00  0.00     0.000 C 
BRANCH   3   4
ATOM      4  C   UNL     1      50.658  61.241  93.438  1.00  0.00     0.000 C 
BRANCH   4   5
ATOM      5  C   UNL     1      51.317  59.867  93.277  1.00  0.00     0.000 C 
BRANCH   5   6
ATOM      6  C   UNL     1      50.387  58.750  93.764  1.00  0.00     0.006 C 
BRANCH   6   7
ATOM      7  C   UNL     1      50.221  57.667  92.693  1.00  0.00     0.053 C 
BRANCH   7   8
ATOM      8  C   UNL     1      51.497  56.904  92.518  1.00  0.00     0.041 C 
ATOM      9  O   UNL     1      51.885  56.575  91.366  1.00  0.00    -0.550 OA
ATOM     10  O   UNL     1      52.232  56.513  93.630  1.00  0.00    -0.550 OA
ENDBRANCH   7   8
ENDBRANCH   6   7
ENDBRANCH   5   6
ENDBRANCH   4   5
ENDBRANCH   3   4
ENDBRANCH   2   3
ENDBRANCH   1   2
BRANCH   1  11
ATOM     11  C   UNL     1      48.432  64.919  92.654  1.00  0.00     0.000 C 
BRANCH  11  12
ATOM     12  C   UNL     1      49.122  66.218  93.099  1.00  0.00    -0.000 C 
BRANCH  12  13
ATOM     13  C   UNL     1      50.215  66.671  92.116  1.00  0.00    -0.000 C 
BRANCH  13  14
ATOM     14  C   UNL     1      51.202  67.671  92.743  1.00  0.00    -0.000 C 
BRANCH  14  15
ATOM     15  C   UNL     1      51.038  67.885  94.262  1.00  0.00    -0.000 C 
BRANCH  15  16
ATOM     16  C   UNL     1      52.352  67.921  95.062  1.00  0.00    -0.000 C 
BRANCH  16  17
ATOM     17  C   UNL     1      53.568  67.489  94.231  1.00  0.00    -0.003 C 
ATOM     18  C   UNL     1      54.872  67.902  94.907  1.00  0.00     0.004 C 
ENDBRANCH  16  17
ENDBRANCH  15  16
ENDBRANCH  14  15
ENDBRANCH  13  14
ENDBRANCH  12  13
ENDBRANCH  11  12
ENDBRANCH   1  11
TORSDOF 14
ENDMDL
