MODEL 1
REMARK VINA RESULT:    -4.107      0.000      0.000
REMARK INTER + INTRA:          -5.674
REMARK INTER:                  -5.308
REMARK INTRA:                  -0.366
REMARK UNBOUND:                -0.366
REMARK SMILES CCCCCCC(=O)[O-]
REMARK SMILES IDX 5 1 6 2 7 3 8 4 9 5 4 6 3 7 2 8 1 9
REMARK H PARENT
REMARK Flexibility Score: inf
ROOT
ATOM      1  C   UNL     1     -10.702 -13.348   8.503  1.00  0.00     0.006 C 
ENDROOT
BRANCH   1   2
ATOM      2  C   UNL     1     -10.713 -13.103  10.015  1.00  0.00     0.053 C 
BRANCH   2   3
ATOM      3  C   UNL     1     -11.936 -12.339  10.414  1.00  0.00     0.041 C 
ATOM      4  O   UNL     1     -11.835 -11.311  11.134  1.00  0.00    -0.550 OA
ATOM      5  O   UNL     1     -13.193 -12.789  10.032  1.00  0.00    -0.550 OA
ENDBRANCH   2   3
ENDBRANCH   1   2
BRANCH   1   6
ATOM      6  C   UNL     1     -10.524 -12.031   7.734  1.00  0.00     0.000 C 
BRANCH   6   7
ATOM      7  C   UNL     1      -9.052 -11.730   7.407  1.00  0.00    -0.000 C 
BRANCH   7   8
ATOM      8  C   UNL     1      -8.676 -10.265   7.671  1.00  0.00    -0.003 C 
ATOM      9  C   UNL     1      -9.129  -9.824   9.061  1.00  0.00     0.004 C 
ENDBRANCH   7   8
ENDBRANCH   6   7
ENDBRANCH   1   6
TORSDOF 5
ENDMDL
MODEL 2
REMARK VINA RESULT:    -4.077      2.640      3.904
REMARK INTER + INTRA:          -5.635
REMARK INTER:                  -5.510
REMARK INTRA:                  -0.125
REMARK UNBOUND:                -0.366
REMARK SMILES CCCCCCC(=O)[O-]
REMARK SMILES IDX 5 1 6 2 7 3 8 4 9 5 4 6 3 7 2 8 1 9
REMARK H PARENT
REMARK Flexibility Score: inf
ROOT
ATOM      1  C   UNL     1     -11.836 -12.432   9.414  1.00  0.00     0.006 C 
ENDROOT
BRANCH   1   2
ATOM      2  C   UNL     1     -13.010 -12.250  10.381  1.00  0.00     0.053 C 
BRANCH   2   3
ATOM      3  C   UNL     1     -12.878 -10.960  11.128  1.00  0.00     0.041 C 
ATOM      4  O   UNL     1     -12.354 -10.941  12.273  1.00  0.00    -0.550 OA
ATOM      5  O   UNL     1     -13.380  -9.786  10.582  1.00  0.00    -0.550 OA
ENDBRANCH   2   3
ENDBRANCH   1   2
BRANCH   1   6
ATOM      6  C   UNL     1     -10.874 -13.518   9.916  1.00  0.00     0.000 C 
BRANCH   6   7
ATOM      7  C   UNL     1     -10.600 -14.601   8.860  1.00  0.00    -0.000 C 
BRANCH   7   8
ATOM      8  C   UNL     1     -10.165 -15.936   9.483  1.00  0.00    -0.003 C 
ATOM      9  C   UNL     1     -11.178 -17.038   9.183  1.00  0.00     0.004 C 
ENDBRANCH   7   8
ENDBRANCH   6   7
ENDBRANCH   1   6
TORSDOF 5
ENDMDL
MODEL 3
REMARK VINA RESULT:    -4.028      1.959      3.037
REMARK INTER + INTRA:          -5.572
REMARK INTER:                  -5.187
REMARK INTRA:                  -0.384
REMARK UNBOUND:                -0.366
REMARK SMILES CCCCCCC(=O)[O-]
REMARK SMILES IDX 5 1 6 2 7 3 8 4 9 5 4 6 3 7 2 8 1 9
REMARK H PARENT
REMARK Flexibility Score: inf
ROOT
ATOM      1  C   UNL     1     -10.155 -11.979   9.134  1.00  0.00     0.006 C 
ENDROOT
BRANCH   1   2
ATOM      2  C   UNL     1     -10.781 -13.319   9.529  1.00  0.00     0.053 C 
BRANCH   2   3
ATOM      3  C   UNL     1     -12.203 -13.391   9.069  1.00  0.00     0.041 C 
ATOM      4  O   UNL     1     -13.125 -12.912   9.781  1.00  0.00    -0.550 OA
ATOM      5  O   UNL     1     -12.517 -14.029   7.876  1.00  0.00    -0.550 OA
ENDBRANCH   2   3
ENDBRANCH   1   2
BRANCH   1   6
ATOM      6  C   UNL     1     -10.108 -11.019  10.332  1.00  0.00     0.000 C 
BRANCH   6   7
ATOM      7  C   UNL     1     -10.886  -9.718  10.079  1.00  0.00    -0.000 C 
BRANCH   7   8
ATOM      8  C   UNL     1     -12.034  -9.513  11.079  1.00  0.00    -0.003 C 
ATOM      9  C   UNL     1     -11.993 -10.565  12.185  1.00  0.00     0.004 C 
ENDBRANCH   7   8
ENDBRANCH   6   7
ENDBRANCH   1   6
TORSDOF 5
ENDMDL
MODEL 4
REMARK VINA RESULT:    -4.021      2.071      3.174
REMARK INTER + INTRA:          -5.563
REMARK INTER:                  -5.199
REMARK INTRA:                  -0.364
REMARK UNBOUND:                -0.366
REMARK SMILES CCCCCCC(=O)[O-]
REMARK SMILES IDX 5 1 6 2 7 3 8 4 9 5 4 6 3 7 2 8 1 9
REMARK H PARENT
REMARK Flexibility Score: inf
ROOT
ATOM      1  C   UNL     1     -13.507 -10.493  10.739  1.00  0.00     0.006 C 
ENDROOT
BRANCH   1   2
ATOM      2  C   UNL     1     -12.358 -11.316  11.329  1.00  0.00     0.053 C 
BRANCH   2   3
ATOM      3  C   UNL     1     -12.031 -12.474  10.441  1.00  0.00     0.041 C 
ATOM      4  O   UNL     1     -10.847 -12.890  10.350  1.00  0.00    -0.550 OA
ATOM      5  O   UNL     1     -13.028 -13.066   9.674  1.00  0.00    -0.550 OA
ENDBRANCH   2   3
ENDBRANCH   1   2
BRANCH   1   6
ATOM      6  C   UNL     1     -12.985  -9.198  10.101  1.00  0.00     0.000 C 
BRANCH   6   7
ATOM      7  C   UNL     1     -11.647  -8.739  10.702  1.00  0.00    -0.000 C 
BRANCH   7   8
ATOM      8  C   UNL     1     -10.601  -8.407   9.628  1.00  0.00    -0.003 C 
ATOM      9  C   UNL     1      -9.652  -9.582   9.403  1.00  0.00     0.004 C 
ENDBRANCH   7   8
ENDBRANCH   6   7
ENDBRANCH   1   6
TORSDOF 5
ENDMDL
MODEL 5
REMARK VINA RESULT:    -3.989      1.865      2.705
REMARK INTER + INTRA:          -5.522
REMARK INTER:                  -5.141
REMARK INTRA:                  -0.381
REMARK UNBOUND:                -0.366
REMARK SMILES CCCCCCC(=O)[O-]
REMARK SMILES IDX 5 1 6 2 7 3 8 4 9 5 4 6 3 7 2 8 1 9
REMARK H PARENT
REMARK Flexibility Score: inf
ROOT
ATOM      1  C   UNL     1     -11.872 -12.414  10.274  1.00  0.00     0.006 C 
ENDROOT
BRANCH   1   2
ATOM      2  C   UNL     1     -10.837 -13.493   9.942  1.00  0.00     0.053 C 
BRANCH   2   3
ATOM      3  C   UNL     1     -11.253 -14.262   8.727  1.00  0.00     0.041 C 
ATOM      4  O   UNL     1     -11.007 -15.494   8.641  1.00  0.00    -0.550 OA
ATOM      5  O   UNL     1     -11.868 -13.608   7.667  1.00  0.00    -0.550 OA
ENDBRANCH   2   3
ENDBRANCH   1   2
BRANCH   1   6
ATOM      6  C   UNL     1     -11.246 -11.014  10.209  1.00  0.00     0.000 C 
BRANCH   6   7
ATOM      7  C   UNL     1      -9.731 -11.053   9.952  1.00  0.00    -0.000 C 
BRANCH   7   8
ATOM      8  C   UNL     1      -9.326 -10.286   8.684  1.00  0.00    -0.003 C 
ATOM      9  C   UNL     1      -9.047 -11.244   7.529  1.00  0.00     0.004 C 
ENDBRANCH   7   8
ENDBRANCH   6   7
ENDBRANCH   1   6
TORSDOF 5
ENDMDL
MODEL 6
REMARK VINA RESULT:    -3.987      2.475      3.498
REMARK INTER + INTRA:          -5.518
REMARK INTER:                  -5.125
REMARK INTRA:                  -0.393
REMARK UNBOUND:                -0.366
REMARK SMILES CCCCCCC(=O)[O-]
REMARK SMILES IDX 5 1 6 2 7 3 8 4 9 5 4 6 3 7 2 8 1 9
REMARK H PARENT
REMARK Flexibility Score: inf
ROOT
ATOM      1  C   UNL     1     -12.031 -12.075  10.742  1.00  0.00     0.006 C 
ENDROOT
BRANCH   1   2
ATOM      2  C   UNL     1     -10.828 -11.839   9.823  1.00  0.00     0.053 C 
BRANCH   2   3
ATOM      3  C   UNL     1     -11.253 -11.855   8.388  1.00  0.00     0.041 C 
ATOM      4  O   UNL     1     -11.283 -10.786   7.724  1.00  0.00    -0.550 OA
ATOM      5  O   UNL     1     -11.664 -13.044   7.798  1.00  0.00    -0.550 OA
ENDBRANCH   2   3
ENDBRANCH   1   2
BRANCH   1   6
ATOM      6  C   UNL     1     -12.805 -10.771  10.981  1.00  0.00     0.000 C 
BRANCH   6   7
ATOM      7  C   UNL     1     -11.881  -9.578  11.273  1.00  0.00    -0.000 C 
BRANCH   7   8
ATOM      8  C   UNL     1     -12.161  -8.377  10.358  1.00  0.00    -0.003 C 
ATOM      9  C   UNL     1     -10.862  -7.769   9.837  1.00  0.00     0.004 C 
ENDBRANCH   7   8
ENDBRANCH   6   7
ENDBRANCH   1   6
TORSDOF 5
ENDMDL
MODEL 7
REMARK VINA RESULT:    -3.939      2.401      4.027
REMARK INTER + INTRA:          -5.457
REMARK INTER:                  -4.985
REMARK INTRA:                  -0.472
REMARK UNBOUND:                -0.366
REMARK SMILES CCCCCCC(=O)[O-]
REMARK SMILES IDX 5 1 6 2 7 3 8 4 9 5 4 6 3 7 2 8 1 9
REMARK H PARENT
REMARK Flexibility Score: inf
ROOT
ATOM      1  C   UNL     1      -9.712 -10.905   9.081  1.00  0.00     0.006 C 
ENDROOT
BRANCH   1   2
ATOM      2  C   UNL     1      -9.377  -9.419   9.240  1.00  0.00     0.053 C 
BRANCH   2   3
ATOM      3  C   UNL     1     -10.628  -8.599   9.269  1.00  0.00     0.041 C 
ATOM      4  O   UNL     1     -10.738  -7.638  10.075  1.00  0.00    -0.550 OA
ATOM      5  O   UNL     1     -11.693  -8.926   8.438  1.00  0.00    -0.550 OA
ENDBRANCH   2   3
ENDBRANCH   1   2
BRANCH   1   6
ATOM      6  C   UNL     1     -10.214 -11.500  10.404  1.00  0.00     0.000 C 
BRANCH   6   7
ATOM      7  C   UNL     1     -11.632 -12.082  10.292  1.00  0.00    -0.000 C 
BRANCH   7   8
ATOM      8  C   UNL     1     -12.663 -11.283  11.103  1.00  0.00    -0.003 C 
ATOM      9  C   UNL     1     -11.994 -10.524  12.246  1.00  0.00     0.004 C 
ENDBRANCH   7   8
ENDBRANCH   6   7
ENDBRANCH   1   6
TORSDOF 5
ENDMDL
MODEL 8
REMARK VINA RESULT:    -3.926      2.699      4.617
REMARK INTER + INTRA:          -5.440
REMARK INTER:                  -4.981
REMARK INTRA:                  -0.459
REMARK UNBOUND:                -0.366
REMARK SMILES CCCCCCC(=O)[O-]
REMARK SMILES IDX 5 1 6 2 7 3 8 4 9 5 4 6 3 7 2 8 1 9
REMARK H PARENT
REMARK Flexibility Score: inf
ROOT
ATOM      1  C   UNL     1     -12.272  -8.851  10.494  1.00  0.00     0.006 C 
ENDROOT
BRANCH   1   2
ATOM      2  C   UNL     1     -10.989  -8.168  10.008  1.00  0.00     0.053 C 
BRANCH   2   3
ATOM      3  C   UNL     1     -10.265  -9.044   9.035  1.00  0.00     0.041 C 
ATOM      4  O   UNL     1     -10.837  -9.429   7.981  1.00  0.00    -0.550 OA
ATOM      5  O   UNL     1      -8.975  -9.477   9.314  1.00  0.00    -0.550 OA
ENDBRANCH   2   3
ENDBRANCH   1   2
BRANCH   1   6
ATOM      6  C   UNL     1     -11.948 -10.034  11.417  1.00  0.00     0.000 C 
BRANCH   6   7
ATOM      7  C   UNL     1     -12.830 -11.262  11.138  1.00  0.00    -0.000 C 
BRANCH   7   8
ATOM      8  C   UNL     1     -12.299 -12.117   9.977  1.00  0.00    -0.003 C 
ATOM      9  C   UNL     1     -10.849 -12.529  10.217  1.00  0.00     0.004 C 
ENDBRANCH   7   8
ENDBRANCH   6   7
ENDBRANCH   1   6
TORSDOF 5
ENDMDL
MODEL 9
REMARK VINA RESULT:    -3.892      1.806      2.842
REMARK INTER + INTRA:          -5.397
REMARK INTER:                  -5.219
REMARK INTRA:                  -0.177
REMARK UNBOUND:                -0.366
REMARK SMILES CCCCCCC(=O)[O-]
REMARK SMILES IDX 5 1 6 2 7 3 8 4 9 5 4 6 3 7 2 8 1 9
REMARK H PARENT
REMARK Flexibility Score: inf
ROOT
ATOM      1  C   UNL     1     -11.293  -9.643   9.518  1.00  0.00     0.006 C 
ENDROOT
BRANCH   1   2
ATOM      2  C   UNL     1     -11.632  -9.266  10.963  1.00  0.00     0.053 C 
BRANCH   2   3
ATOM      3  C   UNL     1     -12.274 -10.418  11.669  1.00  0.00     0.041 C 
ATOM      4  O   UNL     1     -13.088 -11.161  11.060  1.00  0.00    -0.550 OA
ATOM      5  O   UNL     1     -12.013 -10.643  13.015  1.00  0.00    -0.550 OA
ENDBRANCH   2   3
ENDBRANCH   1   2
BRANCH   1   6
ATOM      6  C   UNL     1      -9.906 -10.296   9.431  1.00  0.00     0.000 C 
BRANCH   6   7
ATOM      7  C   UNL     1      -8.936  -9.511   8.535  1.00  0.00    -0.000 C 
BRANCH   7   8
ATOM      8  C   UNL     1      -8.375 -10.361   7.385  1.00  0.00    -0.003 C 
ATOM      9  C   UNL     1      -9.019 -11.745   7.361  1.00  0.00     0.004 C 
ENDBRANCH   7   8
ENDBRANCH   6   7
ENDBRANCH   1   6
TORSDOF 5
ENDMDL
