MODEL 1
REMARK VINA RESULT:    -3.485      0.000      0.000
REMARK INTER + INTRA:          -3.485
REMARK INTER:                  -3.485
REMARK INTRA:                   0.000
REMARK UNBOUND:                 0.000
REMARK SMILES CC1(C)C(=O)[C@@]2(C)CC[C@@H]1C2
REMARK SMILES IDX 1 1 2 2 10 3 9 4 8 5 6 6 11 7 4 8 5 9 7 10 3 11
REMARK H PARENT
REMARK Flexibility Score: inf
ROOT
ATOM      1  C   UNL     1     137.073 141.007 140.727  1.00  0.00     0.020 C 
ATOM      2  C   UNL     1     136.480 140.061 141.794  1.00  0.00     0.027 C 
ATOM      3  C   UNL     1     136.467 140.656 143.248  1.00  0.00     0.003 C 
ATOM      4  C   UNL     1     137.844 141.265 143.616  1.00  0.00     0.005 C 
ATOM      5  C   UNL     1     138.760 140.024 143.710  1.00  0.00     0.015 C 
ATOM      6  C   UNL     1     137.775 138.861 143.486  1.00  0.00     0.027 C 
ATOM      7  C   UNL     1     136.512 139.403 144.122  1.00  0.00     0.019 C 
ATOM      8  C   UNL     1     137.373 138.878 142.037  1.00  0.00     0.144 C 
ATOM      9  O   UNL     1     137.768 138.102 141.180  1.00  0.00    -0.298 OA
ATOM     10  C   UNL     1     138.231 137.502 144.022  1.00  0.00     0.020 C 
ATOM     11  C   UNL     1     135.071 139.616 141.347  1.00  0.00     0.020 C 
ENDROOT
TORSDOF 0
ENDMDL
MODEL 2
REMARK VINA RESULT:    -3.483      4.309      5.681
REMARK INTER + INTRA:          -3.483
REMARK INTER:                  -3.483
REMARK INTRA:                   0.000
REMARK UNBOUND:                 0.000
REMARK SMILES CC1(C)C(=O)[C@@]2(C)CC[C@@H]1C2
REMARK SMILES IDX 1 1 2 2 10 3 9 4 8 5 6 6 11 7 4 8 5 9 7 10 3 11
REMARK H PARENT
REMARK Flexibility Score: inf
ROOT
ATOM      1  C   UNL     1     140.436 137.147 140.765  1.00  0.00     0.020 C 
ATOM      2  C   UNL     1     141.447 136.562 141.776  1.00  0.00     0.027 C 
ATOM      3  C   UNL     1     140.932 136.529 143.260  1.00  0.00     0.003 C 
ATOM      4  C   UNL     1     140.323 137.894 143.670  1.00  0.00     0.005 C 
ATOM      5  C   UNL     1     141.552 138.830 143.704  1.00  0.00     0.015 C 
ATOM      6  C   UNL     1     142.717 137.865 143.410  1.00  0.00     0.027 C 
ATOM      7  C   UNL     1     142.229 136.588 144.065  1.00  0.00     0.019 C 
ATOM      8  C   UNL     1     142.627 137.472 141.961  1.00  0.00     0.144 C 
ATOM      9  O   UNL     1     143.350 137.885 141.067  1.00  0.00    -0.298 OA
ATOM     10  C   UNL     1     144.095 138.339 143.875  1.00  0.00     0.020 C 
ATOM     11  C   UNL     1     141.889 135.163 141.295  1.00  0.00     0.020 C 
ENDROOT
TORSDOF 0
ENDMDL
MODEL 3
REMARK VINA RESULT:    -3.473      6.490      8.101
REMARK INTER + INTRA:          -3.473
REMARK INTER:                  -3.473
REMARK INTRA:                   0.000
REMARK UNBOUND:                 0.000
REMARK SMILES CC1(C)C(=O)[C@@]2(C)CC[C@@H]1C2
REMARK SMILES IDX 1 1 2 2 10 3 9 4 8 5 6 6 11 7 4 8 5 9 7 10 3 11
REMARK H PARENT
REMARK Flexibility Score: inf
ROOT
ATOM      1  C   UNL     1     144.434 140.474 140.818  1.00  0.00     0.020 C 
ATOM      2  C   UNL     1     145.056 141.460 141.831  1.00  0.00     0.027 C 
ATOM      3  C   UNL     1     145.073 140.937 143.313  1.00  0.00     0.003 C 
ATOM      4  C   UNL     1     143.689 140.375 143.723  1.00  0.00     0.005 C 
ATOM      5  C   UNL     1     142.797 141.636 143.764  1.00  0.00     0.015 C 
ATOM      6  C   UNL     1     143.802 142.768 143.473  1.00  0.00     0.027 C 
ATOM      7  C   UNL     1     145.061 142.233 144.124  1.00  0.00     0.019 C 
ATOM      8  C   UNL     1     144.189 142.670 142.023  1.00  0.00     0.144 C 
ATOM      9  O   UNL     1     143.800 143.411 141.133  1.00  0.00    -0.298 OA
ATOM     10  C   UNL     1     143.378 144.159 143.946  1.00  0.00     0.020 C 
ATOM     11  C   UNL     1     146.469 141.855 141.350  1.00  0.00     0.020 C 
ENDROOT
TORSDOF 0
ENDMDL
MODEL 4
REMARK VINA RESULT:    -3.438      4.172      5.570
REMARK INTER + INTRA:          -3.438
REMARK INTER:                  -3.438
REMARK INTRA:                   0.000
REMARK UNBOUND:                 0.000
REMARK SMILES CC1(C)C(=O)[C@@]2(C)CC[C@@H]1C2
REMARK SMILES IDX 1 1 2 2 10 3 9 4 8 5 6 6 11 7 4 8 5 9 7 10 3 11
REMARK H PARENT
REMARK Flexibility Score: inf
ROOT
ATOM      1  C   UNL     1     137.951 142.850 141.706  1.00  0.00     0.020 C 
ATOM      2  C   UNL     1     138.631 143.637 142.847  1.00  0.00     0.027 C 
ATOM      3  C   UNL     1     138.966 145.131 142.491  1.00  0.00     0.003 C 
ATOM      4  C   UNL     1     139.679 145.231 141.119  1.00  0.00     0.005 C 
ATOM      5  C   UNL     1     141.053 144.578 141.390  1.00  0.00     0.015 C 
ATOM      6  C   UNL     1     140.990 144.279 142.901  1.00  0.00     0.027 C 
ATOM      7  C   UNL     1     140.151 145.435 143.406  1.00  0.00     0.019 C 
ATOM      8  C   UNL     1     140.026 143.143 143.100  1.00  0.00     0.144 C 
ATOM      9  O   UNL     1     140.333 141.987 143.352  1.00  0.00    -0.298 OA
ATOM     10  C   UNL     1     142.345 144.119 143.594  1.00  0.00     0.020 C 
ATOM     11  C   UNL     1     137.763 143.536 144.119  1.00  0.00     0.020 C 
ENDROOT
TORSDOF 0
ENDMDL
MODEL 5
REMARK VINA RESULT:    -3.416      4.376      5.768
REMARK INTER + INTRA:          -3.416
REMARK INTER:                  -3.416
REMARK INTRA:                   0.000
REMARK UNBOUND:                 0.000
REMARK SMILES CC1(C)C(=O)[C@@]2(C)CC[C@@H]1C2
REMARK SMILES IDX 1 1 2 2 10 3 9 4 8 5 6 6 11 7 4 8 5 9 7 10 3 11
REMARK H PARENT
REMARK Flexibility Score: inf
ROOT
ATOM      1  C   UNL     1     141.265 144.374 140.836  1.00  0.00     0.020 C 
ATOM      2  C   UNL     1     140.238 145.020 141.792  1.00  0.00     0.027 C 
ATOM      3  C   UNL     1     140.719 145.121 143.284  1.00  0.00     0.003 C 
ATOM      4  C   UNL     1     141.303 143.773 143.776  1.00  0.00     0.005 C 
ATOM      5  C   UNL     1     140.063 142.853 143.828  1.00  0.00     0.015 C 
ATOM      6  C   UNL     1     138.916 143.814 143.459  1.00  0.00     0.027 C 
ATOM      7  C   UNL     1     139.404 145.116 144.061  1.00  0.00     0.019 C 
ATOM      8  C   UNL     1     139.043 144.133 141.995  1.00  0.00     0.144 C 
ATOM      9  O   UNL     1     138.336 143.683 141.106  1.00  0.00    -0.298 OA
ATOM     10  C   UNL     1     137.523 143.378 143.916  1.00  0.00     0.020 C 
ATOM     11  C   UNL     1     139.823 146.397 141.232  1.00  0.00     0.020 C 
ENDROOT
TORSDOF 0
ENDMDL
MODEL 6
REMARK VINA RESULT:    -3.411      1.410      3.168
REMARK INTER + INTRA:          -3.411
REMARK INTER:                  -3.411
REMARK INTRA:                   0.000
REMARK UNBOUND:                 0.000
REMARK SMILES CC1(C)C(=O)[C@@]2(C)CC[C@@H]1C2
REMARK SMILES IDX 1 1 2 2 10 3 9 4 8 5 6 6 11 7 4 8 5 9 7 10 3 11
REMARK H PARENT
REMARK Flexibility Score: inf
ROOT
ATOM      1  C   UNL     1     138.823 137.943 141.718  1.00  0.00     0.020 C 
ATOM      2  C   UNL     1     138.020 138.624 142.848  1.00  0.00     0.027 C 
ATOM      3  C   UNL     1     136.529 138.951 142.475  1.00  0.00     0.003 C 
ATOM      4  C   UNL     1     136.441 139.660 141.100  1.00  0.00     0.005 C 
ATOM      5  C   UNL     1     137.085 141.037 141.375  1.00  0.00     0.015 C 
ATOM      6  C   UNL     1     137.368 140.980 142.889  1.00  0.00     0.027 C 
ATOM      7  C   UNL     1     136.210 140.137 143.384  1.00  0.00     0.019 C 
ATOM      8  C   UNL     1     138.506 140.021 143.103  1.00  0.00     0.144 C 
ATOM      9  O   UNL     1     139.658 140.333 143.366  1.00  0.00    -0.298 OA
ATOM     10  C   UNL     1     137.515 142.337 143.580  1.00  0.00     0.020 C 
ATOM     11  C   UNL     1     138.112 137.759 144.124  1.00  0.00     0.020 C 
ENDROOT
TORSDOF 0
ENDMDL
MODEL 7
REMARK VINA RESULT:    -3.409      4.236      6.011
REMARK INTER + INTRA:          -3.409
REMARK INTER:                  -3.409
REMARK INTRA:                   0.000
REMARK UNBOUND:                 0.000
REMARK SMILES CC1(C)C(=O)[C@@]2(C)CC[C@@H]1C2
REMARK SMILES IDX 1 1 2 2 10 3 9 4 8 5 6 6 11 7 4 8 5 9 7 10 3 11
REMARK H PARENT
REMARK Flexibility Score: inf
ROOT
ATOM      1  C   UNL     1     143.725 138.717 141.572  1.00  0.00     0.020 C 
ATOM      2  C   UNL     1     143.061 138.005 142.771  1.00  0.00     0.027 C 
ATOM      3  C   UNL     1     142.735 136.488 142.522  1.00  0.00     0.003 C 
ATOM      4  C   UNL     1     142.009 136.288 141.168  1.00  0.00     0.005 C 
ATOM      5  C   UNL     1     140.633 136.949 141.407  1.00  0.00     0.015 C 
ATOM      6  C   UNL     1     140.708 137.352 142.893  1.00  0.00     0.027 C 
ATOM      7  C   UNL     1     141.560 136.239 143.468  1.00  0.00     0.019 C 
ATOM      8  C   UNL     1     141.664 138.506 143.003  1.00  0.00     0.144 C 
ATOM      9  O   UNL     1     141.352 139.674 143.178  1.00  0.00    -0.298 OA
ATOM     10  C   UNL     1     139.359 137.550 143.587  1.00  0.00     0.020 C 
ATOM     11  C   UNL     1     143.941 138.200 144.025  1.00  0.00     0.020 C 
ENDROOT
TORSDOF 0
ENDMDL
MODEL 8
REMARK VINA RESULT:    -3.387      6.455      7.520
REMARK INTER + INTRA:          -3.387
REMARK INTER:                  -3.387
REMARK INTRA:                   0.000
REMARK UNBOUND:                 0.000
REMARK SMILES CC1(C)C(=O)[C@@]2(C)CC[C@@H]1C2
REMARK SMILES IDX 1 1 2 2 10 3 9 4 8 5 6 6 11 7 4 8 5 9 7 10 3 11
REMARK H PARENT
REMARK Flexibility Score: inf
ROOT
ATOM      1  C   UNL     1     142.876 143.629 141.727  1.00  0.00     0.020 C 
ATOM      2  C   UNL     1     143.639 143.034 142.931  1.00  0.00     0.027 C 
ATOM      3  C   UNL     1     145.130 142.647 142.623  1.00  0.00     0.003 C 
ATOM      4  C   UNL     1     145.235 141.819 141.317  1.00  0.00     0.005 C 
ATOM      5  C   UNL     1     144.555 140.484 141.694  1.00  0.00     0.015 C 
ATOM      6  C   UNL     1     144.240 140.678 143.190  1.00  0.00     0.027 C 
ATOM      7  C   UNL     1     145.404 141.538 143.638  1.00  0.00     0.019 C 
ATOM      8  C   UNL     1     143.118 141.673 143.293  1.00  0.00     0.144 C 
ATOM      9  O   UNL     1     141.954 141.407 143.555  1.00  0.00    -0.298 OA
ATOM     10  C   UNL     1     144.049 139.389 143.992  1.00  0.00     0.020 C 
ATOM     11  C   UNL     1     143.537 144.007 144.124  1.00  0.00     0.020 C 
ENDROOT
TORSDOF 0
ENDMDL
MODEL 9
REMARK VINA RESULT:    -3.359      3.468      4.913
REMARK INTER + INTRA:          -3.359
REMARK INTER:                  -3.359
REMARK INTRA:                   0.000
REMARK UNBOUND:                 0.000
REMARK SMILES CC1(C)C(=O)[C@@]2(C)CC[C@@H]1C2
REMARK SMILES IDX 1 1 2 2 10 3 9 4 8 5 6 6 11 7 4 8 5 9 7 10 3 11
REMARK H PARENT
REMARK Flexibility Score: inf
ROOT
ATOM      1  C   UNL     1     140.265 139.421 143.162  1.00  0.00     0.020 C 
ATOM      2  C   UNL     1     140.156 137.884 143.252  1.00  0.00     0.027 C 
ATOM      3  C   UNL     1     141.274 137.207 144.123  1.00  0.00     0.003 C 
ATOM      4  C   UNL     1     142.679 137.734 143.738  1.00  0.00     0.005 C 
ATOM      5  C   UNL     1     142.890 137.162 142.319  1.00  0.00     0.015 C 
ATOM      6  C   UNL     1     141.630 136.300 142.113  1.00  0.00     0.027 C 
ATOM      7  C   UNL     1     141.365 135.805 143.521  1.00  0.00     0.019 C 
ATOM      8  C   UNL     1     140.465 137.233 141.934  1.00  0.00     0.144 C 
ATOM      9  O   UNL     1     139.908 137.480 140.875  1.00  0.00    -0.298 OA
ATOM     10  C   UNL     1     141.754 135.197 141.059  1.00  0.00     0.020 C 
ATOM     11  C   UNL     1     138.742 137.505 143.744  1.00  0.00     0.020 C 
ENDROOT
TORSDOF 0
ENDMDL
