MODEL 1
REMARK VINA RESULT:    -4.966      0.000      0.000
REMARK INTER + INTRA:          -5.428
REMARK INTER:                  -5.401
REMARK INTRA:                  -0.027
REMARK UNBOUND:                -0.027
REMARK SMILES O=C([O-])c1ccc(O)cc1
REMARK SMILES IDX 4 1 5 2 10 3 6 4 9 5 7 6 2 7 1 8 3 9 8 10
REMARK H PARENT 8 11
REMARK Flexibility Score: inf
ROOT
ATOM      1  C   UNL     1     -10.833  -5.871  -6.975  1.00  0.00    -0.003 A 
ATOM      2  C   UNL     1     -11.595  -4.744  -6.612  1.00  0.00     0.014 A 
ATOM      3  C   UNL     1     -10.322  -5.955  -8.283  1.00  0.00     0.014 A 
ATOM      4  C   UNL     1     -11.838  -3.726  -7.538  1.00  0.00     0.047 A 
ATOM      5  C   UNL     1     -10.568  -4.934  -9.206  1.00  0.00     0.047 A 
ATOM      6  C   UNL     1     -11.327  -3.817  -8.836  1.00  0.00     0.115 A 
ENDROOT
BRANCH   1   7
ATOM      7  C   UNL     1     -10.572  -6.951  -6.000  1.00  0.00     0.071 C 
ATOM      8  O   UNL     1      -9.638  -6.845  -5.161  1.00  0.00    -0.545 OA
ATOM      9  O   UNL     1     -11.354  -8.101  -5.996  1.00  0.00    -0.545 OA
ENDBRANCH   1   7
BRANCH   6  10
ATOM     10  O   UNL     1     -11.579  -2.795  -9.748  1.00  0.00    -0.508 OA
ATOM     11  H   UNL     1     -12.151  -2.948 -10.570  1.00  0.00     0.293 HD
ENDBRANCH   6  10
TORSDOF 2
ENDMDL
MODEL 2
REMARK VINA RESULT:    -4.956      0.091      1.534
REMARK INTER + INTRA:          -5.418
REMARK INTER:                  -5.391
REMARK INTRA:                  -0.027
REMARK UNBOUND:                -0.027
REMARK SMILES O=C([O-])c1ccc(O)cc1
REMARK SMILES IDX 4 1 5 2 10 3 6 4 9 5 7 6 2 7 1 8 3 9 8 10
REMARK H PARENT 8 11
REMARK Flexibility Score: inf
ROOT
ATOM      1  C   UNL     1     -10.871  -5.813  -6.971  1.00  0.00    -0.003 A 
ATOM      2  C   UNL     1     -10.339  -5.924  -8.269  1.00  0.00     0.014 A 
ATOM      3  C   UNL     1     -11.637  -4.680  -6.643  1.00  0.00     0.014 A 
ATOM      4  C   UNL     1     -10.571  -4.923  -9.217  1.00  0.00     0.047 A 
ATOM      5  C   UNL     1     -11.867  -3.681  -7.594  1.00  0.00     0.047 A 
ATOM      6  C   UNL     1     -11.333  -3.799  -8.883  1.00  0.00     0.115 A 
ENDROOT
BRANCH   1   7
ATOM      7  C   UNL     1     -10.631  -6.870  -5.964  1.00  0.00     0.071 C 
ATOM      8  O   UNL     1      -9.751  -6.718  -5.074  1.00  0.00    -0.545 OA
ATOM      9  O   UNL     1     -11.372  -8.045  -5.985  1.00  0.00    -0.545 OA
ENDBRANCH   1   7
BRANCH   6  10
ATOM     10  O   UNL     1     -11.554  -2.810  -9.838  1.00  0.00    -0.508 OA
ATOM     11  H   UNL     1     -12.237  -2.931 -10.577  1.00  0.00     0.293 HD
ENDBRANCH   6  10
TORSDOF 2
ENDMDL
MODEL 3
REMARK VINA RESULT:    -4.714      1.393      2.185
REMARK INTER + INTRA:          -5.154
REMARK INTER:                  -5.126
REMARK INTRA:                  -0.029
REMARK UNBOUND:                -0.027
REMARK SMILES O=C([O-])c1ccc(O)cc1
REMARK SMILES IDX 4 1 5 2 10 3 6 4 9 5 7 6 2 7 1 8 3 9 8 10
REMARK H PARENT 8 11
REMARK Flexibility Score: inf
ROOT
ATOM      1  C   UNL     1     -10.694  -6.593  -5.969  1.00  0.00    -0.003 A 
ATOM      2  C   UNL     1     -10.099  -5.803  -6.970  1.00  0.00     0.014 A 
ATOM      3  C   UNL     1     -11.951  -6.217  -5.463  1.00  0.00     0.014 A 
ATOM      4  C   UNL     1     -10.748  -4.663  -7.454  1.00  0.00     0.047 A 
ATOM      5  C   UNL     1     -12.599  -5.076  -5.949  1.00  0.00     0.047 A 
ATOM      6  C   UNL     1     -11.998  -4.297  -6.945  1.00  0.00     0.115 A 
ENDROOT
BRANCH   1   7
ATOM      7  C   UNL     1     -10.012  -7.800  -5.454  1.00  0.00     0.071 C 
ATOM      8  O   UNL     1      -8.906  -7.705  -4.856  1.00  0.00    -0.545 OA
ATOM      9  O   UNL     1     -10.581  -9.057  -5.622  1.00  0.00    -0.545 OA
ENDBRANCH   1   7
BRANCH   6  10
ATOM     10  O   UNL     1     -12.633  -3.158  -7.436  1.00  0.00    -0.508 OA
ATOM     11  H   UNL     1     -13.640  -3.054  -7.394  1.00  0.00     0.293 HD
ENDBRANCH   6  10
TORSDOF 2
ENDMDL
MODEL 4
REMARK VINA RESULT:    -4.703      2.148      2.888
REMARK INTER + INTRA:          -5.143
REMARK INTER:                  -5.113
REMARK INTRA:                  -0.030
REMARK UNBOUND:                -0.027
REMARK SMILES O=C([O-])c1ccc(O)cc1
REMARK SMILES IDX 4 1 5 2 10 3 6 4 9 5 7 6 2 7 1 8 3 9 8 10
REMARK H PARENT 8 11
REMARK Flexibility Score: inf
ROOT
ATOM      1  C   UNL     1     -12.198  -5.723  -5.815  1.00  0.00    -0.003 A 
ATOM      2  C   UNL     1     -11.259  -6.665  -6.272  1.00  0.00     0.014 A 
ATOM      3  C   UNL     1     -12.371  -4.529  -6.537  1.00  0.00     0.014 A 
ATOM      4  C   UNL     1     -10.511  -6.418  -7.426  1.00  0.00     0.047 A 
ATOM      5  C   UNL     1     -11.622  -4.284  -7.692  1.00  0.00     0.047 A 
ATOM      6  C   UNL     1     -10.689  -5.228  -8.139  1.00  0.00     0.115 A 
ENDROOT
BRANCH   1   7
ATOM      7  C   UNL     1     -12.993  -5.979  -4.594  1.00  0.00     0.071 C 
ATOM      8  O   UNL     1     -13.662  -7.040  -4.476  1.00  0.00    -0.545 OA
ATOM      9  O   UNL     1     -13.013  -5.052  -3.559  1.00  0.00    -0.545 OA
ENDBRANCH   1   7
BRANCH   6  10
ATOM     10  O   UNL     1      -9.936  -4.995  -9.287  1.00  0.00    -0.508 OA
ATOM     11  H   UNL     1      -9.921  -4.086  -9.735  1.00  0.00     0.293 HD
ENDBRANCH   6  10
TORSDOF 2
ENDMDL
MODEL 5
REMARK VINA RESULT:    -4.553      1.836      3.830
REMARK INTER + INTRA:          -4.979
REMARK INTER:                  -4.952
REMARK INTRA:                  -0.027
REMARK UNBOUND:                -0.027
REMARK SMILES O=C([O-])c1ccc(O)cc1
REMARK SMILES IDX 4 1 5 2 10 3 6 4 9 5 7 6 2 7 1 8 3 9 8 10
REMARK H PARENT 8 11
REMARK Flexibility Score: inf
ROOT
ATOM      1  C   UNL     1     -11.120  -4.900  -8.916  1.00  0.00    -0.003 A 
ATOM      2  C   UNL     1     -11.856  -3.871  -8.298  1.00  0.00     0.014 A 
ATOM      3  C   UNL     1     -10.358  -5.768  -8.115  1.00  0.00     0.014 A 
ATOM      4  C   UNL     1     -11.829  -3.717  -6.909  1.00  0.00     0.047 A 
ATOM      5  C   UNL     1     -10.334  -5.612  -6.725  1.00  0.00     0.047 A 
ATOM      6  C   UNL     1     -11.069  -4.585  -6.119  1.00  0.00     0.115 A 
ENDROOT
BRANCH   1   7
ATOM      7  C   UNL     1     -11.145  -5.068 -10.386  1.00  0.00     0.071 C 
ATOM      8  O   UNL     1     -10.411  -4.358 -11.124  1.00  0.00    -0.545 OA
ATOM      9  O   UNL     1     -11.980  -6.011 -10.973  1.00  0.00    -0.545 OA
ENDBRANCH   1   7
BRANCH   6  10
ATOM     10  O   UNL     1     -11.051  -4.419  -4.737  1.00  0.00    -0.508 OA
ATOM     11  H   UNL     1     -10.441  -4.971  -4.145  1.00  0.00     0.293 HD
ENDBRANCH   6  10
TORSDOF 2
ENDMDL
MODEL 6
REMARK VINA RESULT:    -4.402      1.846      2.480
REMARK INTER + INTRA:          -4.815
REMARK INTER:                  -4.788
REMARK INTRA:                  -0.027
REMARK UNBOUND:                -0.027
REMARK SMILES O=C([O-])c1ccc(O)cc1
REMARK SMILES IDX 4 1 5 2 10 3 6 4 9 5 7 6 2 7 1 8 3 9 8 10
REMARK H PARENT 8 11
REMARK Flexibility Score: inf
ROOT
ATOM      1  C   UNL     1     -11.381  -6.962  -5.987  1.00  0.00    -0.003 A 
ATOM      2  C   UNL     1     -12.318  -6.369  -5.121  1.00  0.00     0.014 A 
ATOM      3  C   UNL     1     -10.714  -6.153  -6.925  1.00  0.00     0.014 A 
ATOM      4  C   UNL     1     -12.580  -4.998  -5.192  1.00  0.00     0.047 A 
ATOM      5  C   UNL     1     -10.979  -4.782  -6.994  1.00  0.00     0.047 A 
ATOM      6  C   UNL     1     -11.913  -4.201  -6.128  1.00  0.00     0.115 A 
ENDROOT
BRANCH   1   7
ATOM      7  C   UNL     1     -11.098  -8.412  -5.916  1.00  0.00     0.071 C 
ATOM      8  O   UNL     1     -11.912  -9.247  -6.394  1.00  0.00    -0.545 OA
ATOM      9  O   UNL     1      -9.931  -8.874  -5.320  1.00  0.00    -0.545 OA
ENDBRANCH   1   7
BRANCH   6  10
ATOM     10  O   UNL     1     -12.186  -2.836  -6.187  1.00  0.00    -0.508 OA
ATOM     11  H   UNL     1     -12.324  -2.363  -7.073  1.00  0.00     0.293 HD
ENDBRANCH   6  10
TORSDOF 2
ENDMDL
MODEL 7
REMARK VINA RESULT:    -4.187      6.807      7.505
REMARK INTER + INTRA:          -4.581
REMARK INTER:                  -4.546
REMARK INTRA:                  -0.035
REMARK UNBOUND:                -0.027
REMARK SMILES O=C([O-])c1ccc(O)cc1
REMARK SMILES IDX 4 1 5 2 10 3 6 4 9 5 7 6 2 7 1 8 3 9 8 10
REMARK H PARENT 8 11
REMARK Flexibility Score: inf
ROOT
ATOM      1  C   UNL     1      -8.304 -11.526  -5.910  1.00  0.00    -0.003 A 
ATOM      2  C   UNL     1      -7.635 -10.507  -5.206  1.00  0.00     0.014 A 
ATOM      3  C   UNL     1      -7.633 -12.184  -6.956  1.00  0.00     0.014 A 
ATOM      4  C   UNL     1      -6.324 -10.157  -5.543  1.00  0.00     0.047 A 
ATOM      5  C   UNL     1      -6.322 -11.832  -7.290  1.00  0.00     0.047 A 
ATOM      6  C   UNL     1      -5.664 -10.817  -6.584  1.00  0.00     0.115 A 
ENDROOT
BRANCH   1   7
ATOM      7  C   UNL     1      -9.691 -11.901  -5.558  1.00  0.00     0.071 C 
ATOM      8  O   UNL     1     -10.161 -13.017  -5.906  1.00  0.00    -0.545 OA
ATOM      9  O   UNL     1     -10.496 -11.026  -4.837  1.00  0.00    -0.545 OA
ENDBRANCH   1   7
BRANCH   6  10
ATOM     10  O   UNL     1      -4.359 -10.456  -6.909  1.00  0.00    -0.508 OA
ATOM     11  H   UNL     1      -3.951  -9.590  -6.576  1.00  0.00     0.293 HD
ENDBRANCH   6  10
TORSDOF 2
ENDMDL
MODEL 8
REMARK VINA RESULT:    -4.141     11.343     13.315
REMARK INTER + INTRA:          -4.531
REMARK INTER:                  -4.503
REMARK INTRA:                  -0.028
REMARK UNBOUND:                -0.027
REMARK SMILES O=C([O-])c1ccc(O)cc1
REMARK SMILES IDX 4 1 5 2 10 3 6 4 9 5 7 6 2 7 1 8 3 9 8 10
REMARK H PARENT 8 11
REMARK Flexibility Score: inf
ROOT
ATOM      1  C   UNL     1      -1.808 -13.210  -5.292  1.00  0.00    -0.003 A 
ATOM      2  C   UNL     1      -1.901 -13.140  -3.890  1.00  0.00     0.014 A 
ATOM      3  C   UNL     1      -0.545 -13.399  -5.882  1.00  0.00     0.014 A 
ATOM      4  C   UNL     1      -0.756 -13.257  -3.097  1.00  0.00     0.047 A 
ATOM      5  C   UNL     1       0.599 -13.516  -5.085  1.00  0.00     0.047 A 
ATOM      6  C   UNL     1       0.496 -13.445  -3.691  1.00  0.00     0.115 A 
ENDROOT
BRANCH   1   7
ATOM      7  C   UNL     1      -3.016 -13.087  -6.136  1.00  0.00     0.071 C 
ATOM      8  O   UNL     1      -3.446 -14.076  -6.788  1.00  0.00    -0.545 OA
ATOM      9  O   UNL     1      -3.694 -11.876  -6.223  1.00  0.00    -0.545 OA
ENDBRANCH   1   7
BRANCH   6  10
ATOM     10  O   UNL     1       1.628 -13.559  -2.888  1.00  0.00    -0.508 OA
ATOM     11  H   UNL     1       2.452 -14.057  -3.203  1.00  0.00     0.293 HD
ENDBRANCH   6  10
TORSDOF 2
ENDMDL
MODEL 9
REMARK VINA RESULT:    -4.139     11.346     13.394
REMARK INTER + INTRA:          -4.529
REMARK INTER:                  -4.501
REMARK INTRA:                  -0.028
REMARK UNBOUND:                -0.027
REMARK SMILES O=C([O-])c1ccc(O)cc1
REMARK SMILES IDX 4 1 5 2 10 3 6 4 9 5 7 6 2 7 1 8 3 9 8 10
REMARK H PARENT 8 11
REMARK Flexibility Score: inf
ROOT
ATOM      1  C   UNL     1      -1.797 -13.190  -5.305  1.00  0.00    -0.003 A 
ATOM      2  C   UNL     1      -0.541 -13.396  -5.906  1.00  0.00     0.014 A 
ATOM      3  C   UNL     1      -1.876 -13.117  -3.903  1.00  0.00     0.014 A 
ATOM      4  C   UNL     1       0.608 -13.525  -5.121  1.00  0.00     0.047 A 
ATOM      5  C   UNL     1      -0.725 -13.247  -3.120  1.00  0.00     0.047 A 
ATOM      6  C   UNL     1       0.520 -13.451  -3.727  1.00  0.00     0.115 A 
ENDROOT
BRANCH   1   7
ATOM      7  C   UNL     1      -3.017 -13.052  -6.131  1.00  0.00     0.071 C 
ATOM      8  O   UNL     1      -3.456 -14.030  -6.793  1.00  0.00    -0.545 OA
ATOM      9  O   UNL     1      -3.695 -11.841  -6.187  1.00  0.00    -0.545 OA
ENDBRANCH   1   7
BRANCH   6  10
ATOM     10  O   UNL     1       1.674 -13.583  -2.958  1.00  0.00    -0.508 OA
ATOM     11  H   UNL     1       2.375 -14.282  -3.172  1.00  0.00     0.293 HD
ENDBRANCH   6  10
TORSDOF 2
ENDMDL
