MODEL 1
REMARK VINA RESULT:    -4.691      0.000      0.000
REMARK INTER + INTRA:          -7.586
REMARK INTER:                  -6.885
REMARK INTRA:                  -0.701
REMARK UNBOUND:                -0.701
REMARK SMILES O=C([O-])CCCCCCCC(=O)[O-]
REMARK SMILES IDX 7 1 6 2 5 3 4 4 2 5 1 6 3 7 8 8 9 9 10 10 11 11 12 12 13 13
REMARK H PARENT
REMARK Flexibility Score: inf
ROOT
ATOM      1  C   UNL     1      11.843   5.077 -14.310  1.00  0.00     0.000 C 
ENDROOT
BRANCH   1   2
ATOM      2  C   UNL     1      12.906   5.267 -13.218  1.00  0.00     0.000 C 
BRANCH   2   3
ATOM      3  C   UNL     1      12.339   6.062 -12.033  1.00  0.00     0.006 C 
BRANCH   3   4
ATOM      4  C   UNL     1      10.875   6.468 -12.253  1.00  0.00     0.053 C 
BRANCH   4   5
ATOM      5  C   UNL     1       9.996   6.001 -11.134  1.00  0.00     0.041 C 
ATOM      6  O   UNL     1      10.425   5.997  -9.950  1.00  0.00    -0.550 OA
ATOM      7  O   UNL     1       8.692   5.603 -11.394  1.00  0.00    -0.550 OA
ENDBRANCH   4   5
ENDBRANCH   3   4
ENDBRANCH   2   3
ENDBRANCH   1   2
BRANCH   1   8
ATOM      8  C   UNL     1      12.245   5.708 -15.656  1.00  0.00     0.000 C 
BRANCH   8   9
ATOM      9  C   UNL     1      12.092   7.241 -15.730  1.00  0.00     0.006 C 
BRANCH   9  10
ATOM     10  C   UNL     1      13.396   7.999 -16.024  1.00  0.00     0.053 C 
BRANCH  10  11
ATOM     11  C   UNL     1      13.994   8.588 -14.784  1.00  0.00     0.041 C 
ATOM     12  O   UNL     1      15.245   8.662 -14.657  1.00  0.00    -0.550 OA
ATOM     13  O   UNL     1      13.172   9.024 -13.753  1.00  0.00    -0.550 OA
ENDBRANCH  10  11
ENDBRANCH   9  10
ENDBRANCH   8   9
ENDBRANCH   1   8
TORSDOF 8
ENDMDL
MODEL 2
REMARK VINA RESULT:    -4.691      2.515      3.918
REMARK INTER + INTRA:          -7.585
REMARK INTER:                  -6.883
REMARK INTRA:                  -0.702
REMARK UNBOUND:                -0.701
REMARK SMILES O=C([O-])CCCCCCCC(=O)[O-]
REMARK SMILES IDX 7 1 6 2 5 3 4 4 2 5 1 6 3 7 8 8 9 9 10 10 11 11 12 12 13 13
REMARK H PARENT
REMARK Flexibility Score: inf
ROOT
ATOM      1  C   UNL     1      11.487   7.006 -10.605  1.00  0.00     0.000 C 
ENDROOT
BRANCH   1   2
ATOM      2  C   UNL     1      10.432   5.963 -10.205  1.00  0.00     0.000 C 
BRANCH   2   3
ATOM      3  C   UNL     1       9.351   5.834 -11.288  1.00  0.00     0.006 C 
BRANCH   3   4
ATOM      4  C   UNL     1       9.331   7.041 -12.236  1.00  0.00     0.053 C 
BRANCH   4   5
ATOM      5  C   UNL     1       7.945   7.576 -12.424  1.00  0.00     0.041 C 
ATOM      6  O   UNL     1       6.963   6.788 -12.478  1.00  0.00    -0.550 OA
ATOM      7  O   UNL     1       7.733   8.945 -12.507  1.00  0.00    -0.550 OA
ENDBRANCH   4   5
ENDBRANCH   3   4
ENDBRANCH   2   3
ENDBRANCH   1   2
BRANCH   1   8
ATOM      8  C   UNL     1      12.928   6.478 -10.485  1.00  0.00     0.000 C 
BRANCH   8   9
ATOM      9  C   UNL     1      13.650   6.241 -11.827  1.00  0.00     0.006 C 
BRANCH   9  10
ATOM     10  C   UNL     1      13.088   5.076 -12.657  1.00  0.00     0.053 C 
BRANCH  10  11
ATOM     11  C   UNL     1      12.397   5.555 -13.897  1.00  0.00     0.041 C 
ATOM     12  O   UNL     1      12.329   6.787 -14.149  1.00  0.00    -0.550 OA
ATOM     13  O   UNL     1      11.798   4.643 -14.757  1.00  0.00    -0.550 OA
ENDBRANCH  10  11
ENDBRANCH   9  10
ENDBRANCH   8   9
ENDBRANCH   1   8
TORSDOF 8
ENDMDL
MODEL 3
REMARK VINA RESULT:    -4.680      2.450      5.219
REMARK INTER + INTRA:          -7.569
REMARK INTER:                  -6.913
REMARK INTRA:                  -0.656
REMARK UNBOUND:                -0.701
REMARK SMILES O=C([O-])CCCCCCCC(=O)[O-]
REMARK SMILES IDX 7 1 6 2 5 3 4 4 2 5 1 6 3 7 8 8 9 9 10 10 11 11 12 12 13 13
REMARK H PARENT
REMARK Flexibility Score: inf
ROOT
ATOM      1  C   UNL     1      11.802   6.789 -11.067  1.00  0.00     0.000 C 
ENDROOT
BRANCH   1   2
ATOM      2  C   UNL     1      13.027   5.864 -11.118  1.00  0.00     0.000 C 
BRANCH   2   3
ATOM      3  C   UNL     1      13.459   5.604 -12.569  1.00  0.00     0.006 C 
BRANCH   3   4
ATOM      4  C   UNL     1      12.361   4.910 -13.386  1.00  0.00     0.053 C 
BRANCH   4   5
ATOM      5  C   UNL     1      12.164   5.565 -14.719  1.00  0.00     0.041 C 
ATOM      6  O   UNL     1      12.193   4.877 -15.773  1.00  0.00    -0.550 OA
ATOM      7  O   UNL     1      11.916   6.928 -14.794  1.00  0.00    -0.550 OA
ENDBRANCH   4   5
ENDBRANCH   3   4
ENDBRANCH   2   3
ENDBRANCH   1   2
BRANCH   1   8
ATOM      8  C   UNL     1      10.594   6.146 -10.362  1.00  0.00     0.000 C 
BRANCH   8   9
ATOM      9  C   UNL     1       9.407   5.801 -11.284  1.00  0.00     0.006 C 
BRANCH   9  10
ATOM     10  C   UNL     1       9.199   6.779 -12.451  1.00  0.00     0.053 C 
BRANCH  10  11
ATOM     11  C   UNL     1       7.842   7.412 -12.416  1.00  0.00     0.041 C 
ATOM     12  O   UNL     1       6.807   6.694 -12.407  1.00  0.00    -0.550 OA
ATOM     13  O   UNL     1       7.718   8.796 -12.427  1.00  0.00    -0.550 OA
ENDBRANCH  10  11
ENDBRANCH   9  10
ENDBRANCH   8   9
ENDBRANCH   1   8
TORSDOF 8
ENDMDL
MODEL 4
REMARK VINA RESULT:    -4.626      3.573      5.203
REMARK INTER + INTRA:          -7.491
REMARK INTER:                  -7.112
REMARK INTRA:                  -0.379
REMARK UNBOUND:                -0.701
REMARK SMILES O=C([O-])CCCCCCCC(=O)[O-]
REMARK SMILES IDX 7 1 6 2 5 3 4 4 2 5 1 6 3 7 8 8 9 9 10 10 11 11 12 12 13 13
REMARK H PARENT
REMARK Flexibility Score: inf
ROOT
ATOM      1  C   UNL     1      12.711   7.943 -14.777  1.00  0.00     0.000 C 
ENDROOT
BRANCH   1   2
ATOM      2  C   UNL     1      13.099   8.123 -16.252  1.00  0.00     0.000 C 
BRANCH   2   3
ATOM      3  C   UNL     1      11.932   8.710 -17.059  1.00  0.00     0.006 C 
BRANCH   3   4
ATOM      4  C   UNL     1      10.581   8.506 -16.359  1.00  0.00     0.053 C 
BRANCH   4   5
ATOM      5  C   UNL     1       9.434   8.670 -17.308  1.00  0.00     0.041 C 
ATOM      6  O   UNL     1       8.249   8.633 -16.882  1.00  0.00    -0.550 OA
ATOM      7  O   UNL     1       9.674   8.898 -18.656  1.00  0.00    -0.550 OA
ENDBRANCH   4   5
ENDBRANCH   3   4
ENDBRANCH   2   3
ENDBRANCH   1   2
BRANCH   1   8
ATOM      8  C   UNL     1      13.880   8.212 -13.812  1.00  0.00     0.000 C 
BRANCH   8   9
ATOM      9  C   UNL     1      14.192   9.702 -13.563  1.00  0.00     0.006 C 
BRANCH   9  10
ATOM     10  C   UNL     1      14.143  10.127 -12.087  1.00  0.00     0.053 C 
BRANCH  10  11
ATOM     11  C   UNL     1      12.908  10.914 -11.772  1.00  0.00     0.041 C 
ATOM     12  O   UNL     1      11.804  10.595 -12.289  1.00  0.00    -0.550 OA
ATOM     13  O   UNL     1      12.981  12.019 -10.934  1.00  0.00    -0.550 OA
ENDBRANCH  10  11
ENDBRANCH   9  10
ENDBRANCH   8   9
ENDBRANCH   1   8
TORSDOF 8
ENDMDL
MODEL 5
REMARK VINA RESULT:    -4.609      1.943      5.128
REMARK INTER + INTRA:          -7.466
REMARK INTER:                  -6.791
REMARK INTRA:                  -0.675
REMARK UNBOUND:                -0.701
REMARK SMILES O=C([O-])CCCCCCCC(=O)[O-]
REMARK SMILES IDX 7 1 6 2 5 3 4 4 2 5 1 6 3 7 8 8 9 9 10 10 11 11 12 12 13 13
REMARK H PARENT
REMARK Flexibility Score: inf
ROOT
ATOM      1  C   UNL     1      10.785   8.632 -16.148  1.00  0.00     0.000 C 
ENDROOT
BRANCH   1   2
ATOM      2  C   UNL     1      12.064   8.638 -16.999  1.00  0.00     0.000 C 
BRANCH   2   3
ATOM      3  C   UNL     1      13.225   7.968 -16.249  1.00  0.00     0.006 C 
BRANCH   3   4
ATOM      4  C   UNL     1      13.186   8.254 -14.742  1.00  0.00     0.053 C 
BRANCH   4   5
ATOM      5  C   UNL     1      14.406   8.993 -14.286  1.00  0.00     0.041 C 
ATOM      6  O   UNL     1      15.550   8.622 -14.661  1.00  0.00    -0.550 OA
ATOM      7  O   UNL     1      14.278  10.112 -13.474  1.00  0.00    -0.550 OA
ENDBRANCH   4   5
ENDBRANCH   3   4
ENDBRANCH   2   3
ENDBRANCH   1   2
BRANCH   1   8
ATOM      8  C   UNL     1       9.699   7.693 -16.704  1.00  0.00     0.000 C 
BRANCH   8   9
ATOM      9  C   UNL     1       9.207   6.609 -15.724  1.00  0.00     0.006 C 
BRANCH   9  10
ATOM     10  C   UNL     1      10.324   5.757 -15.101  1.00  0.00     0.053 C 
BRANCH  10  11
ATOM     11  C   UNL     1      10.430   5.966 -13.622  1.00  0.00     0.041 C 
ATOM     12  O   UNL     1       9.582   6.677 -13.020  1.00  0.00    -0.550 OA
ATOM     13  O   UNL     1      11.483   5.404 -12.912  1.00  0.00    -0.550 OA
ENDBRANCH  10  11
ENDBRANCH   9  10
ENDBRANCH   8   9
ENDBRANCH   1   8
TORSDOF 8
ENDMDL
MODEL 6
REMARK VINA RESULT:    -4.597      2.894      5.614
REMARK INTER + INTRA:          -7.447
REMARK INTER:                  -6.794
REMARK INTRA:                  -0.653
REMARK UNBOUND:                -0.701
REMARK SMILES O=C([O-])CCCCCCCC(=O)[O-]
REMARK SMILES IDX 7 1 6 2 5 3 4 4 2 5 1 6 3 7 8 8 9 9 10 10 11 11 12 12 13 13
REMARK H PARENT
REMARK Flexibility Score: inf
ROOT
ATOM      1  C   UNL     1      11.520   5.023 -14.761  1.00  0.00     0.000 C 
ENDROOT
BRANCH   1   2
ATOM      2  C   UNL     1      11.091   6.421 -15.229  1.00  0.00     0.000 C 
BRANCH   2   3
ATOM      3  C   UNL     1       9.787   6.353 -16.037  1.00  0.00     0.006 C 
BRANCH   3   4
ATOM      4  C   UNL     1       9.062   7.706 -16.085  1.00  0.00     0.053 C 
BRANCH   4   5
ATOM      5  C   UNL     1       9.451   8.501 -17.294  1.00  0.00     0.041 C 
ATOM      6  O   UNL     1       8.696   8.532 -18.301  1.00  0.00    -0.550 OA
ATOM      7  O   UNL     1      10.630   9.233 -17.294  1.00  0.00    -0.550 OA
ENDBRANCH   4   5
ENDBRANCH   3   4
ENDBRANCH   2   3
ENDBRANCH   1   2
BRANCH   1   8
ATOM      8  C   UNL     1      10.816   4.582 -13.465  1.00  0.00     0.000 C 
BRANCH   8   9
ATOM      9  C   UNL     1      10.767   5.649 -12.352  1.00  0.00     0.006 C 
BRANCH   9  10
ATOM     10  C   UNL     1       9.390   5.817 -11.690  1.00  0.00     0.053 C 
BRANCH  10  11
ATOM     11  C   UNL     1       8.636   6.982 -12.253  1.00  0.00     0.041 C 
ATOM     12  O   UNL     1       9.243   8.045 -12.552  1.00  0.00    -0.550 OA
ATOM     13  O   UNL     1       7.259   6.909 -12.416  1.00  0.00    -0.550 OA
ENDBRANCH  10  11
ENDBRANCH   9  10
ENDBRANCH   8   9
ENDBRANCH   1   8
TORSDOF 8
ENDMDL
MODEL 7
REMARK VINA RESULT:    -4.563      3.251      4.602
REMARK INTER + INTRA:          -7.398
REMARK INTER:                  -7.008
REMARK INTRA:                  -0.389
REMARK UNBOUND:                -0.701
REMARK SMILES O=C([O-])CCCCCCCC(=O)[O-]
REMARK SMILES IDX 7 1 6 2 5 3 4 4 2 5 1 6 3 7 8 8 9 9 10 10 11 11 12 12 13 13
REMARK H PARENT
REMARK Flexibility Score: inf
ROOT
ATOM      1  C   UNL     1      11.388   8.351 -16.355  1.00  0.00     0.000 C 
ENDROOT
BRANCH   1   2
ATOM      2  C   UNL     1      10.599   9.092 -17.444  1.00  0.00     0.000 C 
BRANCH   2   3
ATOM      3  C   UNL     1       9.215   8.457 -17.646  1.00  0.00     0.006 C 
BRANCH   3   4
ATOM      4  C   UNL     1       8.635   7.900 -16.339  1.00  0.00     0.053 C 
BRANCH   4   5
ATOM      5  C   UNL     1       7.677   8.859 -15.703  1.00  0.00     0.041 C 
ATOM      6  O   UNL     1       6.640   9.222 -16.320  1.00  0.00    -0.550 OA
ATOM      7  O   UNL     1       7.911   9.326 -14.417  1.00  0.00    -0.550 OA
ENDBRANCH   4   5
ENDBRANCH   3   4
ENDBRANCH   2   3
ENDBRANCH   1   2
BRANCH   1   8
ATOM      8  C   UNL     1      12.902   8.310 -16.633  1.00  0.00     0.000 C 
BRANCH   8   9
ATOM      9  C   UNL     1      13.798   8.323 -15.378  1.00  0.00     0.006 C 
BRANCH   9  10
ATOM     10  C   UNL     1      13.032   8.306 -14.047  1.00  0.00     0.053 C 
BRANCH  10  11
ATOM     11  C   UNL     1      13.491   9.391 -13.122  1.00  0.00     0.041 C 
ATOM     12  O   UNL     1      14.459  10.130 -13.444  1.00  0.00    -0.550 OA
ATOM     13  O   UNL     1      12.873   9.565 -11.890  1.00  0.00    -0.550 OA
ENDBRANCH  10  11
ENDBRANCH   9  10
ENDBRANCH   8   9
ENDBRANCH   1   8
TORSDOF 8
ENDMDL
MODEL 8
REMARK VINA RESULT:    -4.549      2.227      5.280
REMARK INTER + INTRA:          -7.377
REMARK INTER:                  -6.627
REMARK INTRA:                  -0.749
REMARK UNBOUND:                -0.701
REMARK SMILES O=C([O-])CCCCCCCC(=O)[O-]
REMARK SMILES IDX 7 1 6 2 5 3 4 4 2 5 1 6 3 7 8 8 9 9 10 10 11 11 12 12 13 13
REMARK H PARENT
REMARK Flexibility Score: inf
ROOT
ATOM      1  C   UNL     1      12.869   6.037 -10.055  1.00  0.00     0.000 C 
ENDROOT
BRANCH   1   2
ATOM      2  C   UNL     1      13.724   7.127 -10.718  1.00  0.00     0.000 C 
BRANCH   2   3
ATOM      3  C   UNL     1      13.846   6.885 -12.230  1.00  0.00     0.006 C 
BRANCH   3   4
ATOM      4  C   UNL     1      13.264   8.043 -13.052  1.00  0.00     0.053 C 
BRANCH   4   5
ATOM      5  C   UNL     1      14.333   8.973 -13.535  1.00  0.00     0.041 C 
ATOM      6  O   UNL     1      14.312  10.189 -13.206  1.00  0.00    -0.550 OA
ATOM      7  O   UNL     1      15.371   8.491 -14.321  1.00  0.00    -0.550 OA
ENDBRANCH   4   5
ENDBRANCH   3   4
ENDBRANCH   2   3
ENDBRANCH   1   2
BRANCH   1   8
ATOM      8  C   UNL     1      11.476   6.540  -9.633  1.00  0.00     0.000 C 
BRANCH   8   9
ATOM      9  C   UNL     1      10.300   5.977 -10.456  1.00  0.00     0.006 C 
BRANCH   9  10
ATOM     10  C   UNL     1      10.015   6.733 -11.763  1.00  0.00     0.053 C 
BRANCH  10  11
ATOM     11  C   UNL     1      10.274   5.884 -12.969  1.00  0.00     0.041 C 
ATOM     12  O   UNL     1      10.767   4.732 -12.839  1.00  0.00    -0.550 OA
ATOM     13  O   UNL     1      10.003   6.377 -14.239  1.00  0.00    -0.550 OA
ENDBRANCH  10  11
ENDBRANCH   9  10
ENDBRANCH   8   9
ENDBRANCH   1   8
TORSDOF 8
ENDMDL
MODEL 9
REMARK VINA RESULT:    -4.507      2.410      3.395
REMARK INTER + INTRA:          -7.316
REMARK INTER:                  -6.672
REMARK INTRA:                  -0.644
REMARK UNBOUND:                -0.701
REMARK SMILES O=C([O-])CCCCCCCC(=O)[O-]
REMARK SMILES IDX 7 1 6 2 5 3 4 4 2 5 1 6 3 7 8 8 9 9 10 10 11 11 12 12 13 13
REMARK H PARENT
REMARK Flexibility Score: inf
ROOT
ATOM      1  C   UNL     1      11.517   6.850 -10.483  1.00  0.00     0.000 C 
ENDROOT
BRANCH   1   2
ATOM      2  C   UNL     1      10.241   6.014 -10.305  1.00  0.00     0.000 C 
BRANCH   2   3
ATOM      3  C   UNL     1       9.536   5.794 -11.652  1.00  0.00     0.006 C 
BRANCH   3   4
ATOM      4  C   UNL     1       9.349   7.104 -12.429  1.00  0.00     0.053 C 
BRANCH   4   5
ATOM      5  C   UNL     1       7.923   7.561 -12.412  1.00  0.00     0.041 C 
ATOM      6  O   UNL     1       6.988   6.718 -12.377  1.00  0.00    -0.550 OA
ATOM      7  O   UNL     1       7.627   8.917 -12.400  1.00  0.00    -0.550 OA
ENDBRANCH   4   5
ENDBRANCH   3   4
ENDBRANCH   2   3
ENDBRANCH   1   2
BRANCH   1   8
ATOM      8  C   UNL     1      12.783   5.987 -10.632  1.00  0.00     0.000 C 
BRANCH   8   9
ATOM      9  C   UNL     1      13.219   5.712 -12.086  1.00  0.00     0.006 C 
BRANCH   9  10
ATOM     10  C   UNL     1      13.161   6.937 -13.012  1.00  0.00     0.053 C 
BRANCH  10  11
ATOM     11  C   UNL     1      14.319   7.861 -12.793  1.00  0.00     0.041 C 
ATOM     12  O   UNL     1      15.466   7.395 -12.563  1.00  0.00    -0.550 OA
ATOM     13  O   UNL     1      14.126   9.236 -12.808  1.00  0.00    -0.550 OA
ENDBRANCH  10  11
ENDBRANCH   9  10
ENDBRANCH   8   9
ENDBRANCH   1   8
TORSDOF 8
ENDMDL
