MODEL 1
REMARK VINA RESULT:    -4.769      0.000      0.000
REMARK INTER + INTRA:          -6.297
REMARK INTER:                  -6.163
REMARK INTRA:                  -0.133
REMARK UNBOUND:                -0.133
REMARK SMILES CCCCCCC(=O)[O-]
REMARK SMILES IDX 5 1 6 2 7 3 8 4 9 5 4 6 3 7 2 8 1 9
REMARK H PARENT
REMARK Flexibility Score: inf
ROOT
ATOM      1  C   UNL     1      23.815 -12.971  18.175  1.00  0.00     0.006 C 
ENDROOT
BRANCH   1   2
ATOM      2  C   UNL     1      23.739 -12.607  16.687  1.00  0.00     0.053 C 
BRANCH   2   3
ATOM      3  C   UNL     1      24.802 -11.614  16.338  1.00  0.00     0.041 C 
ATOM      4  O   UNL     1      24.666 -10.863  15.337  1.00  0.00    -0.550 OA
ATOM      5  O   UNL     1      25.923 -11.482  17.149  1.00  0.00    -0.550 OA
ENDBRANCH   2   3
ENDBRANCH   1   2
BRANCH   1   6
ATOM      6  C   UNL     1      22.558 -12.547  18.952  1.00  0.00     0.000 C 
BRANCH   6   7
ATOM      7  C   UNL     1      22.824 -11.383  19.919  1.00  0.00    -0.000 C 
BRANCH   7   8
ATOM      8  C   UNL     1      22.664 -11.833  21.375  1.00  0.00    -0.003 C 
ATOM      9  C   UNL     1      23.093 -10.734  22.343  1.00  0.00     0.004 C 
ENDBRANCH   7   8
ENDBRANCH   6   7
ENDBRANCH   1   6
TORSDOF 5
ENDMDL
MODEL 2
REMARK VINA RESULT:    -4.711      2.522      4.777
REMARK INTER + INTRA:          -6.221
REMARK INTER:                  -6.049
REMARK INTRA:                  -0.173
REMARK UNBOUND:                -0.133
REMARK SMILES CCCCCCC(=O)[O-]
REMARK SMILES IDX 5 1 6 2 7 3 8 4 9 5 4 6 3 7 2 8 1 9
REMARK H PARENT
REMARK Flexibility Score: inf
ROOT
ATOM      1  C   UNL     1      22.557 -12.061  19.401  1.00  0.00     0.006 C 
ENDROOT
BRANCH   1   2
ATOM      2  C   UNL     1      22.615 -11.945  20.930  1.00  0.00     0.053 C 
BRANCH   2   3
ATOM      3  C   UNL     1      23.316 -10.686  21.332  1.00  0.00     0.041 C 
ATOM      4  O   UNL     1      23.393 -10.362  22.546  1.00  0.00    -0.550 OA
ATOM      5  O   UNL     1      23.928  -9.894  20.368  1.00  0.00    -0.550 OA
ENDBRANCH   2   3
ENDBRANCH   1   2
BRANCH   1   6
ATOM      6  C   UNL     1      23.259 -13.325  18.877  1.00  0.00     0.000 C 
BRANCH   6   7
ATOM      7  C   UNL     1      24.290 -13.018  17.781  1.00  0.00    -0.000 C 
BRANCH   7   8
ATOM      8  C   UNL     1      23.601 -12.539  16.498  1.00  0.00    -0.003 C 
ATOM      9  C   UNL     1      24.527 -11.653  15.672  1.00  0.00     0.004 C 
ENDBRANCH   7   8
ENDBRANCH   6   7
ENDBRANCH   1   6
TORSDOF 5
ENDMDL
MODEL 3
REMARK VINA RESULT:    -4.685      0.406      1.019
REMARK INTER + INTRA:          -6.187
REMARK INTER:                  -6.014
REMARK INTRA:                  -0.174
REMARK UNBOUND:                -0.133
REMARK SMILES CCCCCCC(=O)[O-]
REMARK SMILES IDX 5 1 6 2 7 3 8 4 9 5 4 6 3 7 2 8 1 9
REMARK H PARENT
REMARK Flexibility Score: inf
ROOT
ATOM      1  C   UNL     1      23.869 -13.001  18.063  1.00  0.00     0.006 C 
ENDROOT
BRANCH   1   2
ATOM      2  C   UNL     1      23.809 -12.475  16.624  1.00  0.00     0.053 C 
BRANCH   2   3
ATOM      3  C   UNL     1      24.904 -11.484  16.384  1.00  0.00     0.041 C 
ATOM      4  O   UNL     1      25.436 -10.879  17.351  1.00  0.00    -0.550 OA
ATOM      5  O   UNL     1      25.373 -11.266  15.094  1.00  0.00    -0.550 OA
ENDBRANCH   2   3
ENDBRANCH   1   2
BRANCH   1   6
ATOM      6  C   UNL     1      22.625 -12.622  18.884  1.00  0.00     0.000 C 
BRANCH   6   7
ATOM      7  C   UNL     1      22.881 -11.446  19.837  1.00  0.00    -0.000 C 
BRANCH   7   8
ATOM      8  C   UNL     1      22.651 -11.861  21.294  1.00  0.00    -0.003 C 
ATOM      9  C   UNL     1      23.037 -10.741  22.255  1.00  0.00     0.004 C 
ENDBRANCH   7   8
ENDBRANCH   6   7
ENDBRANCH   1   6
TORSDOF 5
ENDMDL
MODEL 4
REMARK VINA RESULT:    -4.506      2.523      4.842
REMARK INTER + INTRA:          -5.956
REMARK INTER:                  -5.824
REMARK INTRA:                  -0.132
REMARK UNBOUND:                -0.133
REMARK SMILES CCCCCCC(=O)[O-]
REMARK SMILES IDX 5 1 6 2 7 3 8 4 9 5 4 6 3 7 2 8 1 9
REMARK H PARENT
REMARK Flexibility Score: inf
ROOT
ATOM      1  C   UNL     1      22.774 -12.448  18.226  1.00  0.00     0.006 C 
ENDROOT
BRANCH   1   2
ATOM      2  C   UNL     1      22.842 -12.819  19.713  1.00  0.00     0.053 C 
BRANCH   2   3
ATOM      3  C   UNL     1      22.914 -11.584  20.555  1.00  0.00     0.041 C 
ATOM      4  O   UNL     1      23.521 -10.564  20.136  1.00  0.00    -0.550 OA
ATOM      5  O   UNL     1      22.267 -11.543  21.785  1.00  0.00    -0.550 OA
ENDBRANCH   2   3
ENDBRANCH   1   2
BRANCH   1   6
ATOM      6  C   UNL     1      23.955 -13.016  17.421  1.00  0.00     0.000 C 
BRANCH   6   7
ATOM      7  C   UNL     1      24.094 -12.367  16.036  1.00  0.00    -0.000 C 
BRANCH   7   8
ATOM      8  C   UNL     1      24.982 -11.119  16.102  1.00  0.00    -0.003 C 
ATOM      9  C   UNL     1      25.979 -11.090  14.948  1.00  0.00     0.004 C 
ENDBRANCH   7   8
ENDBRANCH   6   7
ENDBRANCH   1   6
TORSDOF 5
ENDMDL
MODEL 5
REMARK VINA RESULT:    -4.277      1.563      2.559
REMARK INTER + INTRA:          -5.661
REMARK INTER:                  -5.480
REMARK INTRA:                  -0.181
REMARK UNBOUND:                -0.133
REMARK SMILES CCCCCCC(=O)[O-]
REMARK SMILES IDX 5 1 6 2 7 3 8 4 9 5 4 6 3 7 2 8 1 9
REMARK H PARENT
REMARK Flexibility Score: inf
ROOT
ATOM      1  C   UNL     1      24.533 -11.680  15.709  1.00  0.00     0.006 C 
ENDROOT
BRANCH   1   2
ATOM      2  C   UNL     1      25.569 -10.941  16.566  1.00  0.00     0.053 C 
BRANCH   2   3
ATOM      3  C   UNL     1      26.773 -10.595  15.747  1.00  0.00     0.041 C 
ATOM      4  O   UNL     1      26.956 -11.139  14.627  1.00  0.00    -0.550 OA
ATOM      5  O   UNL     1      27.667  -9.632  16.200  1.00  0.00    -0.550 OA
ENDBRANCH   2   3
ENDBRANCH   1   2
BRANCH   1   6
ATOM      6  C   UNL     1      23.634 -12.610  16.540  1.00  0.00     0.000 C 
BRANCH   6   7
ATOM      7  C   UNL     1      23.894 -12.493  18.049  1.00  0.00    -0.000 C 
BRANCH   7   8
ATOM      8  C   UNL     1      22.584 -12.587  18.839  1.00  0.00    -0.003 C 
ATOM      9  C   UNL     1      22.641 -11.739  20.106  1.00  0.00     0.004 C 
ENDBRANCH   7   8
ENDBRANCH   6   7
ENDBRANCH   1   6
TORSDOF 5
ENDMDL
MODEL 6
REMARK VINA RESULT:    -4.134      2.414      3.834
REMARK INTER + INTRA:          -5.475
REMARK INTER:                  -5.179
REMARK INTRA:                  -0.296
REMARK UNBOUND:                -0.133
REMARK SMILES CCCCCCC(=O)[O-]
REMARK SMILES IDX 5 1 6 2 7 3 8 4 9 5 4 6 3 7 2 8 1 9
REMARK H PARENT
REMARK Flexibility Score: inf
ROOT
ATOM      1  C   UNL     1      25.950 -11.225  14.983  1.00  0.00     0.006 C 
ENDROOT
BRANCH   1   2
ATOM      2  C   UNL     1      27.070 -10.395  15.623  1.00  0.00     0.053 C 
BRANCH   2   3
ATOM      3  C   UNL     1      27.259 -10.789  17.055  1.00  0.00     0.041 C 
ATOM      4  O   UNL     1      27.718 -11.925  17.345  1.00  0.00    -0.550 OA
ATOM      5  O   UNL     1      26.974  -9.882  18.068  1.00  0.00    -0.550 OA
ENDBRANCH   2   3
ENDBRANCH   1   2
BRANCH   1   6
ATOM      6  C   UNL     1      24.616 -11.099  15.737  1.00  0.00     0.000 C 
BRANCH   6   7
ATOM      7  C   UNL     1      23.989 -12.462  16.065  1.00  0.00    -0.000 C 
BRANCH   7   8
ATOM      8  C   UNL     1      24.151 -12.796  17.552  1.00  0.00    -0.003 C 
ATOM      9  C   UNL     1      22.863 -12.525  18.323  1.00  0.00     0.004 C 
ENDBRANCH   7   8
ENDBRANCH   6   7
ENDBRANCH   1   6
TORSDOF 5
ENDMDL
MODEL 7
REMARK VINA RESULT:    -4.054      3.093      4.579
REMARK INTER + INTRA:          -5.372
REMARK INTER:                  -5.113
REMARK INTRA:                  -0.259
REMARK UNBOUND:                -0.133
REMARK SMILES CCCCCCC(=O)[O-]
REMARK SMILES IDX 5 1 6 2 7 3 8 4 9 5 4 6 3 7 2 8 1 9
REMARK H PARENT
REMARK Flexibility Score: inf
ROOT
ATOM      1  C   UNL     1      24.854 -11.046  15.785  1.00  0.00     0.006 C 
ENDROOT
BRANCH   1   2
ATOM      2  C   UNL     1      23.998 -12.319  15.799  1.00  0.00     0.053 C 
BRANCH   2   3
ATOM      3  C   UNL     1      23.759 -12.772  17.205  1.00  0.00     0.041 C 
ATOM      4  O   UNL     1      22.716 -12.423  17.815  1.00  0.00    -0.550 OA
ATOM      5  O   UNL     1      24.668 -13.623  17.824  1.00  0.00    -0.550 OA
ENDBRANCH   2   3
ENDBRANCH   1   2
BRANCH   1   6
ATOM      6  C   UNL     1      26.057 -11.152  14.834  1.00  0.00     0.000 C 
BRANCH   6   7
ATOM      7  C   UNL     1      27.386 -10.804  15.519  1.00  0.00    -0.000 C 
BRANCH   7   8
ATOM      8  C   UNL     1      27.408 -11.313  16.965  1.00  0.00    -0.003 C 
ATOM      9  C   UNL     1      27.738 -10.189  17.941  1.00  0.00     0.004 C 
ENDBRANCH   7   8
ENDBRANCH   6   7
ENDBRANCH   1   6
TORSDOF 5
ENDMDL
MODEL 8
REMARK VINA RESULT:    -4.045      2.089      3.057
REMARK INTER + INTRA:          -5.360
REMARK INTER:                  -5.112
REMARK INTRA:                  -0.249
REMARK UNBOUND:                -0.133
REMARK SMILES CCCCCCC(=O)[O-]
REMARK SMILES IDX 5 1 6 2 7 3 8 4 9 5 4 6 3 7 2 8 1 9
REMARK H PARENT
REMARK Flexibility Score: inf
ROOT
ATOM      1  C   UNL     1      24.821 -11.122  16.187  1.00  0.00     0.006 C 
ENDROOT
BRANCH   1   2
ATOM      2  C   UNL     1      26.199 -11.171  16.859  1.00  0.00     0.053 C 
BRANCH   2   3
ATOM      3  C   UNL     1      26.273 -10.172  17.971  1.00  0.00     0.041 C 
ATOM      4  O   UNL     1      25.280  -9.982  18.721  1.00  0.00    -0.550 OA
ATOM      5  O   UNL     1      27.457  -9.485  18.210  1.00  0.00    -0.550 OA
ENDBRANCH   2   3
ENDBRANCH   1   2
BRANCH   1   6
ATOM      6  C   UNL     1      24.078 -12.466  16.261  1.00  0.00     0.000 C 
BRANCH   6   7
ATOM      7  C   UNL     1      24.061 -13.055  17.680  1.00  0.00    -0.000 C 
BRANCH   7   8
ATOM      8  C   UNL     1      22.826 -12.582  18.455  1.00  0.00    -0.003 C 
ATOM      9  C   UNL     1      22.761 -13.226  19.836  1.00  0.00     0.004 C 
ENDBRANCH   7   8
ENDBRANCH   6   7
ENDBRANCH   1   6
TORSDOF 5
ENDMDL
MODEL 9
REMARK VINA RESULT:    -3.956      3.274      4.755
REMARK INTER + INTRA:          -5.245
REMARK INTER:                  -4.972
REMARK INTRA:                  -0.274
REMARK UNBOUND:                -0.133
REMARK SMILES CCCCCCC(=O)[O-]
REMARK SMILES IDX 5 1 6 2 7 3 8 4 9 5 4 6 3 7 2 8 1 9
REMARK H PARENT
REMARK Flexibility Score: inf
ROOT
ATOM      1  C   UNL     1      27.383 -10.730  15.495  1.00  0.00     0.006 C 
ENDROOT
BRANCH   1   2
ATOM      2  C   UNL     1      27.495 -11.187  16.955  1.00  0.00     0.053 C 
BRANCH   2   3
ATOM      3  C   UNL     1      27.845 -10.031  17.838  1.00  0.00     0.041 C 
ATOM      4  O   UNL     1      28.834  -9.302  17.567  1.00  0.00    -0.550 OA
ATOM      5  O   UNL     1      27.046  -9.728  18.934  1.00  0.00    -0.550 OA
ENDBRANCH   2   3
ENDBRANCH   1   2
BRANCH   1   6
ATOM      6  C   UNL     1      26.065 -11.171  14.837  1.00  0.00     0.000 C 
BRANCH   6   7
ATOM      7  C   UNL     1      24.854 -11.001  15.766  1.00  0.00    -0.000 C 
BRANCH   7   8
ATOM      8  C   UNL     1      24.063 -12.309  15.881  1.00  0.00    -0.003 C 
ATOM      9  C   UNL     1      24.121 -12.868  17.299  1.00  0.00     0.004 C 
ENDBRANCH   7   8
ENDBRANCH   6   7
ENDBRANCH   1   6
TORSDOF 5
ENDMDL
