MODEL 1
REMARK VINA RESULT:    -5.056      0.000      0.000
REMARK INTER + INTRA:          -7.872
REMARK INTER:                  -7.125
REMARK INTRA:                  -0.747
REMARK UNBOUND:                -0.747
REMARK SMILES C=CCCCCCCC(=O)[O-]
REMARK SMILES IDX 6 1 7 2 8 3 9 4 10 5 11 6 5 7 4 8 3 9 2 10 1 11
REMARK H PARENT
REMARK Flexibility Score: inf
ROOT
ATOM      1  C   UNL     1      23.882  -1.671   0.395  1.00  0.00     0.000 C 
ENDROOT
BRANCH   1   2
ATOM      2  C   UNL     1      25.203  -1.704  -0.395  1.00  0.00     0.006 C 
BRANCH   2   3
ATOM      3  C   UNL     1      25.108  -2.590  -1.645  1.00  0.00     0.053 C 
BRANCH   3   4
ATOM      4  C   UNL     1      25.178  -4.046  -1.301  1.00  0.00     0.041 C 
ATOM      5  O   UNL     1      26.155  -4.496  -0.646  1.00  0.00    -0.550 OA
ATOM      6  O   UNL     1      24.182  -4.913  -1.733  1.00  0.00    -0.550 OA
ENDBRANCH   3   4
ENDBRANCH   2   3
ENDBRANCH   1   2
BRANCH   1   7
ATOM      7  C   UNL     1      23.288  -0.258   0.494  1.00  0.00     0.000 C 
BRANCH   7   8
ATOM      8  C   UNL     1      22.055  -0.070  -0.404  1.00  0.00     0.004 C 
BRANCH   8   9
ATOM      9  C   UNL     1      22.437   0.611  -1.723  1.00  0.00     0.027 C 
BRANCH   9  10
ATOM     10  C   UNL     1      22.486  -0.378  -2.854  1.00  0.00    -0.035 C 
ATOM     11  C   UNL     1      21.718  -1.472  -2.867  1.00  0.00     0.004 C 
ENDBRANCH   9  10
ENDBRANCH   8   9
ENDBRANCH   7   8
ENDBRANCH   1   7
TORSDOF 7
ENDMDL
MODEL 2
REMARK VINA RESULT:    -5.023      2.710      4.800
REMARK INTER + INTRA:          -7.826
REMARK INTER:                  -7.259
REMARK INTRA:                  -0.567
REMARK UNBOUND:                -0.747
REMARK SMILES C=CCCCCCCC(=O)[O-]
REMARK SMILES IDX 6 1 7 2 8 3 9 4 10 5 11 6 5 7 4 8 3 9 2 10 1 11
REMARK H PARENT
REMARK Flexibility Score: inf
ROOT
ATOM      1  C   UNL     1      24.528  -0.979  -1.040  1.00  0.00     0.000 C 
ENDROOT
BRANCH   1   2
ATOM      2  C   UNL     1      23.723  -1.132   0.263  1.00  0.00     0.006 C 
BRANCH   2   3
ATOM      3  C   UNL     1      22.321  -0.517   0.154  1.00  0.00     0.053 C 
BRANCH   3   4
ATOM      4  C   UNL     1      21.277  -1.557  -0.111  1.00  0.00     0.041 C 
ATOM      5  O   UNL     1      20.650  -1.561  -1.203  1.00  0.00    -0.550 OA
ATOM      6  O   UNL     1      20.970  -2.501   0.861  1.00  0.00    -0.550 OA
ENDBRANCH   3   4
ENDBRANCH   2   3
ENDBRANCH   1   2
BRANCH   1   7
ATOM      7  C   UNL     1      24.393  -2.198  -1.965  1.00  0.00     0.000 C 
BRANCH   7   8
ATOM      8  C   UNL     1      24.997  -3.473  -1.356  1.00  0.00     0.004 C 
BRANCH   8   9
ATOM      9  C   UNL     1      26.529  -3.440  -1.426  1.00  0.00     0.027 C 
BRANCH   9  10
ATOM     10  C   UNL     1      27.134  -3.285  -0.059  1.00  0.00    -0.035 C 
ATOM     11  C   UNL     1      26.554  -3.796   1.031  1.00  0.00     0.004 C 
ENDBRANCH   9  10
ENDBRANCH   8   9
ENDBRANCH   7   8
ENDBRANCH   1   7
TORSDOF 7
ENDMDL
MODEL 3
REMARK VINA RESULT:    -4.998      1.100      1.696
REMARK INTER + INTRA:          -7.790
REMARK INTER:                  -7.053
REMARK INTRA:                  -0.737
REMARK UNBOUND:                -0.747
REMARK SMILES C=CCCCCCCC(=O)[O-]
REMARK SMILES IDX 6 1 7 2 8 3 9 4 10 5 11 6 5 7 4 8 3 9 2 10 1 11
REMARK H PARENT
REMARK Flexibility Score: inf
ROOT
ATOM      1  C   UNL     1      22.626  -0.512  -0.025  1.00  0.00     0.000 C 
ENDROOT
BRANCH   1   2
ATOM      2  C   UNL     1      23.901  -1.187   0.512  1.00  0.00     0.006 C 
BRANCH   2   3
ATOM      3  C   UNL     1      24.969  -1.356  -0.577  1.00  0.00     0.053 C 
BRANCH   3   4
ATOM      4  C   UNL     1      25.105  -2.784  -1.006  1.00  0.00     0.041 C 
ATOM      5  O   UNL     1      26.153  -3.174  -1.586  1.00  0.00    -0.550 OA
ATOM      6  O   UNL     1      24.062  -3.678  -0.796  1.00  0.00    -0.550 OA
ENDBRANCH   3   4
ENDBRANCH   2   3
ENDBRANCH   1   2
BRANCH   1   7
ATOM      7  C   UNL     1      22.930   0.696  -0.925  1.00  0.00     0.000 C 
BRANCH   7   8
ATOM      8  C   UNL     1      22.385   0.524  -2.351  1.00  0.00     0.004 C 
BRANCH   8   9
ATOM      9  C   UNL     1      21.828  -0.890  -2.557  1.00  0.00     0.027 C 
BRANCH   9  10
ATOM     10  C   UNL     1      22.674  -1.675  -3.521  1.00  0.00    -0.035 C 
ATOM     11  C   UNL     1      22.397  -2.946  -3.828  1.00  0.00     0.004 C 
ENDBRANCH   9  10
ENDBRANCH   8   9
ENDBRANCH   7   8
ENDBRANCH   1   7
TORSDOF 7
ENDMDL
MODEL 4
REMARK VINA RESULT:    -4.989      2.644      4.876
REMARK INTER + INTRA:          -7.777
REMARK INTER:                  -6.989
REMARK INTRA:                  -0.788
REMARK UNBOUND:                -0.747
REMARK SMILES C=CCCCCCCC(=O)[O-]
REMARK SMILES IDX 6 1 7 2 8 3 9 4 10 5 11 6 5 7 4 8 3 9 2 10 1 11
REMARK H PARENT
REMARK Flexibility Score: inf
ROOT
ATOM      1  C   UNL     1      24.481  -2.255  -1.662  1.00  0.00     0.000 C 
ENDROOT
BRANCH   1   2
ATOM      2  C   UNL     1      24.437  -0.867  -0.997  1.00  0.00     0.006 C 
BRANCH   2   3
ATOM      3  C   UNL     1      23.650  -0.882   0.321  1.00  0.00     0.053 C 
BRANCH   3   4
ATOM      4  C   UNL     1      22.195  -1.152   0.096  1.00  0.00     0.041 C 
ATOM      5  O   UNL     1      21.653  -2.169   0.604  1.00  0.00    -0.550 OA
ATOM      6  O   UNL     1      21.442  -0.299  -0.703  1.00  0.00    -0.550 OA
ENDBRANCH   3   4
ENDBRANCH   2   3
ENDBRANCH   1   2
BRANCH   1   7
ATOM      7  C   UNL     1      25.908  -2.818  -1.762  1.00  0.00     0.000 C 
BRANCH   7   8
ATOM      8  C   UNL     1      26.112  -4.068  -0.894  1.00  0.00     0.004 C 
BRANCH   8   9
ATOM      9  C   UNL     1      26.792  -3.709   0.433  1.00  0.00     0.027 C 
BRANCH   9  10
ATOM     10  C   UNL     1      25.786  -3.579   1.543  1.00  0.00    -0.035 C 
ATOM     11  C   UNL     1      24.641  -4.268   1.541  1.00  0.00     0.004 C 
ENDBRANCH   9  10
ENDBRANCH   8   9
ENDBRANCH   7   8
ENDBRANCH   1   7
TORSDOF 7
ENDMDL
MODEL 5
REMARK VINA RESULT:    -4.978      1.005      1.680
REMARK INTER + INTRA:          -7.762
REMARK INTER:                  -7.220
REMARK INTRA:                  -0.542
REMARK UNBOUND:                -0.747
REMARK SMILES C=CCCCCCCC(=O)[O-]
REMARK SMILES IDX 6 1 7 2 8 3 9 4 10 5 11 6 5 7 4 8 3 9 2 10 1 11
REMARK H PARENT
REMARK Flexibility Score: inf
ROOT
ATOM      1  C   UNL     1      25.071  -1.331  -0.599  1.00  0.00     0.000 C 
ENDROOT
BRANCH   1   2
ATOM      2  C   UNL     1      25.130  -2.493  -1.606  1.00  0.00     0.006 C 
BRANCH   2   3
ATOM      3  C   UNL     1      26.390  -3.351  -1.428  1.00  0.00     0.053 C 
BRANCH   3   4
ATOM      4  C   UNL     1      26.268  -4.283  -0.263  1.00  0.00     0.041 C 
ATOM      5  O   UNL     1      25.424  -5.218  -0.286  1.00  0.00    -0.550 OA
ATOM      6  O   UNL     1      27.060  -4.100   0.864  1.00  0.00    -0.550 OA
ENDBRANCH   3   4
ENDBRANCH   2   3
ENDBRANCH   1   2
BRANCH   1   7
ATOM      7  C   UNL     1      23.839  -1.405   0.317  1.00  0.00     0.000 C 
BRANCH   7   8
ATOM      8  C   UNL     1      22.838  -0.269   0.054  1.00  0.00     0.004 C 
BRANCH   8   9
ATOM      9  C   UNL     1      23.247   0.547  -1.178  1.00  0.00     0.027 C 
BRANCH   9  10
ATOM     10  C   UNL     1      22.280   0.346  -2.311  1.00  0.00    -0.035 C 
ATOM     11  C   UNL     1      22.188  -0.819  -2.960  1.00  0.00     0.004 C 
ENDBRANCH   9  10
ENDBRANCH   8   9
ENDBRANCH   7   8
ENDBRANCH   1   7
TORSDOF 7
ENDMDL
MODEL 6
REMARK VINA RESULT:    -4.857      2.329      3.657
REMARK INTER + INTRA:          -7.591
REMARK INTER:                  -7.001
REMARK INTRA:                  -0.590
REMARK UNBOUND:                -0.747
REMARK SMILES C=CCCCCCCC(=O)[O-]
REMARK SMILES IDX 6 1 7 2 8 3 9 4 10 5 11 6 5 7 4 8 3 9 2 10 1 11
REMARK H PARENT
REMARK Flexibility Score: inf
ROOT
ATOM      1  C   UNL     1      26.712  -2.960   0.024  1.00  0.00     0.000 C 
ENDROOT
BRANCH   1   2
ATOM      2  C   UNL     1      26.515  -4.089   1.052  1.00  0.00     0.006 C 
BRANCH   2   3
ATOM      3  C   UNL     1      25.170  -4.807   0.871  1.00  0.00     0.053 C 
BRANCH   3   4
ATOM      4  C   UNL     1      24.140  -4.308   1.837  1.00  0.00     0.041 C 
ATOM      5  O   UNL     1      23.096  -4.979   2.051  1.00  0.00    -0.550 OA
ATOM      6  O   UNL     1      24.314  -3.086   2.474  1.00  0.00    -0.550 OA
ENDBRANCH   3   4
ENDBRANCH   2   3
ENDBRANCH   1   2
BRANCH   1   7
ATOM      7  C   UNL     1      26.083  -3.285  -1.340  1.00  0.00     0.000 C 
BRANCH   7   8
ATOM      8  C   UNL     1      24.919  -2.347  -1.692  1.00  0.00     0.004 C 
BRANCH   8   9
ATOM      9  C   UNL     1      24.793  -1.218  -0.662  1.00  0.00     0.027 C 
BRANCH   9  10
ATOM     10  C   UNL     1      23.367  -1.037  -0.222  1.00  0.00    -0.035 C 
ATOM     11  C   UNL     1      22.935   0.109   0.314  1.00  0.00     0.004 C 
ENDBRANCH   9  10
ENDBRANCH   8   9
ENDBRANCH   7   8
ENDBRANCH   1   7
TORSDOF 7
ENDMDL
MODEL 7
REMARK VINA RESULT:    -4.806      2.410      4.407
REMARK INTER + INTRA:          -7.519
REMARK INTER:                  -6.716
REMARK INTRA:                  -0.803
REMARK UNBOUND:                -0.747
REMARK SMILES C=CCCCCCCC(=O)[O-]
REMARK SMILES IDX 6 1 7 2 8 3 9 4 10 5 11 6 5 7 4 8 3 9 2 10 1 11
REMARK H PARENT
REMARK Flexibility Score: inf
ROOT
ATOM      1  C   UNL     1      23.352  -2.482   0.801  1.00  0.00     0.000 C 
ENDROOT
BRANCH   1   2
ATOM      2  C   UNL     1      23.767  -1.019   0.565  1.00  0.00     0.006 C 
BRANCH   2   3
ATOM      3  C   UNL     1      24.289  -0.788  -0.859  1.00  0.00     0.053 C 
BRANCH   3   4
ATOM      4  C   UNL     1      23.250  -1.101  -1.890  1.00  0.00     0.041 C 
ATOM      5  O   UNL     1      22.165  -0.462  -1.911  1.00  0.00    -0.550 OA
ATOM      6  O   UNL     1      23.463  -2.123  -2.807  1.00  0.00    -0.550 OA
ENDBRANCH   3   4
ENDBRANCH   2   3
ENDBRANCH   1   2
BRANCH   1   7
ATOM      7  C   UNL     1      24.196  -3.169   1.886  1.00  0.00     0.000 C 
BRANCH   7   8
ATOM      8  C   UNL     1      25.217  -4.158   1.303  1.00  0.00     0.004 C 
BRANCH   8   9
ATOM      9  C   UNL     1      26.597  -3.503   1.167  1.00  0.00     0.027 C 
BRANCH   9  10
ATOM     10  C   UNL     1      27.037  -3.451  -0.270  1.00  0.00    -0.035 C 
ATOM     11  C   UNL     1      26.220  -3.798  -1.270  1.00  0.00     0.004 C 
ENDBRANCH   9  10
ENDBRANCH   8   9
ENDBRANCH   7   8
ENDBRANCH   1   7
TORSDOF 7
ENDMDL
MODEL 8
REMARK VINA RESULT:    -4.732      2.305      4.342
REMARK INTER + INTRA:          -7.416
REMARK INTER:                  -6.743
REMARK INTRA:                  -0.673
REMARK UNBOUND:                -0.747
REMARK SMILES C=CCCCCCCC(=O)[O-]
REMARK SMILES IDX 6 1 7 2 8 3 9 4 10 5 11 6 5 7 4 8 3 9 2 10 1 11
REMARK H PARENT
REMARK Flexibility Score: inf
ROOT
ATOM      1  C   UNL     1      23.886  -0.790   0.251  1.00  0.00     0.000 C 
ENDROOT
BRANCH   1   2
ATOM      2  C   UNL     1      22.671   0.082  -0.112  1.00  0.00     0.006 C 
BRANCH   2   3
ATOM      3  C   UNL     1      22.674   0.492  -1.591  1.00  0.00     0.053 C 
BRANCH   3   4
ATOM      4  C   UNL     1      22.172  -0.608  -2.474  1.00  0.00     0.041 C 
ATOM      5  O   UNL     1      22.850  -0.984  -3.466  1.00  0.00    -0.550 OA
ATOM      6  O   UNL     1      20.938  -1.196  -2.223  1.00  0.00    -0.550 OA
ENDBRANCH   3   4
ENDBRANCH   2   3
ENDBRANCH   1   2
BRANCH   1   7
ATOM      7  C   UNL     1      23.512  -2.264   0.469  1.00  0.00     0.000 C 
BRANCH   7   8
ATOM      8  C   UNL     1      23.997  -3.172  -0.671  1.00  0.00     0.004 C 
BRANCH   8   9
ATOM      9  C   UNL     1      25.206  -2.556  -1.385  1.00  0.00     0.027 C 
BRANCH   9  10
ATOM     10  C   UNL     1      26.443  -3.385  -1.181  1.00  0.00    -0.035 C 
ATOM     11  C   UNL     1      27.029  -3.493   0.015  1.00  0.00     0.004 C 
ENDBRANCH   9  10
ENDBRANCH   8   9
ENDBRANCH   7   8
ENDBRANCH   1   7
TORSDOF 7
ENDMDL
MODEL 9
REMARK VINA RESULT:    -4.730      2.296      4.579
REMARK INTER + INTRA:          -7.412
REMARK INTER:                  -6.956
REMARK INTRA:                  -0.456
REMARK UNBOUND:                -0.747
REMARK SMILES C=CCCCCCCC(=O)[O-]
REMARK SMILES IDX 6 1 7 2 8 3 9 4 10 5 11 6 5 7 4 8 3 9 2 10 1 11
REMARK H PARENT
REMARK Flexibility Score: inf
ROOT
ATOM      1  C   UNL     1      23.470  -0.487  -1.721  1.00  0.00     0.000 C 
ENDROOT
BRANCH   1   2
ATOM      2  C   UNL     1      22.976  -1.350  -2.896  1.00  0.00     0.006 C 
BRANCH   2   3
ATOM      3  C   UNL     1      21.454  -1.543  -2.872  1.00  0.00     0.053 C 
BRANCH   3   4
ATOM      4  C   UNL     1      20.994  -2.180  -1.598  1.00  0.00     0.041 C 
ATOM      5  O   UNL     1      20.383  -1.498  -0.733  1.00  0.00    -0.550 OA
ATOM      6  O   UNL     1      21.270  -3.519  -1.348  1.00  0.00    -0.550 OA
ENDBRANCH   3   4
ENDBRANCH   2   3
ENDBRANCH   1   2
BRANCH   1   7
ATOM      7  C   UNL     1      24.628  -1.142  -0.951  1.00  0.00     0.000 C 
BRANCH   7   8
ATOM      8  C   UNL     1      24.747  -2.648  -1.232  1.00  0.00     0.004 C 
BRANCH   8   9
ATOM      9  C   UNL     1      26.205  -3.040  -1.506  1.00  0.00     0.027 C 
BRANCH   9  10
ATOM     10  C   UNL     1      26.979  -3.190  -0.226  1.00  0.00    -0.035 C 
ATOM     11  C   UNL     1      26.450  -3.778   0.852  1.00  0.00     0.004 C 
ENDBRANCH   9  10
ENDBRANCH   8   9
ENDBRANCH   7   8
ENDBRANCH   1   7
TORSDOF 7
ENDMDL
