MODEL 1
REMARK VINA RESULT:    -5.481      0.000      0.000
REMARK INTER + INTRA:          -6.923
REMARK INTER:                  -6.603
REMARK INTRA:                  -0.320
REMARK UNBOUND:                -0.320
REMARK SMILES O=c1c(O)c(-c2ccc(O)c(O)c2)oc2cc(O)cc(O)c12
REMARK SMILES IDX 5 1 3 2 2 3 1 4 22 5 20 6 19 7 17 8 16 9 15 10 14 11 6 12
REMARK SMILES IDX 7 13 8 14 9 15 13 16 11 17 10 18 12 20 4 22 21 24 18 26
REMARK H PARENT 10 19 12 21 4 23 21 25 18 27
REMARK Flexibility Score: inf
ROOT
ATOM      1  C   UNL     1      28.688  35.172  20.434  1.00  0.00     0.180 A 
ATOM      2  C   UNL     1      27.400  35.682  20.199  1.00  0.00     0.208 A 
ATOM      3  C   UNL     1      26.340  35.259  21.017  1.00  0.00     0.238 A 
ATOM      4  O   UNL     1      25.205  35.775  20.849  1.00  0.00    -0.285 OA
ATOM      5  C   UNL     1      26.570  34.290  22.024  1.00  0.00     0.111 A 
ATOM      6  C   UNL     1      25.562  33.755  22.884  1.00  0.00     0.134 A 
ATOM      7  C   UNL     1      25.926  32.880  23.914  1.00  0.00     0.093 A 
ATOM      8  C   UNL     1      27.248  32.470  24.078  1.00  0.00     0.123 A 
ATOM      9  C   UNL     1      28.233  32.943  23.211  1.00  0.00     0.094 A 
ATOM     10  C   UNL     1      27.908  33.847  22.196  1.00  0.00     0.146 A 
ATOM     11  O   UNL     1      28.879  34.288  21.406  1.00  0.00    -0.452 OA
ENDROOT
BRANCH   1  12
ATOM     12  C   UNL     1      29.857  35.580  19.622  1.00  0.00     0.025 A 
ATOM     13  C   UNL     1      30.310  34.741  18.592  1.00  0.00     0.016 A 
ATOM     14  C   UNL     1      31.424  35.096  17.827  1.00  0.00     0.051 A 
ATOM     15  C   UNL     1      32.112  36.287  18.092  1.00  0.00     0.157 A 
ATOM     16  C   UNL     1      30.563  36.765  19.898  1.00  0.00     0.062 A 
ATOM     17  C   UNL     1      31.681  37.122  19.136  1.00  0.00     0.158 A 
BRANCH  15  18
ATOM     18  O   UNL     1      33.222  36.639  17.327  1.00  0.00    -0.504 OA
ATOM     19  H   UNL     1      33.703  35.962  16.746  1.00  0.00     0.293 HD
ENDBRANCH  15  18
BRANCH  17  20
ATOM     20  O   UNL     1      32.353  38.307  19.434  1.00  0.00    -0.504 OA
ATOM     21  H   UNL     1      32.610  38.557  20.382  1.00  0.00     0.293 HD
ENDBRANCH  17  20
ENDBRANCH   1  12
BRANCH   2  22
ATOM     22  O   UNL     1      27.178  36.578  19.150  1.00  0.00    -0.502 OA
ATOM     23  H   UNL     1      27.652  37.471  19.088  1.00  0.00     0.293 HD
ENDBRANCH   2  22
BRANCH   6  24
ATOM     24  O   UNL     1      24.197  34.028  22.753  1.00  0.00    -0.507 OA
ATOM     25  H   UNL     1      23.788  34.599  22.029  1.00  0.00     0.293 HD
ENDBRANCH   6  24
BRANCH   8  26
ATOM     26  O   UNL     1      27.571  31.584  25.104  1.00  0.00    -0.508 OA
ATOM     27  H   UNL     1      27.234  30.629  25.105  1.00  0.00     0.293 HD
ENDBRANCH   8  26
TORSDOF 6
ENDMDL
MODEL 2
REMARK VINA RESULT:    -5.476      1.912      6.931
REMARK INTER + INTRA:          -6.917
REMARK INTER:                  -6.661
REMARK INTRA:                  -0.256
REMARK UNBOUND:                -0.320
REMARK SMILES O=c1c(O)c(-c2ccc(O)c(O)c2)oc2cc(O)cc(O)c12
REMARK SMILES IDX 5 1 3 2 2 3 1 4 22 5 20 6 19 7 17 8 16 9 15 10 14 11 6 12
REMARK SMILES IDX 7 13 8 14 9 15 13 16 11 17 10 18 12 20 4 22 21 24 18 26
REMARK H PARENT 10 19 12 21 4 23 21 25 18 27
REMARK Flexibility Score: inf
ROOT
ATOM      1  C   UNL     1      28.376  34.635  20.053  1.00  0.00     0.180 A 
ATOM      2  C   UNL     1      29.204  35.764  20.166  1.00  0.00     0.208 A 
ATOM      3  C   UNL     1      30.359  35.843  19.371  1.00  0.00     0.238 A 
ATOM      4  O   UNL     1      31.057  36.889  19.422  1.00  0.00    -0.285 OA
ATOM      5  C   UNL     1      30.702  34.767  18.516  1.00  0.00     0.111 A 
ATOM      6  C   UNL     1      31.871  34.719  17.698  1.00  0.00     0.134 A 
ATOM      7  C   UNL     1      32.051  33.650  16.811  1.00  0.00     0.093 A 
ATOM      8  C   UNL     1      31.140  32.597  16.758  1.00  0.00     0.123 A 
ATOM      9  C   UNL     1      30.020  32.606  17.591  1.00  0.00     0.094 A 
ATOM     10  C   UNL     1      29.793  33.677  18.459  1.00  0.00     0.146 A 
ATOM     11  O   UNL     1      28.705  33.656  19.219  1.00  0.00    -0.452 OA
ENDROOT
BRANCH   1  12
ATOM     12  C   UNL     1      27.134  34.487  20.847  1.00  0.00     0.025 A 
ATOM     13  C   UNL     1      26.007  35.255  20.516  1.00  0.00     0.016 A 
ATOM     14  C   UNL     1      24.832  35.147  21.264  1.00  0.00     0.051 A 
ATOM     15  C   UNL     1      24.771  34.282  22.364  1.00  0.00     0.157 A 
ATOM     16  C   UNL     1      27.076  33.635  21.964  1.00  0.00     0.062 A 
ATOM     17  C   UNL     1      25.901  33.526  22.717  1.00  0.00     0.158 A 
BRANCH  15  18
ATOM     18  O   UNL     1      23.597  34.175  23.107  1.00  0.00    -0.504 OA
ATOM     19  H   UNL     1      22.993  33.365  23.031  1.00  0.00     0.293 HD
ENDBRANCH  15  18
BRANCH  17  20
ATOM     20  O   UNL     1      25.878  32.667  23.816  1.00  0.00    -0.504 OA
ATOM     21  H   UNL     1      25.980  31.664  23.716  1.00  0.00     0.293 HD
ENDBRANCH  17  20
ENDBRANCH   1  12
BRANCH   2  22
ATOM     22  O   UNL     1      28.891  36.780  21.072  1.00  0.00    -0.502 OA
ATOM     23  H   UNL     1      28.578  37.696  20.776  1.00  0.00     0.293 HD
ENDBRANCH   2  22
BRANCH   6  24
ATOM     24  O   UNL     1      32.893  35.673  17.736  1.00  0.00    -0.507 OA
ATOM     25  H   UNL     1      33.654  35.731  17.076  1.00  0.00     0.293 HD
ENDBRANCH   6  24
BRANCH   8  26
ATOM     26  O   UNL     1      31.359  31.541  15.876  1.00  0.00    -0.508 OA
ATOM     27  H   UNL     1      31.268  31.659  14.874  1.00  0.00     0.293 HD
ENDBRANCH   8  26
TORSDOF 6
ENDMDL
MODEL 3
REMARK VINA RESULT:    -5.364      1.511      7.039
REMARK INTER + INTRA:          -6.782
REMARK INTER:                  -6.482
REMARK INTRA:                  -0.299
REMARK UNBOUND:                -0.320
REMARK SMILES O=c1c(O)c(-c2ccc(O)c(O)c2)oc2cc(O)cc(O)c12
REMARK SMILES IDX 5 1 3 2 2 3 1 4 22 5 20 6 19 7 17 8 16 9 15 10 14 11 6 12
REMARK SMILES IDX 7 13 8 14 9 15 13 16 11 17 10 18 12 20 4 22 21 24 18 26
REMARK H PARENT 10 19 12 21 4 23 21 25 18 27
REMARK Flexibility Score: inf
ROOT
ATOM      1  C   UNL     1      28.740  35.290  20.273  1.00  0.00     0.180 A 
ATOM      2  C   UNL     1      29.265  34.512  19.229  1.00  0.00     0.208 A 
ATOM      3  C   UNL     1      30.491  34.884  18.653  1.00  0.00     0.238 A 
ATOM      4  O   UNL     1      30.993  34.142  17.770  1.00  0.00    -0.285 OA
ATOM      5  C   UNL     1      31.148  36.060  19.091  1.00  0.00     0.111 A 
ATOM      6  C   UNL     1      32.372  36.558  18.549  1.00  0.00     0.134 A 
ATOM      7  C   UNL     1      32.983  37.673  19.134  1.00  0.00     0.093 A 
ATOM      8  C   UNL     1      32.386  38.348  20.196  1.00  0.00     0.123 A 
ATOM      9  C   UNL     1      31.163  37.904  20.700  1.00  0.00     0.094 A 
ATOM     10  C   UNL     1      30.546  36.771  20.163  1.00  0.00     0.146 A 
ATOM     11  O   UNL     1      29.393  36.370  20.685  1.00  0.00    -0.452 OA
ENDROOT
BRANCH   1  12
ATOM     12  C   UNL     1      27.460  34.954  20.940  1.00  0.00     0.025 A 
ATOM     13  C   UNL     1      26.310  35.702  20.642  1.00  0.00     0.016 A 
ATOM     14  C   UNL     1      25.097  35.416  21.274  1.00  0.00     0.051 A 
ATOM     15  C   UNL     1      25.019  34.389  22.224  1.00  0.00     0.157 A 
ATOM     16  C   UNL     1      27.384  33.938  21.909  1.00  0.00     0.062 A 
ATOM     17  C   UNL     1      26.170  33.651  22.546  1.00  0.00     0.158 A 
BRANCH  15  18
ATOM     18  O   UNL     1      23.808  34.105  22.851  1.00  0.00    -0.504 OA
ATOM     19  H   UNL     1      22.982  33.853  22.321  1.00  0.00     0.293 HD
ENDBRANCH  15  18
BRANCH  17  20
ATOM     20  O   UNL     1      26.130  32.633  23.498  1.00  0.00    -0.504 OA
ATOM     21  H   UNL     1      25.414  31.917  23.490  1.00  0.00     0.293 HD
ENDBRANCH  17  20
ENDBRANCH   1  12
BRANCH   2  22
ATOM     22  O   UNL     1      28.565  33.399  18.758  1.00  0.00    -0.502 OA
ATOM     23  H   UNL     1      27.553  33.357  18.747  1.00  0.00     0.293 HD
ENDBRANCH   2  22
BRANCH   6  24
ATOM     24  O   UNL     1      33.011  36.014  17.430  1.00  0.00    -0.507 OA
ATOM     25  H   UNL     1      33.340  35.063  17.358  1.00  0.00     0.293 HD
ENDBRANCH   6  24
BRANCH   8  26
ATOM     26  O   UNL     1      33.014  39.465  20.743  1.00  0.00    -0.508 OA
ATOM     27  H   UNL     1      32.574  40.021  21.467  1.00  0.00     0.293 HD
ENDBRANCH   8  26
TORSDOF 6
ENDMDL
MODEL 4
REMARK VINA RESULT:    -4.989      3.048      4.275
REMARK INTER + INTRA:          -6.330
REMARK INTER:                  -6.059
REMARK INTRA:                  -0.271
REMARK UNBOUND:                -0.320
REMARK SMILES O=c1c(O)c(-c2ccc(O)c(O)c2)oc2cc(O)cc(O)c12
REMARK SMILES IDX 5 1 3 2 2 3 1 4 22 5 20 6 19 7 17 8 16 9 15 10 14 11 6 12
REMARK SMILES IDX 7 13 8 14 9 15 13 16 11 17 10 18 12 20 4 22 21 24 18 26
REMARK H PARENT 10 19 12 21 4 23 21 25 18 27
REMARK Flexibility Score: inf
ROOT
ATOM      1  C   UNL     1      28.905  33.642  19.554  1.00  0.00     0.180 A 
ATOM      2  C   UNL     1      29.350  34.974  19.582  1.00  0.00     0.208 A 
ATOM      3  C   UNL     1      28.604  35.926  20.295  1.00  0.00     0.238 A 
ATOM      4  O   UNL     1      29.047  37.101  20.378  1.00  0.00    -0.285 OA
ATOM      5  C   UNL     1      27.392  35.547  20.923  1.00  0.00     0.111 A 
ATOM      6  C   UNL     1      26.532  36.436  21.635  1.00  0.00     0.134 A 
ATOM      7  C   UNL     1      25.413  35.927  22.306  1.00  0.00     0.093 A 
ATOM      8  C   UNL     1      25.088  34.574  22.239  1.00  0.00     0.123 A 
ATOM      9  C   UNL     1      25.891  33.703  21.502  1.00  0.00     0.094 A 
ATOM     10  C   UNL     1      27.035  34.174  20.852  1.00  0.00     0.146 A 
ATOM     11  O   UNL     1      27.783  33.309  20.179  1.00  0.00    -0.452 OA
ENDROOT
BRANCH   1  12
ATOM     12  C   UNL     1      29.646  32.579  18.836  1.00  0.00     0.025 A 
ATOM     13  C   UNL     1      30.458  31.693  19.562  1.00  0.00     0.016 A 
ATOM     14  C   UNL     1      31.182  30.696  18.903  1.00  0.00     0.051 A 
ATOM     15  C   UNL     1      31.119  30.580  17.509  1.00  0.00     0.157 A 
ATOM     16  C   UNL     1      29.600  32.473  17.435  1.00  0.00     0.062 A 
ATOM     17  C   UNL     1      30.327  31.476  16.772  1.00  0.00     0.158 A 
BRANCH  15  18
ATOM     18  O   UNL     1      31.840  29.583  16.855  1.00  0.00    -0.504 OA
ATOM     19  H   UNL     1      32.160  29.699  15.900  1.00  0.00     0.293 HD
ENDBRANCH  15  18
BRANCH  17  20
ATOM     20  O   UNL     1      30.254  31.397  15.381  1.00  0.00    -0.504 OA
ATOM     21  H   UNL     1      29.667  32.017  14.837  1.00  0.00     0.293 HD
ENDBRANCH  17  20
ENDBRANCH   1  12
BRANCH   2  22
ATOM     22  O   UNL     1      30.507  35.346  18.891  1.00  0.00    -0.502 OA
ATOM     23  H   UNL     1      30.934  34.755  18.189  1.00  0.00     0.293 HD
ENDBRANCH   2  22
BRANCH   6  24
ATOM     24  O   UNL     1      26.713  37.822  21.692  1.00  0.00    -0.507 OA
ATOM     25  H   UNL     1      25.996  38.507  21.507  1.00  0.00     0.293 HD
ENDBRANCH   6  24
BRANCH   8  26
ATOM     26  O   UNL     1      23.958  34.104  22.905  1.00  0.00    -0.508 OA
ATOM     27  H   UNL     1      23.501  34.652  23.625  1.00  0.00     0.293 HD
ENDBRANCH   8  26
TORSDOF 6
ENDMDL
MODEL 5
REMARK VINA RESULT:    -4.942      1.392      2.987
REMARK INTER + INTRA:          -6.274
REMARK INTER:                  -5.965
REMARK INTRA:                  -0.309
REMARK UNBOUND:                -0.320
REMARK SMILES O=c1c(O)c(-c2ccc(O)c(O)c2)oc2cc(O)cc(O)c12
REMARK SMILES IDX 5 1 3 2 2 3 1 4 22 5 20 6 19 7 17 8 16 9 15 10 14 11 6 12
REMARK SMILES IDX 7 13 8 14 9 15 13 16 11 17 10 18 12 20 4 22 21 24 18 26
REMARK H PARENT 10 19 12 21 4 23 21 25 18 27
REMARK Flexibility Score: inf
ROOT
ATOM      1  C   UNL     1      29.373  34.103  20.241  1.00  0.00     0.180 A 
ATOM      2  C   UNL     1      29.866  33.302  21.284  1.00  0.00     0.208 A 
ATOM      3  C   UNL     1      28.983  32.875  22.290  1.00  0.00     0.238 A 
ATOM      4  O   UNL     1      29.415  32.098  23.180  1.00  0.00    -0.285 OA
ATOM      5  C   UNL     1      27.633  33.301  22.270  1.00  0.00     0.111 A 
ATOM      6  C   UNL     1      26.660  32.966  23.261  1.00  0.00     0.134 A 
ATOM      7  C   UNL     1      25.328  33.356  23.081  1.00  0.00     0.093 A 
ATOM      8  C   UNL     1      24.943  34.121  21.981  1.00  0.00     0.123 A 
ATOM      9  C   UNL     1      25.894  34.500  21.034  1.00  0.00     0.094 A 
ATOM     10  C   UNL     1      27.225  34.095  21.166  1.00  0.00     0.146 A 
ATOM     11  O   UNL     1      28.094  34.460  20.231  1.00  0.00    -0.452 OA
ENDROOT
BRANCH   1  12
ATOM     12  C   UNL     1      30.238  34.580  19.137  1.00  0.00     0.025 A 
ATOM     13  C   UNL     1      30.504  33.731  18.052  1.00  0.00     0.016 A 
ATOM     14  C   UNL     1      31.334  34.152  17.010  1.00  0.00     0.051 A 
ATOM     15  C   UNL     1      31.924  35.422  17.046  1.00  0.00     0.157 A 
ATOM     16  C   UNL     1      30.848  35.846  19.180  1.00  0.00     0.062 A 
ATOM     17  C   UNL     1      31.683  36.270  18.139  1.00  0.00     0.158 A 
BRANCH  15  18
ATOM     18  O   UNL     1      32.751  35.840  16.005  1.00  0.00    -0.504 OA
ATOM     19  H   UNL     1      33.356  36.647  16.098  1.00  0.00     0.293 HD
ENDBRANCH  15  18
BRANCH  17  20
ATOM     20  O   UNL     1      32.268  37.535  18.212  1.00  0.00    -0.504 OA
ATOM     21  H   UNL     1      31.801  38.318  18.653  1.00  0.00     0.293 HD
ENDBRANCH  17  20
ENDBRANCH   1  12
BRANCH   2  22
ATOM     22  O   UNL     1      31.219  32.957  21.328  1.00  0.00    -0.502 OA
ATOM     23  H   UNL     1      31.933  33.597  21.654  1.00  0.00     0.293 HD
ENDBRANCH   2  22
BRANCH   6  24
ATOM     24  O   UNL     1      26.953  32.281  24.445  1.00  0.00    -0.507 OA
ATOM     25  H   UNL     1      27.882  32.095  24.791  1.00  0.00     0.293 HD
ENDBRANCH   6  24
BRANCH   8  26
ATOM     26  O   UNL     1      23.611  34.506  21.843  1.00  0.00    -0.508 OA
ATOM     27  H   UNL     1      23.051  34.204  21.054  1.00  0.00     0.293 HD
ENDBRANCH   8  26
TORSDOF 6
ENDMDL
MODEL 6
REMARK VINA RESULT:    -4.933      3.078      3.996
REMARK INTER + INTRA:          -6.262
REMARK INTER:                  -5.965
REMARK INTRA:                  -0.298
REMARK UNBOUND:                -0.320
REMARK SMILES O=c1c(O)c(-c2ccc(O)c(O)c2)oc2cc(O)cc(O)c12
REMARK SMILES IDX 5 1 3 2 2 3 1 4 22 5 20 6 19 7 17 8 16 9 15 10 14 11 6 12
REMARK SMILES IDX 7 13 8 14 9 15 13 16 11 17 10 18 12 20 4 22 21 24 18 26
REMARK H PARENT 10 19 12 21 4 23 21 25 18 27
REMARK Flexibility Score: inf
ROOT
ATOM      1  C   UNL     1      28.036  34.151  20.791  1.00  0.00     0.180 A 
ATOM      2  C   UNL     1      26.659  34.318  20.567  1.00  0.00     0.208 A 
ATOM      3  C   UNL     1      25.960  35.281  21.313  1.00  0.00     0.238 A 
ATOM      4  O   UNL     1      24.744  35.477  21.055  1.00  0.00    -0.285 OA
ATOM      5  C   UNL     1      26.634  36.024  22.312  1.00  0.00     0.111 A 
ATOM      6  C   UNL     1      26.017  36.995  23.159  1.00  0.00     0.134 A 
ATOM      7  C   UNL     1      26.805  37.745  24.039  1.00  0.00     0.093 A 
ATOM      8  C   UNL     1      28.175  37.518  24.151  1.00  0.00     0.123 A 
ATOM      9  C   UNL     1      28.781  36.536  23.368  1.00  0.00     0.094 A 
ATOM     10  C   UNL     1      28.028  35.796  22.453  1.00  0.00     0.146 A 
ATOM     11  O   UNL     1      28.648  34.885  21.712  1.00  0.00    -0.452 OA
ENDROOT
BRANCH   1  12
ATOM     12  C   UNL     1      28.844  33.166  20.034  1.00  0.00     0.025 A 
ATOM     13  C   UNL     1      29.241  31.974  20.659  1.00  0.00     0.016 A 
ATOM     14  C   UNL     1      30.021  31.040  19.972  1.00  0.00     0.051 A 
ATOM     15  C   UNL     1      30.429  31.292  18.655  1.00  0.00     0.157 A 
ATOM     16  C   UNL     1      29.272  33.425  18.720  1.00  0.00     0.062 A 
ATOM     17  C   UNL     1      30.056  32.493  18.030  1.00  0.00     0.158 A 
BRANCH  15  18
ATOM     18  O   UNL     1      31.205  30.359  17.971  1.00  0.00    -0.504 OA
ATOM     19  H   UNL     1      31.822  30.633  17.216  1.00  0.00     0.293 HD
ENDBRANCH  15  18
BRANCH  17  20
ATOM     20  O   UNL     1      30.458  32.781  16.725  1.00  0.00    -0.504 OA
ATOM     21  H   UNL     1      30.064  33.551  16.198  1.00  0.00     0.293 HD
ENDBRANCH  17  20
ENDBRANCH   1  12
BRANCH   2  22
ATOM     22  O   UNL     1      25.996  33.520  19.631  1.00  0.00    -0.502 OA
ATOM     23  H   UNL     1      26.183  32.531  19.529  1.00  0.00     0.293 HD
ENDBRANCH   2  22
BRANCH   6  24
ATOM     24  O   UNL     1      24.640  37.241  23.194  1.00  0.00    -0.507 OA
ATOM     25  H   UNL     1      23.958  36.647  23.642  1.00  0.00     0.293 HD
ENDBRANCH   6  24
BRANCH   8  26
ATOM     26  O   UNL     1      28.926  38.272  25.051  1.00  0.00    -0.508 OA
ATOM     27  H   UNL     1      29.870  38.006  25.308  1.00  0.00     0.293 HD
ENDBRANCH   8  26
TORSDOF 6
ENDMDL
MODEL 7
REMARK VINA RESULT:    -4.918      1.838      3.708
REMARK INTER + INTRA:          -6.244
REMARK INTER:                  -5.985
REMARK INTRA:                  -0.259
REMARK UNBOUND:                -0.320
REMARK SMILES O=c1c(O)c(-c2ccc(O)c(O)c2)oc2cc(O)cc(O)c12
REMARK SMILES IDX 5 1 3 2 2 3 1 4 22 5 20 6 19 7 17 8 16 9 15 10 14 11 6 12
REMARK SMILES IDX 7 13 8 14 9 15 13 16 11 17 10 18 12 20 4 22 21 24 18 26
REMARK H PARENT 10 19 12 21 4 23 21 25 18 27
REMARK Flexibility Score: inf
ROOT
ATOM      1  C   UNL     1      30.224  34.798  19.165  1.00  0.00     0.180 A 
ATOM      2  C   UNL     1      30.447  33.572  19.815  1.00  0.00     0.208 A 
ATOM      3  C   UNL     1      29.421  33.021  20.599  1.00  0.00     0.238 A 
ATOM      4  O   UNL     1      29.600  31.889  21.118  1.00  0.00    -0.285 OA
ATOM      5  C   UNL     1      28.206  33.729  20.771  1.00  0.00     0.111 A 
ATOM      6  C   UNL     1      27.115  33.288  21.579  1.00  0.00     0.134 A 
ATOM      7  C   UNL     1      25.921  34.020  21.587  1.00  0.00     0.093 A 
ATOM      8  C   UNL     1      25.800  35.208  20.870  1.00  0.00     0.123 A 
ATOM      9  C   UNL     1      26.877  35.678  20.120  1.00  0.00     0.094 A 
ATOM     10  C   UNL     1      28.069  34.951  20.061  1.00  0.00     0.146 A 
ATOM     11  O   UNL     1      29.063  35.423  19.318  1.00  0.00    -0.452 OA
ENDROOT
BRANCH   1  12
ATOM     12  C   UNL     1      31.252  35.435  18.309  1.00  0.00     0.025 A 
ATOM     13  C   UNL     1      31.881  36.611  18.746  1.00  0.00     0.016 A 
ATOM     14  C   UNL     1      32.838  37.241  17.946  1.00  0.00     0.051 A 
ATOM     15  C   UNL     1      33.169  36.713  16.691  1.00  0.00     0.157 A 
ATOM     16  C   UNL     1      31.571  34.919  17.041  1.00  0.00     0.062 A 
ATOM     17  C   UNL     1      32.528  35.549  16.236  1.00  0.00     0.158 A 
BRANCH  15  18
ATOM     18  O   UNL     1      34.125  37.342  15.897  1.00  0.00    -0.504 OA
ATOM     19  H   UNL     1      34.543  38.225  16.168  1.00  0.00     0.293 HD
ENDBRANCH  15  18
BRANCH  17  20
ATOM     20  O   UNL     1      32.823  35.007  14.985  1.00  0.00    -0.504 OA
ATOM     21  H   UNL     1      32.608  34.045  14.751  1.00  0.00     0.293 HD
ENDBRANCH  17  20
ENDBRANCH   1  12
BRANCH   2  22
ATOM     22  O   UNL     1      31.680  32.927  19.697  1.00  0.00    -0.502 OA
ATOM     23  H   UNL     1      32.345  33.152  18.967  1.00  0.00     0.293 HD
ENDBRANCH   2  22
BRANCH   6  24
ATOM     24  O   UNL     1      27.159  32.161  22.406  1.00  0.00    -0.507 OA
ATOM     25  H   UNL     1      26.481  31.941  23.120  1.00  0.00     0.293 HD
ENDBRANCH   6  24
BRANCH   8  26
ATOM     26  O   UNL     1      24.603  35.920  20.916  1.00  0.00    -0.508 OA
ATOM     27  H   UNL     1      24.449  36.656  21.595  1.00  0.00     0.293 HD
ENDBRANCH   8  26
TORSDOF 6
ENDMDL
MODEL 8
REMARK VINA RESULT:    -4.854      3.308      5.480
REMARK INTER + INTRA:          -6.167
REMARK INTER:                  -5.861
REMARK INTRA:                  -0.306
REMARK UNBOUND:                -0.320
REMARK SMILES O=c1c(O)c(-c2ccc(O)c(O)c2)oc2cc(O)cc(O)c12
REMARK SMILES IDX 5 1 3 2 2 3 1 4 22 5 20 6 19 7 17 8 16 9 15 10 14 11 6 12
REMARK SMILES IDX 7 13 8 14 9 15 13 16 11 17 10 18 12 20 4 22 21 24 18 26
REMARK H PARENT 10 19 12 21 4 23 21 25 18 27
REMARK Flexibility Score: inf
ROOT
ATOM      1  C   UNL     1      28.979  32.308  21.059  1.00  0.00     0.180 A 
ATOM      2  C   UNL     1      29.332  33.304  20.133  1.00  0.00     0.208 A 
ATOM      3  C   UNL     1      28.445  34.369  19.908  1.00  0.00     0.238 A 
ATOM      4  O   UNL     1      28.799  35.296  19.134  1.00  0.00    -0.285 OA
ATOM      5  C   UNL     1      27.192  34.396  20.568  1.00  0.00     0.111 A 
ATOM      6  C   UNL     1      26.197  35.403  20.384  1.00  0.00     0.134 A 
ATOM      7  C   UNL     1      25.039  35.384  21.172  1.00  0.00     0.093 A 
ATOM      8  C   UNL     1      24.811  34.362  22.091  1.00  0.00     0.123 A 
ATOM      9  C   UNL     1      25.751  33.342  22.242  1.00  0.00     0.094 A 
ATOM     10  C   UNL     1      26.934  33.354  21.498  1.00  0.00     0.146 A 
ATOM     11  O   UNL     1      27.812  32.377  21.688  1.00  0.00    -0.452 OA
ENDROOT
BRANCH   1  12
ATOM     12  C   UNL     1      29.867  31.162  21.360  1.00  0.00     0.025 A 
ATOM     13  C   UNL     1      30.725  31.227  22.470  1.00  0.00     0.016 A 
ATOM     14  C   UNL     1      31.587  30.167  22.761  1.00  0.00     0.051 A 
ATOM     15  C   UNL     1      31.616  29.033  21.938  1.00  0.00     0.157 A 
ATOM     16  C   UNL     1      29.914  30.032  20.525  1.00  0.00     0.062 A 
ATOM     17  C   UNL     1      30.778  28.969  20.813  1.00  0.00     0.158 A 
BRANCH  15  18
ATOM     18  O   UNL     1      32.475  27.976  22.232  1.00  0.00    -0.504 OA
ATOM     19  H   UNL     1      32.608  27.205  21.589  1.00  0.00     0.293 HD
ENDBRANCH  15  18
BRANCH  17  20
ATOM     20  O   UNL     1      30.794  27.861  19.966  1.00  0.00    -0.504 OA
ATOM     21  H   UNL     1      30.949  26.922  20.311  1.00  0.00     0.293 HD
ENDBRANCH  17  20
ENDBRANCH   1  12
BRANCH   2  22
ATOM     22  O   UNL     1      30.538  33.220  19.432  1.00  0.00    -0.502 OA
ATOM     23  H   UNL     1      31.071  32.361  19.369  1.00  0.00     0.293 HD
ENDBRANCH   2  22
BRANCH   6  24
ATOM     24  O   UNL     1      26.281  36.422  19.429  1.00  0.00    -0.507 OA
ATOM     25  H   UNL     1      25.735  37.270  19.439  1.00  0.00     0.293 HD
ENDBRANCH   6  24
BRANCH   8  26
ATOM     26  O   UNL     1      23.640  34.364  22.846  1.00  0.00    -0.508 OA
ATOM     27  H   UNL     1      22.867  34.981  22.624  1.00  0.00     0.293 HD
ENDBRANCH   8  26
TORSDOF 6
ENDMDL
MODEL 9
REMARK VINA RESULT:    -4.828      2.626      4.258
REMARK INTER + INTRA:          -6.136
REMARK INTER:                  -5.821
REMARK INTRA:                  -0.315
REMARK UNBOUND:                -0.320
REMARK SMILES O=c1c(O)c(-c2ccc(O)c(O)c2)oc2cc(O)cc(O)c12
REMARK SMILES IDX 5 1 3 2 2 3 1 4 22 5 20 6 19 7 17 8 16 9 15 10 14 11 6 12
REMARK SMILES IDX 7 13 8 14 9 15 13 16 11 17 10 18 12 20 4 22 21 24 18 26
REMARK H PARENT 10 19 12 21 4 23 21 25 18 27
REMARK Flexibility Score: inf
ROOT
ATOM      1  C   UNL     1      29.346  33.084  19.172  1.00  0.00     0.180 A 
ATOM      2  C   UNL     1      29.587  32.149  20.192  1.00  0.00     0.208 A 
ATOM      3  C   UNL     1      28.733  32.122  21.306  1.00  0.00     0.238 A 
ATOM      4  O   UNL     1      28.909  31.234  22.180  1.00  0.00    -0.285 OA
ATOM      5  C   UNL     1      27.683  33.066  21.413  1.00  0.00     0.111 A 
ATOM      6  C   UNL     1      26.783  33.160  22.518  1.00  0.00     0.134 A 
ATOM      7  C   UNL     1      25.716  34.065  22.465  1.00  0.00     0.093 A 
ATOM      8  C   UNL     1      25.552  34.923  21.379  1.00  0.00     0.123 A 
ATOM      9  C   UNL     1      26.456  34.878  20.318  1.00  0.00     0.094 A 
ATOM     10  C   UNL     1      27.509  33.960  20.324  1.00  0.00     0.146 A 
ATOM     11  O   UNL     1      28.334  33.936  19.284  1.00  0.00    -0.452 OA
ENDROOT
BRANCH   1  12
ATOM     12  C   UNL     1      30.195  33.164  17.960  1.00  0.00     0.025 A 
ATOM     13  C   UNL     1      31.171  34.169  17.867  1.00  0.00     0.016 A 
ATOM     14  C   UNL     1      31.968  34.277  16.725  1.00  0.00     0.051 A 
ATOM     15  C   UNL     1      31.791  33.393  15.652  1.00  0.00     0.157 A 
ATOM     16  C   UNL     1      30.005  32.292  16.874  1.00  0.00     0.062 A 
ATOM     17  C   UNL     1      30.800  32.399  15.727  1.00  0.00     0.158 A 
BRANCH  15  18
ATOM     18  O   UNL     1      32.588  33.501  14.515  1.00  0.00    -0.504 OA
ATOM     19  H   UNL     1      32.814  34.402  14.109  1.00  0.00     0.293 HD
ENDBRANCH  15  18
BRANCH  17  20
ATOM     20  O   UNL     1      30.589  31.513  14.671  1.00  0.00    -0.504 OA
ATOM     21  H   UNL     1      30.990  31.663  13.754  1.00  0.00     0.293 HD
ENDBRANCH  17  20
ENDBRANCH   1  12
BRANCH   2  22
ATOM     22  O   UNL     1      30.675  31.277  20.106  1.00  0.00    -0.502 OA
ATOM     23  H   UNL     1      31.247  31.201  19.274  1.00  0.00     0.293 HD
ENDBRANCH   2  22
BRANCH   6  24
ATOM     24  O   UNL     1      26.906  32.413  23.694  1.00  0.00    -0.507 OA
ATOM     25  H   UNL     1      26.589  31.463  23.811  1.00  0.00     0.293 HD
ENDBRANCH   6  24
BRANCH   8  26
ATOM     26  O   UNL     1      24.488  35.823  21.368  1.00  0.00    -0.508 OA
ATOM     27  H   UNL     1      23.946  36.014  22.202  1.00  0.00     0.293 HD
ENDBRANCH   8  26
TORSDOF 6
ENDMDL
