MODEL 1
REMARK VINA RESULT:    -3.470      0.000      0.000
REMARK INTER + INTRA:          -4.961
REMARK INTER:                  -5.092
REMARK INTRA:                   0.132
REMARK UNBOUND:                 0.132
REMARK SMILES O=C([O-])CCCCCCCC(=O)[O-]
REMARK SMILES IDX 7 1 6 2 5 3 4 4 2 5 1 6 3 7 8 8 9 9 10 10 11 11 12 12 13 13
REMARK H PARENT
REMARK Flexibility Score: inf
ROOT
ATOM      1  C   UNL     1     -20.388  -0.511   6.408  1.00  0.00     0.000 C 
ENDROOT
BRANCH   1   2
ATOM      2  C   UNL     1     -21.418   0.581   6.083  1.00  0.00     0.000 C 
BRANCH   2   3
ATOM      3  C   UNL     1     -21.398   1.734   7.098  1.00  0.00     0.006 C 
BRANCH   3   4
ATOM      4  C   UNL     1     -21.384   1.244   8.552  1.00  0.00     0.053 C 
BRANCH   4   5
ATOM      5  C   UNL     1     -22.268   2.102   9.402  1.00  0.00     0.041 C 
ATOM      6  O   UNL     1     -22.654   1.694  10.528  1.00  0.00    -0.550 OA
ATOM      7  O   UNL     1     -22.625   3.372   8.970  1.00  0.00    -0.550 OA
ENDBRANCH   4   5
ENDBRANCH   3   4
ENDBRANCH   2   3
ENDBRANCH   1   2
BRANCH   1   8
ATOM      8  C   UNL     1     -21.080  -1.802   6.869  1.00  0.00     0.000 C 
BRANCH   8   9
ATOM      9  C   UNL     1     -20.521  -2.346   8.196  1.00  0.00     0.006 C 
BRANCH   9  10
ATOM     10  C   UNL     1     -20.917  -1.515   9.429  1.00  0.00     0.053 C 
BRANCH  10  11
ATOM     11  C   UNL     1     -20.185  -1.931  10.668  1.00  0.00     0.041 C 
ATOM     12  O   UNL     1     -18.975  -2.277  10.607  1.00  0.00    -0.550 OA
ATOM     13  O   UNL     1     -20.848  -1.967  11.889  1.00  0.00    -0.550 OA
ENDBRANCH  10  11
ENDBRANCH   9  10
ENDBRANCH   8   9
ENDBRANCH   1   8
TORSDOF 8
ENDMDL
MODEL 2
REMARK VINA RESULT:    -3.464      1.168      1.907
REMARK INTER + INTRA:          -4.953
REMARK INTER:                  -5.163
REMARK INTRA:                   0.211
REMARK UNBOUND:                 0.132
REMARK SMILES O=C([O-])CCCCCCCC(=O)[O-]
REMARK SMILES IDX 7 1 6 2 5 3 4 4 2 5 1 6 3 7 8 8 9 9 10 10 11 11 12 12 13 13
REMARK H PARENT
REMARK Flexibility Score: inf
ROOT
ATOM      1  C   UNL     1     -21.585   0.738   6.244  1.00  0.00     0.000 C 
ENDROOT
BRANCH   1   2
ATOM      2  C   UNL     1     -21.008   1.926   7.030  1.00  0.00     0.000 C 
BRANCH   2   3
ATOM      3  C   UNL     1     -21.823   2.252   8.291  1.00  0.00     0.006 C 
BRANCH   3   4
ATOM      4  C   UNL     1     -21.683   1.181   9.381  1.00  0.00     0.053 C 
BRANCH   4   5
ATOM      5  C   UNL     1     -22.488   1.554  10.586  1.00  0.00     0.041 C 
ATOM      6  O   UNL     1     -23.707   1.845  10.468  1.00  0.00    -0.550 OA
ATOM      7  O   UNL     1     -21.904   1.533  11.846  1.00  0.00    -0.550 OA
ENDBRANCH   4   5
ENDBRANCH   3   4
ENDBRANCH   2   3
ENDBRANCH   1   2
BRANCH   1   8
ATOM      8  C   UNL     1     -20.553  -0.392   6.120  1.00  0.00     0.000 C 
BRANCH   8   9
ATOM      9  C   UNL     1     -20.936  -1.650   6.919  1.00  0.00     0.006 C 
BRANCH   9  10
ATOM     10  C   UNL     1     -21.046  -1.418   8.437  1.00  0.00     0.053 C 
BRANCH  10  11
ATOM     11  C   UNL     1     -20.294  -2.438   9.236  1.00  0.00     0.041 C 
ATOM     12  O   UNL     1     -19.983  -2.206  10.434  1.00  0.00    -0.550 OA
ATOM     13  O   UNL     1     -19.907  -3.636   8.647  1.00  0.00    -0.550 OA
ENDBRANCH  10  11
ENDBRANCH   9  10
ENDBRANCH   8   9
ENDBRANCH   1   8
TORSDOF 8
ENDMDL
MODEL 3
REMARK VINA RESULT:    -3.418      2.156      4.599
REMARK INTER + INTRA:          -4.885
REMARK INTER:                  -4.597
REMARK INTRA:                  -0.287
REMARK UNBOUND:                 0.132
REMARK SMILES O=C([O-])CCCCCCCC(=O)[O-]
REMARK SMILES IDX 7 1 6 2 5 3 4 4 2 5 1 6 3 7 8 8 9 9 10 10 11 11 12 12 13 13
REMARK H PARENT
REMARK Flexibility Score: inf
ROOT
ATOM      1  C   UNL     1     -20.255  -2.457   9.145  1.00  0.00     0.000 C 
ENDROOT
BRANCH   1   2
ATOM      2  C   UNL     1     -19.953  -2.242  10.637  1.00  0.00     0.000 C 
BRANCH   2   3
ATOM      3  C   UNL     1     -20.986  -1.337  11.325  1.00  0.00     0.006 C 
BRANCH   3   4
ATOM      4  C   UNL     1     -21.194  -1.692  12.803  1.00  0.00     0.053 C 
BRANCH   4   5
ATOM      5  C   UNL     1     -21.455  -0.457  13.606  1.00  0.00     0.041 C 
ATOM      6  O   UNL     1     -21.264  -0.458  14.850  1.00  0.00    -0.550 OA
ATOM      7  O   UNL     1     -21.862   0.710  12.973  1.00  0.00    -0.550 OA
ENDBRANCH   4   5
ENDBRANCH   3   4
ENDBRANCH   2   3
ENDBRANCH   1   2
BRANCH   1   8
ATOM      8  C   UNL     1     -20.999  -1.250   8.555  1.00  0.00     0.000 C 
BRANCH   8   9
ATOM      9  C   UNL     1     -21.083  -1.286   7.019  1.00  0.00     0.006 C 
BRANCH   9  10
ATOM     10  C   UNL     1     -21.624   0.012   6.392  1.00  0.00     0.053 C 
BRANCH  10  11
ATOM     11  C   UNL     1     -21.062   1.244   7.033  1.00  0.00     0.041 C 
ATOM     12  O   UNL     1     -19.886   1.614   6.777  1.00  0.00    -0.550 OA
ATOM     13  O   UNL     1     -21.827   1.968   7.939  1.00  0.00    -0.550 OA
ENDBRANCH  10  11
ENDBRANCH   9  10
ENDBRANCH   8   9
ENDBRANCH   1   8
TORSDOF 8
ENDMDL
MODEL 4
REMARK VINA RESULT:    -3.392      1.329      1.879
REMARK INTER + INTRA:          -4.847
REMARK INTER:                  -4.544
REMARK INTRA:                  -0.303
REMARK UNBOUND:                 0.132
REMARK SMILES O=C([O-])CCCCCCCC(=O)[O-]
REMARK SMILES IDX 7 1 6 2 5 3 4 4 2 5 1 6 3 7 8 8 9 9 10 10 11 11 12 12 13 13
REMARK H PARENT
REMARK Flexibility Score: inf
ROOT
ATOM      1  C   UNL     1     -20.982  -1.416   7.278  1.00  0.00     0.000 C 
ENDROOT
BRANCH   1   2
ATOM      2  C   UNL     1     -21.016  -0.127   6.442  1.00  0.00     0.000 C 
BRANCH   2   3
ATOM      3  C   UNL     1     -20.620   1.115   7.254  1.00  0.00     0.006 C 
BRANCH   3   4
ATOM      4  C   UNL     1     -21.637   2.258   7.124  1.00  0.00     0.053 C 
BRANCH   4   5
ATOM      5  C   UNL     1     -22.075   2.724   8.476  1.00  0.00     0.041 C 
ATOM      6  O   UNL     1     -22.446   3.914   8.646  1.00  0.00    -0.550 OA
ATOM      7  O   UNL     1     -22.120   1.830   9.538  1.00  0.00    -0.550 OA
ENDBRANCH   4   5
ENDBRANCH   3   4
ENDBRANCH   2   3
ENDBRANCH   1   2
BRANCH   1   8
ATOM      8  C   UNL     1     -21.013  -1.100   8.780  1.00  0.00     0.000 C 
BRANCH   8   9
ATOM      9  C   UNL     1     -20.589  -2.291   9.657  1.00  0.00     0.006 C 
BRANCH   9  10
ATOM     10  C   UNL     1     -20.017  -1.886  11.027  1.00  0.00     0.053 C 
BRANCH  10  11
ATOM     11  C   UNL     1     -21.047  -1.913  12.116  1.00  0.00     0.041 C 
ATOM     12  O   UNL     1     -21.793  -2.917  12.263  1.00  0.00    -0.550 OA
ATOM     13  O   UNL     1     -21.204  -0.814  12.951  1.00  0.00    -0.550 OA
ENDBRANCH  10  11
ENDBRANCH   9  10
ENDBRANCH   8   9
ENDBRANCH   1   8
TORSDOF 8
ENDMDL
MODEL 5
REMARK VINA RESULT:    -3.375      2.567      4.154
REMARK INTER + INTRA:          -4.822
REMARK INTER:                  -4.640
REMARK INTRA:                  -0.182
REMARK UNBOUND:                 0.132
REMARK SMILES O=C([O-])CCCCCCCC(=O)[O-]
REMARK SMILES IDX 7 1 6 2 5 3 4 4 2 5 1 6 3 7 8 8 9 9 10 10 11 11 12 12 13 13
REMARK H PARENT
REMARK Flexibility Score: inf
ROOT
ATOM      1  C   UNL     1     -22.247   2.226   9.218  1.00  0.00     0.000 C 
ENDROOT
BRANCH   1   2
ATOM      2  C   UNL     1     -21.407   1.084   8.626  1.00  0.00     0.000 C 
BRANCH   2   3
ATOM      3  C   UNL     1     -21.018   1.333   7.160  1.00  0.00     0.006 C 
BRANCH   3   4
ATOM      4  C   UNL     1     -20.389   0.101   6.496  1.00  0.00     0.053 C 
BRANCH   4   5
ATOM      5  C   UNL     1     -21.087  -1.145   6.941  1.00  0.00     0.041 C 
ATOM      6  O   UNL     1     -22.139  -1.523   6.364  1.00  0.00    -0.550 OA
ATOM      7  O   UNL     1     -20.547  -1.916   7.963  1.00  0.00    -0.550 OA
ENDBRANCH   4   5
ENDBRANCH   3   4
ENDBRANCH   2   3
ENDBRANCH   1   2
BRANCH   1   8
ATOM      8  C   UNL     1     -22.742   1.872  10.627  1.00  0.00     0.000 C 
BRANCH   8   9
ATOM      9  C   UNL     1     -21.831   0.865  11.352  1.00  0.00     0.006 C 
BRANCH   9  10
ATOM     10  C   UNL     1     -21.828   1.014  12.884  1.00  0.00     0.053 C 
BRANCH  10  11
ATOM     11  C   UNL     1     -21.425  -0.246  13.588  1.00  0.00     0.041 C 
ATOM     12  O   UNL     1     -21.173  -0.233  14.822  1.00  0.00    -0.550 OA
ATOM     13  O   UNL     1     -21.298  -1.431  12.874  1.00  0.00    -0.550 OA
ENDBRANCH  10  11
ENDBRANCH   9  10
ENDBRANCH   8   9
ENDBRANCH   1   8
TORSDOF 8
ENDMDL
MODEL 6
REMARK VINA RESULT:    -3.350      2.179      3.469
REMARK INTER + INTRA:          -4.785
REMARK INTER:                  -4.477
REMARK INTRA:                  -0.308
REMARK UNBOUND:                 0.132
REMARK SMILES O=C([O-])CCCCCCCC(=O)[O-]
REMARK SMILES IDX 7 1 6 2 5 3 4 4 2 5 1 6 3 7 8 8 9 9 10 10 11 11 12 12 13 13
REMARK H PARENT
REMARK Flexibility Score: inf
ROOT
ATOM      1  C   UNL     1     -20.265  -2.464   9.113  1.00  0.00     0.000 C 
ENDROOT
BRANCH   1   2
ATOM      2  C   UNL     1     -21.012  -1.266   8.506  1.00  0.00     0.000 C 
BRANCH   2   3
ATOM      3  C   UNL     1     -21.042  -1.303   6.971  1.00  0.00     0.006 C 
BRANCH   3   4
ATOM      4  C   UNL     1     -21.649  -0.034   6.358  1.00  0.00     0.053 C 
BRANCH   4   5
ATOM      5  C   UNL     1     -21.037   1.186   6.972  1.00  0.00     0.041 C 
ATOM      6  O   UNL     1     -19.851   1.504   6.700  1.00  0.00    -0.550 OA
ATOM      7  O   UNL     1     -21.794   1.998   7.805  1.00  0.00    -0.550 OA
ENDBRANCH   4   5
ENDBRANCH   3   4
ENDBRANCH   2   3
ENDBRANCH   1   2
BRANCH   1   8
ATOM      8  C   UNL     1     -20.010  -2.251  10.612  1.00  0.00     0.000 C 
BRANCH   8   9
ATOM      9  C   UNL     1     -20.982  -1.246  11.253  1.00  0.00     0.006 C 
BRANCH   9  10
ATOM     10  C   UNL     1     -21.310  -1.546  12.727  1.00  0.00     0.053 C 
BRANCH  10  11
ATOM     11  C   UNL     1     -21.370  -0.309  13.571  1.00  0.00     0.041 C 
ATOM     12  O   UNL     1     -20.981  -0.336  14.768  1.00  0.00    -0.550 OA
ATOM     13  O   UNL     1     -21.885   0.869  13.044  1.00  0.00    -0.550 OA
ENDBRANCH  10  11
ENDBRANCH   9  10
ENDBRANCH   8   9
ENDBRANCH   1   8
TORSDOF 8
ENDMDL
MODEL 7
REMARK VINA RESULT:    -3.298      2.577      4.565
REMARK INTER + INTRA:          -4.708
REMARK INTER:                  -4.384
REMARK INTRA:                  -0.324
REMARK UNBOUND:                 0.132
REMARK SMILES O=C([O-])CCCCCCCC(=O)[O-]
REMARK SMILES IDX 7 1 6 2 5 3 4 4 2 5 1 6 3 7 8 8 9 9 10 10 11 11 12 12 13 13
REMARK H PARENT
REMARK Flexibility Score: inf
ROOT
ATOM      1  C   UNL     1     -22.404   2.215   9.214  1.00  0.00     0.000 C 
ENDROOT
BRANCH   1   2
ATOM      2  C   UNL     1     -22.832   1.866  10.648  1.00  0.00     0.000 C 
BRANCH   2   3
ATOM      3  C   UNL     1     -21.820   0.957  11.363  1.00  0.00     0.006 C 
BRANCH   3   4
ATOM      4  C   UNL     1     -21.879   1.090  12.891  1.00  0.00     0.053 C 
BRANCH   4   5
ATOM      5  C   UNL     1     -21.452  -0.186  13.544  1.00  0.00     0.041 C 
ATOM      6  O   UNL     1     -21.343  -0.252  14.796  1.00  0.00    -0.550 OA
ATOM      7  O   UNL     1     -21.222  -1.318  12.772  1.00  0.00    -0.550 OA
ENDBRANCH   4   5
ENDBRANCH   3   4
ENDBRANCH   2   3
ENDBRANCH   1   2
BRANCH   1   8
ATOM      8  C   UNL     1     -21.466   1.141   8.643  1.00  0.00     0.000 C 
BRANCH   8   9
ATOM      9  C   UNL     1     -21.116   1.371   7.162  1.00  0.00     0.006 C 
BRANCH   9  10
ATOM     10  C   UNL     1     -20.452   0.161   6.481  1.00  0.00     0.053 C 
BRANCH  10  11
ATOM     11  C   UNL     1     -21.143  -1.132   6.793  1.00  0.00     0.041 C 
ATOM     12  O   UNL     1     -22.287  -1.372   6.324  1.00  0.00    -0.550 OA
ATOM     13  O   UNL     1     -20.536  -2.061   7.630  1.00  0.00    -0.550 OA
ENDBRANCH  10  11
ENDBRANCH   9  10
ENDBRANCH   8   9
ENDBRANCH   1   8
TORSDOF 8
ENDMDL
MODEL 8
REMARK VINA RESULT:    -3.281      1.366      4.691
REMARK INTER + INTRA:          -4.683
REMARK INTER:                  -4.346
REMARK INTRA:                  -0.337
REMARK UNBOUND:                 0.132
REMARK SMILES O=C([O-])CCCCCCCC(=O)[O-]
REMARK SMILES IDX 7 1 6 2 5 3 4 4 2 5 1 6 3 7 8 8 9 9 10 10 11 11 12 12 13 13
REMARK H PARENT
REMARK Flexibility Score: inf
ROOT
ATOM      1  C   UNL     1     -21.003  -1.444   7.332  1.00  0.00     0.000 C 
ENDROOT
BRANCH   1   2
ATOM      2  C   UNL     1     -21.010  -1.085   8.826  1.00  0.00     0.000 C 
BRANCH   2   3
ATOM      3  C   UNL     1     -20.668  -2.284   9.724  1.00  0.00     0.006 C 
BRANCH   3   4
ATOM      4  C   UNL     1     -20.028  -1.865  11.054  1.00  0.00     0.053 C 
BRANCH   4   5
ATOM      5  C   UNL     1     -21.063  -1.797  12.133  1.00  0.00     0.041 C 
ATOM      6  O   UNL     1     -21.297  -0.708  12.718  1.00  0.00    -0.550 OA
ATOM      7  O   UNL     1     -21.804  -2.927  12.457  1.00  0.00    -0.550 OA
ENDBRANCH   4   5
ENDBRANCH   3   4
ENDBRANCH   2   3
ENDBRANCH   1   2
BRANCH   1   8
ATOM      8  C   UNL     1     -21.033  -0.179   6.462  1.00  0.00     0.000 C 
BRANCH   8   9
ATOM      9  C   UNL     1     -20.609   1.089   7.226  1.00  0.00     0.006 C 
BRANCH   9  10
ATOM     10  C   UNL     1     -21.630   2.238   7.146  1.00  0.00     0.053 C 
BRANCH  10  11
ATOM     11  C   UNL     1     -22.067   2.720   8.496  1.00  0.00     0.041 C 
ATOM     12  O   UNL     1     -22.103   1.928   9.474  1.00  0.00    -0.550 OA
ATOM     13  O   UNL     1     -22.466   4.040   8.667  1.00  0.00    -0.550 OA
ENDBRANCH  10  11
ENDBRANCH   9  10
ENDBRANCH   8   9
ENDBRANCH   1   8
TORSDOF 8
ENDMDL
MODEL 9
REMARK VINA RESULT:    -3.179      1.940      4.114
REMARK INTER + INTRA:          -4.534
REMARK INTER:                  -4.187
REMARK INTRA:                  -0.346
REMARK UNBOUND:                 0.132
REMARK SMILES O=C([O-])CCCCCCCC(=O)[O-]
REMARK SMILES IDX 7 1 6 2 5 3 4 4 2 5 1 6 3 7 8 8 9 9 10 10 11 11 12 12 13 13
REMARK H PARENT
REMARK Flexibility Score: inf
ROOT
ATOM      1  C   UNL     1     -21.147   1.894   7.621  1.00  0.00     0.000 C 
ENDROOT
BRANCH   1   2
ATOM      2  C   UNL     1     -21.420   0.883   6.497  1.00  0.00     0.000 C 
BRANCH   2   3
ATOM      3  C   UNL     1     -20.460  -0.315   6.532  1.00  0.00     0.006 C 
BRANCH   3   4
ATOM      4  C   UNL     1     -21.165  -1.630   6.893  1.00  0.00     0.053 C 
BRANCH   4   5
ATOM      5  C   UNL     1     -20.621  -2.179   8.174  1.00  0.00     0.041 C 
ATOM      6  O   UNL     1     -20.639  -1.481   9.221  1.00  0.00    -0.550 OA
ATOM      7  O   UNL     1     -20.140  -3.481   8.222  1.00  0.00    -0.550 OA
ENDBRANCH   4   5
ENDBRANCH   3   4
ENDBRANCH   2   3
ENDBRANCH   1   2
BRANCH   1   8
ATOM      8  C   UNL     1     -22.269   1.868   8.669  1.00  0.00     0.000 C 
BRANCH   8   9
ATOM      9  C   UNL     1     -21.753   2.023  10.111  1.00  0.00     0.006 C 
BRANCH   9  10
ATOM     10  C   UNL     1     -21.967   0.778  10.989  1.00  0.00     0.053 C 
BRANCH  10  11
ATOM     11  C   UNL     1     -21.730   1.047  12.444  1.00  0.00     0.041 C 
ATOM     12  O   UNL     1     -21.344   2.183  12.827  1.00  0.00    -0.550 OA
ATOM     13  O   UNL     1     -21.905   0.032  13.377  1.00  0.00    -0.550 OA
ENDBRANCH  10  11
ENDBRANCH   9  10
ENDBRANCH   8   9
ENDBRANCH   1   8
TORSDOF 8
ENDMDL
