MODEL 1
REMARK VINA RESULT:    -6.437      0.000      0.000
REMARK INTER + INTRA:          -8.790
REMARK INTER:                  -8.130
REMARK INTRA:                  -0.660
REMARK UNBOUND:                -0.660
REMARK SMILES O=C(C=Cc1ccc(O)cc1)c1ccc(O)cc1O
REMARK SMILES IDX 4 1 3 2 5 3 6 4 7 5 8 6 11 7 10 8 9 9 2 11 1 12 12 13 18 14
REMARK SMILES IDX 13 15 17 16 14 17 15 18 19 19 16 21
REMARK H PARENT 9 10 19 20 16 22
REMARK Flexibility Score: inf
ROOT
ATOM      1  C   UNL     1      -1.365 -21.741  -6.845  1.00  0.00     0.012 C 
ATOM      2  C   UNL     1      -2.662 -21.731  -7.182  1.00  0.00     0.053 C 
ENDROOT
BRANCH   1   3
ATOM      3  C   UNL     1      -0.793 -22.601  -5.779  1.00  0.00    -0.025 A 
ATOM      4  C   UNL     1       0.554 -22.512  -5.371  1.00  0.00     0.012 A 
ATOM      5  C   UNL     1       1.046 -23.352  -4.367  1.00  0.00     0.047 A 
ATOM      6  C   UNL     1       0.210 -24.296  -3.765  1.00  0.00     0.115 A 
ATOM      7  C   UNL     1      -1.621 -23.563  -5.176  1.00  0.00     0.012 A 
ATOM      8  C   UNL     1      -1.126 -24.401  -4.174  1.00  0.00     0.047 A 
BRANCH   6   9
ATOM      9  O   UNL     1       0.715 -25.125  -2.765  1.00  0.00    -0.508 OA
ATOM     10  H   UNL     1       0.223 -25.963  -2.474  1.00  0.00     0.293 HD
ENDBRANCH   6   9
ENDBRANCH   1   3
BRANCH   2  11
ATOM     11  C   UNL     1      -3.206 -20.863  -8.248  1.00  0.00     0.189 C 
ATOM     12  O   UNL     1      -4.419 -20.991  -8.561  1.00  0.00    -0.289 OA
BRANCH  11  13
ATOM     13  C   UNL     1      -2.391 -19.850  -8.957  1.00  0.00     0.064 A 
ATOM     14  C   UNL     1      -1.826 -20.113 -10.222  1.00  0.00     0.130 A 
ATOM     15  C   UNL     1      -2.214 -18.583  -8.375  1.00  0.00     0.020 A 
ATOM     16  C   UNL     1      -1.058 -19.129 -10.863  1.00  0.00     0.093 A 
ATOM     17  C   UNL     1      -1.452 -17.608  -9.022  1.00  0.00     0.047 A 
ATOM     18  C   UNL     1      -0.869 -17.879 -10.266  1.00  0.00     0.119 A 
BRANCH  14  19
ATOM     19  O   UNL     1      -2.040 -21.342 -10.849  1.00  0.00    -0.507 OA
ATOM     20  H   UNL     1      -1.276 -21.976 -11.049  1.00  0.00     0.293 HD
ENDBRANCH  14  19
BRANCH  18  21
ATOM     21  O   UNL     1      -0.105 -16.914 -10.918  1.00  0.00    -0.508 OA
ATOM     22  H   UNL     1       0.158 -17.017 -11.892  1.00  0.00     0.293 HD
ENDBRANCH  18  21
ENDBRANCH  11  13
ENDBRANCH   2  11
TORSDOF 6
ENDMDL
MODEL 2
REMARK VINA RESULT:    -6.424      1.604      2.807
REMARK INTER + INTRA:          -8.775
REMARK INTER:                  -8.147
REMARK INTRA:                  -0.627
REMARK UNBOUND:                -0.660
REMARK SMILES O=C(C=Cc1ccc(O)cc1)c1ccc(O)cc1O
REMARK SMILES IDX 4 1 3 2 5 3 6 4 7 5 8 6 11 7 10 8 9 9 2 11 1 12 12 13 18 14
REMARK SMILES IDX 13 15 17 16 14 17 15 18 19 19 16 21
REMARK H PARENT 9 10 19 20 16 22
REMARK Flexibility Score: inf
ROOT
ATOM      1  C   UNL     1      -1.098 -21.479  -6.931  1.00  0.00     0.012 C 
ATOM      2  C   UNL     1      -0.454 -20.706  -7.817  1.00  0.00     0.053 C 
ENDROOT
BRANCH   1   3
ATOM      3  C   UNL     1      -0.418 -22.397  -5.984  1.00  0.00    -0.025 A 
ATOM      4  C   UNL     1       0.809 -22.079  -5.366  1.00  0.00     0.012 A 
ATOM      5  C   UNL     1       1.414 -22.984  -4.488  1.00  0.00     0.047 A 
ATOM      6  C   UNL     1       0.812 -24.217  -4.220  1.00  0.00     0.115 A 
ATOM      7  C   UNL     1      -1.006 -23.645  -5.719  1.00  0.00     0.012 A 
ATOM      8  C   UNL     1      -0.399 -24.546  -4.841  1.00  0.00     0.047 A 
BRANCH   6   9
ATOM      9  O   UNL     1       1.427 -25.107  -3.342  1.00  0.00    -0.508 OA
ATOM     10  H   UNL     1       2.393 -25.389  -3.464  1.00  0.00     0.293 HD
ENDBRANCH   6   9
ENDBRANCH   1   3
BRANCH   2  11
ATOM     11  C   UNL     1      -1.157 -19.801  -8.750  1.00  0.00     0.189 C 
ATOM     12  O   UNL     1      -0.477 -19.201  -9.625  1.00  0.00    -0.289 OA
BRANCH  11  13
ATOM     13  C   UNL     1      -2.620 -19.573  -8.706  1.00  0.00     0.064 A 
ATOM     14  C   UNL     1      -3.490 -20.195  -9.626  1.00  0.00     0.130 A 
ATOM     15  C   UNL     1      -3.156 -18.754  -7.698  1.00  0.00     0.020 A 
ATOM     16  C   UNL     1      -4.870 -19.954  -9.554  1.00  0.00     0.093 A 
ATOM     17  C   UNL     1      -4.532 -18.523  -7.631  1.00  0.00     0.047 A 
ATOM     18  C   UNL     1      -5.392 -19.120  -8.562  1.00  0.00     0.119 A 
BRANCH  14  19
ATOM     19  O   UNL     1      -2.987 -21.062 -10.597  1.00  0.00    -0.507 OA
ATOM     20  H   UNL     1      -2.007 -21.317 -10.625  1.00  0.00     0.293 HD
ENDBRANCH  14  19
BRANCH  18  21
ATOM     21  O   UNL     1      -6.766 -18.894  -8.505  1.00  0.00    -0.508 OA
ATOM     22  H   UNL     1      -7.362 -19.416  -7.874  1.00  0.00     0.293 HD
ENDBRANCH  18  21
ENDBRANCH  11  13
ENDBRANCH   2  11
TORSDOF 6
ENDMDL
MODEL 3
REMARK VINA RESULT:    -6.322      3.936      6.799
REMARK INTER + INTRA:          -8.646
REMARK INTER:                  -8.002
REMARK INTRA:                  -0.643
REMARK UNBOUND:                -0.660
REMARK SMILES O=C(C=Cc1ccc(O)cc1)c1ccc(O)cc1O
REMARK SMILES IDX 4 1 3 2 5 3 6 4 7 5 8 6 11 7 10 8 9 9 2 11 1 12 12 13 18 14
REMARK SMILES IDX 13 15 17 16 14 17 15 18 19 19 16 21
REMARK H PARENT 9 10 19 20 16 22
REMARK Flexibility Score: inf
ROOT
ATOM      1  C   UNL     1      -2.814 -19.521  -9.879  1.00  0.00     0.012 C 
ATOM      2  C   UNL     1      -3.295 -20.772  -9.906  1.00  0.00     0.053 C 
ENDROOT
BRANCH   1   3
ATOM      3  C   UNL     1      -1.396 -19.172 -10.147  1.00  0.00    -0.025 A 
ATOM      4  C   UNL     1      -0.357 -20.124 -10.093  1.00  0.00     0.012 A 
ATOM      5  C   UNL     1       0.965 -19.742 -10.345  1.00  0.00     0.047 A 
ATOM      6  C   UNL     1       1.270 -18.411 -10.643  1.00  0.00     0.115 A 
ATOM      7  C   UNL     1      -1.076 -17.834 -10.433  1.00  0.00     0.012 A 
ATOM      8  C   UNL     1       0.246 -17.457 -10.685  1.00  0.00     0.047 A 
BRANCH   6   9
ATOM      9  O   UNL     1       2.592 -18.047 -10.893  1.00  0.00    -0.508 OA
ATOM     10  H   UNL     1       3.344 -18.725 -10.851  1.00  0.00     0.293 HD
ENDBRANCH   6   9
ENDBRANCH   1   3
BRANCH   2  11
ATOM     11  C   UNL     1      -4.712 -21.091  -9.634  1.00  0.00     0.189 C 
ATOM     12  O   UNL     1      -5.524 -21.068 -10.598  1.00  0.00    -0.289 OA
BRANCH  11  13
ATOM     13  C   UNL     1      -5.218 -21.439  -8.286  1.00  0.00     0.064 A 
ATOM     14  C   UNL     1      -6.090 -20.584  -7.583  1.00  0.00     0.130 A 
ATOM     15  C   UNL     1      -4.852 -22.670  -7.715  1.00  0.00     0.020 A 
ATOM     16  C   UNL     1      -6.546 -20.947  -6.307  1.00  0.00     0.093 A 
ATOM     17  C   UNL     1      -5.314 -23.026  -6.446  1.00  0.00     0.047 A 
ATOM     18  C   UNL     1      -6.160 -22.163  -5.737  1.00  0.00     0.119 A 
BRANCH  14  19
ATOM     19  O   UNL     1      -6.517 -19.384  -8.156  1.00  0.00    -0.507 OA
ATOM     20  H   UNL     1      -6.298 -19.148  -9.116  1.00  0.00     0.293 HD
ENDBRANCH  14  19
BRANCH  18  21
ATOM     21  O   UNL     1      -6.625 -22.507  -4.469  1.00  0.00    -0.508 OA
ATOM     22  H   UNL     1      -7.006 -23.427  -4.277  1.00  0.00     0.293 HD
ENDBRANCH  18  21
ENDBRANCH  11  13
ENDBRANCH   2  11
TORSDOF 6
ENDMDL
MODEL 4
REMARK VINA RESULT:    -6.307      2.140      3.495
REMARK INTER + INTRA:          -8.626
REMARK INTER:                  -7.919
REMARK INTRA:                  -0.707
REMARK UNBOUND:                -0.660
REMARK SMILES O=C(C=Cc1ccc(O)cc1)c1ccc(O)cc1O
REMARK SMILES IDX 4 1 3 2 5 3 6 4 7 5 8 6 11 7 10 8 9 9 2 11 1 12 12 13 18 14
REMARK SMILES IDX 13 15 17 16 14 17 15 18 19 19 16 21
REMARK H PARENT 9 10 19 20 16 22
REMARK Flexibility Score: inf
ROOT
ATOM      1  C   UNL     1      -1.474 -21.450  -6.256  1.00  0.00     0.012 C 
ATOM      2  C   UNL     1      -1.075 -20.348  -6.907  1.00  0.00     0.053 C 
ENDROOT
BRANCH   1   3
ATOM      3  C   UNL     1      -0.545 -22.436  -5.649  1.00  0.00    -0.025 A 
ATOM      4  C   UNL     1      -0.919 -23.769  -5.384  1.00  0.00     0.012 A 
ATOM      5  C   UNL     1      -0.007 -24.656  -4.803  1.00  0.00     0.047 A 
ATOM      6  C   UNL     1       1.280 -24.228  -4.470  1.00  0.00     0.115 A 
ATOM      7  C   UNL     1       0.748 -22.012  -5.298  1.00  0.00     0.012 A 
ATOM      8  C   UNL     1       1.655 -22.902  -4.718  1.00  0.00     0.047 A 
BRANCH   6   9
ATOM      9  O   UNL     1       2.177 -25.125  -3.893  1.00  0.00    -0.508 OA
ATOM     10  H   UNL     1       1.894 -26.064  -3.637  1.00  0.00     0.293 HD
ENDBRANCH   6   9
ENDBRANCH   1   3
BRANCH   2  11
ATOM     11  C   UNL     1      -2.022 -19.383  -7.502  1.00  0.00     0.189 C 
ATOM     12  O   UNL     1      -1.837 -18.155  -7.287  1.00  0.00    -0.289 OA
BRANCH  11  13
ATOM     13  C   UNL     1      -3.171 -19.793  -8.343  1.00  0.00     0.064 A 
ATOM     14  C   UNL     1      -4.473 -19.310  -8.097  1.00  0.00     0.130 A 
ATOM     15  C   UNL     1      -2.950 -20.648  -9.435  1.00  0.00     0.020 A 
ATOM     16  C   UNL     1      -5.537 -19.722  -8.913  1.00  0.00     0.093 A 
ATOM     17  C   UNL     1      -4.014 -21.051 -10.245  1.00  0.00     0.047 A 
ATOM     18  C   UNL     1      -5.311 -20.591  -9.984  1.00  0.00     0.119 A 
BRANCH  14  19
ATOM     19  O   UNL     1      -4.706 -18.410  -7.056  1.00  0.00    -0.507 OA
ATOM     20  H   UNL     1      -4.905 -17.432  -7.233  1.00  0.00     0.293 HD
ENDBRANCH  14  19
BRANCH  18  21
ATOM     21  O   UNL     1      -6.380 -20.988 -10.785  1.00  0.00    -0.508 OA
ATOM     22  H   UNL     1      -6.870 -20.329 -11.378  1.00  0.00     0.293 HD
ENDBRANCH  18  21
ENDBRANCH  11  13
ENDBRANCH   2  11
TORSDOF 6
ENDMDL
MODEL 5
REMARK VINA RESULT:    -6.154      4.168      5.093
REMARK INTER + INTRA:          -8.433
REMARK INTER:                  -7.858
REMARK INTRA:                  -0.576
REMARK UNBOUND:                -0.660
REMARK SMILES O=C(C=Cc1ccc(O)cc1)c1ccc(O)cc1O
REMARK SMILES IDX 4 1 3 2 5 3 6 4 7 5 8 6 11 7 10 8 9 9 2 11 1 12 12 13 18 14
REMARK SMILES IDX 13 15 17 16 14 17 15 18 19 19 16 21
REMARK H PARENT 9 10 19 20 16 22
REMARK Flexibility Score: inf
ROOT
ATOM      1  C   UNL     1       0.228 -19.783  -4.927  1.00  0.00     0.012 C 
ATOM      2  C   UNL     1      -0.865 -20.028  -5.664  1.00  0.00     0.053 C 
ENDROOT
BRANCH   1   3
ATOM      3  C   UNL     1       0.286 -18.769  -3.845  1.00  0.00    -0.025 A 
ATOM      4  C   UNL     1      -0.071 -19.058  -2.512  1.00  0.00     0.012 A 
ATOM      5  C   UNL     1      -0.006 -18.063  -1.531  1.00  0.00     0.047 A 
ATOM      6  C   UNL     1       0.404 -16.769  -1.864  1.00  0.00     0.115 A 
ATOM      7  C   UNL     1       0.683 -17.461  -4.172  1.00  0.00     0.012 A 
ATOM      8  C   UNL     1       0.746 -16.470  -3.189  1.00  0.00     0.047 A 
BRANCH   6   9
ATOM      9  O   UNL     1       0.463 -15.789  -0.876  1.00  0.00    -0.508 OA
ATOM     10  H   UNL     1      -0.360 -15.265  -0.600  1.00  0.00     0.293 HD
ENDBRANCH   6   9
ENDBRANCH   1   3
BRANCH   2  11
ATOM     11  C   UNL     1      -0.895 -21.045  -6.737  1.00  0.00     0.189 C 
ATOM     12  O   UNL     1      -0.034 -21.965  -6.711  1.00  0.00    -0.289 OA
BRANCH  11  13
ATOM     13  C   UNL     1      -1.891 -21.032  -7.833  1.00  0.00     0.064 A 
ATOM     14  C   UNL     1      -1.511 -20.799  -9.171  1.00  0.00     0.130 A 
ATOM     15  C   UNL     1      -3.238 -21.301  -7.538  1.00  0.00     0.020 A 
ATOM     16  C   UNL     1      -2.483 -20.792 -10.182  1.00  0.00     0.093 A 
ATOM     17  C   UNL     1      -4.199 -21.298  -8.551  1.00  0.00     0.047 A 
ATOM     18  C   UNL     1      -3.824 -21.039  -9.876  1.00  0.00     0.119 A 
BRANCH  14  19
ATOM     19  O   UNL     1      -0.170 -20.591  -9.497  1.00  0.00    -0.507 OA
ATOM     20  H   UNL     1       0.559 -20.625  -8.795  1.00  0.00     0.293 HD
ENDBRANCH  14  19
BRANCH  18  21
ATOM     21  O   UNL     1      -4.775 -21.031 -10.894  1.00  0.00    -0.508 OA
ATOM     22  H   UNL     1      -5.208 -20.169 -11.207  1.00  0.00     0.293 HD
ENDBRANCH  18  21
ENDBRANCH  11  13
ENDBRANCH   2  11
TORSDOF 6
ENDMDL
MODEL 6
REMARK VINA RESULT:    -6.091     12.573     14.382
REMARK INTER + INTRA:          -8.354
REMARK INTER:                  -7.623
REMARK INTRA:                  -0.731
REMARK UNBOUND:                -0.660
REMARK SMILES O=C(C=Cc1ccc(O)cc1)c1ccc(O)cc1O
REMARK SMILES IDX 4 1 3 2 5 3 6 4 7 5 8 6 11 7 10 8 9 9 2 11 1 12 12 13 18 14
REMARK SMILES IDX 13 15 17 16 14 17 15 18 19 19 16 21
REMARK H PARENT 9 10 19 20 16 22
REMARK Flexibility Score: inf
ROOT
ATOM      1  C   UNL     1      10.514 -14.071  -7.267  1.00  0.00     0.012 C 
ATOM      2  C   UNL     1       9.944 -13.109  -6.527  1.00  0.00     0.053 C 
ENDROOT
BRANCH   1   3
ATOM      3  C   UNL     1      10.034 -15.475  -7.311  1.00  0.00    -0.025 A 
ATOM      4  C   UNL     1      10.425 -16.380  -8.320  1.00  0.00     0.012 A 
ATOM      5  C   UNL     1       9.936 -17.690  -8.321  1.00  0.00     0.047 A 
ATOM      6  C   UNL     1       9.049 -18.114  -7.328  1.00  0.00     0.115 A 
ATOM      7  C   UNL     1       9.131 -15.907  -6.325  1.00  0.00     0.012 A 
ATOM      8  C   UNL     1       8.646 -17.217  -6.330  1.00  0.00     0.047 A 
BRANCH   6   9
ATOM      9  O   UNL     1       8.573 -19.423  -7.343  1.00  0.00    -0.508 OA
ATOM     10  H   UNL     1       7.652 -19.647  -7.703  1.00  0.00     0.293 HD
ENDBRANCH   6   9
ENDBRANCH   1   3
BRANCH   2  11
ATOM     11  C   UNL     1      10.443 -11.718  -6.501  1.00  0.00     0.189 C 
ATOM     12  O   UNL     1      10.949 -11.286  -5.430  1.00  0.00    -0.289 OA
BRANCH  11  13
ATOM     13  C   UNL     1      10.381 -10.815  -7.674  1.00  0.00     0.064 A 
ATOM     14  C   UNL     1      11.549 -10.265  -8.241  1.00  0.00     0.130 A 
ATOM     15  C   UNL     1       9.135 -10.536  -8.258  1.00  0.00     0.020 A 
ATOM     16  C   UNL     1      11.451  -9.412  -9.351  1.00  0.00     0.093 A 
ATOM     17  C   UNL     1       9.046  -9.690  -9.366  1.00  0.00     0.047 A 
ATOM     18  C   UNL     1      10.204  -9.122  -9.913  1.00  0.00     0.119 A 
BRANCH  14  19
ATOM     19  O   UNL     1      12.804 -10.577  -7.716  1.00  0.00    -0.507 OA
ATOM     20  H   UNL     1      13.134 -11.533  -7.664  1.00  0.00     0.293 HD
ENDBRANCH  14  19
BRANCH  18  21
ATOM     21  O   UNL     1      10.127  -8.274 -11.016  1.00  0.00    -0.508 OA
ATOM     22  H   UNL     1       9.586  -7.418 -10.987  1.00  0.00     0.293 HD
ENDBRANCH  18  21
ENDBRANCH  11  13
ENDBRANCH   2  11
TORSDOF 6
ENDMDL
MODEL 7
REMARK VINA RESULT:    -6.042     14.255     15.482
REMARK INTER + INTRA:          -8.292
REMARK INTER:                  -7.668
REMARK INTRA:                  -0.625
REMARK UNBOUND:                -0.660
REMARK SMILES O=C(C=Cc1ccc(O)cc1)c1ccc(O)cc1O
REMARK SMILES IDX 4 1 3 2 5 3 6 4 7 5 8 6 11 7 10 8 9 9 2 11 1 12 12 13 18 14
REMARK SMILES IDX 13 15 17 16 14 17 15 18 19 19 16 21
REMARK H PARENT 9 10 19 20 16 22
REMARK Flexibility Score: inf
ROOT
ATOM      1  C   UNL     1      10.147 -11.548  -7.930  1.00  0.00     0.012 C 
ATOM      2  C   UNL     1       9.990 -10.468  -8.707  1.00  0.00     0.053 C 
ENDROOT
BRANCH   1   3
ATOM      3  C   UNL     1       9.672 -11.635  -6.526  1.00  0.00    -0.025 A 
ATOM      4  C   UNL     1       9.846 -12.788  -5.734  1.00  0.00     0.012 A 
ATOM      5  C   UNL     1       9.372 -12.821  -4.419  1.00  0.00     0.047 A 
ATOM      6  C   UNL     1       8.712 -11.714  -3.879  1.00  0.00     0.115 A 
ATOM      7  C   UNL     1       8.994 -10.532  -5.978  1.00  0.00     0.012 A 
ATOM      8  C   UNL     1       8.522 -10.569  -4.663  1.00  0.00     0.047 A 
BRANCH   6   9
ATOM      9  O   UNL     1       8.246 -11.762  -2.567  1.00  0.00    -0.508 OA
ATOM     10  H   UNL     1       8.855 -11.563  -1.782  1.00  0.00     0.293 HD
ENDBRANCH   6   9
ENDBRANCH   1   3
BRANCH   2  11
ATOM     11  C   UNL     1      10.474 -10.409 -10.103  1.00  0.00     0.189 C 
ATOM     12  O   UNL     1      10.334  -9.329 -10.737  1.00  0.00    -0.289 OA
BRANCH  11  13
ATOM     13  C   UNL     1      11.119 -11.555 -10.783  1.00  0.00     0.064 A 
ATOM     14  C   UNL     1      10.435 -12.316 -11.753  1.00  0.00     0.130 A 
ATOM     15  C   UNL     1      12.457 -11.864 -10.484  1.00  0.00     0.020 A 
ATOM     16  C   UNL     1      11.079 -13.397 -12.374  1.00  0.00     0.093 A 
ATOM     17  C   UNL     1      13.092 -12.939 -11.111  1.00  0.00     0.047 A 
ATOM     18  C   UNL     1      12.403 -13.711 -12.055  1.00  0.00     0.119 A 
BRANCH  14  19
ATOM     19  O   UNL     1       9.126 -11.990 -12.111  1.00  0.00    -0.507 OA
ATOM     20  H   UNL     1       8.925 -11.416 -12.921  1.00  0.00     0.293 HD
ENDBRANCH  14  19
BRANCH  18  21
ATOM     21  O   UNL     1      13.026 -14.787 -12.684  1.00  0.00    -0.508 OA
ATOM     22  H   UNL     1      12.509 -15.620 -12.941  1.00  0.00     0.293 HD
ENDBRANCH  18  21
ENDBRANCH  11  13
ENDBRANCH   2  11
TORSDOF 6
ENDMDL
MODEL 8
REMARK VINA RESULT:    -6.040      1.768      7.214
REMARK INTER + INTRA:          -8.289
REMARK INTER:                  -7.557
REMARK INTRA:                  -0.733
REMARK UNBOUND:                -0.660
REMARK SMILES O=C(C=Cc1ccc(O)cc1)c1ccc(O)cc1O
REMARK SMILES IDX 4 1 3 2 5 3 6 4 7 5 8 6 11 7 10 8 9 9 2 11 1 12 12 13 18 14
REMARK SMILES IDX 13 15 17 16 14 17 15 18 19 19 16 21
REMARK H PARENT 9 10 19 20 16 22
REMARK Flexibility Score: inf
ROOT
ATOM      1  C   UNL     1      -2.291 -20.689  -7.146  1.00  0.00     0.012 C 
ATOM      2  C   UNL     1      -3.112 -21.747  -7.202  1.00  0.00     0.053 C 
ENDROOT
BRANCH   1   3
ATOM      3  C   UNL     1      -1.883 -19.893  -8.330  1.00  0.00    -0.025 A 
ATOM      4  C   UNL     1      -1.896 -18.483  -8.339  1.00  0.00     0.012 A 
ATOM      5  C   UNL     1      -1.511 -17.780  -9.485  1.00  0.00     0.047 A 
ATOM      6  C   UNL     1      -1.118 -18.468 -10.636  1.00  0.00     0.115 A 
ATOM      7  C   UNL     1      -1.500 -20.575  -9.498  1.00  0.00     0.012 A 
ATOM      8  C   UNL     1      -1.116 -19.868 -10.640  1.00  0.00     0.047 A 
BRANCH   6   9
ATOM      9  O   UNL     1      -0.736 -17.753 -11.769  1.00  0.00    -0.508 OA
ATOM     10  H   UNL     1       0.139 -17.943 -12.245  1.00  0.00     0.293 HD
ENDBRANCH   6   9
ENDBRANCH   1   3
BRANCH   2  11
ATOM     11  C   UNL     1      -3.501 -22.524  -6.006  1.00  0.00     0.189 C 
ATOM     12  O   UNL     1      -4.727 -22.739  -5.808  1.00  0.00    -0.289 OA
BRANCH  11  13
ATOM     13  C   UNL     1      -2.518 -23.062  -5.038  1.00  0.00     0.064 A 
ATOM     14  C   UNL     1      -2.642 -22.826  -3.653  1.00  0.00     0.130 A 
ATOM     15  C   UNL     1      -1.461 -23.861  -5.507  1.00  0.00     0.020 A 
ATOM     16  C   UNL     1      -1.690 -23.350  -2.767  1.00  0.00     0.093 A 
ATOM     17  C   UNL     1      -0.520 -24.383  -4.618  1.00  0.00     0.047 A 
ATOM     18  C   UNL     1      -0.630 -24.126  -3.245  1.00  0.00     0.119 A 
BRANCH  14  19
ATOM     19  O   UNL     1      -3.718 -22.087  -3.158  1.00  0.00    -0.507 OA
ATOM     20  H   UNL     1      -3.581 -21.205  -2.680  1.00  0.00     0.293 HD
ENDBRANCH  14  19
BRANCH  18  21
ATOM     21  O   UNL     1       0.306 -24.639  -2.349  1.00  0.00    -0.508 OA
ATOM     22  H   UNL     1       0.961 -25.362  -2.625  1.00  0.00     0.293 HD
ENDBRANCH  18  21
ENDBRANCH  11  13
ENDBRANCH   2  11
TORSDOF 6
ENDMDL
MODEL 9
REMARK VINA RESULT:    -5.995      3.212      3.612
REMARK INTER + INTRA:          -8.232
REMARK INTER:                  -7.614
REMARK INTRA:                  -0.618
REMARK UNBOUND:                -0.660
REMARK SMILES O=C(C=Cc1ccc(O)cc1)c1ccc(O)cc1O
REMARK SMILES IDX 4 1 3 2 5 3 6 4 7 5 8 6 11 7 10 8 9 9 2 11 1 12 12 13 18 14
REMARK SMILES IDX 13 15 17 16 14 17 15 18 19 19 16 21
REMARK H PARENT 9 10 19 20 16 22
REMARK Flexibility Score: inf
ROOT
ATOM      1  C   UNL     1      -2.738 -23.140  -5.731  1.00  0.00     0.012 C 
ATOM      2  C   UNL     1      -3.215 -21.943  -6.099  1.00  0.00     0.053 C 
ENDROOT
BRANCH   1   3
ATOM      3  C   UNL     1      -1.327 -23.385  -5.337  1.00  0.00    -0.025 A 
ATOM      4  C   UNL     1      -0.342 -22.376  -5.375  1.00  0.00     0.012 A 
ATOM      5  C   UNL     1       0.975 -22.661  -5.001  1.00  0.00     0.047 A 
ATOM      6  C   UNL     1       1.330 -23.950  -4.595  1.00  0.00     0.115 A 
ATOM      7  C   UNL     1      -0.956 -24.681  -4.940  1.00  0.00     0.012 A 
ATOM      8  C   UNL     1       0.361 -24.961  -4.568  1.00  0.00     0.047 A 
BRANCH   6   9
ATOM      9  O   UNL     1       2.647 -24.217  -4.225  1.00  0.00    -0.508 OA
ATOM     10  H   UNL     1       2.994 -23.986  -3.301  1.00  0.00     0.293 HD
ENDBRANCH   6   9
ENDBRANCH   1   3
BRANCH   2  11
ATOM     11  C   UNL     1      -4.624 -21.728  -6.488  1.00  0.00     0.189 C 
ATOM     12  O   UNL     1      -5.527 -22.134  -5.708  1.00  0.00    -0.289 OA
BRANCH  11  13
ATOM     13  C   UNL     1      -5.021 -21.054  -7.746  1.00  0.00     0.064 A 
ATOM     14  C   UNL     1      -5.655 -19.794  -7.738  1.00  0.00     0.130 A 
ATOM     15  C   UNL     1      -4.720 -21.664  -8.975  1.00  0.00     0.020 A 
ATOM     16  C   UNL     1      -6.018 -19.187  -8.949  1.00  0.00     0.093 A 
ATOM     17  C   UNL     1      -5.081 -21.051 -10.177  1.00  0.00     0.047 A 
ATOM     18  C   UNL     1      -5.734 -19.812 -10.167  1.00  0.00     0.119 A 
BRANCH  14  19
ATOM     19  O   UNL     1      -5.908 -19.139  -6.531  1.00  0.00    -0.507 OA
ATOM     20  H   UNL     1      -6.558 -19.512  -5.851  1.00  0.00     0.293 HD
ENDBRANCH  14  19
BRANCH  18  21
ATOM     21  O   UNL     1      -6.101 -19.193 -11.360  1.00  0.00    -0.508 OA
ATOM     22  H   UNL     1      -6.309 -19.731 -12.193  1.00  0.00     0.293 HD
ENDBRANCH  18  21
ENDBRANCH  11  13
ENDBRANCH   2  11
TORSDOF 6
ENDMDL
