MODEL 1
REMARK VINA RESULT:    -4.653      0.000      0.000
REMARK INTER + INTRA:          -5.803
REMARK INTER:                  -5.605
REMARK INTRA:                  -0.198
REMARK UNBOUND:                -0.198
REMARK SMILES [NH3+][C@@H](Cc1cnc[nH]1)C(=O)[O-]
REMARK SMILES IDX 3 1 2 2 1 3 9 7 10 8 11 9 4 10 5 11 8 12 6 13 7 14
REMARK H PARENT 1 4 1 5 1 6 8 15
REMARK Flexibility Score: inf
ROOT
ATOM      1  C   UNL     1      -1.961  31.057  26.107  1.00  0.00     0.127 C 
ENDROOT
BRANCH   1   2
ATOM      2  C   UNL     1      -1.942  32.458  26.749  1.00  0.00     0.233 C 
BRANCH   2   3
ATOM      3  N   UNL     1      -0.697  32.662  27.499  1.00  0.00    -0.350 N 
ATOM      4  H   UNL     1      -0.900  32.860  28.506  1.00  0.00     0.345 HD
ATOM      5  H   UNL     1      -0.163  33.463  27.092  1.00  0.00     0.345 HD
ATOM      6  H   UNL     1      -0.099  31.805  27.433  1.00  0.00     0.345 HD
ENDBRANCH   2   3
BRANCH   2   7
ATOM      7  C   UNL     1      -3.129  32.651  27.656  1.00  0.00     0.099 C 
ATOM      8  O   UNL     1      -3.653  33.789  27.780  1.00  0.00    -0.544 OA
ATOM      9  O   UNL     1      -3.664  31.572  28.350  1.00  0.00    -0.544 OA
ENDBRANCH   2   7
ENDBRANCH   1   2
BRANCH   1  10
ATOM     10  C   UNL     1      -2.903  30.997  24.939  1.00  0.00     0.041 A 
ATOM     11  C   UNL     1      -3.039  31.944  23.948  1.00  0.00     0.134 A 
ATOM     12  N   UNL     1      -3.818  30.036  24.744  1.00  0.00    -0.348 N 
ATOM     13  N   UNL     1      -4.033  31.570  23.118  1.00  0.00    -0.245 NA
ATOM     14  C   UNL     1      -4.481  30.405  23.633  1.00  0.00     0.196 A 
ATOM     15  H   UNL     1      -3.989  29.189  25.332  1.00  0.00     0.167 HD
ENDBRANCH   1  10
TORSDOF 4
ENDMDL
MODEL 2
REMARK VINA RESULT:    -4.612      7.001      7.590
REMARK INTER + INTRA:          -5.754
REMARK INTER:                  -5.604
REMARK INTRA:                  -0.150
REMARK UNBOUND:                -0.198
REMARK SMILES [NH3+][C@@H](Cc1cnc[nH]1)C(=O)[O-]
REMARK SMILES IDX 3 1 2 2 1 3 9 7 10 8 11 9 4 10 5 11 8 12 6 13 7 14
REMARK H PARENT 1 4 1 5 1 6 8 15
REMARK Flexibility Score: inf
ROOT
ATOM      1  C   UNL     1      -4.884  25.759  23.903  1.00  0.00     0.127 C 
ENDROOT
BRANCH   1   2
ATOM      2  C   UNL     1      -5.719  24.864  24.840  1.00  0.00     0.233 C 
BRANCH   2   3
ATOM      3  N   UNL     1      -6.972  25.533  25.208  1.00  0.00    -0.350 N 
ATOM      4  H   UNL     1      -7.332  25.169  26.120  1.00  0.00     0.345 HD
ATOM      5  H   UNL     1      -7.691  25.373  24.466  1.00  0.00     0.345 HD
ATOM      6  H   UNL     1      -6.812  26.564  25.291  1.00  0.00     0.345 HD
ENDBRANCH   2   3
BRANCH   2   7
ATOM      7  C   UNL     1      -4.939  24.508  26.079  1.00  0.00     0.099 C 
ATOM      8  O   UNL     1      -4.145  25.343  26.588  1.00  0.00    -0.544 OA
ATOM      9  O   UNL     1      -5.102  23.265  26.678  1.00  0.00    -0.544 OA
ENDBRANCH   2   7
ENDBRANCH   1   2
BRANCH   1  10
ATOM     10  C   UNL     1      -5.386  25.700  22.490  1.00  0.00     0.041 A 
ATOM     11  C   UNL     1      -5.858  26.757  21.744  1.00  0.00     0.134 A 
ATOM     12  N   UNL     1      -5.527  24.573  21.775  1.00  0.00    -0.348 N 
ATOM     13  N   UNL     1      -6.283  26.298  20.550  1.00  0.00    -0.245 NA
ATOM     14  C   UNL     1      -6.065  24.966  20.606  1.00  0.00     0.196 A 
ATOM     15  H   UNL     1      -5.285  23.599  22.065  1.00  0.00     0.167 HD
ENDBRANCH   1  10
TORSDOF 4
ENDMDL
MODEL 3
REMARK VINA RESULT:    -4.510      6.235      7.529
REMARK INTER + INTRA:          -5.631
REMARK INTER:                  -5.493
REMARK INTRA:                  -0.138
REMARK UNBOUND:                -0.198
REMARK SMILES [NH3+][C@@H](Cc1cnc[nH]1)C(=O)[O-]
REMARK SMILES IDX 3 1 2 2 1 3 9 7 10 8 11 9 4 10 5 11 8 12 6 13 7 14
REMARK H PARENT 1 4 1 5 1 6 8 15
REMARK Flexibility Score: inf
ROOT
ATOM      1  C   UNL     1      -5.888  25.487  24.886  1.00  0.00     0.127 C 
ENDROOT
BRANCH   1   2
ATOM      2  C   UNL     1      -6.409  26.878  25.299  1.00  0.00     0.233 C 
BRANCH   2   3
ATOM      3  N   UNL     1      -7.815  26.797  25.712  1.00  0.00    -0.350 N 
ATOM      4  H   UNL     1      -7.910  26.971  26.739  1.00  0.00     0.345 HD
ATOM      5  H   UNL     1      -8.198  25.850  25.487  1.00  0.00     0.345 HD
ATOM      6  H   UNL     1      -8.379  27.509  25.191  1.00  0.00     0.345 HD
ENDBRANCH   2   3
BRANCH   2   7
ATOM      7  C   UNL     1      -6.258  27.865  24.171  1.00  0.00     0.099 C 
ATOM      8  O   UNL     1      -5.256  27.808  23.410  1.00  0.00    -0.544 OA
ATOM      9  O   UNL     1      -7.228  28.836  23.954  1.00  0.00    -0.544 OA
ENDBRANCH   2   7
ENDBRANCH   1   2
BRANCH   1  10
ATOM     10  C   UNL     1      -5.288  24.754  26.050  1.00  0.00     0.041 A 
ATOM     11  C   UNL     1      -4.105  25.058  26.688  1.00  0.00     0.134 A 
ATOM     12  N   UNL     1      -5.787  23.629  26.584  1.00  0.00    -0.348 N 
ATOM     13  N   UNL     1      -3.866  24.131  27.637  1.00  0.00    -0.245 NA
ATOM     14  C   UNL     1      -4.911  23.279  27.544  1.00  0.00     0.196 A 
ATOM     15  H   UNL     1      -6.659  23.124  26.309  1.00  0.00     0.167 HD
ENDBRANCH   1  10
TORSDOF 4
ENDMDL
MODEL 4
REMARK VINA RESULT:    -4.498      2.639      3.631
REMARK INTER + INTRA:          -5.616
REMARK INTER:                  -5.465
REMARK INTRA:                  -0.152
REMARK UNBOUND:                -0.198
REMARK SMILES [NH3+][C@@H](Cc1cnc[nH]1)C(=O)[O-]
REMARK SMILES IDX 3 1 2 2 1 3 9 7 10 8 11 9 4 10 5 11 8 12 6 13 7 14
REMARK H PARENT 1 4 1 5 1 6 8 15
REMARK Flexibility Score: inf
ROOT
ATOM      1  C   UNL     1      -3.110  32.829  27.904  1.00  0.00     0.127 C 
ENDROOT
BRANCH   1   2
ATOM      2  C   UNL     1      -1.920  31.937  27.498  1.00  0.00     0.233 C 
BRANCH   2   3
ATOM      3  N   UNL     1      -0.664  32.692  27.570  1.00  0.00    -0.350 N 
ATOM      4  H   UNL     1       0.158  32.054  27.463  1.00  0.00     0.345 HD
ATOM      5  H   UNL     1      -0.599  33.187  28.489  1.00  0.00     0.345 HD
ATOM      6  H   UNL     1      -0.639  33.411  26.810  1.00  0.00     0.345 HD
ENDBRANCH   2   3
BRANCH   2   7
ATOM      7  C   UNL     1      -2.112  31.383  26.110  1.00  0.00     0.099 C 
ATOM      8  O   UNL     1      -2.562  32.118  25.192  1.00  0.00    -0.544 OA
ATOM      9  O   UNL     1      -1.780  30.063  25.829  1.00  0.00    -0.544 OA
ENDBRANCH   2   7
ENDBRANCH   1   2
BRANCH   1  10
ATOM     10  C   UNL     1      -4.381  32.039  28.015  1.00  0.00     0.041 A 
ATOM     11  C   UNL     1      -4.843  31.385  29.136  1.00  0.00     0.134 A 
ATOM     12  N   UNL     1      -5.214  31.785  26.995  1.00  0.00    -0.348 N 
ATOM     13  N   UNL     1      -5.979  30.730  28.825  1.00  0.00    -0.245 NA
ATOM     14  C   UNL     1      -6.174  30.997  27.515  1.00  0.00     0.196 A 
ATOM     15  H   UNL     1      -5.134  32.116  26.007  1.00  0.00     0.167 HD
ENDBRANCH   1  10
TORSDOF 4
ENDMDL
MODEL 5
REMARK VINA RESULT:    -4.467      2.663      4.543
REMARK INTER + INTRA:          -5.578
REMARK INTER:                  -5.417
REMARK INTRA:                  -0.161
REMARK UNBOUND:                -0.198
REMARK SMILES [NH3+][C@@H](Cc1cnc[nH]1)C(=O)[O-]
REMARK SMILES IDX 3 1 2 2 1 3 9 7 10 8 11 9 4 10 5 11 8 12 6 13 7 14
REMARK H PARENT 1 4 1 5 1 6 8 15
REMARK Flexibility Score: inf
ROOT
ATOM      1  C   UNL     1      -2.510  30.966  24.962  1.00  0.00     0.127 C 
ENDROOT
BRANCH   1   2
ATOM      2  C   UNL     1      -3.970  30.628  24.600  1.00  0.00     0.233 C 
BRANCH   2   3
ATOM      3  N   UNL     1      -4.188  29.178  24.644  1.00  0.00    -0.350 N 
ATOM      4  H   UNL     1      -4.494  28.879  25.599  1.00  0.00     0.345 HD
ATOM      5  H   UNL     1      -3.304  28.677  24.394  1.00  0.00     0.345 HD
ATOM      6  H   UNL     1      -4.923  28.908  23.950  1.00  0.00     0.345 HD
ENDBRANCH   2   3
BRANCH   2   7
ATOM      7  C   UNL     1      -4.323  31.162  23.236  1.00  0.00     0.099 C 
ATOM      8  O   UNL     1      -5.237  30.619  22.561  1.00  0.00    -0.544 OA
ATOM      9  O   UNL     1      -3.654  32.265  22.719  1.00  0.00    -0.544 OA
ENDBRANCH   2   7
ENDBRANCH   1   2
BRANCH   1  10
ATOM     10  C   UNL     1      -2.413  31.637  26.300  1.00  0.00     0.041 A 
ATOM     11  C   UNL     1      -3.384  32.408  26.901  1.00  0.00     0.134 A 
ATOM     12  N   UNL     1      -1.316  31.649  27.072  1.00  0.00    -0.348 N 
ATOM     13  N   UNL     1      -2.902  32.895  28.062  1.00  0.00    -0.245 NA
ATOM     14  C   UNL     1      -1.642  32.411  28.132  1.00  0.00     0.196 A 
ATOM     15  H   UNL     1      -0.401  31.179  26.887  1.00  0.00     0.167 HD
ENDBRANCH   1  10
TORSDOF 4
ENDMDL
MODEL 6
REMARK VINA RESULT:    -4.411      2.009      2.874
REMARK INTER + INTRA:          -5.511
REMARK INTER:                  -5.355
REMARK INTRA:                  -0.156
REMARK UNBOUND:                -0.198
REMARK SMILES [NH3+][C@@H](Cc1cnc[nH]1)C(=O)[O-]
REMARK SMILES IDX 3 1 2 2 1 3 9 7 10 8 11 9 4 10 5 11 8 12 6 13 7 14
REMARK H PARENT 1 4 1 5 1 6 8 15
REMARK Flexibility Score: inf
ROOT
ATOM      1  C   UNL     1      -3.864  31.503  24.018  1.00  0.00     0.127 C 
ENDROOT
BRANCH   1   2
ATOM      2  C   UNL     1      -2.581  31.377  24.863  1.00  0.00     0.233 C 
BRANCH   2   3
ATOM      3  N   UNL     1      -2.281  29.967  25.134  1.00  0.00    -0.350 N 
ATOM      4  H   UNL     1      -1.248  29.810  25.179  1.00  0.00     0.345 HD
ATOM      5  H   UNL     1      -2.687  29.366  24.380  1.00  0.00     0.345 HD
ATOM      6  H   UNL     1      -2.710  29.681  26.045  1.00  0.00     0.345 HD
ENDBRANCH   2   3
BRANCH   2   7
ATOM      7  C   UNL     1      -2.714  32.135  26.158  1.00  0.00     0.099 C 
ATOM      8  O   UNL     1      -3.852  32.345  26.655  1.00  0.00    -0.544 OA
ATOM      9  O   UNL     1      -1.582  32.594  26.822  1.00  0.00    -0.544 OA
ENDBRANCH   2   7
ENDBRANCH   1   2
BRANCH   1  10
ATOM     10  C   UNL     1      -3.613  31.167  22.577  1.00  0.00     0.041 A 
ATOM     11  C   UNL     1      -4.327  30.276  21.808  1.00  0.00     0.134 A 
ATOM     12  N   UNL     1      -2.586  31.635  21.852  1.00  0.00    -0.348 N 
ATOM     13  N   UNL     1      -3.757  30.192  20.589  1.00  0.00    -0.245 NA
ATOM     14  C   UNL     1      -2.702  31.033  20.653  1.00  0.00     0.196 A 
ATOM     15  H   UNL     1      -1.847  32.309  22.152  1.00  0.00     0.167 HD
ENDBRANCH   1  10
TORSDOF 4
ENDMDL
MODEL 7
REMARK VINA RESULT:    -4.361      5.033      6.705
REMARK INTER + INTRA:          -5.451
REMARK INTER:                  -5.167
REMARK INTRA:                  -0.284
REMARK UNBOUND:                -0.198
REMARK SMILES [NH3+][C@@H](Cc1cnc[nH]1)C(=O)[O-]
REMARK SMILES IDX 3 1 2 2 1 3 9 7 10 8 11 9 4 10 5 11 8 12 6 13 7 14
REMARK H PARENT 1 4 1 5 1 6 8 15
REMARK Flexibility Score: inf
ROOT
ATOM      1  C   UNL     1      -4.683  26.093  26.040  1.00  0.00     0.127 C 
ENDROOT
BRANCH   1   2
ATOM      2  C   UNL     1      -5.767  25.969  24.951  1.00  0.00     0.233 C 
BRANCH   2   3
ATOM      3  N   UNL     1      -6.628  24.809  25.213  1.00  0.00    -0.350 N 
ATOM      4  H   UNL     1      -7.110  24.907  26.136  1.00  0.00     0.345 HD
ATOM      5  H   UNL     1      -6.054  23.934  25.216  1.00  0.00     0.345 HD
ATOM      6  H   UNL     1      -7.348  24.724  24.459  1.00  0.00     0.345 HD
ENDBRANCH   2   3
BRANCH   2   7
ATOM      7  C   UNL     1      -5.146  25.852  23.583  1.00  0.00     0.099 C 
ATOM      8  O   UNL     1      -4.877  24.718  23.105  1.00  0.00    -0.544 OA
ATOM      9  O   UNL     1      -4.878  26.992  22.835  1.00  0.00    -0.544 OA
ENDBRANCH   2   7
ENDBRANCH   1   2
BRANCH   1  10
ATOM     10  C   UNL     1      -4.315  27.526  26.293  1.00  0.00     0.041 A 
ATOM     11  C   UNL     1      -4.834  28.343  27.273  1.00  0.00     0.134 A 
ATOM     12  N   UNL     1      -3.478  28.246  25.531  1.00  0.00    -0.348 N 
ATOM     13  N   UNL     1      -4.310  29.578  27.138  1.00  0.00    -0.245 NA
ATOM     14  C   UNL     1      -3.490  29.479  26.069  1.00  0.00     0.196 A 
ATOM     15  H   UNL     1      -2.941  27.925  24.694  1.00  0.00     0.167 HD
ENDBRANCH   1  10
TORSDOF 4
ENDMDL
MODEL 8
REMARK VINA RESULT:    -4.358      5.965      6.987
REMARK INTER + INTRA:          -5.447
REMARK INTER:                  -5.288
REMARK INTRA:                  -0.159
REMARK UNBOUND:                -0.198
REMARK SMILES [NH3+][C@@H](Cc1cnc[nH]1)C(=O)[O-]
REMARK SMILES IDX 3 1 2 2 1 3 9 7 10 8 11 9 4 10 5 11 8 12 6 13 7 14
REMARK H PARENT 1 4 1 5 1 6 8 15
REMARK Flexibility Score: inf
ROOT
ATOM      1  C   UNL     1      -4.793  26.312  25.528  1.00  0.00     0.127 C 
ENDROOT
BRANCH   1   2
ATOM      2  C   UNL     1      -5.185  24.825  25.422  1.00  0.00     0.233 C 
BRANCH   2   3
ATOM      3  N   UNL     1      -6.639  24.687  25.283  1.00  0.00    -0.350 N 
ATOM      4  H   UNL     1      -6.881  24.214  24.381  1.00  0.00     0.345 HD
ATOM      5  H   UNL     1      -7.091  25.629  25.309  1.00  0.00     0.345 HD
ATOM      6  H   UNL     1      -7.019  24.121  26.077  1.00  0.00     0.345 HD
ENDBRANCH   2   3
BRANCH   2   7
ATOM      7  C   UNL     1      -4.706  24.055  26.625  1.00  0.00     0.099 C 
ATOM      8  O   UNL     1      -5.256  22.967  26.941  1.00  0.00    -0.544 OA
ATOM      9  O   UNL     1      -3.644  24.531  27.385  1.00  0.00    -0.544 OA
ENDBRANCH   2   7
ENDBRANCH   1   2
BRANCH   1  10
ATOM     10  C   UNL     1      -5.167  27.073  24.289  1.00  0.00     0.041 A 
ATOM     11  C   UNL     1      -6.041  28.134  24.213  1.00  0.00     0.134 A 
ATOM     12  N   UNL     1      -4.758  26.762  23.050  1.00  0.00    -0.348 N 
ATOM     13  N   UNL     1      -6.172  28.503  22.923  1.00  0.00    -0.245 NA
ATOM     14  C   UNL     1      -5.376  27.647  22.246  1.00  0.00     0.196 A 
ATOM     15  H   UNL     1      -4.110  25.994  22.765  1.00  0.00     0.167 HD
ENDBRANCH   1  10
TORSDOF 4
ENDMDL
MODEL 9
REMARK VINA RESULT:    -4.251      6.455      7.783
REMARK INTER + INTRA:          -5.318
REMARK INTER:                  -5.073
REMARK INTRA:                  -0.245
REMARK UNBOUND:                -0.198
REMARK SMILES [NH3+][C@@H](Cc1cnc[nH]1)C(=O)[O-]
REMARK SMILES IDX 3 1 2 2 1 3 9 7 10 8 11 9 4 10 5 11 8 12 6 13 7 14
REMARK H PARENT 1 4 1 5 1 6 8 15
REMARK Flexibility Score: inf
ROOT
ATOM      1  C   UNL     1      -5.748  26.469  25.104  1.00  0.00     0.127 C 
ENDROOT
BRANCH   1   2
ATOM      2  C   UNL     1      -4.777  26.668  23.924  1.00  0.00     0.233 C 
BRANCH   2   3
ATOM      3  N   UNL     1      -4.887  28.031  23.392  1.00  0.00    -0.350 N 
ATOM      4  H   UNL     1      -3.943  28.477  23.319  1.00  0.00     0.345 HD
ATOM      5  H   UNL     1      -5.493  28.609  24.018  1.00  0.00     0.345 HD
ATOM      6  H   UNL     1      -5.328  28.007  22.443  1.00  0.00     0.345 HD
ENDBRANCH   2   3
BRANCH   2   7
ATOM      7  C   UNL     1      -5.045  25.664  22.832  1.00  0.00     0.099 C 
ATOM      8  O   UNL     1      -4.624  24.483  22.941  1.00  0.00    -0.544 OA
ATOM      9  O   UNL     1      -5.772  26.031  21.706  1.00  0.00    -0.544 OA
ENDBRANCH   2   7
ENDBRANCH   1   2
BRANCH   1  10
ATOM     10  C   UNL     1      -5.245  25.432  26.065  1.00  0.00     0.041 A 
ATOM     11  C   UNL     1      -4.247  25.598  27.001  1.00  0.00     0.134 A 
ATOM     12  N   UNL     1      -5.646  24.152  26.087  1.00  0.00    -0.348 N 
ATOM     13  N   UNL     1      -4.030  24.423  27.625  1.00  0.00    -0.245 NA
ATOM     14  C   UNL     1      -4.900  23.568  27.043  1.00  0.00     0.196 A 
ATOM     15  H   UNL     1      -6.371  23.700  25.486  1.00  0.00     0.167 HD
ENDBRANCH   1  10
TORSDOF 4
ENDMDL
