MODEL 1
REMARK VINA RESULT:    -5.140      0.000      0.000
REMARK INTER + INTRA:          -7.519
REMARK INTER:                  -7.243
REMARK INTRA:                  -0.275
REMARK UNBOUND:                -0.275
REMARK SMILES CCCCCCCCC(=O)[O-]
REMARK SMILES IDX 6 1 7 2 8 3 9 4 10 5 11 6 5 7 4 8 3 9 2 10 1 11
REMARK H PARENT
REMARK Flexibility Score: inf
ROOT
ATOM      1  C   UNL     1       1.995   7.929  19.290  1.00  0.00     0.000 C 
ENDROOT
BRANCH   1   2
ATOM      2  C   UNL     1       2.289   6.641  18.506  1.00  0.00     0.006 C 
BRANCH   2   3
ATOM      3  C   UNL     1       2.369   5.403  19.410  1.00  0.00     0.053 C 
BRANCH   3   4
ATOM      4  C   UNL     1       2.796   4.207  18.619  1.00  0.00     0.041 C 
ATOM      5  O   UNL     1       3.290   3.206  19.202  1.00  0.00    -0.550 OA
ATOM      6  O   UNL     1       2.695   4.217  17.234  1.00  0.00    -0.550 OA
ENDBRANCH   3   4
ENDBRANCH   2   3
ENDBRANCH   1   2
BRANCH   1   7
ATOM      7  C   UNL     1       2.310   9.200  18.482  1.00  0.00     0.000 C 
BRANCH   7   8
ATOM      8  C   UNL     1       3.743   9.189  17.910  1.00  0.00    -0.000 C 
BRANCH   8   9
ATOM      9  C   UNL     1       3.797   9.000  16.382  1.00  0.00    -0.000 C 
BRANCH   9  10
ATOM     10  C   UNL     1       4.789   7.928  15.903  1.00  0.00    -0.003 C 
ATOM     11  C   UNL     1       5.223   8.129  14.451  1.00  0.00     0.004 C 
ENDBRANCH   9  10
ENDBRANCH   8   9
ENDBRANCH   7   8
ENDBRANCH   1   7
TORSDOF 7
ENDMDL
MODEL 2
REMARK VINA RESULT:    -5.077      1.974      3.541
REMARK INTER + INTRA:          -7.430
REMARK INTER:                  -7.160
REMARK INTRA:                  -0.270
REMARK UNBOUND:                -0.275
REMARK SMILES CCCCCCCCC(=O)[O-]
REMARK SMILES IDX 6 1 7 2 8 3 9 4 10 5 11 6 5 7 4 8 3 9 2 10 1 11
REMARK H PARENT
REMARK Flexibility Score: inf
ROOT
ATOM      1  C   UNL     1       2.580   4.471  19.670  1.00  0.00     0.000 C 
ENDROOT
BRANCH   1   2
ATOM      2  C   UNL     1       3.196   3.191  19.085  1.00  0.00     0.006 C 
BRANCH   2   3
ATOM      3  C   UNL     1       2.885   3.012  17.594  1.00  0.00     0.053 C 
BRANCH   3   4
ATOM      4  C   UNL     1       3.988   2.261  16.917  1.00  0.00     0.041 C 
ATOM      5  O   UNL     1       4.350   2.579  15.754  1.00  0.00    -0.550 OA
ATOM      6  O   UNL     1       4.583   1.178  17.552  1.00  0.00    -0.550 OA
ENDBRANCH   3   4
ENDBRANCH   2   3
ENDBRANCH   1   2
BRANCH   1   7
ATOM      7  C   UNL     1       1.766   5.265  18.633  1.00  0.00     0.000 C 
BRANCH   7   8
ATOM      8  C   UNL     1       2.412   6.628  18.304  1.00  0.00    -0.000 C 
BRANCH   8   9
ATOM      9  C   UNL     1       2.064   7.738  19.314  1.00  0.00    -0.000 C 
BRANCH   9  10
ATOM     10  C   UNL     1       2.279   9.168  18.794  1.00  0.00    -0.003 C 
ATOM     11  C   UNL     1       3.157   9.218  17.544  1.00  0.00     0.004 C 
ENDBRANCH   9  10
ENDBRANCH   8   9
ENDBRANCH   7   8
ENDBRANCH   1   7
TORSDOF 7
ENDMDL
MODEL 3
REMARK VINA RESULT:    -4.987      2.243      4.661
REMARK INTER + INTRA:          -7.303
REMARK INTER:                  -6.922
REMARK INTRA:                  -0.381
REMARK UNBOUND:                -0.275
REMARK SMILES CCCCCCCCC(=O)[O-]
REMARK SMILES IDX 6 1 7 2 8 3 9 4 10 5 11 6 5 7 4 8 3 9 2 10 1 11
REMARK H PARENT
REMARK Flexibility Score: inf
ROOT
ATOM      1  C   UNL     1       2.859   8.677  17.810  1.00  0.00     0.000 C 
ENDROOT
BRANCH   1   2
ATOM      2  C   UNL     1       3.650   7.737  16.888  1.00  0.00     0.006 C 
BRANCH   2   3
ATOM      3  C   UNL     1       4.571   8.493  15.921  1.00  0.00     0.053 C 
BRANCH   3   4
ATOM      4  C   UNL     1       5.421   7.532  15.151  1.00  0.00     0.041 C 
ATOM      5  O   UNL     1       6.496   7.920  14.623  1.00  0.00    -0.550 OA
ATOM      6  O   UNL     1       5.002   6.219  14.977  1.00  0.00    -0.550 OA
ENDBRANCH   3   4
ENDBRANCH   2   3
ENDBRANCH   1   2
BRANCH   1   7
ATOM      7  C   UNL     1       2.150   7.930  18.953  1.00  0.00     0.000 C 
BRANCH   7   8
ATOM      8  C   UNL     1       1.985   6.425  18.653  1.00  0.00    -0.000 C 
BRANCH   8   9
ATOM      9  C   UNL     1       2.505   5.509  19.777  1.00  0.00    -0.000 C 
BRANCH   9  10
ATOM     10  C   UNL     1       2.702   4.041  19.367  1.00  0.00    -0.003 C 
ATOM     11  C   UNL     1       2.868   3.864  17.858  1.00  0.00     0.004 C 
ENDBRANCH   9  10
ENDBRANCH   8   9
ENDBRANCH   7   8
ENDBRANCH   1   7
TORSDOF 7
ENDMDL
MODEL 4
REMARK VINA RESULT:    -4.954      2.938      4.811
REMARK INTER + INTRA:          -7.257
REMARK INTER:                  -6.964
REMARK INTRA:                  -0.293
REMARK UNBOUND:                -0.275
REMARK SMILES CCCCCCCCC(=O)[O-]
REMARK SMILES IDX 6 1 7 2 8 3 9 4 10 5 11 6 5 7 4 8 3 9 2 10 1 11
REMARK H PARENT
REMARK Flexibility Score: inf
ROOT
ATOM      1  C   UNL     1       2.551   5.328  19.677  1.00  0.00     0.000 C 
ENDROOT
BRANCH   1   2
ATOM      2  C   UNL     1       2.288   6.397  18.605  1.00  0.00     0.006 C 
BRANCH   2   3
ATOM      3  C   UNL     1       1.979   7.775  19.206  1.00  0.00     0.053 C 
BRANCH   3   4
ATOM      4  C   UNL     1       2.735   8.842  18.481  1.00  0.00     0.041 C 
ATOM      5  O   UNL     1       3.101   8.661  17.290  1.00  0.00    -0.550 OA
ATOM      6  O   UNL     1       3.078  10.018  19.135  1.00  0.00    -0.550 OA
ENDBRANCH   3   4
ENDBRANCH   2   3
ENDBRANCH   1   2
BRANCH   1   7
ATOM      7  C   UNL     1       2.919   3.961  19.073  1.00  0.00     0.000 C 
BRANCH   7   8
ATOM      8  C   UNL     1       2.882   3.974  17.531  1.00  0.00    -0.000 C 
BRANCH   8   9
ATOM      9  C   UNL     1       3.304   2.639  16.890  1.00  0.00    -0.000 C 
BRANCH   9  10
ATOM     10  C   UNL     1       3.422   2.672  15.358  1.00  0.00    -0.003 C 
ATOM     11  C   UNL     1       2.982   4.008  14.758  1.00  0.00     0.004 C 
ENDBRANCH   9  10
ENDBRANCH   8   9
ENDBRANCH   7   8
ENDBRANCH   1   7
TORSDOF 7
ENDMDL
MODEL 5
REMARK VINA RESULT:    -4.939      2.428      4.641
REMARK INTER + INTRA:          -7.235
REMARK INTER:                  -6.951
REMARK INTRA:                  -0.284
REMARK UNBOUND:                -0.275
REMARK SMILES CCCCCCCCC(=O)[O-]
REMARK SMILES IDX 6 1 7 2 8 3 9 4 10 5 11 6 5 7 4 8 3 9 2 10 1 11
REMARK H PARENT
REMARK Flexibility Score: inf
ROOT
ATOM      1  C   UNL     1       5.214   7.623  14.134  1.00  0.00     0.000 C 
ENDROOT
BRANCH   1   2
ATOM      2  C   UNL     1       5.051   6.178  13.638  1.00  0.00     0.006 C 
BRANCH   2   3
ATOM      3  C   UNL     1       4.461   5.249  14.706  1.00  0.00     0.053 C 
BRANCH   3   4
ATOM      4  C   UNL     1       4.060   3.942  14.097  1.00  0.00     0.041 C 
ATOM      5  O   UNL     1       4.538   3.588  12.988  1.00  0.00    -0.550 OA
ATOM      6  O   UNL     1       3.121   3.139  14.731  1.00  0.00    -0.550 OA
ENDBRANCH   3   4
ENDBRANCH   2   3
ENDBRANCH   1   2
BRANCH   1   7
ATOM      7  C   UNL     1       5.222   7.727  15.670  1.00  0.00     0.000 C 
BRANCH   7   8
ATOM      8  C   UNL     1       4.143   8.697  16.195  1.00  0.00    -0.000 C 
BRANCH   8   9
ATOM      9  C   UNL     1       3.344   8.144  17.391  1.00  0.00    -0.000 C 
BRANCH   9  10
ATOM     10  C   UNL     1       2.579   9.207  18.197  1.00  0.00    -0.003 C 
ATOM     11  C   UNL     1       2.094   8.687  19.550  1.00  0.00     0.004 C 
ENDBRANCH   9  10
ENDBRANCH   8   9
ENDBRANCH   7   8
ENDBRANCH   1   7
TORSDOF 7
ENDMDL
MODEL 6
REMARK VINA RESULT:    -4.877      2.778      4.393
REMARK INTER + INTRA:          -7.148
REMARK INTER:                  -6.887
REMARK INTRA:                  -0.262
REMARK UNBOUND:                -0.275
REMARK SMILES CCCCCCCCC(=O)[O-]
REMARK SMILES IDX 6 1 7 2 8 3 9 4 10 5 11 6 5 7 4 8 3 9 2 10 1 11
REMARK H PARENT
REMARK Flexibility Score: inf
ROOT
ATOM      1  C   UNL     1       2.947   4.471  17.120  1.00  0.00     0.000 C 
ENDROOT
BRANCH   1   2
ATOM      2  C   UNL     1       3.411   3.179  16.430  1.00  0.00     0.006 C 
BRANCH   2   3
ATOM      3  C   UNL     1       3.713   2.051  17.426  1.00  0.00     0.053 C 
BRANCH   3   4
ATOM      4  C   UNL     1       4.739   1.119  16.862  1.00  0.00     0.041 C 
ATOM      5  O   UNL     1       5.497   1.499  15.932  1.00  0.00    -0.550 OA
ATOM      6  O   UNL     1       4.824  -0.185  17.332  1.00  0.00    -0.550 OA
ENDBRANCH   3   4
ENDBRANCH   2   3
ENDBRANCH   1   2
BRANCH   1   7
ATOM      7  C   UNL     1       2.858   4.328  18.650  1.00  0.00     0.000 C 
BRANCH   7   8
ATOM      8  C   UNL     1       2.093   5.499  19.302  1.00  0.00    -0.000 C 
BRANCH   8   9
ATOM      9  C   UNL     1       2.243   6.833  18.547  1.00  0.00    -0.000 C 
BRANCH   9  10
ATOM     10  C   UNL     1       2.100   8.086  19.425  1.00  0.00    -0.003 C 
ATOM     11  C   UNL     1       2.338   9.383  18.651  1.00  0.00     0.004 C 
ENDBRANCH   9  10
ENDBRANCH   8   9
ENDBRANCH   7   8
ENDBRANCH   1   7
TORSDOF 7
ENDMDL
MODEL 7
REMARK VINA RESULT:    -4.841      2.107      3.765
REMARK INTER + INTRA:          -7.097
REMARK INTER:                  -6.479
REMARK INTRA:                  -0.618
REMARK UNBOUND:                -0.275
REMARK SMILES CCCCCCCCC(=O)[O-]
REMARK SMILES IDX 6 1 7 2 8 3 9 4 10 5 11 6 5 7 4 8 3 9 2 10 1 11
REMARK H PARENT
REMARK Flexibility Score: inf
ROOT
ATOM      1  C   UNL     1       4.199   4.333  15.163  1.00  0.00     0.000 C 
ENDROOT
BRANCH   1   2
ATOM      2  C   UNL     1       2.890   4.119  15.939  1.00  0.00     0.006 C 
BRANCH   2   3
ATOM      3  C   UNL     1       2.871   4.857  17.283  1.00  0.00     0.053 C 
BRANCH   3   4
ATOM      4  C   UNL     1       2.953   3.883  18.415  1.00  0.00     0.041 C 
ATOM      5  O   UNL     1       3.351   2.706  18.209  1.00  0.00    -0.550 OA
ATOM      6  O   UNL     1       2.546   4.259  19.688  1.00  0.00    -0.550 OA
ENDBRANCH   3   4
ENDBRANCH   2   3
ENDBRANCH   1   2
BRANCH   1   7
ATOM      7  C   UNL     1       3.963   4.786  13.712  1.00  0.00     0.000 C 
BRANCH   7   8
ATOM      8  C   UNL     1       4.884   5.956  13.308  1.00  0.00    -0.000 C 
BRANCH   8   9
ATOM      9  C   UNL     1       5.598   6.621  14.500  1.00  0.00    -0.000 C 
BRANCH   9  10
ATOM     10  C   UNL     1       5.119   8.047  14.820  1.00  0.00    -0.003 C 
ATOM     11  C   UNL     1       4.378   8.137  16.153  1.00  0.00     0.004 C 
ENDBRANCH   9  10
ENDBRANCH   8   9
ENDBRANCH   7   8
ENDBRANCH   1   7
TORSDOF 7
ENDMDL
MODEL 8
REMARK VINA RESULT:    -4.697      3.440      6.080
REMARK INTER + INTRA:          -6.894
REMARK INTER:                  -6.623
REMARK INTRA:                  -0.271
REMARK UNBOUND:                -0.275
REMARK SMILES CCCCCCCCC(=O)[O-]
REMARK SMILES IDX 6 1 7 2 8 3 9 4 10 5 11 6 5 7 4 8 3 9 2 10 1 11
REMARK H PARENT
REMARK Flexibility Score: inf
ROOT
ATOM      1  C   UNL     1       3.686   4.433  14.040  1.00  0.00     0.000 C 
ENDROOT
BRANCH   1   2
ATOM      2  C   UNL     1       4.749   5.366  14.640  1.00  0.00     0.006 C 
BRANCH   2   3
ATOM      3  C   UNL     1       5.191   6.464  13.664  1.00  0.00     0.053 C 
BRANCH   3   4
ATOM      4  C   UNL     1       6.040   7.476  14.367  1.00  0.00     0.041 C 
ATOM      5  O   UNL     1       5.810   7.770  15.569  1.00  0.00    -0.550 OA
ATOM      6  O   UNL     1       7.056   8.128  13.680  1.00  0.00    -0.550 OA
ENDBRANCH   3   4
ENDBRANCH   2   3
ENDBRANCH   1   2
BRANCH   1   7
ATOM      7  C   UNL     1       2.772   3.809  15.110  1.00  0.00     0.000 C 
BRANCH   7   8
ATOM      8  C   UNL     1       3.103   4.317  16.529  1.00  0.00    -0.000 C 
BRANCH   8   9
ATOM      9  C   UNL     1       2.861   3.271  17.633  1.00  0.00    -0.000 C 
BRANCH   9  10
ATOM     10  C   UNL     1       2.984   3.811  19.067  1.00  0.00    -0.003 C 
ATOM     11  C   UNL     1       2.291   5.161  19.253  1.00  0.00     0.004 C 
ENDBRANCH   9  10
ENDBRANCH   8   9
ENDBRANCH   7   8
ENDBRANCH   1   7
TORSDOF 7
ENDMDL
MODEL 9
REMARK VINA RESULT:    -4.690      3.995      5.973
REMARK INTER + INTRA:          -6.884
REMARK INTER:                  -6.413
REMARK INTRA:                  -0.471
REMARK UNBOUND:                -0.275
REMARK SMILES CCCCCCCCC(=O)[O-]
REMARK SMILES IDX 6 1 7 2 8 3 9 4 10 5 11 6 5 7 4 8 3 9 2 10 1 11
REMARK H PARENT
REMARK Flexibility Score: inf
ROOT
ATOM      1  C   UNL     1       3.961   4.281  14.380  1.00  0.00     0.000 C 
ENDROOT
BRANCH   1   2
ATOM      2  C   UNL     1       4.418   3.123  13.480  1.00  0.00     0.006 C 
BRANCH   2   3
ATOM      3  C   UNL     1       4.141   1.747  14.099  1.00  0.00     0.053 C 
BRANCH   3   4
ATOM      4  C   UNL     1       5.382   1.199  14.730  1.00  0.00     0.041 C 
ATOM      5  O   UNL     1       5.559   1.303  15.972  1.00  0.00    -0.550 OA
ATOM      6  O   UNL     1       6.364   0.617  13.940  1.00  0.00    -0.550 OA
ENDBRANCH   3   4
ENDBRANCH   2   3
ENDBRANCH   1   2
BRANCH   1   7
ATOM      7  C   UNL     1       2.786   3.893  15.295  1.00  0.00     0.000 C 
BRANCH   7   8
ATOM      8  C   UNL     1       3.024   4.311  16.761  1.00  0.00    -0.000 C 
BRANCH   8   9
ATOM      9  C   UNL     1       3.083   3.124  17.741  1.00  0.00    -0.000 C 
BRANCH   9  10
ATOM     10  C   UNL     1       3.057   3.518  19.227  1.00  0.00    -0.003 C 
ATOM     11  C   UNL     1       2.540   4.939  19.454  1.00  0.00     0.004 C 
ENDBRANCH   9  10
ENDBRANCH   8   9
ENDBRANCH   7   8
ENDBRANCH   1   7
TORSDOF 7
ENDMDL
