MODEL 1
REMARK VINA RESULT:    -5.856      0.000      0.000
REMARK INTER + INTRA:         -11.395
REMARK INTER:                  -9.280
REMARK INTRA:                  -2.115
REMARK UNBOUND:                -2.115
REMARK SMILES C[C@H]1O[C@H](O[C@@H]2[C@@H](Oc3cc(O)c4c(c3)O[C@@H](c3ccc(O)cc3)CC4=O)O[C@@H](CO)[C@H](O)[C@@H]2O)[C@@H](O)[C@H](O)[C@H]1O
REMARK SMILES IDX 6 1 34 2 32 3 29 4 28 5 7 6 5 7 4 8 1 9 2 10 40 11 3 12
REMARK SMILES IDX 38 13 36 14 41 15 39 17 37 19 35 21 8 23 9 24 10 25 15 26
REMARK SMILES IDX 11 27 14 28 13 29 16 30 26 31 17 32 27 33 25 34 12 35 18 37
REMARK SMILES IDX 19 38 24 39 20 40 23 41 21 42 22 43 33 45 30 47 31 48
REMARK H PARENT 41 16 39 18 37 20 35 22 12 36 22 44 33 46 31 49
REMARK Flexibility Score: inf
ROOT
ATOM      1  C   UNL     1     -26.493 -48.591 -18.400  1.00  0.00     0.221 C 
ATOM      2  C   UNL     1     -26.846 -47.851 -19.691  1.00  0.00     0.181 C 
ATOM      3  C   UNL     1     -26.448 -46.388 -19.487  1.00  0.00     0.177 C 
ATOM      4  C   UNL     1     -24.923 -46.284 -19.267  1.00  0.00     0.179 C 
ATOM      5  O   UNL     1     -24.459 -47.068 -18.185  1.00  0.00    -0.332 OA
ATOM      6  C   UNL     1     -24.944 -48.408 -18.151  1.00  0.00     0.339 C 
ENDROOT
BRANCH   1   7
ATOM      7  O   UNL     1     -27.358 -48.057 -17.352  1.00  0.00    -0.337 OA
BRANCH   7   8
ATOM      8  C   UNL     1     -28.022 -49.141 -16.683  1.00  0.00     0.282 C 
ATOM      9  C   UNL     1     -29.884 -51.183 -18.112  1.00  0.00     0.041 C 
ATOM     10  C   UNL     1     -28.716 -51.320 -17.090  1.00  0.00     0.150 C 
ATOM     11  C   UNL     1     -29.236 -51.455 -15.574  1.00  0.00     0.174 C 
ATOM     12  O   UNL     1     -27.732 -50.327 -17.354  1.00  0.00    -0.344 OA
ATOM     13  C   UNL     1     -29.035 -50.155 -14.712  1.00  0.00     0.179 C 
ATOM     14  C   UNL     1     -27.794 -49.367 -15.155  1.00  0.00     0.202 C 
BRANCH  11  15
ATOM     15  O   UNL     1     -30.580 -51.893 -15.512  1.00  0.00    -0.388 OA
ATOM     16  H   UNL     1     -31.091 -51.413 -16.226  1.00  0.00     0.211 HD
ENDBRANCH  11  15
BRANCH  13  17
ATOM     17  O   UNL     1     -29.039 -50.519 -13.340  1.00  0.00    -0.387 OA
ATOM     18  H   UNL     1     -29.313 -51.486 -13.250  1.00  0.00     0.211 HD
ENDBRANCH  13  17
BRANCH  14  19
ATOM     19  O   UNL     1     -27.742 -48.187 -14.378  1.00  0.00    -0.385 OA
ATOM     20  H   UNL     1     -28.029 -47.485 -15.030  1.00  0.00     0.211 HD
ENDBRANCH  14  19
ENDBRANCH   7   8
ENDBRANCH   1   7
BRANCH   2  21
ATOM     21  O   UNL     1     -28.196 -48.058 -20.044  1.00  0.00    -0.387 OA
ATOM     22  H   UNL     1     -28.609 -47.184 -20.244  1.00  0.00     0.211 HD
ENDBRANCH   2  21
BRANCH   6  23
ATOM     23  O   UNL     1     -24.279 -49.174 -19.154  1.00  0.00    -0.462 OA
BRANCH  23  24
ATOM     24  C   UNL     1     -24.077 -50.568 -19.095  1.00  0.00     0.130 A 
ATOM     25  C   UNL     1     -23.213 -51.161 -18.169  1.00  0.00     0.093 A 
ATOM     26  C   UNL     1     -24.775 -51.380 -19.999  1.00  0.00     0.094 A 
ATOM     27  C   UNL     1     -23.135 -52.553 -18.042  1.00  0.00     0.133 A 
ATOM     28  C   UNL     1     -24.675 -52.770 -19.909  1.00  0.00     0.138 A 
ATOM     29  C   UNL     1     -23.865 -53.371 -18.928  1.00  0.00     0.102 A 
ATOM     30  O   UNL     1     -25.386 -53.562 -20.814  1.00  0.00    -0.484 OA
ATOM     31  C   UNL     1     -23.809 -54.845 -18.915  1.00  0.00     0.174 C 
ATOM     32  C   UNL     1     -25.583 -54.965 -20.656  1.00  0.00     0.211 C 
ATOM     33  O   UNL     1     -23.416 -55.478 -17.871  1.00  0.00    -0.294 OA
ATOM     34  C   UNL     1     -24.309 -55.629 -20.100  1.00  0.00     0.131 C 
BRANCH  27  35
ATOM     35  O   UNL     1     -22.333 -53.113 -17.046  1.00  0.00    -0.507 OA
ATOM     36  H   UNL     1     -22.479 -52.912 -16.064  1.00  0.00     0.293 HD
ENDBRANCH  27  35
BRANCH  32  37
ATOM     37  C   UNL     1     -26.011 -55.589 -21.980  1.00  0.00    -0.007 A 
ATOM     38  C   UNL     1     -26.953 -54.949 -22.806  1.00  0.00     0.011 A 
ATOM     39  C   UNL     1     -25.480 -56.833 -22.384  1.00  0.00     0.011 A 
ATOM     40  C   UNL     1     -27.298 -55.483 -24.051  1.00  0.00     0.046 A 
ATOM     41  C   UNL     1     -25.871 -57.385 -23.611  1.00  0.00     0.046 A 
ATOM     42  C   UNL     1     -26.748 -56.705 -24.453  1.00  0.00     0.115 A 
BRANCH  42  43
ATOM     43  O   UNL     1     -27.087 -57.258 -25.689  1.00  0.00    -0.508 OA
ATOM     44  H   UNL     1     -27.754 -58.010 -25.760  1.00  0.00     0.293 HD
ENDBRANCH  42  43
ENDBRANCH  32  37
ENDBRANCH  23  24
ENDBRANCH   6  23
BRANCH   3  45
ATOM     45  O   UNL     1     -27.110 -45.804 -18.379  1.00  0.00    -0.387 OA
ATOM     46  H   UNL     1     -27.773 -46.473 -18.069  1.00  0.00     0.211 HD
ENDBRANCH   3  45
BRANCH   4  47
ATOM     47  C   UNL     1     -24.212 -46.526 -20.649  1.00  0.00     0.191 C 
BRANCH  47  48
ATOM     48  O   UNL     1     -22.864 -46.862 -20.484  1.00  0.00    -0.394 OA
ATOM     49  H   UNL     1     -22.442 -46.623 -21.360  1.00  0.00     0.210 HD
ENDBRANCH  47  48
ENDBRANCH   4  47
TORSDOF 14
ENDMDL
MODEL 2
REMARK VINA RESULT:    -5.824      3.391      8.977
REMARK INTER + INTRA:         -11.344
REMARK INTER:                  -8.725
REMARK INTRA:                  -2.619
REMARK UNBOUND:                -2.115
REMARK SMILES C[C@H]1O[C@H](O[C@@H]2[C@@H](Oc3cc(O)c4c(c3)O[C@@H](c3ccc(O)cc3)CC4=O)O[C@@H](CO)[C@H](O)[C@@H]2O)[C@@H](O)[C@H](O)[C@H]1O
REMARK SMILES IDX 6 1 34 2 32 3 29 4 28 5 7 6 5 7 4 8 1 9 2 10 40 11 3 12
REMARK SMILES IDX 38 13 36 14 41 15 39 17 37 19 35 21 8 23 9 24 10 25 15 26
REMARK SMILES IDX 11 27 14 28 13 29 16 30 26 31 17 32 27 33 25 34 12 35 18 37
REMARK SMILES IDX 19 38 24 39 20 40 23 41 21 42 22 43 33 45 30 47 31 48
REMARK H PARENT 41 16 39 18 37 20 35 22 12 36 22 44 33 46 31 49
REMARK Flexibility Score: inf
ROOT
ATOM      1  C   UNL     1     -27.571 -51.377 -21.494  1.00  0.00     0.221 C 
ATOM      2  C   UNL     1     -28.170 -52.319 -22.540  1.00  0.00     0.181 C 
ATOM      3  C   UNL     1     -29.514 -52.797 -21.988  1.00  0.00     0.177 C 
ATOM      4  C   UNL     1     -30.467 -51.595 -21.812  1.00  0.00     0.179 C 
ATOM      5  O   UNL     1     -29.937 -50.577 -20.984  1.00  0.00    -0.332 OA
ATOM      6  C   UNL     1     -28.594 -50.195 -21.271  1.00  0.00     0.339 C 
ENDROOT
BRANCH   1   7
ATOM      7  O   UNL     1     -27.282 -52.181 -20.310  1.00  0.00    -0.337 OA
BRANCH   7   8
ATOM      8  C   UNL     1     -25.978 -51.845 -19.811  1.00  0.00     0.282 C 
ATOM      9  C   UNL     1     -25.270 -49.114 -18.501  1.00  0.00     0.041 C 
ATOM     10  C   UNL     1     -24.991 -50.598 -18.119  1.00  0.00     0.150 C 
ATOM     11  C   UNL     1     -23.533 -51.091 -18.583  1.00  0.00     0.174 C 
ATOM     12  O   UNL     1     -26.101 -51.405 -18.496  1.00  0.00    -0.344 OA
ATOM     13  C   UNL     1     -23.549 -52.048 -19.830  1.00  0.00     0.179 C 
ATOM     14  C   UNL     1     -24.827 -52.899 -19.876  1.00  0.00     0.202 C 
BRANCH  11  15
ATOM     15  O   UNL     1     -22.650 -50.007 -18.797  1.00  0.00    -0.388 OA
ATOM     16  H   UNL     1     -21.715 -50.349 -18.698  1.00  0.00     0.211 HD
ENDBRANCH  11  15
BRANCH  13  17
ATOM     17  O   UNL     1     -22.345 -52.799 -19.839  1.00  0.00    -0.387 OA
ATOM     18  H   UNL     1     -21.970 -52.842 -18.903  1.00  0.00     0.211 HD
ENDBRANCH  13  17
BRANCH  14  19
ATOM     19  O   UNL     1     -24.785 -53.664 -21.064  1.00  0.00    -0.385 OA
ATOM     20  H   UNL     1     -24.777 -52.962 -21.775  1.00  0.00     0.211 HD
ENDBRANCH  14  19
ENDBRANCH   7   8
ENDBRANCH   1   7
BRANCH   2  21
ATOM     21  O   UNL     1     -27.265 -53.347 -22.877  1.00  0.00    -0.387 OA
ATOM     22  H   UNL     1     -26.355 -53.065 -22.619  1.00  0.00     0.211 HD
ENDBRANCH   2  21
BRANCH   6  23
ATOM     23  O   UNL     1     -28.573 -49.411 -22.462  1.00  0.00    -0.462 OA
BRANCH  23  24
ATOM     24  C   UNL     1     -27.483 -48.623 -22.884  1.00  0.00     0.130 A 
ATOM     25  C   UNL     1     -27.049 -48.598 -24.213  1.00  0.00     0.093 A 
ATOM     26  C   UNL     1     -26.821 -47.838 -21.932  1.00  0.00     0.094 A 
ATOM     27  C   UNL     1     -26.053 -47.705 -24.631  1.00  0.00     0.133 A 
ATOM     28  C   UNL     1     -25.800 -46.972 -22.329  1.00  0.00     0.138 A 
ATOM     29  C   UNL     1     -25.412 -46.888 -23.679  1.00  0.00     0.102 A 
ATOM     30  O   UNL     1     -25.158 -46.190 -21.365  1.00  0.00    -0.484 OA
ATOM     31  C   UNL     1     -24.315 -45.957 -24.005  1.00  0.00     0.174 C 
ATOM     32  C   UNL     1     -24.308 -45.089 -21.673  1.00  0.00     0.211 C 
ATOM     33  O   UNL     1     -24.142 -45.542 -25.207  1.00  0.00    -0.294 OA
ATOM     34  C   UNL     1     -23.443 -45.405 -22.909  1.00  0.00     0.131 C 
BRANCH  27  35
ATOM     35  O   UNL     1     -25.707 -47.640 -25.982  1.00  0.00    -0.507 OA
ATOM     36  H   UNL     1     -26.181 -48.194 -26.685  1.00  0.00     0.293 HD
ENDBRANCH  27  35
BRANCH  32  37
ATOM     37  C   UNL     1     -23.451 -44.729 -20.465  1.00  0.00    -0.007 A 
ATOM     38  C   UNL     1     -23.751 -45.247 -19.191  1.00  0.00     0.011 A 
ATOM     39  C   UNL     1     -22.356 -43.851 -20.606  1.00  0.00     0.011 A 
ATOM     40  C   UNL     1     -22.929 -44.975 -18.093  1.00  0.00     0.046 A 
ATOM     41  C   UNL     1     -21.569 -43.543 -19.488  1.00  0.00     0.046 A 
ATOM     42  C   UNL     1     -21.831 -44.122 -18.248  1.00  0.00     0.115 A 
BRANCH  42  43
ATOM     43  O   UNL     1     -21.006 -43.831 -17.161  1.00  0.00    -0.508 OA
ATOM     44  H   UNL     1     -21.248 -43.115 -16.496  1.00  0.00     0.293 HD
ENDBRANCH  42  43
ENDBRANCH  32  37
ENDBRANCH  23  24
ENDBRANCH   6  23
BRANCH   3  45
ATOM     45  O   UNL     1     -29.376 -53.456 -20.741  1.00  0.00    -0.387 OA
ATOM     46  H   UNL     1     -29.807 -52.868 -20.070  1.00  0.00     0.211 HD
ENDBRANCH   3  45
BRANCH   4  47
ATOM     47  C   UNL     1     -30.951 -51.141 -23.238  1.00  0.00     0.191 C 
BRANCH  47  48
ATOM     48  O   UNL     1     -31.396 -49.815 -23.235  1.00  0.00    -0.394 OA
ATOM     49  H   UNL     1     -31.065 -49.443 -24.103  1.00  0.00     0.210 HD
ENDBRANCH  47  48
ENDBRANCH   4  47
TORSDOF 14
ENDMDL
MODEL 3
REMARK VINA RESULT:    -5.802      3.233      6.807
REMARK INTER + INTRA:         -11.309
REMARK INTER:                  -9.169
REMARK INTRA:                  -2.140
REMARK UNBOUND:                -2.115
REMARK SMILES C[C@H]1O[C@H](O[C@@H]2[C@@H](Oc3cc(O)c4c(c3)O[C@@H](c3ccc(O)cc3)CC4=O)O[C@@H](CO)[C@H](O)[C@@H]2O)[C@@H](O)[C@H](O)[C@H]1O
REMARK SMILES IDX 6 1 34 2 32 3 29 4 28 5 7 6 5 7 4 8 1 9 2 10 40 11 3 12
REMARK SMILES IDX 38 13 36 14 41 15 39 17 37 19 35 21 8 23 9 24 10 25 15 26
REMARK SMILES IDX 11 27 14 28 13 29 16 30 26 31 17 32 27 33 25 34 12 35 18 37
REMARK SMILES IDX 19 38 24 39 20 40 23 41 21 42 22 43 33 45 30 47 31 48
REMARK H PARENT 41 16 39 18 37 20 35 22 12 36 22 44 33 46 31 49
REMARK Flexibility Score: inf
ROOT
ATOM      1  C   UNL     1     -26.202 -51.666 -13.718  1.00  0.00     0.221 C 
ATOM      2  C   UNL     1     -25.552 -51.818 -12.342  1.00  0.00     0.181 C 
ATOM      3  C   UNL     1     -26.445 -52.759 -11.532  1.00  0.00     0.177 C 
ATOM      4  C   UNL     1     -26.490 -54.148 -12.205  1.00  0.00     0.179 C 
ATOM      5  O   UNL     1     -26.927 -54.104 -13.550  1.00  0.00    -0.332 OA
ATOM      6  C   UNL     1     -26.310 -53.105 -14.358  1.00  0.00     0.339 C 
ENDROOT
BRANCH   1   7
ATOM      7  O   UNL     1     -27.473 -50.978 -13.517  1.00  0.00    -0.337 OA
BRANCH   7   8
ATOM      8  C   UNL     1     -27.896 -50.385 -14.755  1.00  0.00     0.282 C 
ATOM      9  C   UNL     1     -28.068 -51.927 -17.451  1.00  0.00     0.041 C 
ATOM     10  C   UNL     1     -29.026 -50.954 -16.703  1.00  0.00     0.150 C 
ATOM     11  C   UNL     1     -28.907 -49.442 -17.234  1.00  0.00     0.174 C 
ATOM     12  O   UNL     1     -28.917 -51.161 -15.299  1.00  0.00    -0.344 OA
ATOM     13  C   UNL     1     -28.143 -48.479 -16.253  1.00  0.00     0.179 C 
ATOM     14  C   UNL     1     -28.341 -48.888 -14.787  1.00  0.00     0.202 C 
BRANCH  11  15
ATOM     15  O   UNL     1     -28.349 -49.378 -18.532  1.00  0.00    -0.388 OA
ATOM     16  H   UNL     1     -27.761 -50.179 -18.652  1.00  0.00     0.211 HD
ENDBRANCH  11  15
BRANCH  13  17
ATOM     17  O   UNL     1     -28.524 -47.142 -16.546  1.00  0.00    -0.387 OA
ATOM     18  H   UNL     1     -29.036 -46.761 -15.765  1.00  0.00     0.211 HD
ENDBRANCH  13  17
BRANCH  14  19
ATOM     19  O   UNL     1     -27.560 -48.016 -13.994  1.00  0.00    -0.385 OA
ATOM     20  H   UNL     1     -27.185 -48.630 -13.301  1.00  0.00     0.211 HD
ENDBRANCH  14  19
ENDBRANCH   7   8
ENDBRANCH   1   7
BRANCH   2  21
ATOM     21  O   UNL     1     -25.319 -50.560 -11.747  1.00  0.00    -0.387 OA
ATOM     22  H   UNL     1     -25.525 -49.855 -12.407  1.00  0.00     0.211 HD
ENDBRANCH   2  21
BRANCH   6  23
ATOM     23  O   UNL     1     -24.979 -53.511 -14.672  1.00  0.00    -0.462 OA
BRANCH  23  24
ATOM     24  C   UNL     1     -24.351 -53.305 -15.917  1.00  0.00     0.130 A 
ATOM     25  C   UNL     1     -23.522 -54.266 -16.505  1.00  0.00     0.093 A 
ATOM     26  C   UNL     1     -24.575 -52.093 -16.584  1.00  0.00     0.094 A 
ATOM     27  C   UNL     1     -23.022 -54.093 -17.802  1.00  0.00     0.133 A 
ATOM     28  C   UNL     1     -24.049 -51.892 -17.861  1.00  0.00     0.138 A 
ATOM     29  C   UNL     1     -23.278 -52.889 -18.488  1.00  0.00     0.102 A 
ATOM     30  O   UNL     1     -24.291 -50.680 -18.513  1.00  0.00    -0.484 OA
ATOM     31  C   UNL     1     -22.751 -52.584 -19.831  1.00  0.00     0.174 C 
ATOM     32  C   UNL     1     -24.050 -50.462 -19.901  1.00  0.00     0.211 C 
ATOM     33  O   UNL     1     -22.368 -53.525 -20.615  1.00  0.00    -0.294 OA
ATOM     34  C   UNL     1     -22.750 -51.166 -20.338  1.00  0.00     0.131 C 
BRANCH  27  35
ATOM     35  O   UNL     1     -22.274 -55.112 -18.396  1.00  0.00    -0.507 OA
ATOM     36  H   UNL     1     -21.470 -54.915 -18.979  1.00  0.00     0.293 HD
ENDBRANCH  27  35
BRANCH  32  37
ATOM     37  C   UNL     1     -24.008 -48.968 -20.201  1.00  0.00    -0.007 A 
ATOM     38  C   UNL     1     -24.939 -48.386 -21.081  1.00  0.00     0.011 A 
ATOM     39  C   UNL     1     -23.017 -48.152 -19.615  1.00  0.00     0.011 A 
ATOM     40  C   UNL     1     -24.948 -47.006 -21.307  1.00  0.00     0.046 A 
ATOM     41  C   UNL     1     -23.003 -46.778 -19.889  1.00  0.00     0.046 A 
ATOM     42  C   UNL     1     -23.976 -46.202 -20.702  1.00  0.00     0.115 A 
BRANCH  42  43
ATOM     43  O   UNL     1     -23.964 -44.824 -20.924  1.00  0.00    -0.508 OA
ATOM     44  H   UNL     1     -24.795 -44.332 -21.210  1.00  0.00     0.293 HD
ENDBRANCH  42  43
ENDBRANCH  32  37
ENDBRANCH  23  24
ENDBRANCH   6  23
BRANCH   3  45
ATOM     45  O   UNL     1     -27.768 -52.268 -11.410  1.00  0.00    -0.387 OA
ATOM     46  H   UNL     1     -27.713 -51.288 -11.549  1.00  0.00     0.211 HD
ENDBRANCH   3  45
BRANCH   4  47
ATOM     47  C   UNL     1     -25.111 -54.861 -11.950  1.00  0.00     0.191 C 
BRANCH  47  48
ATOM     48  O   UNL     1     -24.872 -55.873 -12.886  1.00  0.00    -0.394 OA
ATOM     49  H   UNL     1     -25.692 -56.447 -12.840  1.00  0.00     0.210 HD
ENDBRANCH  47  48
ENDBRANCH   4  47
TORSDOF 14
ENDMDL
MODEL 4
REMARK VINA RESULT:    -5.765      4.282      8.297
REMARK INTER + INTRA:         -11.250
REMARK INTER:                  -9.085
REMARK INTRA:                  -2.164
REMARK UNBOUND:                -2.115
REMARK SMILES C[C@H]1O[C@H](O[C@@H]2[C@@H](Oc3cc(O)c4c(c3)O[C@@H](c3ccc(O)cc3)CC4=O)O[C@@H](CO)[C@H](O)[C@@H]2O)[C@@H](O)[C@H](O)[C@H]1O
REMARK SMILES IDX 6 1 34 2 32 3 29 4 28 5 7 6 5 7 4 8 1 9 2 10 40 11 3 12
REMARK SMILES IDX 38 13 36 14 41 15 39 17 37 19 35 21 8 23 9 24 10 25 15 26
REMARK SMILES IDX 11 27 14 28 13 29 16 30 26 31 17 32 27 33 25 34 12 35 18 37
REMARK SMILES IDX 19 38 24 39 20 40 23 41 21 42 22 43 33 45 30 47 31 48
REMARK H PARENT 41 16 39 18 37 20 35 22 12 36 22 44 33 46 31 49
REMARK Flexibility Score: inf
ROOT
ATOM      1  C   UNL     1     -24.853 -46.489 -25.396  1.00  0.00     0.221 C 
ATOM      2  C   UNL     1     -23.912 -46.264 -26.581  1.00  0.00     0.181 C 
ATOM      3  C   UNL     1     -24.644 -45.345 -27.559  1.00  0.00     0.177 C 
ATOM      4  C   UNL     1     -24.922 -43.981 -26.892  1.00  0.00     0.179 C 
ATOM      5  O   UNL     1     -25.655 -44.086 -25.686  1.00  0.00    -0.332 OA
ATOM      6  C   UNL     1     -25.187 -45.076 -24.774  1.00  0.00     0.339 C 
ENDROOT
BRANCH   1   7
ATOM      7  O   UNL     1     -26.003 -47.234 -25.899  1.00  0.00    -0.337 OA
BRANCH   7   8
ATOM      8  C   UNL     1     -26.706 -47.829 -24.797  1.00  0.00     0.282 C 
ATOM      9  C   UNL     1     -27.700 -46.244 -22.311  1.00  0.00     0.041 C 
ATOM     10  C   UNL     1     -28.355 -47.301 -23.249  1.00  0.00     0.150 C 
ATOM     11  C   UNL     1     -28.287 -48.789 -22.643  1.00  0.00     0.174 C 
ATOM     12  O   UNL     1     -27.884 -47.118 -24.579  1.00  0.00    -0.344 OA
ATOM     13  C   UNL     1     -27.225 -49.715 -23.343  1.00  0.00     0.179 C 
ATOM     14  C   UNL     1     -27.045 -49.353 -24.824  1.00  0.00     0.202 C 
BRANCH  11  15
ATOM     15  O   UNL     1     -28.098 -48.782 -21.241  1.00  0.00    -0.388 OA
ATOM     16  H   UNL     1     -27.248 -49.274 -21.045  1.00  0.00     0.211 HD
ENDBRANCH  11  15
BRANCH  13  17
ATOM     17  O   UNL     1     -27.584 -51.068 -23.109  1.00  0.00    -0.387 OA
ATOM     18  H   UNL     1     -27.702 -51.218 -22.118  1.00  0.00     0.211 HD
ENDBRANCH  13  17
BRANCH  14  19
ATOM     19  O   UNL     1     -26.024 -50.182 -25.341  1.00  0.00    -0.385 OA
ATOM     20  H   UNL     1     -25.237 -49.567 -25.369  1.00  0.00     0.211 HD
ENDBRANCH  14  19
ENDBRANCH   7   8
ENDBRANCH   1   7
BRANCH   2  21
ATOM     21  O   UNL     1     -23.478 -47.490 -27.126  1.00  0.00    -0.387 OA
ATOM     22  H   UNL     1     -23.928 -48.227 -26.647  1.00  0.00     0.211 HD
ENDBRANCH   2  21
BRANCH   6  23
ATOM     23  O   UNL     1     -23.989 -44.614 -24.152  1.00  0.00    -0.462 OA
BRANCH  23  24
ATOM     24  C   UNL     1     -23.664 -44.808 -22.794  1.00  0.00     0.130 A 
ATOM     25  C   UNL     1     -22.999 -43.838 -22.038  1.00  0.00     0.093 A 
ATOM     26  C   UNL     1     -24.030 -46.018 -22.188  1.00  0.00     0.094 A 
ATOM     27  C   UNL     1     -22.810 -44.001 -20.659  1.00  0.00     0.133 A 
ATOM     28  C   UNL     1     -23.812 -46.208 -20.823  1.00  0.00     0.138 A 
ATOM     29  C   UNL     1     -23.211 -45.203 -20.043  1.00  0.00     0.102 A 
ATOM     30  O   UNL     1     -24.192 -47.418 -20.236  1.00  0.00    -0.484 OA
ATOM     31  C   UNL     1     -23.008 -45.497 -18.612  1.00  0.00     0.174 C 
ATOM     32  C   UNL     1     -24.276 -47.626 -18.829  1.00  0.00     0.211 C 
ATOM     33  O   UNL     1     -22.820 -44.549 -17.767  1.00  0.00    -0.294 OA
ATOM     34  C   UNL     1     -23.116 -46.912 -18.108  1.00  0.00     0.131 C 
BRANCH  27  35
ATOM     35  O   UNL     1     -22.224 -42.974 -19.916  1.00  0.00    -0.507 OA
ATOM     36  H   UNL     1     -22.676 -42.077 -19.794  1.00  0.00     0.293 HD
ENDBRANCH  27  35
BRANCH  32  37
ATOM     37  C   UNL     1     -24.297 -49.118 -18.516  1.00  0.00    -0.007 A 
ATOM     38  C   UNL     1     -23.213 -49.943 -18.872  1.00  0.00     0.011 A 
ATOM     39  C   UNL     1     -25.418 -49.697 -17.884  1.00  0.00     0.011 A 
ATOM     40  C   UNL     1     -23.198 -51.298 -18.527  1.00  0.00     0.046 A 
ATOM     41  C   UNL     1     -25.414 -51.067 -17.589  1.00  0.00     0.046 A 
ATOM     42  C   UNL     1     -24.304 -51.857 -17.879  1.00  0.00     0.115 A 
BRANCH  42  43
ATOM     43  O   UNL     1     -24.310 -53.210 -17.536  1.00  0.00    -0.508 OA
ATOM     44  H   UNL     1     -23.844 -53.542 -16.708  1.00  0.00     0.293 HD
ENDBRANCH  42  43
ENDBRANCH  32  37
ENDBRANCH  23  24
ENDBRANCH   6  23
BRANCH   3  45
ATOM     45  O   UNL     1     -25.874 -45.898 -27.995  1.00  0.00    -0.387 OA
ATOM     46  H   UNL     1     -25.684 -46.347 -28.857  1.00  0.00     0.211 HD
ENDBRANCH   3  45
BRANCH   4  47
ATOM     47  C   UNL     1     -23.563 -43.192 -26.806  1.00  0.00     0.191 C 
BRANCH  47  48
ATOM     48  O   UNL     1     -23.601 -42.204 -25.816  1.00  0.00    -0.394 OA
ATOM     49  H   UNL     1     -23.687 -41.348 -26.328  1.00  0.00     0.210 HD
ENDBRANCH  47  48
ENDBRANCH   4  47
TORSDOF 14
ENDMDL
MODEL 5
REMARK VINA RESULT:    -5.764      2.945      4.739
REMARK INTER + INTRA:         -11.249
REMARK INTER:                  -9.136
REMARK INTRA:                  -2.113
REMARK UNBOUND:                -2.115
REMARK SMILES C[C@H]1O[C@H](O[C@@H]2[C@@H](Oc3cc(O)c4c(c3)O[C@@H](c3ccc(O)cc3)CC4=O)O[C@@H](CO)[C@H](O)[C@@H]2O)[C@@H](O)[C@H](O)[C@H]1O
REMARK SMILES IDX 6 1 34 2 32 3 29 4 28 5 7 6 5 7 4 8 1 9 2 10 40 11 3 12
REMARK SMILES IDX 38 13 36 14 41 15 39 17 37 19 35 21 8 23 9 24 10 25 15 26
REMARK SMILES IDX 11 27 14 28 13 29 16 30 26 31 17 32 27 33 25 34 12 35 18 37
REMARK SMILES IDX 19 38 24 39 20 40 23 41 21 42 22 43 33 45 30 47 31 48
REMARK H PARENT 41 16 39 18 37 20 35 22 12 36 22 44 33 46 31 49
REMARK Flexibility Score: inf
ROOT
ATOM      1  C   UNL     1     -25.255 -47.694 -21.021  1.00  0.00     0.221 C 
ATOM      2  C   UNL     1     -24.202 -46.584 -21.010  1.00  0.00     0.181 C 
ATOM      3  C   UNL     1     -24.626 -45.583 -19.935  1.00  0.00     0.177 C 
ATOM      4  C   UNL     1     -24.627 -46.267 -18.551  1.00  0.00     0.179 C 
ATOM      5  O   UNL     1     -25.452 -47.415 -18.495  1.00  0.00    -0.332 OA
ATOM      6  C   UNL     1     -25.296 -48.330 -19.576  1.00  0.00     0.339 C 
ENDROOT
BRANCH   1   7
ATOM      7  O   UNL     1     -26.506 -47.093 -21.471  1.00  0.00    -0.337 OA
BRANCH   7   8
ATOM      8  C   UNL     1     -26.966 -47.771 -22.650  1.00  0.00     0.282 C 
ATOM      9  C   UNL     1     -27.725 -50.787 -22.735  1.00  0.00     0.041 C 
ATOM     10  C   UNL     1     -28.403 -49.489 -23.265  1.00  0.00     0.150 C 
ATOM     11  C   UNL     1     -28.089 -49.219 -24.818  1.00  0.00     0.174 C 
ATOM     12  O   UNL     1     -28.163 -48.420 -22.357  1.00  0.00    -0.344 OA
ATOM     13  C   UNL     1     -27.057 -48.059 -25.069  1.00  0.00     0.179 C 
ATOM     14  C   UNL     1     -27.145 -46.977 -23.983  1.00  0.00     0.202 C 
BRANCH  11  15
ATOM     15  O   UNL     1     -27.688 -50.398 -25.490  1.00  0.00    -0.388 OA
ATOM     16  H   UNL     1     -26.987 -50.844 -24.933  1.00  0.00     0.211 HD
ENDBRANCH  11  15
BRANCH  13  17
ATOM     17  O   UNL     1     -27.233 -47.577 -26.392  1.00  0.00    -0.387 OA
ATOM     18  H   UNL     1     -28.146 -47.844 -26.728  1.00  0.00     0.211 HD
ENDBRANCH  13  17
BRANCH  14  19
ATOM     19  O   UNL     1     -26.135 -46.025 -24.251  1.00  0.00    -0.385 OA
ATOM     20  H   UNL     1     -25.866 -46.251 -25.186  1.00  0.00     0.211 HD
ENDBRANCH  14  19
ENDBRANCH   7   8
ENDBRANCH   1   7
BRANCH   2  21
ATOM     21  O   UNL     1     -24.026 -46.037 -22.298  1.00  0.00    -0.387 OA
ATOM     22  H   UNL     1     -24.816 -45.487 -22.520  1.00  0.00     0.211 HD
ENDBRANCH   2  21
BRANCH   6  23
ATOM     23  O   UNL     1     -24.073 -49.046 -19.413  1.00  0.00    -0.462 OA
BRANCH  23  24
ATOM     24  C   UNL     1     -23.975 -50.445 -19.267  1.00  0.00     0.130 A 
ATOM     25  C   UNL     1     -23.216 -51.040 -18.255  1.00  0.00     0.093 A 
ATOM     26  C   UNL     1     -24.673 -51.259 -20.169  1.00  0.00     0.094 A 
ATOM     27  C   UNL     1     -23.247 -52.425 -18.048  1.00  0.00     0.133 A 
ATOM     28  C   UNL     1     -24.680 -52.644 -19.998  1.00  0.00     0.138 A 
ATOM     29  C   UNL     1     -23.978 -53.241 -18.934  1.00  0.00     0.102 A 
ATOM     30  O   UNL     1     -25.389 -53.438 -20.903  1.00  0.00    -0.484 OA
ATOM     31  C   UNL     1     -24.030 -54.712 -18.838  1.00  0.00     0.174 C 
ATOM     32  C   UNL     1     -25.697 -54.812 -20.683  1.00  0.00     0.211 C 
ATOM     33  O   UNL     1     -23.748 -55.309 -17.738  1.00  0.00    -0.294 OA
ATOM     34  C   UNL     1     -24.510 -55.529 -20.010  1.00  0.00     0.131 C 
BRANCH  27  35
ATOM     35  O   UNL     1     -22.550 -52.979 -16.972  1.00  0.00    -0.507 OA
ATOM     36  H   UNL     1     -21.877 -52.444 -16.437  1.00  0.00     0.293 HD
ENDBRANCH  27  35
BRANCH  32  37
ATOM     37  C   UNL     1     -26.086 -55.482 -21.996  1.00  0.00    -0.007 A 
ATOM     38  C   UNL     1     -27.019 -54.881 -22.861  1.00  0.00     0.011 A 
ATOM     39  C   UNL     1     -25.528 -56.729 -22.351  1.00  0.00     0.011 A 
ATOM     40  C   UNL     1     -27.328 -55.457 -24.098  1.00  0.00     0.046 A 
ATOM     41  C   UNL     1     -25.885 -57.323 -23.569  1.00  0.00     0.046 A 
ATOM     42  C   UNL     1     -26.752 -56.682 -24.450  1.00  0.00     0.115 A 
BRANCH  42  43
ATOM     43  O   UNL     1     -27.056 -57.277 -25.675  1.00  0.00    -0.508 OA
ATOM     44  H   UNL     1     -28.002 -57.527 -25.916  1.00  0.00     0.293 HD
ENDBRANCH  42  43
ENDBRANCH  32  37
ENDBRANCH  23  24
ENDBRANCH   6  23
BRANCH   3  45
ATOM     45  O   UNL     1     -25.916 -45.048 -20.181  1.00  0.00    -0.387 OA
ATOM     46  H   UNL     1     -25.800 -44.066 -20.240  1.00  0.00     0.211 HD
ENDBRANCH   3  45
BRANCH   4  47
ATOM     47  C   UNL     1     -23.133 -46.467 -18.103  1.00  0.00     0.191 C 
BRANCH  47  48
ATOM     48  O   UNL     1     -22.545 -45.260 -17.708  1.00  0.00    -0.394 OA
ATOM     49  H   UNL     1     -22.632 -44.671 -18.513  1.00  0.00     0.210 HD
ENDBRANCH  47  48
ENDBRANCH   4  47
TORSDOF 14
ENDMDL
MODEL 6
REMARK VINA RESULT:    -5.754      3.969      7.779
REMARK INTER + INTRA:         -11.233
REMARK INTER:                  -9.084
REMARK INTRA:                  -2.149
REMARK UNBOUND:                -2.115
REMARK SMILES C[C@H]1O[C@H](O[C@@H]2[C@@H](Oc3cc(O)c4c(c3)O[C@@H](c3ccc(O)cc3)CC4=O)O[C@@H](CO)[C@H](O)[C@@H]2O)[C@@H](O)[C@H](O)[C@H]1O
REMARK SMILES IDX 6 1 34 2 32 3 29 4 28 5 7 6 5 7 4 8 1 9 2 10 40 11 3 12
REMARK SMILES IDX 38 13 36 14 41 15 39 17 37 19 35 21 8 23 9 24 10 25 15 26
REMARK SMILES IDX 11 27 14 28 13 29 16 30 26 31 17 32 27 33 25 34 12 35 18 37
REMARK SMILES IDX 19 38 24 39 20 40 23 41 21 42 22 43 33 45 30 47 31 48
REMARK H PARENT 41 16 39 18 37 20 35 22 12 36 22 44 33 46 31 49
REMARK Flexibility Score: inf
ROOT
ATOM      1  C   UNL     1     -23.656 -44.571 -21.410  1.00  0.00     0.221 C 
ATOM      2  C   UNL     1     -22.250 -44.326 -20.859  1.00  0.00     0.181 C 
ATOM      3  C   UNL     1     -22.247 -42.919 -20.261  1.00  0.00     0.177 C 
ATOM      4  C   UNL     1     -23.249 -42.844 -19.089  1.00  0.00     0.179 C 
ATOM      5  O   UNL     1     -24.566 -43.212 -19.454  1.00  0.00    -0.332 OA
ATOM      6  C   UNL     1     -24.674 -44.414 -20.213  1.00  0.00     0.339 C 
ENDROOT
BRANCH   1   7
ATOM      7  O   UNL     1     -23.850 -43.639 -22.516  1.00  0.00    -0.337 OA
BRANCH   7   8
ATOM      8  C   UNL     1     -24.207 -44.370 -23.699  1.00  0.00     0.282 C 
ATOM      9  C   UNL     1     -25.677 -47.112 -23.669  1.00  0.00     0.041 C 
ATOM     10  C   UNL     1     -25.873 -45.793 -24.473  1.00  0.00     0.150 C 
ATOM     11  C   UNL     1     -25.179 -45.844 -25.922  1.00  0.00     0.174 C 
ATOM     12  O   UNL     1     -25.565 -44.678 -23.644  1.00  0.00    -0.344 OA
ATOM     13  C   UNL     1     -23.856 -45.000 -26.027  1.00  0.00     0.179 C 
ATOM     14  C   UNL     1     -23.892 -43.772 -25.107  1.00  0.00     0.202 C 
BRANCH  11  15
ATOM     15  O   UNL     1     -24.960 -47.172 -26.358  1.00  0.00    -0.388 OA
ATOM     16  H   UNL     1     -25.443 -47.784 -25.729  1.00  0.00     0.211 HD
ENDBRANCH  11  15
BRANCH  13  17
ATOM     17  O   UNL     1     -23.619 -44.702 -27.395  1.00  0.00    -0.387 OA
ATOM     18  H   UNL     1     -24.281 -45.204 -27.967  1.00  0.00     0.211 HD
ENDBRANCH  13  17
BRANCH  14  19
ATOM     19  O   UNL     1     -22.639 -43.126 -25.214  1.00  0.00    -0.385 OA
ATOM     20  H   UNL     1     -22.897 -42.182 -25.414  1.00  0.00     0.211 HD
ENDBRANCH  14  19
ENDBRANCH   7   8
ENDBRANCH   1   7
BRANCH   2  21
ATOM     21  O   UNL     1     -21.269 -44.557 -21.846  1.00  0.00    -0.387 OA
ATOM     22  H   UNL     1     -20.389 -44.631 -21.407  1.00  0.00     0.211 HD
ENDBRANCH   2  21
BRANCH   6  23
ATOM     23  O   UNL     1     -24.465 -45.533 -19.353  1.00  0.00    -0.462 OA
BRANCH  23  24
ATOM     24  C   UNL     1     -25.007 -46.817 -19.562  1.00  0.00     0.130 A 
ATOM     25  C   UNL     1     -26.336 -47.014 -19.950  1.00  0.00     0.093 A 
ATOM     26  C   UNL     1     -24.176 -47.929 -19.376  1.00  0.00     0.094 A 
ATOM     27  C   UNL     1     -26.810 -48.289 -20.283  1.00  0.00     0.133 A 
ATOM     28  C   UNL     1     -24.649 -49.210 -19.666  1.00  0.00     0.138 A 
ATOM     29  C   UNL     1     -25.963 -49.404 -20.131  1.00  0.00     0.102 A 
ATOM     30  O   UNL     1     -23.801 -50.305 -19.483  1.00  0.00    -0.484 OA
ATOM     31  C   UNL     1     -26.381 -50.793 -20.399  1.00  0.00     0.174 C 
ATOM     32  C   UNL     1     -24.065 -51.609 -19.995  1.00  0.00     0.211 C 
ATOM     33  O   UNL     1     -27.390 -51.041 -21.151  1.00  0.00    -0.294 OA
ATOM     34  C   UNL     1     -25.564 -51.943 -19.870  1.00  0.00     0.131 C 
BRANCH  27  35
ATOM     35  O   UNL     1     -28.116 -48.440 -20.756  1.00  0.00    -0.507 OA
ATOM     36  H   UNL     1     -28.517 -47.802 -21.431  1.00  0.00     0.293 HD
ENDBRANCH  27  35
BRANCH  32  37
ATOM     37  C   UNL     1     -23.199 -52.642 -19.283  1.00  0.00    -0.007 A 
ATOM     38  C   UNL     1     -23.187 -52.723 -17.877  1.00  0.00     0.011 A 
ATOM     39  C   UNL     1     -22.379 -53.517 -20.026  1.00  0.00     0.011 A 
ATOM     40  C   UNL     1     -22.447 -53.712 -17.222  1.00  0.00     0.046 A 
ATOM     41  C   UNL     1     -21.601 -54.471 -19.355  1.00  0.00     0.046 A 
ATOM     42  C   UNL     1     -21.655 -54.591 -17.969  1.00  0.00     0.115 A 
BRANCH  42  43
ATOM     43  O   UNL     1     -20.903 -55.578 -17.331  1.00  0.00    -0.508 OA
ATOM     44  H   UNL     1     -21.030 -55.784 -16.353  1.00  0.00     0.293 HD
ENDBRANCH  42  43
ENDBRANCH  32  37
ENDBRANCH  23  24
ENDBRANCH   6  23
BRANCH   3  45
ATOM     45  O   UNL     1     -22.589 -41.931 -21.218  1.00  0.00    -0.387 OA
ATOM     46  H   UNL     1     -21.837 -41.899 -21.862  1.00  0.00     0.211 HD
ENDBRANCH   3  45
BRANCH   4  47
ATOM     47  C   UNL     1     -22.631 -43.615 -17.866  1.00  0.00     0.191 C 
BRANCH  47  48
ATOM     48  O   UNL     1     -23.622 -44.095 -17.003  1.00  0.00    -0.394 OA
ATOM     49  H   UNL     1     -23.995 -43.270 -16.575  1.00  0.00     0.210 HD
ENDBRANCH  47  48
ENDBRANCH   4  47
TORSDOF 14
ENDMDL
MODEL 7
REMARK VINA RESULT:    -5.673      4.183      7.900
REMARK INTER + INTRA:         -11.104
REMARK INTER:                  -8.935
REMARK INTRA:                  -2.169
REMARK UNBOUND:                -2.115
REMARK SMILES C[C@H]1O[C@H](O[C@@H]2[C@@H](Oc3cc(O)c4c(c3)O[C@@H](c3ccc(O)cc3)CC4=O)O[C@@H](CO)[C@H](O)[C@@H]2O)[C@@H](O)[C@H](O)[C@H]1O
REMARK SMILES IDX 6 1 34 2 32 3 29 4 28 5 7 6 5 7 4 8 1 9 2 10 40 11 3 12
REMARK SMILES IDX 38 13 36 14 41 15 39 17 37 19 35 21 8 23 9 24 10 25 15 26
REMARK SMILES IDX 11 27 14 28 13 29 16 30 26 31 17 32 27 33 25 34 12 35 18 37
REMARK SMILES IDX 19 38 24 39 20 40 23 41 21 42 22 43 33 45 30 47 31 48
REMARK H PARENT 41 16 39 18 37 20 35 22 12 36 22 44 33 46 31 49
REMARK Flexibility Score: inf
ROOT
ATOM      1  C   UNL     1     -23.458 -43.861 -21.497  1.00  0.00     0.221 C 
ATOM      2  C   UNL     1     -21.958 -43.663 -21.268  1.00  0.00     0.181 C 
ATOM      3  C   UNL     1     -21.803 -42.403 -20.415  1.00  0.00     0.177 C 
ATOM      4  C   UNL     1     -22.481 -42.611 -19.044  1.00  0.00     0.179 C 
ATOM      5  O   UNL     1     -23.848 -42.963 -19.143  1.00  0.00    -0.332 OA
ATOM      6  C   UNL     1     -24.145 -43.994 -20.081  1.00  0.00     0.339 C 
ENDROOT
BRANCH   1   7
ATOM      7  O   UNL     1     -23.918 -42.739 -22.308  1.00  0.00    -0.337 OA
BRANCH   7   8
ATOM      8  C   UNL     1     -24.627 -43.237 -23.454  1.00  0.00     0.282 C 
ATOM      9  C   UNL     1     -23.373 -43.510 -26.288  1.00  0.00     0.041 C 
ATOM     10  C   UNL     1     -24.235 -44.451 -25.395  1.00  0.00     0.150 C 
ATOM     11  C   UNL     1     -25.798 -44.392 -25.767  1.00  0.00     0.174 C 
ATOM     12  O   UNL     1     -23.885 -44.266 -24.028  1.00  0.00    -0.344 OA
ATOM     13  C   UNL     1     -26.673 -43.601 -24.727  1.00  0.00     0.179 C 
ATOM     14  C   UNL     1     -26.105 -43.716 -23.305  1.00  0.00     0.202 C 
BRANCH  11  15
ATOM     15  O   UNL     1     -26.013 -43.902 -27.076  1.00  0.00    -0.388 OA
ATOM     16  H   UNL     1     -26.155 -44.689 -27.678  1.00  0.00     0.211 HD
ENDBRANCH  11  15
BRANCH  13  17
ATOM     17  O   UNL     1     -28.021 -44.026 -24.856  1.00  0.00    -0.387 OA
ATOM     18  H   UNL     1     -28.338 -44.409 -23.979  1.00  0.00     0.211 HD
ENDBRANCH  13  17
BRANCH  14  19
ATOM     19  O   UNL     1     -26.910 -42.915 -22.462  1.00  0.00    -0.385 OA
ATOM     20  H   UNL     1     -26.616 -43.195 -21.549  1.00  0.00     0.211 HD
ENDBRANCH  14  19
ENDBRANCH   7   8
ENDBRANCH   1   7
BRANCH   2  21
ATOM     21  O   UNL     1     -21.255 -43.645 -22.491  1.00  0.00    -0.387 OA
ATOM     22  H   UNL     1     -20.948 -42.723 -22.666  1.00  0.00     0.211 HD
ENDBRANCH   2  21
BRANCH   6  23
ATOM     23  O   UNL     1     -23.731 -45.250 -19.546  1.00  0.00    -0.462 OA
BRANCH  23  24
ATOM     24  C   UNL     1     -24.382 -46.477 -19.785  1.00  0.00     0.130 A 
ATOM     25  C   UNL     1     -25.717 -46.549 -20.193  1.00  0.00     0.093 A 
ATOM     26  C   UNL     1     -23.654 -47.662 -19.610  1.00  0.00     0.094 A 
ATOM     27  C   UNL     1     -26.298 -47.771 -20.554  1.00  0.00     0.133 A 
ATOM     28  C   UNL     1     -24.234 -48.891 -19.930  1.00  0.00     0.138 A 
ATOM     29  C   UNL     1     -25.554 -48.960 -20.413  1.00  0.00     0.102 A 
ATOM     30  O   UNL     1     -23.488 -50.060 -19.757  1.00  0.00    -0.484 OA
ATOM     31  C   UNL     1     -26.089 -50.301 -20.712  1.00  0.00     0.174 C 
ATOM     32  C   UNL     1     -23.860 -51.326 -20.296  1.00  0.00     0.211 C 
ATOM     33  O   UNL     1     -27.107 -50.446 -21.480  1.00  0.00    -0.294 OA
ATOM     34  C   UNL     1     -25.384 -51.528 -20.195  1.00  0.00     0.131 C 
BRANCH  27  35
ATOM     35  O   UNL     1     -27.605 -47.798 -21.045  1.00  0.00    -0.507 OA
ATOM     36  H   UNL     1     -28.315 -48.399 -20.645  1.00  0.00     0.293 HD
ENDBRANCH  27  35
BRANCH  32  37
ATOM     37  C   UNL     1     -23.098 -52.443 -19.593  1.00  0.00    -0.007 A 
ATOM     38  C   UNL     1     -22.440 -53.442 -20.336  1.00  0.00     0.011 A 
ATOM     39  C   UNL     1     -23.059 -52.502 -18.184  1.00  0.00     0.011 A 
ATOM     40  C   UNL     1     -21.683 -54.430 -19.698  1.00  0.00     0.046 A 
ATOM     41  C   UNL     1     -22.340 -53.527 -17.555  1.00  0.00     0.046 A 
ATOM     42  C   UNL     1     -21.633 -54.465 -18.301  1.00  0.00     0.115 A 
BRANCH  42  43
ATOM     43  O   UNL     1     -20.890 -55.450 -17.647  1.00  0.00    -0.508 OA
ATOM     44  H   UNL     1     -21.294 -56.343 -17.415  1.00  0.00     0.293 HD
ENDBRANCH  42  43
ENDBRANCH  32  37
ENDBRANCH  23  24
ENDBRANCH   6  23
BRANCH   3  45
ATOM     45  O   UNL     1     -22.370 -41.263 -21.036  1.00  0.00    -0.387 OA
ATOM     46  H   UNL     1     -21.609 -40.680 -21.288  1.00  0.00     0.211 HD
ENDBRANCH   3  45
BRANCH   4  47
ATOM     47  C   UNL     1     -21.579 -43.579 -18.193  1.00  0.00     0.191 C 
BRANCH  47  48
ATOM     48  O   UNL     1     -22.320 -44.243 -17.209  1.00  0.00    -0.394 OA
ATOM     49  H   UNL     1     -22.498 -43.539 -16.520  1.00  0.00     0.210 HD
ENDBRANCH  47  48
ENDBRANCH   4  47
TORSDOF 14
ENDMDL
MODEL 8
REMARK VINA RESULT:    -5.672      5.528     10.076
REMARK INTER + INTRA:         -11.102
REMARK INTER:                  -8.799
REMARK INTRA:                  -2.303
REMARK UNBOUND:                -2.115
REMARK SMILES C[C@H]1O[C@H](O[C@@H]2[C@@H](Oc3cc(O)c4c(c3)O[C@@H](c3ccc(O)cc3)CC4=O)O[C@@H](CO)[C@H](O)[C@@H]2O)[C@@H](O)[C@H](O)[C@H]1O
REMARK SMILES IDX 6 1 34 2 32 3 29 4 28 5 7 6 5 7 4 8 1 9 2 10 40 11 3 12
REMARK SMILES IDX 38 13 36 14 41 15 39 17 37 19 35 21 8 23 9 24 10 25 15 26
REMARK SMILES IDX 11 27 14 28 13 29 16 30 26 31 17 32 27 33 25 34 12 35 18 37
REMARK SMILES IDX 19 38 24 39 20 40 23 41 21 42 22 43 33 45 30 47 31 48
REMARK H PARENT 41 16 39 18 37 20 35 22 12 36 22 44 33 46 31 49
REMARK Flexibility Score: inf
ROOT
ATOM      1  C   UNL     1     -22.623 -42.810 -25.344  1.00  0.00     0.221 C 
ATOM      2  C   UNL     1     -21.444 -42.092 -26.003  1.00  0.00     0.181 C 
ATOM      3  C   UNL     1     -21.900 -40.662 -26.290  1.00  0.00     0.177 C 
ATOM      4  C   UNL     1     -22.230 -39.940 -24.966  1.00  0.00     0.179 C 
ATOM      5  O   UNL     1     -23.204 -40.612 -24.190  1.00  0.00    -0.332 OA
ATOM      6  C   UNL     1     -22.996 -42.013 -24.032  1.00  0.00     0.339 C 
ENDROOT
BRANCH   1   7
ATOM      7  O   UNL     1     -23.684 -42.895 -26.342  1.00  0.00    -0.337 OA
BRANCH   7   8
ATOM      8  C   UNL     1     -24.168 -44.245 -26.411  1.00  0.00     0.282 C 
ATOM      9  C   UNL     1     -26.027 -45.536 -24.276  1.00  0.00     0.041 C 
ATOM     10  C   UNL     1     -26.040 -45.493 -25.833  1.00  0.00     0.150 C 
ATOM     11  C   UNL     1     -25.388 -46.807 -26.491  1.00  0.00     0.174 C 
ATOM     12  O   UNL     1     -25.555 -44.232 -26.280  1.00  0.00    -0.344 OA
ATOM     13  C   UNL     1     -23.957 -46.573 -27.100  1.00  0.00     0.179 C 
ATOM     14  C   UNL     1     -23.794 -45.143 -27.632  1.00  0.00     0.202 C 
BRANCH  11  15
ATOM     15  O   UNL     1     -25.377 -47.900 -25.593  1.00  0.00    -0.388 OA
ATOM     16  H   UNL     1     -26.192 -47.830 -25.016  1.00  0.00     0.211 HD
ENDBRANCH  11  15
BRANCH  13  17
ATOM     17  O   UNL     1     -23.704 -47.589 -28.059  1.00  0.00    -0.387 OA
ATOM     18  H   UNL     1     -24.470 -47.631 -28.713  1.00  0.00     0.211 HD
ENDBRANCH  13  17
BRANCH  14  19
ATOM     19  O   UNL     1     -22.460 -45.009 -28.085  1.00  0.00    -0.385 OA
ATOM     20  H   UNL     1     -22.473 -44.119 -28.539  1.00  0.00     0.211 HD
ENDBRANCH  14  19
ENDBRANCH   7   8
ENDBRANCH   1   7
BRANCH   2  21
ATOM     21  O   UNL     1     -20.978 -42.806 -27.127  1.00  0.00    -0.387 OA
ATOM     22  H   UNL     1     -21.719 -43.349 -27.488  1.00  0.00     0.211 HD
ENDBRANCH   2  21
BRANCH   6  23
ATOM     23  O   UNL     1     -21.929 -42.229 -23.109  1.00  0.00    -0.462 OA
BRANCH  23  24
ATOM     24  C   UNL     1     -22.054 -42.919 -21.886  1.00  0.00     0.130 A 
ATOM     25  C   UNL     1     -21.676 -42.352 -20.665  1.00  0.00     0.093 A 
ATOM     26  C   UNL     1     -22.582 -44.217 -21.905  1.00  0.00     0.094 A 
ATOM     27  C   UNL     1     -21.937 -43.005 -19.454  1.00  0.00     0.133 A 
ATOM     28  C   UNL     1     -22.810 -44.895 -20.707  1.00  0.00     0.138 A 
ATOM     29  C   UNL     1     -22.502 -44.296 -19.471  1.00  0.00     0.102 A 
ATOM     30  O   UNL     1     -23.346 -46.185 -20.747  1.00  0.00    -0.484 OA
ATOM     31  C   UNL     1     -22.764 -45.091 -18.257  1.00  0.00     0.174 C 
ATOM     32  C   UNL     1     -23.874 -46.861 -19.609  1.00  0.00     0.211 C 
ATOM     33  O   UNL     1     -22.867 -44.524 -17.110  1.00  0.00    -0.294 OA
ATOM     34  C   UNL     1     -23.013 -46.573 -18.363  1.00  0.00     0.131 C 
BRANCH  27  35
ATOM     35  O   UNL     1     -21.631 -42.372 -18.248  1.00  0.00    -0.507 OA
ATOM     36  H   UNL     1     -20.676 -42.255 -17.931  1.00  0.00     0.293 HD
ENDBRANCH  27  35
BRANCH  32  37
ATOM     37  C   UNL     1     -23.978 -48.357 -19.885  1.00  0.00    -0.007 A 
ATOM     38  C   UNL     1     -22.884 -49.210 -19.646  1.00  0.00     0.011 A 
ATOM     39  C   UNL     1     -25.170 -48.903 -20.406  1.00  0.00     0.011 A 
ATOM     40  C   UNL     1     -22.996 -50.591 -19.833  1.00  0.00     0.046 A 
ATOM     41  C   UNL     1     -25.255 -50.282 -20.639  1.00  0.00     0.046 A 
ATOM     42  C   UNL     1     -24.191 -51.125 -20.328  1.00  0.00     0.115 A 
BRANCH  42  43
ATOM     43  O   UNL     1     -24.317 -52.500 -20.530  1.00  0.00    -0.508 OA
ATOM     44  H   UNL     1     -24.944 -52.872 -21.226  1.00  0.00     0.293 HD
ENDBRANCH  42  43
ENDBRANCH  32  37
ENDBRANCH  23  24
ENDBRANCH   6  23
BRANCH   3  45
ATOM     45  O   UNL     1     -23.042 -40.623 -27.128  1.00  0.00    -0.387 OA
ATOM     46  H   UNL     1     -22.758 -41.001 -27.999  1.00  0.00     0.211 HD
ENDBRANCH   3  45
BRANCH   4  47
ATOM     47  C   UNL     1     -20.876 -39.608 -24.238  1.00  0.00     0.191 C 
BRANCH  47  48
ATOM     48  O   UNL     1     -21.064 -39.398 -22.867  1.00  0.00    -0.394 OA
ATOM     49  H   UNL     1     -22.041 -39.200 -22.782  1.00  0.00     0.210 HD
ENDBRANCH  47  48
ENDBRANCH   4  47
TORSDOF 14
ENDMDL
MODEL 9
REMARK VINA RESULT:    -5.639      3.792      7.863
REMARK INTER + INTRA:         -11.051
REMARK INTER:                  -8.640
REMARK INTRA:                  -2.411
REMARK UNBOUND:                -2.115
REMARK SMILES C[C@H]1O[C@H](O[C@@H]2[C@@H](Oc3cc(O)c4c(c3)O[C@@H](c3ccc(O)cc3)CC4=O)O[C@@H](CO)[C@H](O)[C@@H]2O)[C@@H](O)[C@H](O)[C@H]1O
REMARK SMILES IDX 6 1 34 2 32 3 29 4 28 5 7 6 5 7 4 8 1 9 2 10 40 11 3 12
REMARK SMILES IDX 38 13 36 14 41 15 39 17 37 19 35 21 8 23 9 24 10 25 15 26
REMARK SMILES IDX 11 27 14 28 13 29 16 30 26 31 17 32 27 33 25 34 12 35 18 37
REMARK SMILES IDX 19 38 24 39 20 40 23 41 21 42 22 43 33 45 30 47 31 48
REMARK H PARENT 41 16 39 18 37 20 35 22 12 36 22 44 33 46 31 49
REMARK Flexibility Score: inf
ROOT
ATOM      1  C   UNL     1     -29.393 -47.848 -16.168  1.00  0.00     0.221 C 
ATOM      2  C   UNL     1     -29.847 -48.321 -14.786  1.00  0.00     0.181 C 
ATOM      3  C   UNL     1     -31.210 -48.989 -14.972  1.00  0.00     0.177 C 
ATOM      4  C   UNL     1     -31.068 -50.225 -15.887  1.00  0.00     0.179 C 
ATOM      5  O   UNL     1     -30.499 -49.926 -17.148  1.00  0.00    -0.332 OA
ATOM      6  C   UNL     1     -29.328 -49.114 -17.110  1.00  0.00     0.339 C 
ENDROOT
BRANCH   1   7
ATOM      7  O   UNL     1     -30.323 -46.806 -16.591  1.00  0.00    -0.337 OA
BRANCH   7   8
ATOM      8  C   UNL     1     -29.605 -45.580 -16.799  1.00  0.00     0.282 C 
ATOM      9  C   UNL     1     -27.241 -45.270 -18.799  1.00  0.00     0.041 C 
ATOM     10  C   UNL     1     -28.515 -44.426 -18.495  1.00  0.00     0.150 C 
ATOM     11  C   UNL     1     -28.220 -43.202 -17.496  1.00  0.00     0.174 C 
ATOM     12  O   UNL     1     -29.594 -45.292 -18.162  1.00  0.00    -0.344 OA
ATOM     13  C   UNL     1     -28.757 -43.426 -16.035  1.00  0.00     0.179 C 
ATOM     14  C   UNL     1     -30.026 -44.292 -16.024  1.00  0.00     0.202 C 
BRANCH  11  15
ATOM     15  O   UNL     1     -26.849 -42.853 -17.476  1.00  0.00    -0.388 OA
ATOM     16  H   UNL     1     -26.498 -43.044 -16.558  1.00  0.00     0.211 HD
ENDBRANCH  11  15
BRANCH  13  17
ATOM     17  O   UNL     1     -28.906 -42.160 -15.410  1.00  0.00    -0.387 OA
ATOM     18  H   UNL     1     -28.168 -42.032 -14.733  1.00  0.00     0.211 HD
ENDBRANCH  13  17
BRANCH  14  19
ATOM     19  O   UNL     1     -30.385 -44.499 -14.672  1.00  0.00    -0.385 OA
ATOM     20  H   UNL     1     -29.693 -43.974 -14.180  1.00  0.00     0.211 HD
ENDBRANCH  14  19
ENDBRANCH   7   8
ENDBRANCH   1   7
BRANCH   2  21
ATOM     21  O   UNL     1     -29.825 -47.262 -13.854  1.00  0.00    -0.387 OA
ATOM     22  H   UNL     1     -29.415 -47.586 -13.017  1.00  0.00     0.211 HD
ENDBRANCH   2  21
BRANCH   6  23
ATOM     23  O   UNL     1     -28.226 -49.899 -16.659  1.00  0.00    -0.462 OA
BRANCH  23  24
ATOM     24  C   UNL     1     -26.976 -49.974 -17.306  1.00  0.00     0.130 A 
ATOM     25  C   UNL     1     -26.305 -51.185 -17.501  1.00  0.00     0.093 A 
ATOM     26  C   UNL     1     -26.396 -48.786 -17.772  1.00  0.00     0.094 A 
ATOM     27  C   UNL     1     -25.133 -51.247 -18.265  1.00  0.00     0.133 A 
ATOM     28  C   UNL     1     -25.207 -48.830 -18.502  1.00  0.00     0.138 A 
ATOM     29  C   UNL     1     -24.569 -50.056 -18.765  1.00  0.00     0.102 A 
ATOM     30  O   UNL     1     -24.650 -47.636 -18.966  1.00  0.00    -0.484 OA
ATOM     31  C   UNL     1     -23.310 -50.006 -19.532  1.00  0.00     0.174 C 
ATOM     32  C   UNL     1     -23.610 -47.569 -19.938  1.00  0.00     0.211 C 
ATOM     33  O   UNL     1     -22.861 -51.051 -20.126  1.00  0.00    -0.294 OA
ATOM     34  C   UNL     1     -22.585 -48.697 -19.709  1.00  0.00     0.131 C 
BRANCH  27  35
ATOM     35  O   UNL     1     -24.537 -52.484 -18.518  1.00  0.00    -0.507 OA
ATOM     36  H   UNL     1     -24.863 -53.336 -18.078  1.00  0.00     0.293 HD
ENDBRANCH  27  35
BRANCH  32  37
ATOM     37  C   UNL     1     -22.949 -46.196 -19.911  1.00  0.00    -0.007 A 
ATOM     38  C   UNL     1     -22.790 -45.499 -18.699  1.00  0.00     0.011 A 
ATOM     39  C   UNL     1     -22.505 -45.596 -21.108  1.00  0.00     0.011 A 
ATOM     40  C   UNL     1     -22.124 -44.270 -18.658  1.00  0.00     0.046 A 
ATOM     41  C   UNL     1     -21.885 -44.340 -21.063  1.00  0.00     0.046 A 
ATOM     42  C   UNL     1     -21.667 -43.694 -19.849  1.00  0.00     0.115 A 
BRANCH  42  43
ATOM     43  O   UNL     1     -21.008 -42.464 -19.829  1.00  0.00    -0.508 OA
ATOM     44  H   UNL     1     -20.012 -42.401 -19.968  1.00  0.00     0.293 HD
ENDBRANCH  42  43
ENDBRANCH  32  37
ENDBRANCH  23  24
ENDBRANCH   6  23
BRANCH   3  45
ATOM     45  O   UNL     1     -32.164 -48.109 -15.540  1.00  0.00    -0.387 OA
ATOM     46  H   UNL     1     -33.010 -48.266 -15.048  1.00  0.00     0.211 HD
ENDBRANCH   3  45
BRANCH   4  47
ATOM     47  C   UNL     1     -30.362 -51.365 -15.064  1.00  0.00     0.191 C 
BRANCH  47  48
ATOM     48  O   UNL     1     -29.769 -52.315 -15.903  1.00  0.00    -0.394 OA
ATOM     49  H   UNL     1     -29.689 -51.848 -16.785  1.00  0.00     0.210 HD
ENDBRANCH  47  48
ENDBRANCH   4  47
TORSDOF 14
ENDMDL
