MODEL 1
REMARK VINA RESULT:    -4.175      0.000      0.000
REMARK INTER + INTRA:          -4.888
REMARK INTER:                  -4.785
REMARK INTRA:                  -0.103
REMARK UNBOUND:                -0.103
REMARK SMILES COc1cc(C(C)=O)ccc1O
REMARK SMILES IDX 5 1 4 2 3 3 11 4 10 5 9 6 6 7 7 8 8 9 2 10 1 11 12 12
REMARK H PARENT 12 13
REMARK Flexibility Score: inf
ROOT
ATOM      1  C   UNL     1       8.383 -33.360  15.067  1.00  0.00     0.021 A 
ATOM      2  C   UNL     1       8.570 -32.496  16.164  1.00  0.00     0.062 A 
ATOM      3  C   UNL     1       8.231 -32.903  17.470  1.00  0.00     0.161 A 
ATOM      4  C   UNL     1       7.702 -34.183  17.676  1.00  0.00     0.157 A 
ATOM      5  C   UNL     1       7.514 -35.047  16.592  1.00  0.00     0.051 A 
ATOM      6  C   UNL     1       7.851 -34.642  15.299  1.00  0.00     0.016 A 
ENDROOT
BRANCH   1   7
ATOM      7  C   UNL     1       8.736 -32.944  13.682  1.00  0.00     0.159 C 
ATOM      8  C   UNL     1      10.157 -32.900  13.204  1.00  0.00     0.093 C 
ATOM      9  O   UNL     1       7.823 -32.617  12.875  1.00  0.00    -0.295 OA
ENDBRANCH   1   7
BRANCH   3  10
ATOM     10  O   UNL     1       8.405 -32.066  18.585  1.00  0.00    -0.493 OA
ATOM     11  C   UNL     1       9.612 -31.378  18.898  1.00  0.00     0.278 C 
ENDBRANCH   3  10
BRANCH   4  12
ATOM     12  O   UNL     1       7.365 -34.591  18.966  1.00  0.00    -0.504 OA
ATOM     13  H   UNL     1       7.989 -34.440  19.750  1.00  0.00     0.293 HD
ENDBRANCH   4  12
TORSDOF 3
ENDMDL
MODEL 2
REMARK VINA RESULT:    -4.090      1.065      2.676
REMARK INTER + INTRA:          -4.791
REMARK INTER:                  -4.680
REMARK INTRA:                  -0.110
REMARK UNBOUND:                -0.103
REMARK SMILES COc1cc(C(C)=O)ccc1O
REMARK SMILES IDX 5 1 4 2 3 3 11 4 10 5 9 6 6 7 7 8 8 9 2 10 1 11 12 12
REMARK H PARENT 12 13
REMARK Flexibility Score: inf
ROOT
ATOM      1  C   UNL     1       8.783 -32.906  15.242  1.00  0.00     0.021 A 
ATOM      2  C   UNL     1       7.860 -33.933  15.522  1.00  0.00     0.062 A 
ATOM      3  C   UNL     1       7.400 -34.154  16.836  1.00  0.00     0.161 A 
ATOM      4  C   UNL     1       7.868 -33.338  17.874  1.00  0.00     0.157 A 
ATOM      5  C   UNL     1       8.784 -32.316  17.605  1.00  0.00     0.051 A 
ATOM      6  C   UNL     1       9.238 -32.100  16.302  1.00  0.00     0.016 A 
ENDROOT
BRANCH   1   7
ATOM      7  C   UNL     1       9.278 -32.662  13.860  1.00  0.00     0.159 C 
ATOM      8  C   UNL     1      10.739 -32.529  13.551  1.00  0.00     0.093 C 
ATOM      9  O   UNL     1       8.454 -32.563  12.909  1.00  0.00    -0.295 OA
ENDBRANCH   1   7
BRANCH   3  10
ATOM     10  O   UNL     1       6.481 -35.169  17.148  1.00  0.00    -0.493 OA
ATOM     11  C   UNL     1       6.387 -36.412  16.461  1.00  0.00     0.278 C 
ENDBRANCH   3  10
BRANCH   4  12
ATOM     12  O   UNL     1       7.416 -33.552  19.176  1.00  0.00    -0.504 OA
ATOM     13  H   UNL     1       6.574 -34.083  19.364  1.00  0.00     0.293 HD
ENDBRANCH   4  12
TORSDOF 3
ENDMDL
MODEL 3
REMARK VINA RESULT:    -3.898      1.908      3.991
REMARK INTER + INTRA:          -4.572
REMARK INTER:                  -4.444
REMARK INTRA:                  -0.127
REMARK UNBOUND:                -0.103
REMARK SMILES COc1cc(C(C)=O)ccc1O
REMARK SMILES IDX 5 1 4 2 3 3 11 4 10 5 9 6 6 7 7 8 8 9 2 10 1 11 12 12
REMARK H PARENT 12 13
REMARK Flexibility Score: inf
ROOT
ATOM      1  C   UNL     1       7.289 -34.801  15.850  1.00  0.00     0.021 A 
ATOM      2  C   UNL     1       8.048 -34.227  14.811  1.00  0.00     0.062 A 
ATOM      3  C   UNL     1       8.831 -33.077  15.039  1.00  0.00     0.161 A 
ATOM      4  C   UNL     1       8.851 -32.501  16.316  1.00  0.00     0.157 A 
ATOM      5  C   UNL     1       8.099 -33.065  17.352  1.00  0.00     0.051 A 
ATOM      6  C   UNL     1       7.326 -34.204  17.124  1.00  0.00     0.016 A 
ENDROOT
BRANCH   1   7
ATOM      7  C   UNL     1       6.458 -36.015  15.624  1.00  0.00     0.159 C 
ATOM      8  C   UNL     1       6.284 -37.066  16.679  1.00  0.00     0.093 C 
ATOM      9  O   UNL     1       5.875 -36.177  14.517  1.00  0.00    -0.295 OA
ENDBRANCH   1   7
BRANCH   3  10
ATOM     10  O   UNL     1       9.599 -32.480  14.026  1.00  0.00    -0.493 OA
ATOM     11  C   UNL     1      10.634 -33.139  13.304  1.00  0.00     0.278 C 
ENDBRANCH   3  10
BRANCH   4  12
ATOM     12  O   UNL     1       9.623 -31.363  16.547  1.00  0.00    -0.504 OA
ATOM     13  H   UNL     1      10.423 -31.382  17.168  1.00  0.00     0.293 HD
ENDBRANCH   4  12
TORSDOF 3
ENDMDL
MODEL 4
REMARK VINA RESULT:    -3.694      1.986      4.894
REMARK INTER + INTRA:          -4.337
REMARK INTER:                  -4.233
REMARK INTRA:                  -0.104
REMARK UNBOUND:                -0.103
REMARK SMILES COc1cc(C(C)=O)ccc1O
REMARK SMILES IDX 5 1 4 2 3 3 11 4 10 5 9 6 6 7 7 8 8 9 2 10 1 11 12 12
REMARK H PARENT 12 13
REMARK Flexibility Score: inf
ROOT
ATOM      1  C   UNL     1       8.079 -34.739  16.014  1.00  0.00     0.021 A 
ATOM      2  C   UNL     1       8.857 -35.185  14.927  1.00  0.00     0.062 A 
ATOM      3  C   UNL     1       9.626 -34.279  14.169  1.00  0.00     0.161 A 
ATOM      4  C   UNL     1       9.615 -32.920  14.504  1.00  0.00     0.157 A 
ATOM      5  C   UNL     1       8.845 -32.468  15.582  1.00  0.00     0.051 A 
ATOM      6  C   UNL     1       8.084 -33.368  16.330  1.00  0.00     0.016 A 
ENDROOT
BRANCH   1   7
ATOM      7  C   UNL     1       7.261 -35.684  16.823  1.00  0.00     0.159 C 
ATOM      8  C   UNL     1       6.279 -36.625  16.192  1.00  0.00     0.093 C 
ATOM      9  O   UNL     1       7.389 -35.705  18.078  1.00  0.00    -0.295 OA
ENDBRANCH   1   7
BRANCH   3  10
ATOM     10  O   UNL     1      10.413 -34.692  13.081  1.00  0.00    -0.493 OA
ATOM     11  C   UNL     1      11.386 -35.729  13.135  1.00  0.00     0.278 C 
ENDBRANCH   3  10
BRANCH   4  12
ATOM     12  O   UNL     1      10.374 -32.019  13.758  1.00  0.00    -0.504 OA
ATOM     13  H   UNL     1      11.040 -32.336  13.063  1.00  0.00     0.293 HD
ENDBRANCH   4  12
TORSDOF 3
ENDMDL
MODEL 5
REMARK VINA RESULT:    -3.564     14.651     16.996
REMARK INTER + INTRA:          -4.188
REMARK INTER:                  -4.231
REMARK INTRA:                   0.043
REMARK UNBOUND:                -0.103
REMARK SMILES COc1cc(C(C)=O)ccc1O
REMARK SMILES IDX 5 1 4 2 3 3 11 4 10 5 9 6 6 7 7 8 8 9 2 10 1 11 12 12
REMARK H PARENT 12 13
REMARK Flexibility Score: inf
ROOT
ATOM      1  C   UNL     1      16.004 -36.845  30.926  1.00  0.00     0.021 A 
ATOM      2  C   UNL     1      16.373 -37.728  29.892  1.00  0.00     0.062 A 
ATOM      3  C   UNL     1      17.105 -37.271  28.778  1.00  0.00     0.161 A 
ATOM      4  C   UNL     1      17.469 -35.920  28.702  1.00  0.00     0.157 A 
ATOM      5  C   UNL     1      17.106 -35.037  29.724  1.00  0.00     0.051 A 
ATOM      6  C   UNL     1      16.381 -35.493  30.826  1.00  0.00     0.016 A 
ENDROOT
BRANCH   1   7
ATOM      7  C   UNL     1      15.230 -37.314  32.108  1.00  0.00     0.159 C 
ATOM      8  C   UNL     1      13.797 -36.930  32.323  1.00  0.00     0.093 C 
ATOM      9  O   UNL     1      15.784 -38.058  32.963  1.00  0.00    -0.295 OA
ENDBRANCH   1   7
BRANCH   3  10
ATOM     10  O   UNL     1      17.489 -38.125  27.731  1.00  0.00    -0.493 OA
ATOM     11  C   UNL     1      16.906 -38.123  26.432  1.00  0.00     0.278 C 
ENDBRANCH   3  10
BRANCH   4  12
ATOM     12  O   UNL     1      18.193 -35.462  27.602  1.00  0.00    -0.504 OA
ATOM     13  H   UNL     1      19.064 -35.898  27.322  1.00  0.00     0.293 HD
ENDBRANCH   4  12
TORSDOF 3
ENDMDL
MODEL 6
REMARK VINA RESULT:    -3.513      1.172      4.338
REMARK INTER + INTRA:          -4.130
REMARK INTER:                  -4.020
REMARK INTRA:                  -0.110
REMARK UNBOUND:                -0.103
REMARK SMILES COc1cc(C(C)=O)ccc1O
REMARK SMILES IDX 5 1 4 2 3 3 11 4 10 5 9 6 6 7 7 8 8 9 2 10 1 11 12 12
REMARK H PARENT 12 13
REMARK Flexibility Score: inf
ROOT
ATOM      1  C   UNL     1       7.886 -32.920  16.851  1.00  0.00     0.021 A 
ATOM      2  C   UNL     1       8.732 -32.499  15.806  1.00  0.00     0.062 A 
ATOM      3  C   UNL     1       8.483 -32.888  14.474  1.00  0.00     0.161 A 
ATOM      4  C   UNL     1       7.380 -33.704  14.191  1.00  0.00     0.157 A 
ATOM      5  C   UNL     1       6.536 -34.126  15.223  1.00  0.00     0.051 A 
ATOM      6  C   UNL     1       6.785 -33.739  16.541  1.00  0.00     0.016 A 
ENDROOT
BRANCH   1   7
ATOM      7  C   UNL     1       8.137 -32.517  18.262  1.00  0.00     0.159 C 
ATOM      8  C   UNL     1       9.279 -31.622  18.641  1.00  0.00     0.093 C 
ATOM      9  O   UNL     1       7.373 -32.931  19.176  1.00  0.00    -0.295 OA
ENDBRANCH   1   7
BRANCH   3  10
ATOM     10  O   UNL     1       9.306 -32.486  13.409  1.00  0.00    -0.493 OA
ATOM     11  C   UNL     1      10.688 -32.805  13.291  1.00  0.00     0.278 C 
ENDBRANCH   3  10
BRANCH   4  12
ATOM     12  O   UNL     1       7.129 -34.092  12.875  1.00  0.00    -0.504 OA
ATOM     13  H   UNL     1       7.590 -33.643  12.092  1.00  0.00     0.293 HD
ENDBRANCH   4  12
TORSDOF 3
ENDMDL
MODEL 7
REMARK VINA RESULT:    -3.483      1.752      4.644
REMARK INTER + INTRA:          -4.096
REMARK INTER:                  -3.978
REMARK INTRA:                  -0.118
REMARK UNBOUND:                -0.103
REMARK SMILES COc1cc(C(C)=O)ccc1O
REMARK SMILES IDX 5 1 4 2 3 3 11 4 10 5 9 6 6 7 7 8 8 9 2 10 1 11 12 12
REMARK H PARENT 12 13
REMARK Flexibility Score: inf
ROOT
ATOM      1  C   UNL     1       8.333 -33.208  16.739  1.00  0.00     0.021 A 
ATOM      2  C   UNL     1       7.829 -34.503  16.502  1.00  0.00     0.062 A 
ATOM      3  C   UNL     1       7.880 -35.072  15.213  1.00  0.00     0.161 A 
ATOM      4  C   UNL     1       8.438 -34.338  14.159  1.00  0.00     0.157 A 
ATOM      5  C   UNL     1       8.940 -33.053  14.387  1.00  0.00     0.051 A 
ATOM      6  C   UNL     1       8.889 -32.492  15.664  1.00  0.00     0.016 A 
ENDROOT
BRANCH   1   7
ATOM      7  C   UNL     1       8.286 -32.595  18.095  1.00  0.00     0.159 C 
ATOM      8  C   UNL     1       9.293 -31.577  18.541  1.00  0.00     0.093 C 
ATOM      9  O   UNL     1       7.377 -32.930  18.902  1.00  0.00    -0.295 OA
ENDBRANCH   1   7
BRANCH   3  10
ATOM     10  O   UNL     1       7.387 -36.359  14.942  1.00  0.00    -0.493 OA
ATOM     11  C   UNL     1       6.253 -36.940  15.577  1.00  0.00     0.278 C 
ENDBRANCH   3  10
BRANCH   4  12
ATOM     12  O   UNL     1       8.490 -34.897  12.882  1.00  0.00    -0.504 OA
ATOM     13  H   UNL     1       7.895 -35.673  12.618  1.00  0.00     0.293 HD
ENDBRANCH   4  12
TORSDOF 3
ENDMDL
MODEL 8
REMARK VINA RESULT:    -3.457      1.742      2.064
REMARK INTER + INTRA:          -4.066
REMARK INTER:                  -3.930
REMARK INTRA:                  -0.136
REMARK UNBOUND:                -0.103
REMARK SMILES COc1cc(C(C)=O)ccc1O
REMARK SMILES IDX 5 1 4 2 3 3 11 4 10 5 9 6 6 7 7 8 8 9 2 10 1 11 12 12
REMARK H PARENT 12 13
REMARK Flexibility Score: inf
ROOT
ATOM      1  C   UNL     1       9.335 -33.849  14.272  1.00  0.00     0.021 A 
ATOM      2  C   UNL     1       8.742 -33.032  15.256  1.00  0.00     0.062 A 
ATOM      3  C   UNL     1       7.638 -33.489  16.005  1.00  0.00     0.161 A 
ATOM      4  C   UNL     1       7.128 -34.770  15.765  1.00  0.00     0.157 A 
ATOM      5  C   UNL     1       7.710 -35.587  14.790  1.00  0.00     0.051 A 
ATOM      6  C   UNL     1       8.803 -35.133  14.050  1.00  0.00     0.016 A 
ENDROOT
BRANCH   1   7
ATOM      7  C   UNL     1      10.501 -33.381  13.474  1.00  0.00     0.159 C 
ATOM      8  C   UNL     1      11.488 -34.336  12.875  1.00  0.00     0.093 C 
ATOM      9  O   UNL     1      10.674 -32.145  13.286  1.00  0.00    -0.295 OA
ENDBRANCH   1   7
BRANCH   3  10
ATOM     10  O   UNL     1       7.025 -32.700  16.992  1.00  0.00    -0.493 OA
ATOM     11  C   UNL     1       7.552 -32.487  18.297  1.00  0.00     0.278 C 
ENDBRANCH   3  10
BRANCH   4  12
ATOM     12  O   UNL     1       6.035 -35.227  16.503  1.00  0.00    -0.504 OA
ATOM     13  H   UNL     1       5.702 -36.180  16.422  1.00  0.00     0.293 HD
ENDBRANCH   4  12
TORSDOF 3
ENDMDL
MODEL 9
REMARK VINA RESULT:    -3.390      2.056      3.454
REMARK INTER + INTRA:          -3.989
REMARK INTER:                  -3.885
REMARK INTRA:                  -0.104
REMARK UNBOUND:                -0.103
REMARK SMILES COc1cc(C(C)=O)ccc1O
REMARK SMILES IDX 5 1 4 2 3 3 11 4 10 5 9 6 6 7 7 8 8 9 2 10 1 11 12 12
REMARK H PARENT 12 13
REMARK Flexibility Score: inf
ROOT
ATOM      1  C   UNL     1       7.149 -35.262  15.142  1.00  0.00     0.021 A 
ATOM      2  C   UNL     1       6.895 -34.649  16.385  1.00  0.00     0.062 A 
ATOM      3  C   UNL     1       7.573 -33.473  16.763  1.00  0.00     0.161 A 
ATOM      4  C   UNL     1       8.511 -32.910  15.889  1.00  0.00     0.157 A 
ATOM      5  C   UNL     1       8.770 -33.512  14.653  1.00  0.00     0.051 A 
ATOM      6  C   UNL     1       8.096 -34.677  14.282  1.00  0.00     0.016 A 
ENDROOT
BRANCH   1   7
ATOM      7  C   UNL     1       6.441 -36.505  14.730  1.00  0.00     0.159 C 
ATOM      8  C   UNL     1       5.875 -37.466  15.732  1.00  0.00     0.093 C 
ATOM      9  O   UNL     1       6.304 -36.769  13.504  1.00  0.00    -0.295 OA
ENDBRANCH   1   7
BRANCH   3  10
ATOM     10  O   UNL     1       7.342 -32.837  17.993  1.00  0.00    -0.493 OA
ATOM     11  C   UNL     1       7.370 -33.490  19.258  1.00  0.00     0.278 C 
ENDBRANCH   3  10
BRANCH   4  12
ATOM     12  O   UNL     1       9.185 -31.745  16.257  1.00  0.00    -0.504 OA
ATOM     13  H   UNL     1      10.045 -31.778  16.792  1.00  0.00     0.293 HD
ENDBRANCH   4  12
TORSDOF 3
ENDMDL
