MODEL 1
REMARK VINA RESULT:    -4.595      0.000      0.000
REMARK INTER + INTRA:          -5.757
REMARK INTER:                  -5.535
REMARK INTRA:                  -0.222
REMARK UNBOUND:                -0.222
REMARK SMILES C=CCc1ccc(O)c(OC)c1
REMARK SMILES IDX 9 1 7 2 6 3 5 4 4 5 12 6 10 7 11 8 8 9 3 11 2 12 1 13
REMARK H PARENT 8 10
REMARK Flexibility Score: inf
ROOT
ATOM      1  C   UNL     1     117.282 118.263 120.912  1.00  0.00     0.160 A 
ATOM      2  C   UNL     1     117.677 116.915 120.835  1.00  0.00     0.157 A 
ATOM      3  C   UNL     1     118.172 116.397 119.635  1.00  0.00     0.050 A 
ATOM      4  C   UNL     1     118.275 117.208 118.503  1.00  0.00     0.008 A 
ATOM      5  C   UNL     1     117.877 118.552 118.559  1.00  0.00    -0.040 A 
ATOM      6  C   UNL     1     117.389 119.077 119.766  1.00  0.00     0.054 A 
ENDROOT
BRANCH   1   7
ATOM      7  O   UNL     1     116.794 118.758 122.132  1.00  0.00    -0.493 OA
ATOM      8  C   UNL     1     116.549 120.134 122.406  1.00  0.00     0.278 C 
ENDBRANCH   1   7
BRANCH   2   9
ATOM      9  O   UNL     1     117.588 116.074 121.945  1.00  0.00    -0.504 OA
ATOM     10  H   UNL     1     116.730 115.596 122.191  1.00  0.00     0.293 HD
ENDBRANCH   2   9
BRANCH   5  11
ATOM     11  C   UNL     1     118.015 119.437 117.349  1.00  0.00     0.062 C 
BRANCH  11  12
ATOM     12  C   UNL     1     119.024 118.876 116.389  1.00  0.00    -0.030 C 
ATOM     13  C   UNL     1     118.764 118.763 115.082  1.00  0.00     0.004 C 
ENDBRANCH  11  12
ENDBRANCH   5  11
TORSDOF 4
ENDMDL
MODEL 2
REMARK VINA RESULT:    -4.591      2.181      2.607
REMARK INTER + INTRA:          -5.752
REMARK INTER:                  -5.531
REMARK INTRA:                  -0.221
REMARK UNBOUND:                -0.222
REMARK SMILES C=CCc1ccc(O)c(OC)c1
REMARK SMILES IDX 9 1 7 2 6 3 5 4 4 5 12 6 10 7 11 8 8 9 3 11 2 12 1 13
REMARK H PARENT 8 10
REMARK Flexibility Score: inf
ROOT
ATOM      1  C   UNL     1     118.242 120.344 120.926  1.00  0.00     0.160 A 
ATOM      2  C   UNL     1     116.893 119.956 120.829  1.00  0.00     0.157 A 
ATOM      3  C   UNL     1     116.388 119.479 119.616  1.00  0.00     0.050 A 
ATOM      4  C   UNL     1     117.211 119.387 118.493  1.00  0.00     0.008 A 
ATOM      5  C   UNL     1     118.556 119.778 118.569  1.00  0.00    -0.040 A 
ATOM      6  C   UNL     1     119.069 120.248 119.789  1.00  0.00     0.054 A 
ENDROOT
BRANCH   1   7
ATOM      7  O   UNL     1     118.725 120.814 122.158  1.00  0.00    -0.493 OA
ATOM      8  C   UNL     1     120.093 121.090 122.438  1.00  0.00     0.278 C 
ENDBRANCH   1   7
BRANCH   2   9
ATOM      9  O   UNL     1     116.039 120.035 121.929  1.00  0.00    -0.504 OA
ATOM     10  H   UNL     1     116.229 119.548 122.796  1.00  0.00     0.293 HD
ENDBRANCH   2   9
BRANCH   5  11
ATOM     11  C   UNL     1     119.455 119.652 117.368  1.00  0.00     0.062 C 
BRANCH  11  12
ATOM     12  C   UNL     1     118.935 118.611 116.419  1.00  0.00    -0.030 C 
ATOM     13  C   UNL     1     118.785 118.862 115.114  1.00  0.00     0.004 C 
ENDBRANCH  11  12
ENDBRANCH   5  11
TORSDOF 4
ENDMDL
MODEL 3
REMARK VINA RESULT:    -4.567      1.715      2.288
REMARK INTER + INTRA:          -5.723
REMARK INTER:                  -5.499
REMARK INTRA:                  -0.224
REMARK UNBOUND:                -0.222
REMARK SMILES C=CCc1ccc(O)c(OC)c1
REMARK SMILES IDX 9 1 7 2 6 3 5 4 4 5 12 6 10 7 11 8 8 9 3 11 2 12 1 13
REMARK H PARENT 8 10
REMARK Flexibility Score: inf
ROOT
ATOM      1  C   UNL     1     118.823 116.933 120.360  1.00  0.00     0.160 A 
ATOM      2  C   UNL     1     120.215 116.732 120.322  1.00  0.00     0.157 A 
ATOM      3  C   UNL     1     120.969 117.249 119.265  1.00  0.00     0.050 A 
ATOM      4  C   UNL     1     120.351 117.964 118.238  1.00  0.00     0.008 A 
ATOM      5  C   UNL     1     118.963 118.165 118.253  1.00  0.00    -0.040 A 
ATOM      6  C   UNL     1     118.205 117.656 119.319  1.00  0.00     0.054 A 
ENDROOT
BRANCH   1   7
ATOM      7  O   UNL     1     118.090 116.407 121.436  1.00  0.00    -0.493 OA
ATOM      8  C   UNL     1     116.673 116.470 121.557  1.00  0.00     0.278 C 
ENDBRANCH   1   7
BRANCH   2   9
ATOM      9  O   UNL     1     120.868 116.023 121.331  1.00  0.00    -0.504 OA
ATOM     10  H   UNL     1     121.747 115.547 121.172  1.00  0.00     0.293 HD
ENDBRANCH   2   9
BRANCH   5  11
ATOM     11  C   UNL     1     118.297 118.961 117.163  1.00  0.00     0.062 C 
BRANCH  11  12
ATOM     12  C   UNL     1     119.193 119.078 115.963  1.00  0.00    -0.030 C 
ATOM     13  C   UNL     1     118.779 118.733 114.740  1.00  0.00     0.004 C 
ENDBRANCH  11  12
ENDBRANCH   5  11
TORSDOF 4
ENDMDL
MODEL 4
REMARK VINA RESULT:    -4.552      2.878      3.733
REMARK INTER + INTRA:          -5.705
REMARK INTER:                  -5.488
REMARK INTRA:                  -0.218
REMARK UNBOUND:                -0.222
REMARK SMILES C=CCc1ccc(O)c(OC)c1
REMARK SMILES IDX 9 1 7 2 6 3 5 4 4 5 12 6 10 7 11 8 8 9 3 11 2 12 1 13
REMARK H PARENT 8 10
REMARK Flexibility Score: inf
ROOT
ATOM      1  C   UNL     1     120.369 119.379 120.960  1.00  0.00     0.160 A 
ATOM      2  C   UNL     1     120.044 120.744 120.864  1.00  0.00     0.157 A 
ATOM      3  C   UNL     1     119.635 121.283 119.641  1.00  0.00     0.050 A 
ATOM      4  C   UNL     1     119.548 120.475 118.506  1.00  0.00     0.008 A 
ATOM      5  C   UNL     1     119.877 119.114 118.581  1.00  0.00    -0.040 A 
ATOM      6  C   UNL     1     120.279 118.568 119.810  1.00  0.00     0.054 A 
ENDROOT
BRANCH   1   7
ATOM      7  O   UNL     1     120.772 118.863 122.202  1.00  0.00    -0.493 OA
ATOM      8  C   UNL     1     121.098 117.498 122.444  1.00  0.00     0.278 C 
ENDBRANCH   1   7
BRANCH   2   9
ATOM      9  O   UNL     1     120.121 121.583 121.976  1.00  0.00    -0.504 OA
ATOM     10  H   UNL     1     120.413 122.549 121.904  1.00  0.00     0.293 HD
ENDBRANCH   2   9
BRANCH   5  11
ATOM     11  C   UNL     1     119.755 118.233 117.365  1.00  0.00     0.062 C 
BRANCH  11  12
ATOM     12  C   UNL     1     118.641 118.704 116.474  1.00  0.00    -0.030 C 
ATOM     13  C   UNL     1     118.788 118.783 115.148  1.00  0.00     0.004 C 
ENDBRANCH  11  12
ENDBRANCH   5  11
TORSDOF 4
ENDMDL
MODEL 5
REMARK VINA RESULT:    -4.531      1.215      2.491
REMARK INTER + INTRA:          -5.679
REMARK INTER:                  -5.467
REMARK INTRA:                  -0.212
REMARK UNBOUND:                -0.222
REMARK SMILES C=CCc1ccc(O)c(OC)c1
REMARK SMILES IDX 9 1 7 2 6 3 5 4 4 5 12 6 10 7 11 8 8 9 3 11 2 12 1 13
REMARK H PARENT 8 10
REMARK Flexibility Score: inf
ROOT
ATOM      1  C   UNL     1     117.162 118.247 120.860  1.00  0.00     0.160 A 
ATOM      2  C   UNL     1     116.603 119.538 120.861  1.00  0.00     0.157 A 
ATOM      3  C   UNL     1     116.554 120.281 119.678  1.00  0.00     0.050 A 
ATOM      4  C   UNL     1     117.060 119.754 118.489  1.00  0.00     0.008 A 
ATOM      5  C   UNL     1     117.630 118.473 118.472  1.00  0.00    -0.040 A 
ATOM      6  C   UNL     1     117.671 117.720 119.656  1.00  0.00     0.054 A 
ENDROOT
BRANCH   1   7
ATOM      7  O   UNL     1     117.194 117.521 122.061  1.00  0.00    -0.493 OA
ATOM      8  C   UNL     1     116.853 116.144 122.183  1.00  0.00     0.278 C 
ENDBRANCH   1   7
BRANCH   2   9
ATOM      9  O   UNL     1     116.088 120.100 122.030  1.00  0.00    -0.504 OA
ATOM     10  H   UNL     1     115.101 120.292 122.147  1.00  0.00     0.293 HD
ENDBRANCH   2   9
BRANCH   5  11
ATOM     11  C   UNL     1     118.149 117.888 117.185  1.00  0.00     0.062 C 
BRANCH  11  12
ATOM     12  C   UNL     1     118.802 118.946 116.343  1.00  0.00    -0.030 C 
ATOM     13  C   UNL     1     118.850 118.854 115.010  1.00  0.00     0.004 C 
ENDBRANCH  11  12
ENDBRANCH   5  11
TORSDOF 4
ENDMDL
MODEL 6
REMARK VINA RESULT:    -4.512      2.907      2.916
REMARK INTER + INTRA:          -5.657
REMARK INTER:                  -5.434
REMARK INTRA:                  -0.223
REMARK UNBOUND:                -0.222
REMARK SMILES C=CCc1ccc(O)c(OC)c1
REMARK SMILES IDX 9 1 7 2 6 3 5 4 4 5 12 6 10 7 11 8 8 9 3 11 2 12 1 13
REMARK H PARENT 8 10
REMARK Flexibility Score: inf
ROOT
ATOM      1  C   UNL     1     120.385 119.320 120.903  1.00  0.00     0.160 A 
ATOM      2  C   UNL     1     120.985 118.048 120.864  1.00  0.00     0.157 A 
ATOM      3  C   UNL     1     121.016 117.324 119.669  1.00  0.00     0.050 A 
ATOM      4  C   UNL     1     120.452 117.853 118.507  1.00  0.00     0.008 A 
ATOM      5  C   UNL     1     119.842 119.115 118.529  1.00  0.00    -0.040 A 
ATOM      6  C   UNL     1     119.818 119.848 119.726  1.00  0.00     0.054 A 
ENDROOT
BRANCH   1   7
ATOM      7  O   UNL     1     120.373 120.027 122.116  1.00  0.00    -0.493 OA
ATOM      8  C   UNL     1     120.897 121.340 122.292  1.00  0.00     0.278 C 
ENDBRANCH   1   7
BRANCH   2   9
ATOM      9  O   UNL     1     121.558 117.486 122.006  1.00  0.00    -0.504 OA
ATOM     10  H   UNL     1     122.334 117.920 122.489  1.00  0.00     0.293 HD
ENDBRANCH   2   9
BRANCH   5  11
ATOM     11  C   UNL     1     119.259 119.702 117.270  1.00  0.00     0.062 C 
BRANCH  11  12
ATOM     12  C   UNL     1     118.848 118.617 116.317  1.00  0.00    -0.030 C 
ATOM     13  C   UNL     1     118.924 118.779 114.992  1.00  0.00     0.004 C 
ENDBRANCH  11  12
ENDBRANCH   5  11
TORSDOF 4
ENDMDL
MODEL 7
REMARK VINA RESULT:    -4.505      1.805      2.398
REMARK INTER + INTRA:          -5.648
REMARK INTER:                  -5.425
REMARK INTRA:                  -0.223
REMARK UNBOUND:                -0.222
REMARK SMILES C=CCc1ccc(O)c(OC)c1
REMARK SMILES IDX 9 1 7 2 6 3 5 4 4 5 12 6 10 7 11 8 8 9 3 11 2 12 1 13
REMARK H PARENT 8 10
REMARK Flexibility Score: inf
ROOT
ATOM      1  C   UNL     1     119.314 117.158 120.909  1.00  0.00     0.160 A 
ATOM      2  C   UNL     1     118.029 116.591 120.833  1.00  0.00     0.157 A 
ATOM      3  C   UNL     1     117.340 116.576 119.617  1.00  0.00     0.050 A 
ATOM      4  C   UNL     1     117.916 117.126 118.471  1.00  0.00     0.008 A 
ATOM      5  C   UNL     1     119.192 117.704 118.529  1.00  0.00    -0.040 A 
ATOM      6  C   UNL     1     119.891 117.710 119.747  1.00  0.00     0.054 A 
ENDROOT
BRANCH   1   7
ATOM      7  O   UNL     1     119.985 117.154 122.142  1.00  0.00    -0.493 OA
ATOM      8  C   UNL     1     121.330 116.723 122.329  1.00  0.00     0.278 C 
ENDBRANCH   1   7
BRANCH   2   9
ATOM      9  O   UNL     1     117.420 116.033 121.958  1.00  0.00    -0.504 OA
ATOM     10  H   UNL     1     116.432 115.815 121.984  1.00  0.00     0.293 HD
ENDBRANCH   2   9
BRANCH   5  11
ATOM     11  C   UNL     1     119.830 118.270 117.288  1.00  0.00     0.062 C 
BRANCH  11  12
ATOM     12  C   UNL     1     118.810 118.973 116.438  1.00  0.00    -0.030 C 
ATOM     13  C   UNL     1     118.775 118.816 115.110  1.00  0.00     0.004 C 
ENDBRANCH  11  12
ENDBRANCH   5  11
TORSDOF 4
ENDMDL
MODEL 8
REMARK VINA RESULT:    -4.470      2.253      3.024
REMARK INTER + INTRA:          -5.606
REMARK INTER:                  -5.377
REMARK INTRA:                  -0.229
REMARK UNBOUND:                -0.222
REMARK SMILES C=CCc1ccc(O)c(OC)c1
REMARK SMILES IDX 9 1 7 2 6 3 5 4 4 5 12 6 10 7 11 8 8 9 3 11 2 12 1 13
REMARK H PARENT 8 10
REMARK Flexibility Score: inf
ROOT
ATOM      1  C   UNL     1     118.257 120.457 120.843  1.00  0.00     0.160 A 
ATOM      2  C   UNL     1     119.549 121.013 120.828  1.00  0.00     0.157 A 
ATOM      3  C   UNL     1     120.284 121.047 119.640  1.00  0.00     0.050 A 
ATOM      4  C   UNL     1     119.747 120.528 118.461  1.00  0.00     0.008 A 
ATOM      5  C   UNL     1     118.464 119.962 118.458  1.00  0.00    -0.040 A 
ATOM      6  C   UNL     1     117.720 119.935 119.648  1.00  0.00     0.054 A 
ENDROOT
BRANCH   1   7
ATOM      7  O   UNL     1     117.539 120.441 122.049  1.00  0.00    -0.493 OA
ATOM      8  C   UNL     1     117.256 119.268 122.806  1.00  0.00     0.278 C 
ENDBRANCH   1   7
BRANCH   2   9
ATOM      9  O   UNL     1     120.120 121.540 121.988  1.00  0.00    -0.504 OA
ATOM     10  H   UNL     1     120.453 120.951 122.741  1.00  0.00     0.293 HD
ENDBRANCH   2   9
BRANCH   5  11
ATOM     11  C   UNL     1     117.870 119.429 117.182  1.00  0.00     0.062 C 
BRANCH  11  12
ATOM     12  C   UNL     1     118.920 118.759 116.342  1.00  0.00    -0.030 C 
ATOM     13  C   UNL     1     118.895 118.819 115.007  1.00  0.00     0.004 C 
ENDBRANCH  11  12
ENDBRANCH   5  11
TORSDOF 4
ENDMDL
MODEL 9
REMARK VINA RESULT:    -4.273      1.213      1.383
REMARK INTER + INTRA:          -5.369
REMARK INTER:                  -5.141
REMARK INTRA:                  -0.228
REMARK UNBOUND:                -0.222
REMARK SMILES C=CCc1ccc(O)c(OC)c1
REMARK SMILES IDX 9 1 7 2 6 3 5 4 4 5 12 6 10 7 11 8 8 9 3 11 2 12 1 13
REMARK H PARENT 8 10
REMARK Flexibility Score: inf
ROOT
ATOM      1  C   UNL     1     117.408 117.512 121.197  1.00  0.00     0.160 A 
ATOM      2  C   UNL     1     116.518 116.529 120.724  1.00  0.00     0.157 A 
ATOM      3  C   UNL     1     116.642 116.042 119.420  1.00  0.00     0.050 A 
ATOM      4  C   UNL     1     117.642 116.526 118.575  1.00  0.00     0.008 A 
ATOM      5  C   UNL     1     118.531 117.512 119.027  1.00  0.00    -0.040 A 
ATOM      6  C   UNL     1     118.416 117.996 120.340  1.00  0.00     0.054 A 
ENDROOT
BRANCH   1   7
ATOM      7  O   UNL     1     117.264 117.979 122.513  1.00  0.00    -0.493 OA
ATOM      8  C   UNL     1     116.777 119.271 122.864  1.00  0.00     0.278 C 
ENDBRANCH   1   7
BRANCH   2   9
ATOM      9  O   UNL     1     115.505 116.023 121.539  1.00  0.00    -0.504 OA
ATOM     10  H   UNL     1     114.559 116.382 121.509  1.00  0.00     0.293 HD
ENDBRANCH   2   9
BRANCH   5  11
ATOM     11  C   UNL     1     119.631 118.015 118.129  1.00  0.00     0.062 C 
BRANCH  11  12
ATOM     12  C   UNL     1     119.113 119.064 117.187  1.00  0.00    -0.030 C 
ATOM     13  C   UNL     1     118.789 118.774 115.922  1.00  0.00     0.004 C 
ENDBRANCH  11  12
ENDBRANCH   5  11
TORSDOF 4
ENDMDL
