MODEL 1
REMARK VINA RESULT:    -3.418      0.000      0.000
REMARK INTER + INTRA:          -5.152
REMARK INTER:                  -4.617
REMARK INTRA:                  -0.534
REMARK UNBOUND:                -0.534
REMARK SMILES [NH3+]CCCC[C@@H]([NH3+])C(=O)[O-]
REMARK SMILES IDX 4 1 3 2 2 3 1 4 5 8 6 9 7 10 8 14 9 15 10 16
REMARK H PARENT 1 5 1 6 1 7 7 11 7 12 7 13
REMARK Flexibility Score: inf
ROOT
ATOM      1  C   UNL     1     125.825 134.637 123.103  1.00  0.00     0.012 C 
ENDROOT
BRANCH   1   2
ATOM      2  C   UNL     1     126.823 134.542 121.940  1.00  0.00     0.061 C 
BRANCH   2   3
ATOM      3  C   UNL     1     128.285 134.513 122.416  1.00  0.00     0.258 C 
BRANCH   3   4
ATOM      4  N   UNL     1     129.020 135.715 122.018  1.00  0.00    -0.358 N 
ATOM      5  H   UNL     1     129.592 136.072 122.816  1.00  0.00     0.344 HD
ATOM      6  H   UNL     1     129.666 135.472 121.234  1.00  0.00     0.344 HD
ATOM      7  H   UNL     1     128.359 136.456 121.691  1.00  0.00     0.344 HD
ENDBRANCH   3   4
ENDBRANCH   2   3
ENDBRANCH   1   2
BRANCH   1   8
ATOM      8  C   UNL     1     125.847 136.039 123.733  1.00  0.00     0.072 C 
BRANCH   8   9
ATOM      9  C   UNL     1     126.187 136.009 125.241  1.00  0.00     0.227 C 
BRANCH   9  10
ATOM     10  N   UNL     1     126.377 134.636 125.729  1.00  0.00    -0.350 N 
ATOM     11  H   UNL     1     126.024 134.536 126.708  1.00  0.00     0.345 HD
ATOM     12  H   UNL     1     127.389 134.378 125.696  1.00  0.00     0.345 HD
ATOM     13  H   UNL     1     125.862 133.965 125.112  1.00  0.00     0.345 HD
ENDBRANCH   9  10
BRANCH   9  14
ATOM     14  C   UNL     1     127.429 136.821 125.490  1.00  0.00     0.099 C 
ATOM     15  O   UNL     1     127.827 137.026 126.667  1.00  0.00    -0.544 OA
ATOM     16  O   UNL     1     128.136 137.366 124.424  1.00  0.00    -0.544 OA
ENDBRANCH   9  14
ENDBRANCH   8   9
ENDBRANCH   1   8
TORSDOF 7
ENDMDL
MODEL 2
REMARK VINA RESULT:    -3.414     10.718     11.646
REMARK INTER + INTRA:          -5.146
REMARK INTER:                  -4.615
REMARK INTRA:                  -0.531
REMARK UNBOUND:                -0.534
REMARK SMILES [NH3+]CCCC[C@@H]([NH3+])C(=O)[O-]
REMARK SMILES IDX 4 1 3 2 2 3 1 4 5 8 6 9 7 10 8 14 9 15 10 16
REMARK H PARENT 1 5 1 6 1 7 7 11 7 12 7 13
REMARK Flexibility Score: inf
ROOT
ATOM      1  C   UNL     1     135.631 126.021 123.076  1.00  0.00     0.012 C 
ENDROOT
BRANCH   1   2
ATOM      2  C   UNL     1     135.287 126.900 121.865  1.00  0.00     0.061 C 
BRANCH   2   3
ATOM      3  C   UNL     1     134.578 128.205 122.264  1.00  0.00     0.258 C 
BRANCH   3   4
ATOM      4  N   UNL     1     133.188 128.242 121.807  1.00  0.00    -0.358 N 
ATOM      5  H   UNL     1     132.660 128.991 122.309  1.00  0.00     0.344 HD
ATOM      6  H   UNL     1     133.174 128.460 120.785  1.00  0.00     0.344 HD
ATOM      7  H   UNL     1     132.729 127.316 121.959  1.00  0.00     0.344 HD
ENDBRANCH   3   4
ENDBRANCH   2   3
ENDBRANCH   1   2
BRANCH   1   8
ATOM      8  C   UNL     1     134.374 125.332 123.631  1.00  0.00     0.072 C 
BRANCH   8   9
ATOM      9  C   UNL     1     134.135 125.641 125.126  1.00  0.00     0.227 C 
BRANCH   9  10
ATOM     10  N   UNL     1     135.173 126.528 125.671  1.00  0.00    -0.350 N 
ATOM     11  H   UNL     1     134.770 127.182 126.381  1.00  0.00     0.345 HD
ATOM     12  H   UNL     1     135.617 127.079 124.902  1.00  0.00     0.345 HD
ATOM     13  H   UNL     1     135.926 125.957 126.122  1.00  0.00     0.345 HD
ENDBRANCH   9  10
BRANCH   9  14
ATOM     14  C   UNL     1     132.779 126.271 125.296  1.00  0.00     0.099 C 
ATOM     15  O   UNL     1     132.286 126.412 126.446  1.00  0.00    -0.544 OA
ATOM     16  O   UNL     1     132.053 126.684 124.185  1.00  0.00    -0.544 OA
ENDBRANCH   9  14
ENDBRANCH   8   9
ENDBRANCH   1   8
TORSDOF 7
ENDMDL
MODEL 3
REMARK VINA RESULT:    -3.389     10.620     11.688
REMARK INTER + INTRA:          -5.112
REMARK INTER:                  -4.562
REMARK INTRA:                  -0.550
REMARK UNBOUND:                -0.534
REMARK SMILES [NH3+]CCCC[C@@H]([NH3+])C(=O)[O-]
REMARK SMILES IDX 4 1 3 2 2 3 1 4 5 8 6 9 7 10 8 14 9 15 10 16
REMARK H PARENT 1 5 1 6 1 7 7 11 7 12 7 13
REMARK Flexibility Score: inf
ROOT
ATOM      1  C   UNL     1     138.170 138.703 123.085  1.00  0.00     0.012 C 
ENDROOT
BRANCH   1   2
ATOM      2  C   UNL     1     137.545 137.955 121.898  1.00  0.00     0.061 C 
BRANCH   2   3
ATOM      3  C   UNL     1     136.734 136.723 122.336  1.00  0.00     0.258 C 
BRANCH   3   4
ATOM      4  N   UNL     1     137.378 135.469 121.943  1.00  0.00    -0.358 N 
ATOM      5  H   UNL     1     136.801 134.653 122.247  1.00  0.00     0.344 HD
ATOM      6  H   UNL     1     137.459 135.443 120.901  1.00  0.00     0.344 HD
ATOM      7  H   UNL     1     138.336 135.404 122.356  1.00  0.00     0.344 HD
ENDBRANCH   3   4
ENDBRANCH   2   3
ENDBRANCH   1   2
BRANCH   1   8
ATOM      8  C   UNL     1     139.405 137.957 123.617  1.00  0.00     0.072 C 
BRANCH   8   9
ATOM      9  C   UNL     1     139.265 137.558 125.103  1.00  0.00     0.227 C 
BRANCH   9  10
ATOM     10  N   UNL     1     138.019 138.071 125.690  1.00  0.00    -0.350 N 
ATOM     11  H   UNL     1     138.214 138.621 126.558  1.00  0.00     0.345 HD
ATOM     12  H   UNL     1     137.374 137.281 125.917  1.00  0.00     0.345 HD
ATOM     13  H   UNL     1     137.529 138.687 125.000  1.00  0.00     0.345 HD
ENDBRANCH   9  10
BRANCH   9  14
ATOM     14  C   UNL     1     139.311 136.058 125.225  1.00  0.00     0.099 C 
ATOM     15  O   UNL     1     139.341 135.340 124.191  1.00  0.00    -0.544 OA
ATOM     16  O   UNL     1     139.303 135.455 126.477  1.00  0.00    -0.544 OA
ENDBRANCH   9  14
ENDBRANCH   8   9
ENDBRANCH   1   8
TORSDOF 7
ENDMDL
MODEL 4
REMARK VINA RESULT:    -3.380      1.658      1.933
REMARK INTER + INTRA:          -5.100
REMARK INTER:                  -4.809
REMARK INTRA:                  -0.290
REMARK UNBOUND:                -0.534
REMARK SMILES [NH3+]CCCC[C@@H]([NH3+])C(=O)[O-]
REMARK SMILES IDX 4 1 3 2 2 3 1 4 5 8 6 9 7 10 8 14 9 15 10 16
REMARK H PARENT 1 5 1 6 1 7 7 11 7 12 7 13
REMARK Flexibility Score: inf
ROOT
ATOM      1  C   UNL     1     125.708 134.439 122.892  1.00  0.00     0.012 C 
ENDROOT
BRANCH   1   2
ATOM      2  C   UNL     1     127.038 133.796 122.471  1.00  0.00     0.061 C 
BRANCH   2   3
ATOM      3  C   UNL     1     127.259 133.837 120.949  1.00  0.00     0.258 C 
BRANCH   3   4
ATOM      4  N   UNL     1     128.369 134.714 120.576  1.00  0.00    -0.358 N 
ATOM      5  H   UNL     1     128.139 135.242 119.704  1.00  0.00     0.344 HD
ATOM      6  H   UNL     1     128.529 135.405 121.345  1.00  0.00     0.344 HD
ATOM      7  H   UNL     1     129.244 134.158 120.438  1.00  0.00     0.344 HD
ENDBRANCH   3   4
ENDBRANCH   2   3
ENDBRANCH   1   2
BRANCH   1   8
ATOM      8  C   UNL     1     125.899 135.927 123.226  1.00  0.00     0.072 C 
BRANCH   8   9
ATOM      9  C   UNL     1     127.273 136.222 123.869  1.00  0.00     0.227 C 
BRANCH   9  10
ATOM     10  N   UNL     1     128.025 137.231 123.109  1.00  0.00    -0.350 N 
ATOM     11  H   UNL     1     127.931 137.068 122.080  1.00  0.00     0.345 HD
ATOM     12  H   UNL     1     129.035 137.205 123.375  1.00  0.00     0.345 HD
ATOM     13  H   UNL     1     127.665 138.187 123.337  1.00  0.00     0.345 HD
ENDBRANCH   9  10
BRANCH   9  14
ATOM     14  C   UNL     1     127.073 136.688 125.286  1.00  0.00     0.099 C 
ATOM     15  O   UNL     1     127.921 137.442 125.831  1.00  0.00    -0.544 OA
ATOM     16  O   UNL     1     125.960 136.275 126.009  1.00  0.00    -0.544 OA
ENDBRANCH   9  14
ENDBRANCH   8   9
ENDBRANCH   1   8
TORSDOF 7
ENDMDL
MODEL 5
REMARK VINA RESULT:    -3.349     10.643     11.867
REMARK INTER + INTRA:          -5.057
REMARK INTER:                  -4.491
REMARK INTRA:                  -0.567
REMARK UNBOUND:                -0.534
REMARK SMILES [NH3+]CCCC[C@@H]([NH3+])C(=O)[O-]
REMARK SMILES IDX 4 1 3 2 2 3 1 4 5 8 6 9 7 10 8 14 9 15 10 16
REMARK H PARENT 1 5 1 6 1 7 7 11 7 12 7 13
REMARK Flexibility Score: inf
ROOT
ATOM      1  C   UNL     1     139.370 137.757 125.806  1.00  0.00     0.012 C 
ENDROOT
BRANCH   1   2
ATOM      2  C   UNL     1     139.215 136.478 126.642  1.00  0.00     0.061 C 
BRANCH   2   3
ATOM      3  C   UNL     1     139.478 135.202 125.825  1.00  0.00     0.258 C 
BRANCH   3   4
ATOM      4  N   UNL     1     138.277 134.375 125.689  1.00  0.00    -0.358 N 
ATOM      5  H   UNL     1     137.424 134.977 125.658  1.00  0.00     0.344 HD
ATOM      6  H   UNL     1     138.335 133.841 124.793  1.00  0.00     0.344 HD
ATOM      7  H   UNL     1     138.209 133.696 126.481  1.00  0.00     0.344 HD
ENDBRANCH   3   4
ENDBRANCH   2   3
ENDBRANCH   1   2
BRANCH   1   8
ATOM      8  C   UNL     1     138.044 138.135 125.128  1.00  0.00     0.072 C 
BRANCH   8   9
ATOM      9  C   UNL     1     138.148 138.158 123.586  1.00  0.00     0.227 C 
BRANCH   9  10
ATOM     10  N   UNL     1     139.547 138.175 123.136  1.00  0.00    -0.350 N 
ATOM     11  H   UNL     1     139.641 137.724 122.196  1.00  0.00     0.345 HD
ATOM     12  H   UNL     1     140.154 137.675 123.823  1.00  0.00     0.345 HD
ATOM     13  H   UNL     1     139.889 139.162 123.076  1.00  0.00     0.345 HD
ENDBRANCH   9  10
BRANCH   9  14
ATOM     14  C   UNL     1     137.438 136.958 123.019  1.00  0.00     0.099 C 
ATOM     15  O   UNL     1     136.775 136.200 123.774  1.00  0.00    -0.544 OA
ATOM     16  O   UNL     1     137.526 136.668 121.662  1.00  0.00    -0.544 OA
ENDBRANCH   9  14
ENDBRANCH   8   9
ENDBRANCH   1   8
TORSDOF 7
ENDMDL
MODEL 6
REMARK VINA RESULT:    -3.341     10.410     11.763
REMARK INTER + INTRA:          -5.047
REMARK INTER:                  -4.583
REMARK INTRA:                  -0.464
REMARK UNBOUND:                -0.534
REMARK SMILES [NH3+]CCCC[C@@H]([NH3+])C(=O)[O-]
REMARK SMILES IDX 4 1 3 2 2 3 1 4 5 8 6 9 7 10 8 14 9 15 10 16
REMARK H PARENT 1 5 1 6 1 7 7 11 7 12 7 13
REMARK Flexibility Score: inf
ROOT
ATOM      1  C   UNL     1     134.947 126.318 125.175  1.00  0.00     0.012 C 
ENDROOT
BRANCH   1   2
ATOM      2  C   UNL     1     133.960 125.476 125.996  1.00  0.00     0.061 C 
BRANCH   2   3
ATOM      3  C   UNL     1     132.937 126.338 126.755  1.00  0.00     0.258 C 
BRANCH   3   4
ATOM      4  N   UNL     1     131.740 126.607 125.957  1.00  0.00    -0.358 N 
ATOM      5  H   UNL     1     131.745 126.028 125.087  1.00  0.00     0.344 HD
ATOM      6  H   UNL     1     130.895 126.350 126.517  1.00  0.00     0.344 HD
ATOM      7  H   UNL     1     131.684 127.622 125.712  1.00  0.00     0.344 HD
ENDBRANCH   3   4
ENDBRANCH   2   3
ENDBRANCH   1   2
BRANCH   1   8
ATOM      8  C   UNL     1     134.842 125.985 123.678  1.00  0.00     0.072 C 
BRANCH   8   9
ATOM      9  C   UNL     1     134.528 127.225 122.812  1.00  0.00     0.227 C 
BRANCH   9  10
ATOM     10  N   UNL     1     135.176 127.149 121.495  1.00  0.00    -0.350 N 
ATOM     11  H   UNL     1     134.746 126.396 120.911  1.00  0.00     0.345 HD
ATOM     12  H   UNL     1     136.198 126.961 121.607  1.00  0.00     0.345 HD
ATOM     13  H   UNL     1     135.078 128.065 120.997  1.00  0.00     0.345 HD
ENDBRANCH   9  10
BRANCH   9  14
ATOM     14  C   UNL     1     133.037 127.353 122.645  1.00  0.00     0.099 C 
ATOM     15  O   UNL     1     132.278 126.409 122.987  1.00  0.00    -0.544 OA
ATOM     16  O   UNL     1     132.490 128.506 122.094  1.00  0.00    -0.544 OA
ENDBRANCH   9  14
ENDBRANCH   8   9
ENDBRANCH   1   8
TORSDOF 7
ENDMDL
MODEL 7
REMARK VINA RESULT:    -3.298      2.188      3.604
REMARK INTER + INTRA:          -4.989
REMARK INTER:                  -4.502
REMARK INTRA:                  -0.488
REMARK UNBOUND:                -0.534
REMARK SMILES [NH3+]CCCC[C@@H]([NH3+])C(=O)[O-]
REMARK SMILES IDX 4 1 3 2 2 3 1 4 5 8 6 9 7 10 8 14 9 15 10 16
REMARK H PARENT 1 5 1 6 1 7 7 11 7 12 7 13
REMARK Flexibility Score: inf
ROOT
ATOM      1  C   UNL     1     126.263 135.050 125.365  1.00  0.00     0.012 C 
ENDROOT
BRANCH   1   2
ATOM      2  C   UNL     1     126.454 136.358 126.149  1.00  0.00     0.061 C 
BRANCH   2   3
ATOM      3  C   UNL     1     127.932 136.652 126.458  1.00  0.00     0.258 C 
BRANCH   3   4
ATOM      4  N   UNL     1     128.443 137.787 125.688  1.00  0.00    -0.358 N 
ATOM      5  H   UNL     1     129.455 137.941 125.895  1.00  0.00     0.344 HD
ATOM      6  H   UNL     1     128.345 137.575 124.669  1.00  0.00     0.344 HD
ATOM      7  H   UNL     1     127.897 138.651 125.905  1.00  0.00     0.344 HD
ENDBRANCH   3   4
ENDBRANCH   2   3
ENDBRANCH   1   2
BRANCH   1   8
ATOM      8  C   UNL     1     126.060 135.331 123.868  1.00  0.00     0.072 C 
BRANCH   8   9
ATOM      9  C   UNL     1     127.111 134.627 122.981  1.00  0.00     0.227 C 
BRANCH   9  10
ATOM     10  N   UNL     1     126.482 133.826 121.922  1.00  0.00    -0.350 N 
ATOM     11  H   UNL     1     125.487 134.116 121.778  1.00  0.00     0.345 HD
ATOM     12  H   UNL     1     126.517 132.812 122.166  1.00  0.00     0.345 HD
ATOM     13  H   UNL     1     127.005 133.951 121.024  1.00  0.00     0.345 HD
ENDBRANCH   9  10
BRANCH   9  14
ATOM     14  C   UNL     1     128.025 135.657 122.374  1.00  0.00     0.099 C 
ATOM     15  O   UNL     1     128.090 136.814 122.867  1.00  0.00    -0.544 OA
ATOM     16  O   UNL     1     128.788 135.346 121.255  1.00  0.00    -0.544 OA
ENDBRANCH   9  14
ENDBRANCH   8   9
ENDBRANCH   1   8
TORSDOF 7
ENDMDL
MODEL 8
REMARK VINA RESULT:    -3.296     10.643     11.782
REMARK INTER + INTRA:          -4.986
REMARK INTER:                  -4.496
REMARK INTRA:                  -0.490
REMARK UNBOUND:                -0.534
REMARK SMILES [NH3+]CCCC[C@@H]([NH3+])C(=O)[O-]
REMARK SMILES IDX 4 1 3 2 2 3 1 4 5 8 6 9 7 10 8 14 9 15 10 16
REMARK H PARENT 1 5 1 6 1 7 7 11 7 12 7 13
REMARK Flexibility Score: inf
ROOT
ATOM      1  C   UNL     1     133.971 125.600 125.844  1.00  0.00     0.012 C 
ENDROOT
BRANCH   1   2
ATOM      2  C   UNL     1     132.960 126.224 126.818  1.00  0.00     0.061 C 
BRANCH   2   3
ATOM      3  C   UNL     1     131.786 126.905 126.096  1.00  0.00     0.258 C 
BRANCH   3   4
ATOM      4  N   UNL     1     131.843 126.714 124.646  1.00  0.00    -0.358 N 
ATOM      5  H   UNL     1     131.463 127.553 124.153  1.00  0.00     0.344 HD
ATOM      6  H   UNL     1     132.841 126.591 124.360  1.00  0.00     0.344 HD
ATOM      7  H   UNL     1     131.307 125.861 124.368  1.00  0.00     0.344 HD
ENDBRANCH   3   4
ENDBRANCH   2   3
ENDBRANCH   1   2
BRANCH   1   8
ATOM      8  C   UNL     1     135.185 126.523 125.647  1.00  0.00     0.072 C 
BRANCH   8   9
ATOM      9  C   UNL     1     135.593 126.661 124.162  1.00  0.00     0.227 C 
BRANCH   9  10
ATOM     10  N   UNL     1     134.903 125.679 123.315  1.00  0.00    -0.350 N 
ATOM     11  H   UNL     1     134.584 124.858 123.879  1.00  0.00     0.345 HD
ATOM     12  H   UNL     1     135.538 125.351 122.552  1.00  0.00     0.345 HD
ATOM     13  H   UNL     1     134.071 126.123 122.861  1.00  0.00     0.345 HD
ENDBRANCH   9  10
BRANCH   9  14
ATOM     14  C   UNL     1     135.287 128.056 123.688  1.00  0.00     0.099 C 
ATOM     15  O   UNL     1     136.077 128.647 122.905  1.00  0.00    -0.544 OA
ATOM     16  O   UNL     1     134.140 128.710 124.125  1.00  0.00    -0.544 OA
ENDBRANCH   9  14
ENDBRANCH   8   9
ENDBRANCH   1   8
TORSDOF 7
ENDMDL
MODEL 9
REMARK VINA RESULT:    -3.288      2.279      3.715
REMARK INTER + INTRA:          -4.976
REMARK INTER:                  -4.421
REMARK INTRA:                  -0.555
REMARK UNBOUND:                -0.534
REMARK SMILES [NH3+]CCCC[C@@H]([NH3+])C(=O)[O-]
REMARK SMILES IDX 4 1 3 2 2 3 1 4 5 8 6 9 7 10 8 14 9 15 10 16
REMARK H PARENT 1 5 1 6 1 7 7 11 7 12 7 13
REMARK Flexibility Score: inf
ROOT
ATOM      1  C   UNL     1     126.195 135.897 125.760  1.00  0.00     0.012 C 
ENDROOT
BRANCH   1   2
ATOM      2  C   UNL     1     127.523 136.259 126.442  1.00  0.00     0.061 C 
BRANCH   2   3
ATOM      3  C   UNL     1     128.148 137.544 125.873  1.00  0.00     0.258 C 
BRANCH   3   4
ATOM      4  N   UNL     1     128.839 137.309 124.605  1.00  0.00    -0.358 N 
ATOM      5  H   UNL     1     129.156 136.315 124.542  1.00  0.00     0.344 HD
ATOM      6  H   UNL     1     128.175 137.491 123.819  1.00  0.00     0.344 HD
ATOM      7  H   UNL     1     129.657 137.953 124.509  1.00  0.00     0.344 HD
ENDBRANCH   3   4
ENDBRANCH   2   3
ENDBRANCH   1   2
BRANCH   1   8
ATOM      8  C   UNL     1     126.358 134.663 124.858  1.00  0.00     0.072 C 
BRANCH   8   9
ATOM      9  C   UNL     1     125.989 134.950 123.385  1.00  0.00     0.227 C 
BRANCH   9  10
ATOM     10  N   UNL     1     125.449 136.306 123.213  1.00  0.00    -0.350 N 
ATOM     11  H   UNL     1     125.100 136.447 122.237  1.00  0.00     0.345 HD
ATOM     12  H   UNL     1     126.184 137.017 123.426  1.00  0.00     0.345 HD
ATOM     13  H   UNL     1     124.659 136.461 123.882  1.00  0.00     0.345 HD
ENDBRANCH   9  10
BRANCH   9  14
ATOM     14  C   UNL     1     127.208 134.768 122.520  1.00  0.00     0.099 C 
ATOM     15  O   UNL     1     127.081 134.519 121.292  1.00  0.00    -0.544 OA
ATOM     16  O   UNL     1     128.480 134.854 123.073  1.00  0.00    -0.544 OA
ENDBRANCH   9  14
ENDBRANCH   8   9
ENDBRANCH   1   8
TORSDOF 7
ENDMDL
