MODEL 1
REMARK VINA RESULT:    -5.538      0.000      0.000
REMARK INTER + INTRA:          -6.328
REMARK INTER:                  -6.186
REMARK INTRA:                  -0.142
REMARK UNBOUND:                -0.142
REMARK SMILES O=C([O-])C=Cc1ccccc1
REMARK SMILES IDX 4 1 5 2 2 3 1 4 3 5 6 6 7 7 11 8 8 9 10 10 9 11
REMARK H PARENT
REMARK Flexibility Score: inf
ROOT
ATOM      1  C   UNL     1      14.580  14.151  29.621  1.00  0.00     0.025 C 
ATOM      2  C   UNL     1      15.030  15.321  29.144  1.00  0.00     0.010 C 
ENDROOT
BRANCH   1   3
ATOM      3  C   UNL     1      14.953  13.652  30.955  1.00  0.00     0.064 C 
ATOM      4  O   UNL     1      14.491  14.180  32.003  1.00  0.00    -0.545 OA
ATOM      5  O   UNL     1      15.831  12.582  31.063  1.00  0.00    -0.545 OA
ENDBRANCH   1   3
BRANCH   2   6
ATOM      6  C   UNL     1      14.691  15.882  27.808  1.00  0.00    -0.026 A 
ATOM      7  C   UNL     1      13.484  15.480  27.205  1.00  0.00     0.008 A 
ATOM      8  C   UNL     1      15.519  16.797  27.118  1.00  0.00     0.008 A 
ATOM      9  C   UNL     1      13.112  15.974  25.952  1.00  0.00     0.001 A 
ATOM     10  C   UNL     1      15.140  17.286  25.863  1.00  0.00     0.001 A 
ATOM     11  C   UNL     1      13.940  16.876  25.281  1.00  0.00     0.000 A 
ENDBRANCH   2   6
TORSDOF 2
ENDMDL
MODEL 2
REMARK VINA RESULT:    -5.516      0.141      1.462
REMARK INTER + INTRA:          -6.303
REMARK INTER:                  -6.172
REMARK INTRA:                  -0.131
REMARK UNBOUND:                -0.142
REMARK SMILES O=C([O-])C=Cc1ccccc1
REMARK SMILES IDX 4 1 5 2 2 3 1 4 3 5 6 6 7 7 11 8 8 9 10 10 9 11
REMARK H PARENT
REMARK Flexibility Score: inf
ROOT
ATOM      1  C   UNL     1      14.540  14.187  29.620  1.00  0.00     0.025 C 
ATOM      2  C   UNL     1      14.957  15.364  29.129  1.00  0.00     0.010 C 
ENDROOT
BRANCH   1   3
ATOM      3  C   UNL     1      14.900  13.730  30.973  1.00  0.00     0.064 C 
ATOM      4  O   UNL     1      14.477  14.327  31.999  1.00  0.00    -0.545 OA
ATOM      5  O   UNL     1      15.722  12.621  31.122  1.00  0.00    -0.545 OA
ENDBRANCH   1   3
BRANCH   2   6
ATOM      6  C   UNL     1      14.628  15.885  27.774  1.00  0.00    -0.026 A 
ATOM      7  C   UNL     1      15.486  16.845  27.206  1.00  0.00     0.008 A 
ATOM      8  C   UNL     1      13.501  15.463  27.033  1.00  0.00     0.008 A 
ATOM      9  C   UNL     1      15.230  17.370  25.937  1.00  0.00     0.001 A 
ATOM     10  C   UNL     1      13.251  15.994  25.763  1.00  0.00     0.001 A 
ATOM     11  C   UNL     1      14.112  16.945  25.216  1.00  0.00     0.000 A 
ENDBRANCH   2   6
TORSDOF 2
ENDMDL
MODEL 3
REMARK VINA RESULT:    -5.488      3.140      5.422
REMARK INTER + INTRA:          -6.271
REMARK INTER:                  -6.125
REMARK INTRA:                  -0.146
REMARK UNBOUND:                -0.142
REMARK SMILES O=C([O-])C=Cc1ccccc1
REMARK SMILES IDX 4 1 5 2 2 3 1 4 3 5 6 6 7 7 11 8 8 9 10 10 9 11
REMARK H PARENT
REMARK Flexibility Score: inf
ROOT
ATOM      1  C   UNL     1      14.004  15.544  27.262  1.00  0.00     0.025 C 
ATOM      2  C   UNL     1      13.695  15.558  28.567  1.00  0.00     0.010 C 
ENDROOT
BRANCH   1   3
ATOM      3  C   UNL     1      13.448  16.524  26.314  1.00  0.00     0.064 C 
ATOM      4  O   UNL     1      13.671  16.436  25.076  1.00  0.00    -0.545 OA
ATOM      5  O   UNL     1      12.664  17.566  26.790  1.00  0.00    -0.545 OA
ENDBRANCH   1   3
BRANCH   2   6
ATOM      6  C   UNL     1      14.221  14.600  29.576  1.00  0.00    -0.026 A 
ATOM      7  C   UNL     1      14.936  13.477  29.117  1.00  0.00     0.008 A 
ATOM      8  C   UNL     1      14.040  14.762  30.969  1.00  0.00     0.008 A 
ATOM      9  C   UNL     1      15.455  12.543  30.018  1.00  0.00     0.001 A 
ATOM     10  C   UNL     1      14.562  13.822  31.864  1.00  0.00     0.001 A 
ATOM     11  C   UNL     1      15.268  12.715  31.391  1.00  0.00     0.000 A 
ENDBRANCH   2   6
TORSDOF 2
ENDMDL
MODEL 4
REMARK VINA RESULT:    -4.843      3.832      4.886
REMARK INTER + INTRA:          -5.551
REMARK INTER:                  -5.422
REMARK INTRA:                  -0.129
REMARK UNBOUND:                -0.142
REMARK SMILES O=C([O-])C=Cc1ccccc1
REMARK SMILES IDX 4 1 5 2 2 3 1 4 3 5 6 6 7 7 11 8 8 9 10 10 9 11
REMARK H PARENT
REMARK Flexibility Score: inf
ROOT
ATOM      1  C   UNL     1      15.920  17.681  25.438  1.00  0.00     0.025 C 
ATOM      2  C   UNL     1      14.813  17.082  25.903  1.00  0.00     0.010 C 
ENDROOT
BRANCH   1   3
ATOM      3  C   UNL     1      17.255  17.400  25.992  1.00  0.00     0.064 C 
ATOM      4  O   UNL     1      18.300  17.819  25.425  1.00  0.00    -0.545 OA
ATOM      5  O   UNL     1      17.367  16.659  27.161  1.00  0.00    -0.545 OA
ENDBRANCH   1   3
BRANCH   2   6
ATOM      6  C   UNL     1      13.437  17.320  25.388  1.00  0.00    -0.026 A 
ATOM      7  C   UNL     1      12.459  17.773  26.292  1.00  0.00     0.008 A 
ATOM      8  C   UNL     1      13.068  17.114  24.039  1.00  0.00     0.008 A 
ATOM      9  C   UNL     1      11.150  18.014  25.866  1.00  0.00     0.001 A 
ATOM     10  C   UNL     1      11.755  17.357  23.621  1.00  0.00     0.001 A 
ATOM     11  C   UNL     1      10.798  17.806  24.531  1.00  0.00     0.000 A 
ENDBRANCH   2   6
TORSDOF 2
ENDMDL
MODEL 5
REMARK VINA RESULT:    -4.686      4.291      5.694
REMARK INTER + INTRA:          -5.376
REMARK INTER:                  -5.246
REMARK INTRA:                  -0.129
REMARK UNBOUND:                -0.142
REMARK SMILES O=C([O-])C=Cc1ccccc1
REMARK SMILES IDX 4 1 5 2 2 3 1 4 3 5 6 6 7 7 11 8 8 9 10 10 9 11
REMARK H PARENT
REMARK Flexibility Score: inf
ROOT
ATOM      1  C   UNL     1      12.554  16.926  25.159  1.00  0.00     0.025 C 
ATOM      2  C   UNL     1      12.486  17.051  26.493  1.00  0.00     0.010 C 
ENDROOT
BRANCH   1   3
ATOM      3  C   UNL     1      11.544  17.516  24.264  1.00  0.00     0.064 C 
ATOM      4  O   UNL     1      10.444  17.941  24.710  1.00  0.00    -0.545 OA
ATOM      5  O   UNL     1      11.807  17.606  22.904  1.00  0.00    -0.545 OA
ENDBRANCH   1   3
BRANCH   2   6
ATOM      6  C   UNL     1      13.472  16.482  27.452  1.00  0.00    -0.026 A 
ATOM      7  C   UNL     1      13.007  15.573  28.421  1.00  0.00     0.008 A 
ATOM      8  C   UNL     1      14.847  16.807  27.436  1.00  0.00     0.008 A 
ATOM      9  C   UNL     1      13.886  15.005  29.348  1.00  0.00     0.001 A 
ATOM     10  C   UNL     1      15.720  16.235  28.368  1.00  0.00     0.001 A 
ATOM     11  C   UNL     1      15.242  15.336  29.321  1.00  0.00     0.000 A 
ENDBRANCH   2   6
TORSDOF 2
ENDMDL
MODEL 6
REMARK VINA RESULT:    -4.616      3.678      4.805
REMARK INTER + INTRA:          -5.298
REMARK INTER:                  -5.153
REMARK INTRA:                  -0.145
REMARK UNBOUND:                -0.142
REMARK SMILES O=C([O-])C=Cc1ccccc1
REMARK SMILES IDX 4 1 5 2 2 3 1 4 3 5 6 6 7 7 11 8 8 9 10 10 9 11
REMARK H PARENT
REMARK Flexibility Score: inf
ROOT
ATOM      1  C   UNL     1      17.544  17.324  25.895  1.00  0.00     0.025 C 
ATOM      2  C   UNL     1      16.664  16.911  26.819  1.00  0.00     0.010 C 
ENDROOT
BRANCH   1   3
ATOM      3  C   UNL     1      18.990  17.079  26.023  1.00  0.00     0.064 C 
ATOM      4  O   UNL     1      19.789  17.376  25.094  1.00  0.00    -0.545 OA
ATOM      5  O   UNL     1      19.485  16.509  27.188  1.00  0.00    -0.545 OA
ENDBRANCH   1   3
BRANCH   2   6
ATOM      6  C   UNL     1      15.193  17.124  26.750  1.00  0.00    -0.026 A 
ATOM      7  C   UNL     1      14.623  17.418  25.497  1.00  0.00     0.008 A 
ATOM      8  C   UNL     1      14.344  17.046  27.877  1.00  0.00     0.008 A 
ATOM      9  C   UNL     1      13.247  17.628  25.370  1.00  0.00     0.001 A 
ATOM     10  C   UNL     1      12.968  17.258  27.741  1.00  0.00     0.001 A 
ATOM     11  C   UNL     1      12.420  17.548  26.492  1.00  0.00     0.000 A 
ENDBRANCH   2   6
TORSDOF 2
ENDMDL
MODEL 7
REMARK VINA RESULT:    -4.612      4.369      6.022
REMARK INTER + INTRA:          -5.294
REMARK INTER:                  -5.156
REMARK INTRA:                  -0.138
REMARK UNBOUND:                -0.142
REMARK SMILES O=C([O-])C=Cc1ccccc1
REMARK SMILES IDX 4 1 5 2 2 3 1 4 3 5 6 6 7 7 11 8 8 9 10 10 9 11
REMARK H PARENT
REMARK Flexibility Score: inf
ROOT
ATOM      1  C   UNL     1      12.936  17.098  24.858  1.00  0.00     0.025 C 
ATOM      2  C   UNL     1      12.634  17.099  26.165  1.00  0.00     0.010 C 
ENDROOT
BRANCH   1   3
ATOM      3  C   UNL     1      12.056  17.711  23.849  1.00  0.00     0.064 C 
ATOM      4  O   UNL     1      12.453  17.912  22.670  1.00  0.00    -0.545 OA
ATOM      5  O   UNL     1      10.764  18.078  24.203  1.00  0.00    -0.545 OA
ENDBRANCH   1   3
BRANCH   2   6
ATOM      6  C   UNL     1      13.478  16.499  27.233  1.00  0.00    -0.026 A 
ATOM      7  C   UNL     1      14.853  16.799  27.241  1.00  0.00     0.008 A 
ATOM      8  C   UNL     1      12.968  15.646  28.238  1.00  0.00     0.008 A 
ATOM      9  C   UNL     1      15.696  16.266  28.220  1.00  0.00     0.001 A 
ATOM     10  C   UNL     1      13.818  15.115  29.214  1.00  0.00     0.001 A 
ATOM     11  C   UNL     1      15.178  15.424  29.206  1.00  0.00     0.000 A 
ENDBRANCH   2   6
TORSDOF 2
ENDMDL
MODEL 8
REMARK VINA RESULT:    -4.332      3.361      4.626
REMARK INTER + INTRA:          -4.981
REMARK INTER:                  -4.841
REMARK INTRA:                  -0.139
REMARK UNBOUND:                -0.142
REMARK SMILES O=C([O-])C=Cc1ccccc1
REMARK SMILES IDX 4 1 5 2 2 3 1 4 3 5 6 6 7 7 11 8 8 9 10 10 9 11
REMARK H PARENT
REMARK Flexibility Score: inf
ROOT
ATOM      1  C   UNL     1      14.508  16.518  26.319  1.00  0.00     0.025 C 
ATOM      2  C   UNL     1      15.616  16.929  26.953  1.00  0.00     0.010 C 
ENDROOT
BRANCH   1   3
ATOM      3  C   UNL     1      13.234  16.306  27.025  1.00  0.00     0.064 C 
ATOM      4  O   UNL     1      13.021  16.817  28.157  1.00  0.00    -0.545 OA
ATOM      5  O   UNL     1      12.247  15.527  26.435  1.00  0.00    -0.545 OA
ENDBRANCH   1   3
BRANCH   2   6
ATOM      6  C   UNL     1      16.933  17.164  26.299  1.00  0.00    -0.026 A 
ATOM      7  C   UNL     1      16.954  17.869  25.082  1.00  0.00     0.008 A 
ATOM      8  C   UNL     1      18.159  16.715  26.841  1.00  0.00     0.008 A 
ATOM      9  C   UNL     1      18.160  18.121  24.423  1.00  0.00     0.001 A 
ATOM     10  C   UNL     1      19.362  16.969  26.174  1.00  0.00     0.001 A 
ATOM     11  C   UNL     1      19.364  17.671  24.968  1.00  0.00     0.000 A 
ENDBRANCH   2   6
TORSDOF 2
ENDMDL
MODEL 9
REMARK VINA RESULT:    -3.478     17.985     19.994
REMARK INTER + INTRA:          -4.026
REMARK INTER:                  -3.889
REMARK INTRA:                  -0.137
REMARK UNBOUND:                -0.142
REMARK SMILES O=C([O-])C=Cc1ccccc1
REMARK SMILES IDX 4 1 5 2 2 3 1 4 3 5 6 6 7 7 11 8 8 9 10 10 9 11
REMARK H PARENT
REMARK Flexibility Score: inf
ROOT
ATOM      1  C   UNL     1       8.493  -1.306  32.626  1.00  0.00     0.025 C 
ATOM      2  C   UNL     1       7.467  -2.096  32.977  1.00  0.00     0.010 C 
ENDROOT
BRANCH   1   3
ATOM      3  C   UNL     1       9.105  -1.364  31.288  1.00  0.00     0.064 C 
ATOM      4  O   UNL     1       8.454  -1.043  30.257  1.00  0.00    -0.545 OA
ATOM      5  O   UNL     1      10.422  -1.782  31.157  1.00  0.00    -0.545 OA
ENDBRANCH   1   3
BRANCH   2   6
ATOM      6  C   UNL     1       6.803  -2.087  34.310  1.00  0.00    -0.026 A 
ATOM      7  C   UNL     1       7.617  -2.037  35.456  1.00  0.00     0.008 A 
ATOM      8  C   UNL     1       5.401  -2.124  34.478  1.00  0.00     0.008 A 
ATOM      9  C   UNL     1       7.051  -2.025  36.734  1.00  0.00     0.001 A 
ATOM     10  C   UNL     1       4.842  -2.113  35.760  1.00  0.00     0.001 A 
ATOM     11  C   UNL     1       5.664  -2.064  36.886  1.00  0.00     0.000 A 
ENDBRANCH   2   6
TORSDOF 2
ENDMDL
