MODEL 1
REMARK VINA RESULT:    -5.729      0.000      0.000
REMARK INTER + INTRA:          -5.729
REMARK INTER:                  -5.729
REMARK INTRA:                   0.000
REMARK UNBOUND:                 0.000
REMARK SMILES CC1=CC[C@H]2[C@@H](C1)C2(C)C
REMARK SMILES IDX 1 1 2 2 3 3 4 4 5 5 6 6 7 7 8 8 9 9 10 10
REMARK H PARENT
REMARK Flexibility Score: inf
ROOT
ATOM      1  C   UNL     1      17.432  31.200  23.865  1.00  0.00     0.039 C 
ATOM      2  C   UNL     1      17.830  30.349  25.040  1.00  0.00    -0.077 C 
ATOM      3  C   UNL     1      17.654  29.017  24.982  1.00  0.00    -0.028 C 
ATOM      4  C   UNL     1      18.028  28.122  26.130  1.00  0.00     0.031 C 
ATOM      5  C   UNL     1      19.325  28.590  26.824  1.00  0.00     0.003 C 
ATOM      6  C   UNL     1      19.533  30.121  26.902  1.00  0.00     0.003 C 
ATOM      7  C   UNL     1      18.418  30.988  26.277  1.00  0.00     0.034 C 
ATOM      8  C   UNL     1      19.266  29.311  28.182  1.00  0.00    -0.029 C 
ATOM      9  C   UNL     1      17.926  29.454  28.928  1.00  0.00     0.012 C 
ATOM     10  C   UNL     1      20.498  29.098  29.070  1.00  0.00     0.012 C 
ENDROOT
TORSDOF 0
ENDMDL
MODEL 2
REMARK VINA RESULT:    -5.319      0.968      3.958
REMARK INTER + INTRA:          -5.319
REMARK INTER:                  -5.319
REMARK INTRA:                   0.000
REMARK UNBOUND:                 0.000
REMARK SMILES CC1=CC[C@H]2[C@@H](C1)C2(C)C
REMARK SMILES IDX 1 1 2 2 3 3 4 4 5 5 6 6 7 7 8 8 9 9 10 10
REMARK H PARENT
REMARK Flexibility Score: inf
ROOT
ATOM      1  C   UNL     1      20.150  29.165  28.860  1.00  0.00     0.039 C 
ATOM      2  C   UNL     1      19.541  29.282  27.489  1.00  0.00    -0.077 C 
ATOM      3  C   UNL     1      19.444  28.188  26.713  1.00  0.00    -0.028 C 
ATOM      4  C   UNL     1      18.849  28.250  25.335  1.00  0.00     0.031 C 
ATOM      5  C   UNL     1      17.648  29.217  25.270  1.00  0.00     0.003 C 
ATOM      6  C   UNL     1      17.753  30.482  26.154  1.00  0.00     0.003 C 
ATOM      7  C   UNL     1      19.046  30.619  26.989  1.00  0.00     0.034 C 
ATOM      8  C   UNL     1      17.798  30.605  24.622  1.00  0.00    -0.029 C 
ATOM      9  C   UNL     1      19.107  30.993  23.910  1.00  0.00     0.012 C 
ATOM     10  C   UNL     1      16.514  31.154  23.989  1.00  0.00     0.012 C 
ENDROOT
TORSDOF 0
ENDMDL
MODEL 3
REMARK VINA RESULT:    -5.284      9.579     11.385
REMARK INTER + INTRA:          -5.284
REMARK INTER:                  -5.284
REMARK INTRA:                   0.000
REMARK UNBOUND:                 0.000
REMARK SMILES CC1=CC[C@H]2[C@@H](C1)C2(C)C
REMARK SMILES IDX 1 1 2 2 3 3 4 4 5 5 6 6 7 7 8 8 9 9 10 10
REMARK H PARENT
REMARK Flexibility Score: inf
ROOT
ATOM      1  C   UNL     1       6.063  29.414  24.534  1.00  0.00     0.039 C 
ATOM      2  C   UNL     1       7.043  30.510  24.216  1.00  0.00    -0.077 C 
ATOM      3  C   UNL     1       7.420  30.711  22.941  1.00  0.00    -0.028 C 
ATOM      4  C   UNL     1       8.400  31.787  22.569  1.00  0.00     0.031 C 
ATOM      5  C   UNL     1       8.194  33.066  23.408  1.00  0.00     0.003 C 
ATOM      6  C   UNL     1       7.768  32.846  24.878  1.00  0.00     0.003 C 
ATOM      7  C   UNL     1       7.601  31.375  25.322  1.00  0.00     0.034 C 
ATOM      8  C   UNL     1       9.160  33.410  24.555  1.00  0.00    -0.029 C 
ATOM      9  C   UNL     1      10.420  32.556  24.792  1.00  0.00     0.012 C 
ATOM     10  C   UNL     1       9.319  34.911  24.826  1.00  0.00     0.012 C 
ENDROOT
TORSDOF 0
ENDMDL
MODEL 4
REMARK VINA RESULT:    -5.129      9.801     11.047
REMARK INTER + INTRA:          -5.129
REMARK INTER:                  -5.129
REMARK INTRA:                   0.000
REMARK UNBOUND:                 0.000
REMARK SMILES CC1=CC[C@H]2[C@@H](C1)C2(C)C
REMARK SMILES IDX 1 1 2 2 3 3 4 4 5 5 6 6 7 7 8 8 9 9 10 10
REMARK H PARENT
REMARK Flexibility Score: inf
ROOT
ATOM      1  C   UNL     1       7.329  31.019  25.349  1.00  0.00     0.039 C 
ATOM      2  C   UNL     1       8.147  32.021  24.581  1.00  0.00    -0.077 C 
ATOM      3  C   UNL     1       8.570  33.139  25.196  1.00  0.00    -0.028 C 
ATOM      4  C   UNL     1       9.384  34.176  24.475  1.00  0.00     0.031 C 
ATOM      5  C   UNL     1      10.393  33.535  23.499  1.00  0.00     0.003 C 
ATOM      6  C   UNL     1       9.914  32.252  22.780  1.00  0.00     0.003 C 
ATOM      7  C   UNL     1       8.488  31.773  23.130  1.00  0.00     0.034 C 
ATOM      8  C   UNL     1      10.128  33.549  21.983  1.00  0.00    -0.029 C 
ATOM      9  C   UNL     1       8.922  34.319  21.412  1.00  0.00     0.012 C 
ATOM     10  C   UNL     1      11.391  33.563  21.115  1.00  0.00     0.012 C 
ENDROOT
TORSDOF 0
ENDMDL
MODEL 5
REMARK VINA RESULT:    -5.105      8.956     10.504
REMARK INTER + INTRA:          -5.105
REMARK INTER:                  -5.105
REMARK INTRA:                   0.000
REMARK UNBOUND:                 0.000
REMARK SMILES CC1=CC[C@H]2[C@@H](C1)C2(C)C
REMARK SMILES IDX 1 1 2 2 3 3 4 4 5 5 6 6 7 7 8 8 9 9 10 10
REMARK H PARENT
REMARK Flexibility Score: inf
ROOT
ATOM      1  C   UNL     1      12.535  32.958  21.079  1.00  0.00     0.039 C 
ATOM      2  C   UNL     1      11.269  33.263  21.834  1.00  0.00    -0.077 C 
ATOM      3  C   UNL     1      10.252  33.872  21.199  1.00  0.00    -0.028 C 
ATOM      4  C   UNL     1       8.969  34.205  21.907  1.00  0.00     0.031 C 
ATOM      5  C   UNL     1       8.561  33.102  22.906  1.00  0.00     0.003 C 
ATOM      6  C   UNL     1       9.724  32.400  23.646  1.00  0.00     0.003 C 
ATOM      7  C   UNL     1      11.145  32.891  23.293  1.00  0.00     0.034 C 
ATOM      8  C   UNL     1       8.754  33.310  24.418  1.00  0.00    -0.029 C 
ATOM      9  C   UNL     1       9.230  34.671  24.961  1.00  0.00     0.012 C 
ATOM     10  C   UNL     1       7.744  32.564  25.298  1.00  0.00     0.012 C 
ENDROOT
TORSDOF 0
ENDMDL
MODEL 6
REMARK VINA RESULT:    -5.096      9.079     11.054
REMARK INTER + INTRA:          -5.096
REMARK INTER:                  -5.096
REMARK INTRA:                   0.000
REMARK UNBOUND:                 0.000
REMARK SMILES CC1=CC[C@H]2[C@@H](C1)C2(C)C
REMARK SMILES IDX 1 1 2 2 3 3 4 4 5 5 6 6 7 7 8 8 9 9 10 10
REMARK H PARENT
REMARK Flexibility Score: inf
ROOT
ATOM      1  C   UNL     1       8.296  34.154  19.762  1.00  0.00     0.039 C 
ATOM      2  C   UNL     1       8.391  33.863  21.235  1.00  0.00    -0.077 C 
ATOM      3  C   UNL     1       7.320  33.375  21.883  1.00  0.00    -0.028 C 
ATOM      4  C   UNL     1       7.359  33.073  23.355  1.00  0.00     0.031 C 
ATOM      5  C   UNL     1       8.719  32.482  23.783  1.00  0.00     0.003 C 
ATOM      6  C   UNL     1       9.959  33.042  23.049  1.00  0.00     0.003 C 
ATOM      7  C   UNL     1       9.681  34.122  21.979  1.00  0.00     0.034 C 
ATOM      8  C   UNL     1       9.742  33.347  24.540  1.00  0.00    -0.029 C 
ATOM      9  C   UNL     1       9.369  34.771  24.996  1.00  0.00     0.012 C 
ATOM     10  C   UNL     1      10.657  32.567  25.490  1.00  0.00     0.012 C 
ENDROOT
TORSDOF 0
ENDMDL
MODEL 7
REMARK VINA RESULT:    -5.011      8.966     10.971
REMARK INTER + INTRA:          -5.011
REMARK INTER:                  -5.011
REMARK INTRA:                   0.000
REMARK UNBOUND:                 0.000
REMARK SMILES CC1=CC[C@H]2[C@@H](C1)C2(C)C
REMARK SMILES IDX 1 1 2 2 3 3 4 4 5 5 6 6 7 7 8 8 9 9 10 10
REMARK H PARENT
REMARK Flexibility Score: inf
ROOT
ATOM      1  C   UNL     1       6.526  32.495  21.032  1.00  0.00     0.039 C 
ATOM      2  C   UNL     1       7.654  32.880  21.949  1.00  0.00    -0.077 C 
ATOM      3  C   UNL     1       8.145  34.131  21.905  1.00  0.00    -0.028 C 
ATOM      4  C   UNL     1       9.275  34.566  22.794  1.00  0.00     0.031 C 
ATOM      5  C   UNL     1       9.168  33.946  24.203  1.00  0.00     0.003 C 
ATOM      6  C   UNL     1       8.612  32.504  24.265  1.00  0.00     0.003 C 
ATOM      7  C   UNL     1       8.233  31.867  22.909  1.00  0.00     0.034 C 
ATOM      8  C   UNL     1      10.084  32.779  24.613  1.00  0.00    -0.029 C 
ATOM      9  C   UNL     1      11.208  32.306  23.672  1.00  0.00     0.012 C 
ATOM     10  C   UNL     1      10.406  32.719  26.111  1.00  0.00     0.012 C 
ENDROOT
TORSDOF 0
ENDMDL
MODEL 8
REMARK VINA RESULT:    -4.924      8.608     10.355
REMARK INTER + INTRA:          -4.924
REMARK INTER:                  -4.924
REMARK INTRA:                   0.000
REMARK UNBOUND:                 0.000
REMARK SMILES CC1=CC[C@H]2[C@@H](C1)C2(C)C
REMARK SMILES IDX 1 1 2 2 3 3 4 4 5 5 6 6 7 7 8 8 9 9 10 10
REMARK H PARENT
REMARK Flexibility Score: inf
ROOT
ATOM      1  C   UNL     1      12.288  33.994  19.739  1.00  0.00     0.039 C 
ATOM      2  C   UNL     1      11.533  33.501  20.944  1.00  0.00    -0.077 C 
ATOM      3  C   UNL     1      12.208  32.945  21.964  1.00  0.00    -0.028 C 
ATOM      4  C   UNL     1      11.504  32.431  23.188  1.00  0.00     0.031 C 
ATOM      5  C   UNL     1      10.321  33.336  23.592  1.00  0.00     0.003 C 
ATOM      6  C   UNL     1       9.533  33.976  22.425  1.00  0.00     0.003 C 
ATOM      7  C   UNL     1      10.029  33.629  21.004  1.00  0.00     0.034 C 
ATOM      8  C   UNL     1       8.873  32.902  23.305  1.00  0.00    -0.029 C 
ATOM      9  C   UNL     1       8.581  31.501  22.734  1.00  0.00     0.012 C 
ATOM     10  C   UNL     1       7.837  33.439  24.299  1.00  0.00     0.012 C 
ENDROOT
TORSDOF 0
ENDMDL
MODEL 9
REMARK VINA RESULT:    -4.733      7.159      9.254
REMARK INTER + INTRA:          -4.733
REMARK INTER:                  -4.733
REMARK INTRA:                   0.000
REMARK UNBOUND:                 0.000
REMARK SMILES CC1=CC[C@H]2[C@@H](C1)C2(C)C
REMARK SMILES IDX 1 1 2 2 3 3 4 4 5 5 6 6 7 7 8 8 9 9 10 10
REMARK H PARENT
REMARK Flexibility Score: inf
ROOT
ATOM      1  C   UNL     1       9.190  34.015  22.744  1.00  0.00     0.039 C 
ATOM      2  C   UNL     1      10.413  33.530  22.013  1.00  0.00    -0.077 C 
ATOM      3  C   UNL     1      10.462  33.624  20.673  1.00  0.00    -0.028 C 
ATOM      4  C   UNL     1      11.656  33.149  19.893  1.00  0.00     0.031 C 
ATOM      5  C   UNL     1      12.979  33.452  20.628  1.00  0.00     0.003 C 
ATOM      6  C   UNL     1      12.934  33.339  22.170  1.00  0.00     0.003 C 
ATOM      7  C   UNL     1      11.573  32.939  22.780  1.00  0.00     0.034 C 
ATOM      8  C   UNL     1      13.747  32.328  21.345  1.00  0.00    -0.029 C 
ATOM      9  C   UNL     1      13.277  30.866  21.225  1.00  0.00     0.012 C 
ATOM     10  C   UNL     1      15.265  32.531  21.404  1.00  0.00     0.012 C 
ENDROOT
TORSDOF 0
ENDMDL
