MODEL 1
REMARK VINA RESULT:    -8.699      0.000      0.000
REMARK INTER + INTRA:         -16.417
REMARK INTER:                 -14.293
REMARK INTRA:                  -2.125
REMARK UNBOUND:                -2.125
REMARK SMILES COc1ccc([C@@H]2CC(=O)c3c(O)cc(O[C@H]4O[C@H](CO[C@@H]5O[C@@H](C)[C@@H](O)[C@H](O)[C@@H]5O)[C@H](O)[C@H](O)[C@H]4O)cc3O2)cc1O
REMARK SMILES IDX 19 1 32 2 34 3 36 4 17 5 18 6 20 7 21 8 22 9 25 10 24 11
REMARK SMILES IDX 26 12 23 13 28 14 30 15 27 16 29 18 31 20 33 22 35 24 16 26
REMARK SMILES IDX 15 27 14 28 38 29 12 30 39 31 11 32 40 33 9 34 7 35 10 36
REMARK SMILES IDX 8 37 13 38 6 40 41 41 5 42 42 43 4 44 3 45 43 46 2 48 1 49
REMARK SMILES IDX 37 50
REMARK H PARENT 27 17 29 19 31 21 33 23 35 25 13 39 43 47 37 51
REMARK Flexibility Score: inf
ROOT
ATOM      1  C   UNL     1       1.655 -47.168 -38.934  1.00  0.00     0.180 C 
ATOM      2  C   UNL     1       2.207 -47.636 -40.305  1.00  0.00     0.177 C 
ATOM      3  C   UNL     1       2.681 -46.421 -41.126  1.00  0.00     0.180 C 
ATOM      4  C   UNL     1       3.590 -45.505 -40.287  1.00  0.00     0.214 C 
ATOM      5  C   UNL     1       2.980 -45.226 -38.891  1.00  0.00     0.339 C 
ATOM      6  O   UNL     1       2.638 -46.431 -38.222  1.00  0.00    -0.332 OA
ENDROOT
BRANCH   1   7
ATOM      7  C   UNL     1       1.215 -48.355 -38.066  1.00  0.00     0.198 C 
BRANCH   7   8
ATOM      8  O   UNL     1       1.786 -48.240 -36.775  1.00  0.00    -0.347 OA
BRANCH   8   9
ATOM      9  C   UNL     1       0.828 -48.122 -35.731  1.00  0.00     0.281 C 
ATOM     10  C   UNL     1      -0.838 -45.937 -34.432  1.00  0.00     0.041 C 
ATOM     11  C   UNL     1       0.208 -46.885 -33.818  1.00  0.00     0.150 C 
ATOM     12  C   UNL     1      -0.410 -48.142 -33.144  1.00  0.00     0.174 C 
ATOM     13  O   UNL     1       1.251 -47.196 -34.738  1.00  0.00    -0.344 OA
ATOM     14  C   UNL     1      -0.780 -49.222 -34.177  1.00  0.00     0.179 C 
ATOM     15  C   UNL     1       0.415 -49.474 -35.109  1.00  0.00     0.202 C 
BRANCH  12  16
ATOM     16  O   UNL     1      -1.559 -47.799 -32.406  1.00  0.00    -0.388 OA
ATOM     17  H   UNL     1      -1.655 -46.811 -32.461  1.00  0.00     0.211 HD
ENDBRANCH  12  16
BRANCH  14  18
ATOM     18  O   UNL     1      -1.128 -50.405 -33.505  1.00  0.00    -0.387 OA
ATOM     19  H   UNL     1      -0.708 -51.152 -34.005  1.00  0.00     0.211 HD
ENDBRANCH  14  18
BRANCH  15  20
ATOM     20  O   UNL     1       1.471 -50.026 -34.357  1.00  0.00    -0.385 OA
ATOM     21  H   UNL     1       2.069 -49.278 -34.083  1.00  0.00     0.211 HD
ENDBRANCH  15  20
ENDBRANCH   8   9
ENDBRANCH   7   8
ENDBRANCH   1   7
BRANCH   2  22
ATOM     22  O   UNL     1       3.236 -48.592 -40.165  1.00  0.00    -0.387 OA
ATOM     23  H   UNL     1       3.158 -49.004 -39.263  1.00  0.00     0.211 HD
ENDBRANCH   2  22
BRANCH   3  24
ATOM     24  O   UNL     1       3.379 -46.844 -42.270  1.00  0.00    -0.387 OA
ATOM     25  H   UNL     1       4.288 -47.111 -41.980  1.00  0.00     0.211 HD
ENDBRANCH   3  24
BRANCH   5  26
ATOM     26  O   UNL     1       1.839 -44.358 -38.962  1.00  0.00    -0.462 OA
BRANCH  26  27
ATOM     27  C   UNL     1       1.498 -43.396 -37.998  1.00  0.00     0.130 A 
ATOM     28  C   UNL     1       2.381 -42.380 -37.596  1.00  0.00     0.093 A 
ATOM     29  C   UNL     1       0.241 -43.479 -37.397  1.00  0.00     0.094 A 
ATOM     30  C   UNL     1       2.015 -41.446 -36.620  1.00  0.00     0.133 A 
ATOM     31  C   UNL     1      -0.124 -42.586 -36.387  1.00  0.00     0.138 A 
ATOM     32  C   UNL     1       0.723 -41.512 -36.037  1.00  0.00     0.102 A 
ATOM     33  O   UNL     1      -1.329 -42.781 -35.699  1.00  0.00    -0.484 OA
ATOM     34  C   UNL     1       0.165 -40.486 -35.106  1.00  0.00     0.174 C 
ATOM     35  C   UNL     1      -1.524 -42.177 -34.421  1.00  0.00     0.211 C 
ATOM     36  O   UNL     1       0.754 -39.393 -34.899  1.00  0.00    -0.294 OA
ATOM     37  C   UNL     1      -1.209 -40.676 -34.520  1.00  0.00     0.131 C 
BRANCH  30  38
ATOM     38  O   UNL     1       2.978 -40.506 -36.246  1.00  0.00    -0.507 OA
ATOM     39  H   UNL     1       3.259 -40.329 -35.292  1.00  0.00     0.293 HD
ENDBRANCH  30  38
BRANCH  35  40
ATOM     40  C   UNL     1      -2.893 -42.524 -33.870  1.00  0.00    -0.003 A 
ATOM     41  C   UNL     1      -3.284 -42.252 -32.543  1.00  0.00     0.057 A 
ATOM     42  C   UNL     1      -3.822 -43.135 -34.730  1.00  0.00     0.011 A 
ATOM     43  C   UNL     1      -4.541 -42.645 -32.072  1.00  0.00     0.158 A 
ATOM     44  C   UNL     1      -5.082 -43.526 -34.269  1.00  0.00     0.051 A 
ATOM     45  C   UNL     1      -5.448 -43.299 -32.929  1.00  0.00     0.160 A 
BRANCH  43  46
ATOM     46  O   UNL     1      -4.866 -42.393 -30.739  1.00  0.00    -0.504 OA
ATOM     47  H   UNL     1      -5.644 -42.850 -30.279  1.00  0.00     0.293 HD
ENDBRANCH  43  46
BRANCH  45  48
ATOM     48  O   UNL     1      -6.691 -43.715 -32.420  1.00  0.00    -0.493 OA
ATOM     49  C   UNL     1      -7.731 -44.291 -33.206  1.00  0.00     0.278 C 
ENDBRANCH  45  48
ENDBRANCH  35  40
ENDBRANCH  26  27
ENDBRANCH   5  26
BRANCH   4  50
ATOM     50  O   UNL     1       3.807 -44.296 -40.965  1.00  0.00    -0.384 OA
ATOM     51  H   UNL     1       4.312 -43.707 -40.348  1.00  0.00     0.211 HD
ENDBRANCH   4  50
TORSDOF 15
ENDMDL
MODEL 2
REMARK VINA RESULT:    -8.671      1.391      1.827
REMARK INTER + INTRA:         -16.371
REMARK INTER:                 -14.267
REMARK INTRA:                  -2.104
REMARK UNBOUND:                -2.125
REMARK SMILES COc1ccc([C@@H]2CC(=O)c3c(O)cc(O[C@H]4O[C@H](CO[C@@H]5O[C@@H](C)[C@@H](O)[C@H](O)[C@@H]5O)[C@H](O)[C@H](O)[C@H]4O)cc3O2)cc1O
REMARK SMILES IDX 19 1 32 2 34 3 36 4 17 5 18 6 20 7 21 8 22 9 25 10 24 11
REMARK SMILES IDX 26 12 23 13 28 14 30 15 27 16 29 18 31 20 33 22 35 24 16 26
REMARK SMILES IDX 15 27 14 28 38 29 12 30 39 31 11 32 40 33 9 34 7 35 10 36
REMARK SMILES IDX 8 37 13 38 6 40 41 41 5 42 42 43 4 44 3 45 43 46 2 48 1 49
REMARK SMILES IDX 37 50
REMARK H PARENT 27 17 29 19 31 21 33 23 35 25 13 39 43 47 37 51
REMARK Flexibility Score: inf
ROOT
ATOM      1  C   UNL     1       2.778 -46.199 -39.040  1.00  0.00     0.180 C 
ATOM      2  C   UNL     1       2.906 -46.859 -40.438  1.00  0.00     0.177 C 
ATOM      3  C   UNL     1       3.047 -45.773 -41.523  1.00  0.00     0.180 C 
ATOM      4  C   UNL     1       4.125 -44.743 -41.139  1.00  0.00     0.214 C 
ATOM      5  C   UNL     1       3.959 -44.268 -39.675  1.00  0.00     0.339 C 
ATOM      6  O   UNL     1       3.896 -45.365 -38.775  1.00  0.00    -0.332 OA
ENDROOT
BRANCH   1   7
ATOM      7  C   UNL     1       2.683 -47.250 -37.925  1.00  0.00     0.198 C 
BRANCH   7   8
ATOM      8  O   UNL     1       1.385 -47.231 -37.360  1.00  0.00    -0.347 OA
BRANCH   8   9
ATOM      9  C   UNL     1       1.377 -47.252 -35.939  1.00  0.00     0.281 C 
ATOM     10  C   UNL     1       3.282 -47.967 -33.681  1.00  0.00     0.041 C 
ATOM     11  C   UNL     1       1.897 -48.542 -34.030  1.00  0.00     0.150 C 
ATOM     12  C   UNL     1       0.735 -47.902 -33.220  1.00  0.00     0.174 C 
ATOM     13  O   UNL     1       1.663 -48.552 -35.436  1.00  0.00    -0.344 OA
ATOM     14  C   UNL     1       0.314 -46.541 -33.800  1.00  0.00     0.179 C 
ATOM     15  C   UNL     1       0.089 -46.672 -35.314  1.00  0.00     0.202 C 
BRANCH  12  16
ATOM     16  O   UNL     1       1.100 -47.735 -31.871  1.00  0.00    -0.388 OA
ATOM     17  H   UNL     1       2.062 -47.977 -31.797  1.00  0.00     0.211 HD
ENDBRANCH  12  16
BRANCH  14  18
ATOM     18  O   UNL     1      -0.866 -46.114 -33.171  1.00  0.00    -0.387 OA
ATOM     19  H   UNL     1      -0.616 -45.833 -32.252  1.00  0.00     0.211 HD
ENDBRANCH  14  18
BRANCH  15  20
ATOM     20  O   UNL     1      -1.009 -47.527 -35.539  1.00  0.00    -0.385 OA
ATOM     21  H   UNL     1      -0.657 -48.373 -35.928  1.00  0.00     0.211 HD
ENDBRANCH  15  20
ENDBRANCH   8   9
ENDBRANCH   7   8
ENDBRANCH   1   7
BRANCH   2  22
ATOM     22  O   UNL     1       3.972 -47.782 -40.496  1.00  0.00    -0.387 OA
ATOM     23  H   UNL     1       4.047 -48.110 -41.432  1.00  0.00     0.211 HD
ENDBRANCH   2  22
BRANCH   3  24
ATOM     24  O   UNL     1       3.380 -46.354 -42.758  1.00  0.00    -0.387 OA
ATOM     25  H   UNL     1       4.343 -46.583 -42.727  1.00  0.00     0.211 HD
ENDBRANCH   3  24
BRANCH   5  26
ATOM     26  O   UNL     1       2.812 -43.422 -39.506  1.00  0.00    -0.462 OA
BRANCH  26  27
ATOM     27  C   UNL     1       2.513 -42.693 -38.345  1.00  0.00     0.130 A 
ATOM     28  C   UNL     1       3.415 -41.781 -37.770  1.00  0.00     0.093 A 
ATOM     29  C   UNL     1       1.282 -42.911 -37.725  1.00  0.00     0.094 A 
ATOM     30  C   UNL     1       3.092 -41.082 -36.601  1.00  0.00     0.133 A 
ATOM     31  C   UNL     1       0.960 -42.259 -36.532  1.00  0.00     0.138 A 
ATOM     32  C   UNL     1       1.824 -41.280 -35.994  1.00  0.00     0.102 A 
ATOM     33  O   UNL     1      -0.215 -42.605 -35.854  1.00  0.00    -0.484 OA
ATOM     34  C   UNL     1       1.308 -40.482 -34.842  1.00  0.00     0.174 C 
ATOM     35  C   UNL     1      -0.356 -42.291 -34.469  1.00  0.00     0.211 C 
ATOM     36  O   UNL     1       1.907 -39.456 -34.429  1.00  0.00    -0.294 OA
ATOM     37  C   UNL     1      -0.041 -40.803 -34.255  1.00  0.00     0.131 C 
BRANCH  30  38
ATOM     38  O   UNL     1       4.071 -40.237 -36.073  1.00  0.00    -0.507 OA
ATOM     39  H   UNL     1       4.283 -40.160 -35.088  1.00  0.00     0.293 HD
ENDBRANCH  30  38
BRANCH  35  40
ATOM     40  C   UNL     1      -1.702 -42.758 -33.950  1.00  0.00    -0.003 A 
ATOM     41  C   UNL     1      -1.989 -42.917 -32.579  1.00  0.00     0.057 A 
ATOM     42  C   UNL     1      -2.717 -43.032 -34.883  1.00  0.00     0.011 A 
ATOM     43  C   UNL     1      -3.231 -43.405 -32.160  1.00  0.00     0.158 A 
ATOM     44  C   UNL     1      -3.962 -43.515 -34.472  1.00  0.00     0.051 A 
ATOM     45  C   UNL     1      -4.227 -43.721 -33.106  1.00  0.00     0.160 A 
BRANCH  43  46
ATOM     46  O   UNL     1      -3.453 -43.586 -30.795  1.00  0.00    -0.504 OA
ATOM     47  H   UNL     1      -3.629 -44.500 -30.394  1.00  0.00     0.293 HD
ENDBRANCH  43  46
BRANCH  45  48
ATOM     48  O   UNL     1      -5.453 -44.242 -32.658  1.00  0.00    -0.493 OA
ATOM     49  C   UNL     1      -6.728 -43.828 -33.142  1.00  0.00     0.278 C 
ENDBRANCH  45  48
ENDBRANCH  35  40
ENDBRANCH  26  27
ENDBRANCH   5  26
BRANCH   4  50
ATOM     50  O   UNL     1       4.065 -43.644 -42.009  1.00  0.00    -0.384 OA
ATOM     51  H   UNL     1       3.114 -43.531 -42.264  1.00  0.00     0.211 HD
ENDBRANCH   4  50
TORSDOF 15
ENDMDL
MODEL 3
REMARK VINA RESULT:    -8.579      2.121      6.401
REMARK INTER + INTRA:         -16.220
REMARK INTER:                 -15.050
REMARK INTRA:                  -1.171
REMARK UNBOUND:                -2.125
REMARK SMILES COc1ccc([C@@H]2CC(=O)c3c(O)cc(O[C@H]4O[C@H](CO[C@@H]5O[C@@H](C)[C@@H](O)[C@H](O)[C@@H]5O)[C@H](O)[C@H](O)[C@H]4O)cc3O2)cc1O
REMARK SMILES IDX 19 1 32 2 34 3 36 4 17 5 18 6 20 7 21 8 22 9 25 10 24 11
REMARK SMILES IDX 26 12 23 13 28 14 30 15 27 16 29 18 31 20 33 22 35 24 16 26
REMARK SMILES IDX 15 27 14 28 38 29 12 30 39 31 11 32 40 33 9 34 7 35 10 36
REMARK SMILES IDX 8 37 13 38 6 40 41 41 5 42 42 43 4 44 3 45 43 46 2 48 1 49
REMARK SMILES IDX 37 50
REMARK H PARENT 27 17 29 19 31 21 33 23 35 25 13 39 43 47 37 51
REMARK Flexibility Score: inf
ROOT
ATOM      1  C   UNL     1       3.402 -44.855 -39.895  1.00  0.00     0.180 C 
ATOM      2  C   UNL     1       3.890 -45.005 -41.359  1.00  0.00     0.177 C 
ATOM      3  C   UNL     1       3.108 -46.133 -42.062  1.00  0.00     0.180 C 
ATOM      4  C   UNL     1       1.593 -45.973 -41.848  1.00  0.00     0.214 C 
ATOM      5  C   UNL     1       1.256 -45.694 -40.362  1.00  0.00     0.339 C 
ATOM      6  O   UNL     1       2.006 -44.600 -39.855  1.00  0.00    -0.332 OA
ENDROOT
BRANCH   1   7
ATOM      7  C   UNL     1       4.125 -43.709 -39.173  1.00  0.00     0.198 C 
BRANCH   7   8
ATOM      8  O   UNL     1       4.094 -42.543 -39.976  1.00  0.00    -0.347 OA
BRANCH   8   9
ATOM      9  C   UNL     1       3.866 -41.347 -39.243  1.00  0.00     0.281 C 
ATOM     10  C   UNL     1       3.245 -40.537 -36.380  1.00  0.00     0.041 C 
ATOM     11  C   UNL     1       2.450 -40.290 -37.676  1.00  0.00     0.150 C 
ATOM     12  C   UNL     1       2.710 -38.893 -38.308  1.00  0.00     0.174 C 
ATOM     13  O   UNL     1       2.595 -41.362 -38.603  1.00  0.00    -0.344 OA
ATOM     14  C   UNL     1       4.024 -38.863 -39.109  1.00  0.00     0.179 C 
ATOM     15  C   UNL     1       4.069 -40.059 -40.072  1.00  0.00     0.202 C 
BRANCH  12  16
ATOM     16  O   UNL     1       2.754 -37.896 -37.316  1.00  0.00    -0.388 OA
ATOM     17  H   UNL     1       3.344 -38.233 -36.590  1.00  0.00     0.211 HD
ENDBRANCH  12  16
BRANCH  14  18
ATOM     18  O   UNL     1       4.100 -37.660 -39.829  1.00  0.00    -0.387 OA
ATOM     19  H   UNL     1       4.545 -37.000 -39.237  1.00  0.00     0.211 HD
ENDBRANCH  14  18
BRANCH  15  20
ATOM     20  O   UNL     1       3.046 -39.912 -41.030  1.00  0.00    -0.385 OA
ATOM     21  H   UNL     1       3.171 -40.622 -41.717  1.00  0.00     0.211 HD
ENDBRANCH  15  20
ENDBRANCH   8   9
ENDBRANCH   7   8
ENDBRANCH   1   7
BRANCH   2  22
ATOM     22  O   UNL     1       3.800 -43.795 -42.077  1.00  0.00    -0.387 OA
ATOM     23  H   UNL     1       3.403 -43.991 -42.968  1.00  0.00     0.211 HD
ENDBRANCH   2  22
BRANCH   3  24
ATOM     24  O   UNL     1       3.384 -46.135 -43.440  1.00  0.00    -0.387 OA
ATOM     25  H   UNL     1       4.366 -46.060 -43.546  1.00  0.00     0.211 HD
ENDBRANCH   3  24
BRANCH   5  26
ATOM     26  O   UNL     1       1.449 -46.852 -39.536  1.00  0.00    -0.462 OA
BRANCH  26  27
ATOM     27  C   UNL     1       1.122 -46.934 -38.174  1.00  0.00     0.130 A 
ATOM     28  C   UNL     1       1.527 -48.005 -37.361  1.00  0.00     0.093 A 
ATOM     29  C   UNL     1       0.335 -45.922 -37.621  1.00  0.00     0.094 A 
ATOM     30  C   UNL     1       1.170 -48.064 -36.009  1.00  0.00     0.133 A 
ATOM     31  C   UNL     1      -0.072 -45.987 -36.287  1.00  0.00     0.138 A 
ATOM     32  C   UNL     1       0.400 -47.015 -35.441  1.00  0.00     0.102 A 
ATOM     33  O   UNL     1      -0.980 -45.039 -35.797  1.00  0.00    -0.484 OA
ATOM     34  C   UNL     1       0.092 -46.888 -33.985  1.00  0.00     0.174 C 
ATOM     35  C   UNL     1      -1.728 -45.315 -34.614  1.00  0.00     0.211 C 
ATOM     36  O   UNL     1       0.638 -47.630 -33.128  1.00  0.00    -0.294 OA
ATOM     37  C   UNL     1      -0.765 -45.750 -33.499  1.00  0.00     0.131 C 
BRANCH  30  38
ATOM     38  O   UNL     1       1.573 -49.193 -35.292  1.00  0.00    -0.507 OA
ATOM     39  H   UNL     1       1.003 -49.660 -34.600  1.00  0.00     0.293 HD
ENDBRANCH  30  38
BRANCH  35  40
ATOM     40  C   UNL     1      -2.641 -44.153 -34.277  1.00  0.00    -0.003 A 
ATOM     41  C   UNL     1      -3.733 -44.260 -33.391  1.00  0.00     0.057 A 
ATOM     42  C   UNL     1      -2.376 -42.905 -34.866  1.00  0.00     0.011 A 
ATOM     43  C   UNL     1      -4.576 -43.168 -33.159  1.00  0.00     0.158 A 
ATOM     44  C   UNL     1      -3.210 -41.808 -34.636  1.00  0.00     0.051 A 
ATOM     45  C   UNL     1      -4.329 -41.933 -33.792  1.00  0.00     0.160 A 
BRANCH  43  46
ATOM     46  O   UNL     1      -5.669 -43.334 -32.308  1.00  0.00    -0.504 OA
ATOM     47  H   UNL     1      -5.862 -42.693 -31.548  1.00  0.00     0.293 HD
ENDBRANCH  43  46
BRANCH  45  48
ATOM     48  O   UNL     1      -5.213 -40.863 -33.568  1.00  0.00    -0.493 OA
ATOM     49  C   UNL     1      -5.193 -40.031 -32.410  1.00  0.00     0.278 C 
ENDBRANCH  45  48
ENDBRANCH  35  40
ENDBRANCH  26  27
ENDBRANCH   5  26
BRANCH   4  50
ATOM     50  O   UNL     1       0.925 -47.128 -42.281  1.00  0.00    -0.384 OA
ATOM     51  H   UNL     1       0.223 -47.323 -41.609  1.00  0.00     0.211 HD
ENDBRANCH   4  50
TORSDOF 15
ENDMDL
MODEL 4
REMARK VINA RESULT:    -8.299      1.870      7.958
REMARK INTER + INTRA:         -15.760
REMARK INTER:                 -14.075
REMARK INTRA:                  -1.685
REMARK UNBOUND:                -2.125
REMARK SMILES COc1ccc([C@@H]2CC(=O)c3c(O)cc(O[C@H]4O[C@H](CO[C@@H]5O[C@@H](C)[C@@H](O)[C@H](O)[C@@H]5O)[C@H](O)[C@H](O)[C@H]4O)cc3O2)cc1O
REMARK SMILES IDX 19 1 32 2 34 3 36 4 17 5 18 6 20 7 21 8 22 9 25 10 24 11
REMARK SMILES IDX 26 12 23 13 28 14 30 15 27 16 29 18 31 20 33 22 35 24 16 26
REMARK SMILES IDX 15 27 14 28 38 29 12 30 39 31 11 32 40 33 9 34 7 35 10 36
REMARK SMILES IDX 8 37 13 38 6 40 41 41 5 42 42 43 4 44 3 45 43 46 2 48 1 49
REMARK SMILES IDX 37 50
REMARK H PARENT 27 17 29 19 31 21 33 23 35 25 13 39 43 47 37 51
REMARK Flexibility Score: inf
ROOT
ATOM      1  C   UNL     1      -0.203 -47.163 -34.299  1.00  0.00     0.180 C 
ATOM      2  C   UNL     1      -0.966 -48.191 -33.424  1.00  0.00     0.177 C 
ATOM      3  C   UNL     1      -0.758 -49.614 -33.980  1.00  0.00     0.180 C 
ATOM      4  C   UNL     1       0.733 -49.895 -34.239  1.00  0.00     0.214 C 
ATOM      5  C   UNL     1       1.404 -48.728 -35.004  1.00  0.00     0.339 C 
ATOM      6  O   UNL     1       1.179 -47.483 -34.358  1.00  0.00    -0.332 OA
ENDROOT
BRANCH   1   7
ATOM      7  C   UNL     1      -0.347 -45.737 -33.751  1.00  0.00     0.198 C 
BRANCH   7   8
ATOM      8  O   UNL     1      -1.666 -45.538 -33.275  1.00  0.00    -0.347 OA
BRANCH   8   9
ATOM      9  C   UNL     1      -2.324 -44.422 -33.859  1.00  0.00     0.281 C 
ATOM     10  C   UNL     1      -1.739 -42.295 -35.950  1.00  0.00     0.041 C 
ATOM     11  C   UNL     1      -2.095 -42.149 -34.459  1.00  0.00     0.150 C 
ATOM     12  C   UNL     1      -3.604 -41.878 -34.203  1.00  0.00     0.174 C 
ATOM     13  O   UNL     1      -1.577 -43.224 -33.680  1.00  0.00    -0.344 OA
ATOM     14  C   UNL     1      -4.438 -43.169 -34.274  1.00  0.00     0.179 C 
ATOM     15  C   UNL     1      -3.789 -44.252 -33.399  1.00  0.00     0.202 C 
BRANCH  12  16
ATOM     16  O   UNL     1      -4.110 -40.951 -35.134  1.00  0.00    -0.388 OA
ATOM     17  H   UNL     1      -5.011 -40.678 -34.813  1.00  0.00     0.211 HD
ENDBRANCH  12  16
BRANCH  14  18
ATOM     18  O   UNL     1      -5.742 -42.903 -33.826  1.00  0.00    -0.387 OA
ATOM     19  H   UNL     1      -6.356 -43.157 -34.564  1.00  0.00     0.211 HD
ENDBRANCH  14  18
BRANCH  15  20
ATOM     20  O   UNL     1      -3.849 -43.845 -32.051  1.00  0.00    -0.385 OA
ATOM     21  H   UNL     1      -3.337 -42.995 -31.969  1.00  0.00     0.211 HD
ENDBRANCH  15  20
ENDBRANCH   8   9
ENDBRANCH   7   8
ENDBRANCH   1   7
BRANCH   2  22
ATOM     22  O   UNL     1      -0.596 -48.112 -32.065  1.00  0.00    -0.387 OA
ATOM     23  H   UNL     1      -1.404 -48.289 -31.512  1.00  0.00     0.211 HD
ENDBRANCH   2  22
BRANCH   3  24
ATOM     24  O   UNL     1      -1.259 -50.570 -33.079  1.00  0.00    -0.387 OA
ATOM     25  H   UNL     1      -2.248 -50.535 -33.131  1.00  0.00     0.211 HD
ENDBRANCH   3  24
BRANCH   5  26
ATOM     26  O   UNL     1       0.977 -48.660 -36.373  1.00  0.00    -0.462 OA
BRANCH  26  27
ATOM     27  C   UNL     1       1.676 -48.014 -37.404  1.00  0.00     0.130 A 
ATOM     28  C   UNL     1       2.489 -48.707 -38.317  1.00  0.00     0.093 A 
ATOM     29  C   UNL     1       1.581 -46.625 -37.500  1.00  0.00     0.094 A 
ATOM     30  C   UNL     1       3.186 -48.031 -39.325  1.00  0.00     0.133 A 
ATOM     31  C   UNL     1       2.306 -45.927 -38.468  1.00  0.00     0.138 A 
ATOM     32  C   UNL     1       3.058 -46.622 -39.441  1.00  0.00     0.102 A 
ATOM     33  O   UNL     1       2.310 -44.527 -38.450  1.00  0.00    -0.484 OA
ATOM     34  C   UNL     1       3.624 -45.814 -40.563  1.00  0.00     0.174 C 
ATOM     35  C   UNL     1       3.344 -43.808 -39.121  1.00  0.00     0.211 C 
ATOM     36  O   UNL     1       4.125 -46.358 -41.581  1.00  0.00    -0.294 OA
ATOM     37  C   UNL     1       3.455 -44.318 -40.566  1.00  0.00     0.131 C 
BRANCH  30  38
ATOM     38  O   UNL     1       4.011 -48.797 -40.153  1.00  0.00    -0.507 OA
ATOM     39  H   UNL     1       3.697 -49.264 -40.992  1.00  0.00     0.293 HD
ENDBRANCH  30  38
BRANCH  35  40
ATOM     40  C   UNL     1       3.142 -42.313 -38.966  1.00  0.00    -0.003 A 
ATOM     41  C   UNL     1       3.395 -41.389 -40.000  1.00  0.00     0.057 A 
ATOM     42  C   UNL     1       2.667 -41.829 -37.736  1.00  0.00     0.011 A 
ATOM     43  C   UNL     1       3.245 -40.015 -39.784  1.00  0.00     0.158 A 
ATOM     44  C   UNL     1       2.509 -40.459 -37.513  1.00  0.00     0.051 A 
ATOM     45  C   UNL     1       2.812 -39.536 -38.531  1.00  0.00     0.160 A 
BRANCH  43  46
ATOM     46  O   UNL     1       3.550 -39.137 -40.824  1.00  0.00    -0.504 OA
ATOM     47  H   UNL     1       3.559 -38.132 -40.695  1.00  0.00     0.293 HD
ENDBRANCH  43  46
BRANCH  45  48
ATOM     48  O   UNL     1       2.704 -38.149 -38.331  1.00  0.00    -0.493 OA
ATOM     49  C   UNL     1       1.471 -37.435 -38.292  1.00  0.00     0.278 C 
ENDBRANCH  45  48
ENDBRANCH  35  40
ENDBRANCH  26  27
ENDBRANCH   5  26
BRANCH   4  50
ATOM     50  O   UNL     1       0.874 -51.087 -34.965  1.00  0.00    -0.384 OA
ATOM     51  H   UNL     1      -0.019 -51.517 -34.988  1.00  0.00     0.211 HD
ENDBRANCH   4  50
TORSDOF 15
ENDMDL
MODEL 5
REMARK VINA RESULT:    -8.293      2.320      7.241
REMARK INTER + INTRA:         -15.750
REMARK INTER:                 -13.856
REMARK INTRA:                  -1.894
REMARK UNBOUND:                -2.125
REMARK SMILES COc1ccc([C@@H]2CC(=O)c3c(O)cc(O[C@H]4O[C@H](CO[C@@H]5O[C@@H](C)[C@@H](O)[C@H](O)[C@@H]5O)[C@H](O)[C@H](O)[C@H]4O)cc3O2)cc1O
REMARK SMILES IDX 19 1 32 2 34 3 36 4 17 5 18 6 20 7 21 8 22 9 25 10 24 11
REMARK SMILES IDX 26 12 23 13 28 14 30 15 27 16 29 18 31 20 33 22 35 24 16 26
REMARK SMILES IDX 15 27 14 28 38 29 12 30 39 31 11 32 40 33 9 34 7 35 10 36
REMARK SMILES IDX 8 37 13 38 6 40 41 41 5 42 42 43 4 44 3 45 43 46 2 48 1 49
REMARK SMILES IDX 37 50
REMARK H PARENT 27 17 29 19 31 21 33 23 35 25 13 39 43 47 37 51
REMARK Flexibility Score: inf
ROOT
ATOM      1  C   UNL     1       0.809 -46.824 -35.897  1.00  0.00     0.180 C 
ATOM      2  C   UNL     1       1.867 -47.865 -35.451  1.00  0.00     0.177 C 
ATOM      3  C   UNL     1       1.858 -48.002 -33.915  1.00  0.00     0.180 C 
ATOM      4  C   UNL     1       0.426 -48.195 -33.385  1.00  0.00     0.214 C 
ATOM      5  C   UNL     1      -0.554 -47.174 -34.013  1.00  0.00     0.339 C 
ATOM      6  O   UNL     1      -0.482 -47.189 -35.432  1.00  0.00    -0.332 OA
ENDROOT
BRANCH   1   7
ATOM      7  C   UNL     1       0.754 -46.693 -37.425  1.00  0.00     0.198 C 
BRANCH   7   8
ATOM      8  O   UNL     1       2.026 -46.985 -37.976  1.00  0.00    -0.347 OA
BRANCH   8   9
ATOM      9  C   UNL     1       2.433 -46.078 -38.992  1.00  0.00     0.281 C 
ATOM     10  C   UNL     1       2.979 -43.101 -39.275  1.00  0.00     0.041 C 
ATOM     11  C   UNL     1       1.971 -44.000 -40.015  1.00  0.00     0.150 C 
ATOM     12  C   UNL     1       2.485 -44.508 -41.392  1.00  0.00     0.174 C 
ATOM     13  O   UNL     1       1.474 -45.044 -39.182  1.00  0.00    -0.344 OA
ATOM     14  C   UNL     1       3.440 -45.705 -41.241  1.00  0.00     0.179 C 
ATOM     15  C   UNL     1       2.802 -46.762 -40.327  1.00  0.00     0.202 C 
BRANCH  12  16
ATOM     16  O   UNL     1       3.145 -43.478 -42.090  1.00  0.00    -0.388 OA
ATOM     17  H   UNL     1       3.653 -42.951 -41.417  1.00  0.00     0.211 HD
ENDBRANCH  12  16
BRANCH  14  18
ATOM     18  O   UNL     1       3.699 -46.253 -42.507  1.00  0.00    -0.387 OA
ATOM     19  H   UNL     1       4.535 -45.832 -42.837  1.00  0.00     0.211 HD
ENDBRANCH  14  18
BRANCH  15  20
ATOM     20  O   UNL     1       1.655 -47.280 -40.961  1.00  0.00    -0.385 OA
ATOM     21  H   UNL     1       1.953 -47.993 -41.589  1.00  0.00     0.211 HD
ENDBRANCH  15  20
ENDBRANCH   8   9
ENDBRANCH   7   8
ENDBRANCH   1   7
BRANCH   2  22
ATOM     22  O   UNL     1       1.681 -49.116 -36.077  1.00  0.00    -0.387 OA
ATOM     23  H   UNL     1       1.778 -49.827 -35.387  1.00  0.00     0.211 HD
ENDBRANCH   2  22
BRANCH   3  24
ATOM     24  O   UNL     1       2.651 -49.091 -33.515  1.00  0.00    -0.387 OA
ATOM     25  H   UNL     1       3.590 -48.777 -33.481  1.00  0.00     0.211 HD
ENDBRANCH   3  24
BRANCH   5  26
ATOM     26  O   UNL     1      -0.340 -45.843 -33.520  1.00  0.00    -0.462 OA
BRANCH  26  27
ATOM     27  C   UNL     1      -1.099 -44.719 -33.881  1.00  0.00     0.130 A 
ATOM     28  C   UNL     1      -2.504 -44.712 -33.850  1.00  0.00     0.093 A 
ATOM     29  C   UNL     1      -0.425 -43.577 -34.317  1.00  0.00     0.094 A 
ATOM     30  C   UNL     1      -3.232 -43.579 -34.231  1.00  0.00     0.133 A 
ATOM     31  C   UNL     1      -1.134 -42.454 -34.748  1.00  0.00     0.138 A 
ATOM     32  C   UNL     1      -2.542 -42.408 -34.641  1.00  0.00     0.102 A 
ATOM     33  O   UNL     1      -0.441 -41.379 -35.319  1.00  0.00    -0.484 OA
ATOM     34  C   UNL     1      -3.199 -41.097 -34.919  1.00  0.00     0.174 C 
ATOM     35  C   UNL     1      -1.134 -40.438 -36.137  1.00  0.00     0.211 C 
ATOM     36  O   UNL     1      -4.412 -40.896 -34.651  1.00  0.00    -0.294 OA
ATOM     37  C   UNL     1      -2.370 -39.928 -35.381  1.00  0.00     0.131 C 
BRANCH  30  38
ATOM     38  O   UNL     1      -4.625 -43.683 -34.219  1.00  0.00    -0.507 OA
ATOM     39  H   UNL     1      -5.176 -44.017 -34.997  1.00  0.00     0.293 HD
ENDBRANCH  30  38
BRANCH  35  40
ATOM     40  C   UNL     1      -0.186 -39.369 -36.642  1.00  0.00    -0.003 A 
ATOM     41  C   UNL     1      -0.562 -38.021 -36.812  1.00  0.00     0.057 A 
ATOM     42  C   UNL     1       1.137 -39.738 -36.941  1.00  0.00     0.011 A 
ATOM     43  C   UNL     1       0.339 -37.087 -37.335  1.00  0.00     0.158 A 
ATOM     44  C   UNL     1       2.044 -38.811 -37.459  1.00  0.00     0.051 A 
ATOM     45  C   UNL     1       1.650 -37.477 -37.676  1.00  0.00     0.160 A 
BRANCH  43  46
ATOM     46  O   UNL     1      -0.093 -35.774 -37.526  1.00  0.00    -0.504 OA
ATOM     47  H   UNL     1       0.556 -35.009 -37.666  1.00  0.00     0.293 HD
ENDBRANCH  43  46
BRANCH  45  48
ATOM     48  O   UNL     1       2.523 -36.526 -38.232  1.00  0.00    -0.493 OA
ATOM     49  C   UNL     1       2.720 -36.335 -39.630  1.00  0.00     0.278 C 
ENDBRANCH  45  48
ENDBRANCH  35  40
ENDBRANCH  26  27
ENDBRANCH   5  26
BRANCH   4  50
ATOM     50  O   UNL     1       0.414 -48.071 -31.987  1.00  0.00    -0.384 OA
ATOM     51  H   UNL     1      -0.078 -47.237 -31.777  1.00  0.00     0.211 HD
ENDBRANCH   4  50
TORSDOF 15
ENDMDL
MODEL 6
REMARK VINA RESULT:    -8.285      1.972      6.101
REMARK INTER + INTRA:         -15.737
REMARK INTER:                 -14.195
REMARK INTRA:                  -1.542
REMARK UNBOUND:                -2.125
REMARK SMILES COc1ccc([C@@H]2CC(=O)c3c(O)cc(O[C@H]4O[C@H](CO[C@@H]5O[C@@H](C)[C@@H](O)[C@H](O)[C@@H]5O)[C@H](O)[C@H](O)[C@H]4O)cc3O2)cc1O
REMARK SMILES IDX 19 1 32 2 34 3 36 4 17 5 18 6 20 7 21 8 22 9 25 10 24 11
REMARK SMILES IDX 26 12 23 13 28 14 30 15 27 16 29 18 31 20 33 22 35 24 16 26
REMARK SMILES IDX 15 27 14 28 38 29 12 30 39 31 11 32 40 33 9 34 7 35 10 36
REMARK SMILES IDX 8 37 13 38 6 40 41 41 5 42 42 43 4 44 3 45 43 46 2 48 1 49
REMARK SMILES IDX 37 50
REMARK H PARENT 27 17 29 19 31 21 33 23 35 25 13 39 43 47 37 51
REMARK Flexibility Score: inf
ROOT
ATOM      1  C   UNL     1       3.281 -43.800 -40.329  1.00  0.00     0.180 C 
ATOM      2  C   UNL     1       3.672 -44.306 -41.741  1.00  0.00     0.177 C 
ATOM      3  C   UNL     1       3.274 -45.787 -41.899  1.00  0.00     0.180 C 
ATOM      4  C   UNL     1       1.819 -46.020 -41.455  1.00  0.00     0.214 C 
ATOM      5  C   UNL     1       1.527 -45.347 -40.091  1.00  0.00     0.339 C 
ATOM      6  O   UNL     1       1.891 -43.974 -40.100  1.00  0.00    -0.332 OA
ENDROOT
BRANCH   1   7
ATOM      7  C   UNL     1       3.618 -42.313 -40.148  1.00  0.00     0.198 C 
BRANCH   7   8
ATOM      8  O   UNL     1       3.717 -42.009 -38.769  1.00  0.00    -0.347 OA
BRANCH   8   9
ATOM      9  C   UNL     1       3.077 -40.794 -38.401  1.00  0.00     0.281 C 
ATOM     10  C   UNL     1       2.987 -37.911 -39.358  1.00  0.00     0.041 C 
ATOM     11  C   UNL     1       3.408 -38.491 -37.995  1.00  0.00     0.150 C 
ATOM     12  C   UNL     1       2.275 -38.465 -36.931  1.00  0.00     0.174 C 
ATOM     13  O   UNL     1       4.025 -39.769 -38.127  1.00  0.00    -0.344 OA
ATOM     14  C   UNL     1       1.285 -39.629 -37.119  1.00  0.00     0.179 C 
ATOM     15  C   UNL     1       2.060 -40.949 -37.249  1.00  0.00     0.202 C 
BRANCH  12  16
ATOM     16  O   UNL     1       1.569 -37.248 -36.983  1.00  0.00    -0.388 OA
ATOM     17  H   UNL     1       1.604 -36.853 -36.071  1.00  0.00     0.211 HD
ENDBRANCH  12  16
BRANCH  14  18
ATOM     18  O   UNL     1       0.418 -39.682 -36.017  1.00  0.00    -0.387 OA
ATOM     19  H   UNL     1       0.893 -39.253 -35.258  1.00  0.00     0.211 HD
ENDBRANCH  14  18
BRANCH  15  20
ATOM     20  O   UNL     1       2.716 -41.214 -36.030  1.00  0.00    -0.385 OA
ATOM     21  H   UNL     1       2.775 -42.202 -35.927  1.00  0.00     0.211 HD
ENDBRANCH  15  20
ENDBRANCH   8   9
ENDBRANCH   7   8
ENDBRANCH   1   7
BRANCH   2  22
ATOM     22  O   UNL     1       3.112 -43.514 -42.765  1.00  0.00    -0.387 OA
ATOM     23  H   UNL     1       2.122 -43.524 -42.661  1.00  0.00     0.211 HD
ENDBRANCH   2  22
BRANCH   3  24
ATOM     24  O   UNL     1       3.421 -46.195 -43.235  1.00  0.00    -0.387 OA
ATOM     25  H   UNL     1       2.735 -45.719 -43.768  1.00  0.00     0.211 HD
ENDBRANCH   3  24
BRANCH   5  26
ATOM     26  O   UNL     1       2.174 -46.024 -39.003  1.00  0.00    -0.462 OA
BRANCH  26  27
ATOM     27  C   UNL     1       1.573 -46.325 -37.771  1.00  0.00     0.130 A 
ATOM     28  C   UNL     1       1.782 -47.545 -37.106  1.00  0.00     0.093 A 
ATOM     29  C   UNL     1       0.711 -45.384 -37.208  1.00  0.00     0.094 A 
ATOM     30  C   UNL     1       1.155 -47.821 -35.885  1.00  0.00     0.133 A 
ATOM     31  C   UNL     1       0.038 -45.660 -36.015  1.00  0.00     0.138 A 
ATOM     32  C   UNL     1       0.306 -46.846 -35.297  1.00  0.00     0.102 A 
ATOM     33  O   UNL     1      -0.931 -44.763 -35.548  1.00  0.00    -0.484 OA
ATOM     34  C   UNL     1      -0.291 -46.961 -33.933  1.00  0.00     0.174 C 
ATOM     35  C   UNL     1      -1.911 -45.200 -34.608  1.00  0.00     0.211 C 
ATOM     36  O   UNL     1       0.054 -47.872 -33.137  1.00  0.00    -0.294 OA
ATOM     37  C   UNL     1      -1.205 -45.879 -33.424  1.00  0.00     0.131 C 
BRANCH  30  38
ATOM     38  O   UNL     1       1.380 -49.080 -35.323  1.00  0.00    -0.507 OA
ATOM     39  H   UNL     1       1.242 -49.953 -35.813  1.00  0.00     0.293 HD
ENDBRANCH  30  38
BRANCH  35  40
ATOM     40  C   UNL     1      -2.850 -44.065 -34.248  1.00  0.00    -0.003 A 
ATOM     41  C   UNL     1      -3.843 -44.170 -33.253  1.00  0.00     0.057 A 
ATOM     42  C   UNL     1      -2.713 -42.846 -34.933  1.00  0.00     0.011 A 
ATOM     43  C   UNL     1      -4.719 -43.108 -33.002  1.00  0.00     0.158 A 
ATOM     44  C   UNL     1      -3.581 -41.779 -34.685  1.00  0.00     0.051 A 
ATOM     45  C   UNL     1      -4.604 -41.905 -33.727  1.00  0.00     0.160 A 
BRANCH  43  46
ATOM     46  O   UNL     1      -5.713 -43.275 -32.038  1.00  0.00    -0.504 OA
ATOM     47  H   UNL     1      -6.527 -43.857 -32.198  1.00  0.00     0.293 HD
ENDBRANCH  43  46
BRANCH  45  48
ATOM     48  O   UNL     1      -5.519 -40.868 -33.478  1.00  0.00    -0.493 OA
ATOM     49  C   UNL     1      -5.390 -39.915 -32.426  1.00  0.00     0.278 C 
ENDBRANCH  45  48
ENDBRANCH  35  40
ENDBRANCH  26  27
ENDBRANCH   5  26
BRANCH   4  50
ATOM     50  O   UNL     1       1.559 -47.397 -41.375  1.00  0.00    -0.384 OA
ATOM     51  H   UNL     1       1.655 -47.652 -40.422  1.00  0.00     0.211 HD
ENDBRANCH   4  50
TORSDOF 15
ENDMDL
MODEL 7
REMARK VINA RESULT:    -8.198      1.758      9.583
REMARK INTER + INTRA:         -15.595
REMARK INTER:                 -13.522
REMARK INTRA:                  -2.073
REMARK UNBOUND:                -2.125
REMARK SMILES COc1ccc([C@@H]2CC(=O)c3c(O)cc(O[C@H]4O[C@H](CO[C@@H]5O[C@@H](C)[C@@H](O)[C@H](O)[C@@H]5O)[C@H](O)[C@H](O)[C@H]4O)cc3O2)cc1O
REMARK SMILES IDX 19 1 32 2 34 3 36 4 17 5 18 6 20 7 21 8 22 9 25 10 24 11
REMARK SMILES IDX 26 12 23 13 28 14 30 15 27 16 29 18 31 20 33 22 35 24 16 26
REMARK SMILES IDX 15 27 14 28 38 29 12 30 39 31 11 32 40 33 9 34 7 35 10 36
REMARK SMILES IDX 8 37 13 38 6 40 41 41 5 42 42 43 4 44 3 45 43 46 2 48 1 49
REMARK SMILES IDX 37 50
REMARK H PARENT 27 17 29 19 31 21 33 23 35 25 13 39 43 47 37 51
REMARK Flexibility Score: inf
ROOT
ATOM      1  C   UNL     1      -2.787 -42.198 -34.884  1.00  0.00     0.180 C 
ATOM      2  C   UNL     1      -3.846 -41.397 -34.084  1.00  0.00     0.177 C 
ATOM      3  C   UNL     1      -4.275 -42.192 -32.835  1.00  0.00     0.180 C 
ATOM      4  C   UNL     1      -3.050 -42.698 -32.053  1.00  0.00     0.214 C 
ATOM      5  C   UNL     1      -2.011 -43.358 -32.992  1.00  0.00     0.339 C 
ATOM      6  O   UNL     1      -1.664 -42.499 -34.069  1.00  0.00    -0.332 OA
ENDROOT
BRANCH   1   7
ATOM      7  C   UNL     1      -2.298 -41.418 -36.113  1.00  0.00     0.198 C 
BRANCH   7   8
ATOM      8  O   UNL     1      -1.294 -40.497 -35.726  1.00  0.00    -0.347 OA
BRANCH   8   9
ATOM      9  C   UNL     1      -0.043 -40.708 -36.368  1.00  0.00     0.281 C 
ATOM     10  C   UNL     1       1.531 -43.030 -37.537  1.00  0.00     0.041 C 
ATOM     11  C   UNL     1       1.898 -42.053 -36.405  1.00  0.00     0.150 C 
ATOM     12  C   UNL     1       2.776 -40.859 -36.874  1.00  0.00     0.174 C 
ATOM     13  O   UNL     1       0.754 -41.649 -35.658  1.00  0.00    -0.344 OA
ATOM     14  C   UNL     1       1.936 -39.760 -37.548  1.00  0.00     0.179 C 
ATOM     15  C   UNL     1       0.737 -39.406 -36.656  1.00  0.00     0.202 C 
BRANCH  12  16
ATOM     16  O   UNL     1       3.772 -41.293 -37.770  1.00  0.00    -0.388 OA
ATOM     17  H   UNL     1       3.423 -42.108 -38.220  1.00  0.00     0.211 HD
ENDBRANCH  12  16
BRANCH  14  18
ATOM     18  O   UNL     1       2.737 -38.625 -37.754  1.00  0.00    -0.387 OA
ATOM     19  H   UNL     1       2.456 -37.950 -37.083  1.00  0.00     0.211 HD
ENDBRANCH  14  18
BRANCH  15  20
ATOM     20  O   UNL     1       1.212 -38.830 -35.461  1.00  0.00    -0.385 OA
ATOM     21  H   UNL     1       0.477 -38.875 -34.791  1.00  0.00     0.211 HD
ENDBRANCH  15  20
ENDBRANCH   8   9
ENDBRANCH   7   8
ENDBRANCH   1   7
BRANCH   2  22
ATOM     22  O   UNL     1      -3.389 -40.107 -33.739  1.00  0.00    -0.387 OA
ATOM     23  H   UNL     1      -3.861 -39.822 -32.911  1.00  0.00     0.211 HD
ENDBRANCH   2  22
BRANCH   3  24
ATOM     24  O   UNL     1      -5.064 -41.391 -31.992  1.00  0.00    -0.387 OA
ATOM     25  H   UNL     1      -5.983 -41.760 -32.008  1.00  0.00     0.211 HD
ENDBRANCH   3  24
BRANCH   5  26
ATOM     26  O   UNL     1      -2.461 -44.625 -33.494  1.00  0.00    -0.462 OA
BRANCH  26  27
ATOM     27  C   UNL     1      -1.622 -45.666 -33.921  1.00  0.00     0.130 A 
ATOM     28  C   UNL     1      -1.209 -46.704 -33.070  1.00  0.00     0.093 A 
ATOM     29  C   UNL     1      -1.158 -45.643 -35.238  1.00  0.00     0.094 A 
ATOM     30  C   UNL     1      -0.359 -47.719 -33.524  1.00  0.00     0.133 A 
ATOM     31  C   UNL     1      -0.271 -46.620 -35.696  1.00  0.00     0.138 A 
ATOM     32  C   UNL     1       0.082 -47.712 -34.873  1.00  0.00     0.102 A 
ATOM     33  O   UNL     1       0.294 -46.493 -36.971  1.00  0.00    -0.484 OA
ATOM     34  C   UNL     1       0.859 -48.816 -35.511  1.00  0.00     0.174 C 
ATOM     35  C   UNL     1       1.489 -47.202 -37.294  1.00  0.00     0.211 C 
ATOM     36  O   UNL     1       1.040 -49.918 -34.930  1.00  0.00    -0.294 OA
ATOM     37  C   UNL     1       1.304 -48.687 -36.944  1.00  0.00     0.131 C 
BRANCH  30  38
ATOM     38  O   UNL     1       0.041 -48.679 -32.591  1.00  0.00    -0.507 OA
ATOM     39  H   UNL     1      -0.597 -49.248 -32.053  1.00  0.00     0.293 HD
ENDBRANCH  30  38
BRANCH  35  40
ATOM     40  C   UNL     1       1.913 -46.913 -38.721  1.00  0.00    -0.003 A 
ATOM     41  C   UNL     1       1.039 -47.021 -39.823  1.00  0.00     0.057 A 
ATOM     42  C   UNL     1       3.237 -46.505 -38.953  1.00  0.00     0.011 A 
ATOM     43  C   UNL     1       1.500 -46.797 -41.125  1.00  0.00     0.158 A 
ATOM     44  C   UNL     1       3.703 -46.274 -40.250  1.00  0.00     0.051 A 
ATOM     45  C   UNL     1       2.842 -46.433 -41.351  1.00  0.00     0.160 A 
BRANCH  43  46
ATOM     46  O   UNL     1       0.609 -46.958 -42.186  1.00  0.00    -0.504 OA
ATOM     47  H   UNL     1      -0.394 -46.893 -42.062  1.00  0.00     0.293 HD
ENDBRANCH  43  46
BRANCH  45  48
ATOM     48  O   UNL     1       3.286 -46.247 -42.672  1.00  0.00    -0.493 OA
ATOM     49  C   UNL     1       3.193 -45.018 -43.387  1.00  0.00     0.278 C 
ENDBRANCH  45  48
ENDBRANCH  35  40
ENDBRANCH  26  27
ENDBRANCH   5  26
BRANCH   4  50
ATOM     50  O   UNL     1      -3.457 -43.614 -31.071  1.00  0.00    -0.384 OA
ATOM     51  H   UNL     1      -3.738 -44.438 -31.545  1.00  0.00     0.211 HD
ENDBRANCH   4  50
TORSDOF 15
ENDMDL
MODEL 8
REMARK VINA RESULT:    -8.075      1.959      9.776
REMARK INTER + INTRA:         -15.392
REMARK INTER:                 -13.486
REMARK INTRA:                  -1.906
REMARK UNBOUND:                -2.125
REMARK SMILES COc1ccc([C@@H]2CC(=O)c3c(O)cc(O[C@H]4O[C@H](CO[C@@H]5O[C@@H](C)[C@@H](O)[C@H](O)[C@@H]5O)[C@H](O)[C@H](O)[C@H]4O)cc3O2)cc1O
REMARK SMILES IDX 19 1 32 2 34 3 36 4 17 5 18 6 20 7 21 8 22 9 25 10 24 11
REMARK SMILES IDX 26 12 23 13 28 14 30 15 27 16 29 18 31 20 33 22 35 24 16 26
REMARK SMILES IDX 15 27 14 28 38 29 12 30 39 31 11 32 40 33 9 34 7 35 10 36
REMARK SMILES IDX 8 37 13 38 6 40 41 41 5 42 42 43 4 44 3 45 43 46 2 48 1 49
REMARK SMILES IDX 37 50
REMARK H PARENT 27 17 29 19 31 21 33 23 35 25 13 39 43 47 37 51
REMARK Flexibility Score: inf
ROOT
ATOM      1  C   UNL     1      -2.858 -42.197 -34.892  1.00  0.00     0.180 C 
ATOM      2  C   UNL     1      -3.923 -41.434 -34.064  1.00  0.00     0.177 C 
ATOM      3  C   UNL     1      -4.316 -42.259 -32.822  1.00  0.00     0.180 C 
ATOM      4  C   UNL     1      -3.068 -42.750 -32.066  1.00  0.00     0.214 C 
ATOM      5  C   UNL     1      -2.028 -43.370 -33.031  1.00  0.00     0.339 C 
ATOM      6  O   UNL     1      -1.717 -42.486 -34.099  1.00  0.00    -0.332 OA
ENDROOT
BRANCH   1   7
ATOM      7  C   UNL     1      -2.405 -41.387 -36.115  1.00  0.00     0.198 C 
BRANCH   7   8
ATOM      8  O   UNL     1      -1.040 -41.650 -36.384  1.00  0.00    -0.347 OA
BRANCH   8   9
ATOM      9  C   UNL     1      -0.237 -40.481 -36.473  1.00  0.00     0.281 C 
ATOM     10  C   UNL     1       2.265 -39.568 -37.937  1.00  0.00     0.041 C 
ATOM     11  C   UNL     1       1.977 -39.658 -36.428  1.00  0.00     0.150 C 
ATOM     12  C   UNL     1       1.516 -38.312 -35.800  1.00  0.00     0.174 C 
ATOM     13  O   UNL     1       1.114 -40.748 -36.114  1.00  0.00    -0.344 OA
ATOM     14  C   UNL     1       0.026 -38.036 -36.068  1.00  0.00     0.179 C 
ATOM     15  C   UNL     1      -0.804 -39.273 -35.694  1.00  0.00     0.202 C 
BRANCH  12  16
ATOM     16  O   UNL     1       2.280 -37.241 -36.301  1.00  0.00    -0.388 OA
ATOM     17  H   UNL     1       1.660 -36.471 -36.418  1.00  0.00     0.211 HD
ENDBRANCH  12  16
BRANCH  14  18
ATOM     18  O   UNL     1      -0.384 -36.930 -35.305  1.00  0.00    -0.387 OA
ATOM     19  H   UNL     1       0.322 -36.773 -34.626  1.00  0.00     0.211 HD
ENDBRANCH  14  18
BRANCH  15  20
ATOM     20  O   UNL     1      -0.708 -39.483 -34.303  1.00  0.00    -0.385 OA
ATOM     21  H   UNL     1      -0.339 -40.397 -34.161  1.00  0.00     0.211 HD
ENDBRANCH  15  20
ENDBRANCH   8   9
ENDBRANCH   7   8
ENDBRANCH   1   7
BRANCH   2  22
ATOM     22  O   UNL     1      -3.490 -40.140 -33.703  1.00  0.00    -0.387 OA
ATOM     23  H   UNL     1      -3.490 -39.573 -34.520  1.00  0.00     0.211 HD
ENDBRANCH   2  22
BRANCH   3  24
ATOM     24  O   UNL     1      -5.110 -41.490 -31.954  1.00  0.00    -0.387 OA
ATOM     25  H   UNL     1      -4.530 -40.786 -31.567  1.00  0.00     0.211 HD
ENDBRANCH   3  24
BRANCH   5  26
ATOM     26  O   UNL     1      -2.456 -44.639 -33.547  1.00  0.00    -0.462 OA
BRANCH  26  27
ATOM     27  C   UNL     1      -1.600 -45.660 -33.987  1.00  0.00     0.130 A 
ATOM     28  C   UNL     1      -1.155 -46.691 -33.143  1.00  0.00     0.093 A 
ATOM     29  C   UNL     1      -1.152 -45.625 -35.309  1.00  0.00     0.094 A 
ATOM     30  C   UNL     1      -0.288 -47.686 -33.609  1.00  0.00     0.133 A 
ATOM     31  C   UNL     1      -0.249 -46.581 -35.779  1.00  0.00     0.138 A 
ATOM     32  C   UNL     1       0.137 -47.667 -34.963  1.00  0.00     0.102 A 
ATOM     33  O   UNL     1       0.298 -46.440 -37.060  1.00  0.00    -0.484 OA
ATOM     34  C   UNL     1       0.930 -48.753 -35.613  1.00  0.00     0.174 C 
ATOM     35  C   UNL     1       1.504 -47.122 -37.399  1.00  0.00     0.211 C 
ATOM     36  O   UNL     1       1.142 -49.851 -35.036  1.00  0.00    -0.294 OA
ATOM     37  C   UNL     1       1.355 -48.611 -37.050  1.00  0.00     0.131 C 
BRANCH  30  38
ATOM     38  O   UNL     1       0.143 -48.639 -32.683  1.00  0.00    -0.507 OA
ATOM     39  H   UNL     1       0.559 -49.526 -32.933  1.00  0.00     0.293 HD
ENDBRANCH  30  38
BRANCH  35  40
ATOM     40  C   UNL     1       1.905 -46.821 -38.830  1.00  0.00    -0.003 A 
ATOM     41  C   UNL     1       1.019 -46.939 -39.921  1.00  0.00     0.057 A 
ATOM     42  C   UNL     1       3.220 -46.391 -39.077  1.00  0.00     0.011 A 
ATOM     43  C   UNL     1       1.459 -46.702 -41.228  1.00  0.00     0.158 A 
ATOM     44  C   UNL     1       3.665 -46.148 -40.379  1.00  0.00     0.051 A 
ATOM     45  C   UNL     1       2.793 -46.316 -41.470  1.00  0.00     0.160 A 
BRANCH  43  46
ATOM     46  O   UNL     1       0.558 -46.873 -42.279  1.00  0.00    -0.504 OA
ATOM     47  H   UNL     1      -0.112 -46.158 -42.535  1.00  0.00     0.293 HD
ENDBRANCH  43  46
BRANCH  45  48
ATOM     48  O   UNL     1       3.216 -46.119 -42.796  1.00  0.00    -0.493 OA
ATOM     49  C   UNL     1       3.181 -44.866 -43.474  1.00  0.00     0.278 C 
ENDBRANCH  45  48
ENDBRANCH  35  40
ENDBRANCH  26  27
ENDBRANCH   5  26
BRANCH   4  50
ATOM     50  O   UNL     1      -3.439 -43.691 -31.093  1.00  0.00    -0.384 OA
ATOM     51  H   UNL     1      -3.624 -43.186 -30.261  1.00  0.00     0.211 HD
ENDBRANCH   4  50
TORSDOF 15
ENDMDL
MODEL 9
REMARK VINA RESULT:    -7.918      3.067      9.545
REMARK INTER + INTRA:         -15.134
REMARK INTER:                 -13.267
REMARK INTRA:                  -1.867
REMARK UNBOUND:                -2.125
REMARK SMILES COc1ccc([C@@H]2CC(=O)c3c(O)cc(O[C@H]4O[C@H](CO[C@@H]5O[C@@H](C)[C@@H](O)[C@H](O)[C@@H]5O)[C@H](O)[C@H](O)[C@H]4O)cc3O2)cc1O
REMARK SMILES IDX 19 1 32 2 34 3 36 4 17 5 18 6 20 7 21 8 22 9 25 10 24 11
REMARK SMILES IDX 26 12 23 13 28 14 30 15 27 16 29 18 31 20 33 22 35 24 16 26
REMARK SMILES IDX 15 27 14 28 38 29 12 30 39 31 11 32 40 33 9 34 7 35 10 36
REMARK SMILES IDX 8 37 13 38 6 40 41 41 5 42 42 43 4 44 3 45 43 46 2 48 1 49
REMARK SMILES IDX 37 50
REMARK H PARENT 27 17 29 19 31 21 33 23 35 25 13 39 43 47 37 51
REMARK Flexibility Score: inf
ROOT
ATOM      1  C   UNL     1      -2.279 -41.542 -33.172  1.00  0.00     0.180 C 
ATOM      2  C   UNL     1      -3.596 -40.725 -33.169  1.00  0.00     0.177 C 
ATOM      3  C   UNL     1      -4.775 -41.624 -33.591  1.00  0.00     0.180 C 
ATOM      4  C   UNL     1      -4.776 -42.944 -32.801  1.00  0.00     0.214 C 
ATOM      5  C   UNL     1      -3.367 -43.587 -32.770  1.00  0.00     0.339 C 
ATOM      6  O   UNL     1      -2.385 -42.668 -32.313  1.00  0.00    -0.332 OA
ENDROOT
BRANCH   1   7
ATOM      7  C   UNL     1      -1.086 -40.694 -32.711  1.00  0.00     0.198 C 
BRANCH   7   8
ATOM      8  O   UNL     1      -1.186 -40.443 -31.321  1.00  0.00    -0.347 OA
BRANCH   8   9
ATOM      9  C   UNL     1       0.016 -40.694 -30.603  1.00  0.00     0.281 C 
ATOM     10  C   UNL     1       2.721 -39.371 -30.199  1.00  0.00     0.041 C 
ATOM     11  C   UNL     1       2.371 -40.761 -30.759  1.00  0.00     0.150 C 
ATOM     12  C   UNL     1       2.458 -41.898 -29.702  1.00  0.00     0.174 C 
ATOM     13  O   UNL     1       1.139 -40.753 -31.475  1.00  0.00    -0.344 OA
ATOM     14  C   UNL     1       1.207 -41.944 -28.807  1.00  0.00     0.179 C 
ATOM     15  C   UNL     1      -0.055 -41.933 -29.683  1.00  0.00     0.202 C 
BRANCH  12  16
ATOM     16  O   UNL     1       3.598 -41.740 -28.891  1.00  0.00    -0.388 OA
ATOM     17  H   UNL     1       4.341 -42.229 -29.335  1.00  0.00     0.211 HD
ENDBRANCH  12  16
BRANCH  14  18
ATOM     18  O   UNL     1       1.241 -43.109 -28.024  1.00  0.00    -0.387 OA
ATOM     19  H   UNL     1       1.932 -43.701 -28.420  1.00  0.00     0.211 HD
ENDBRANCH  14  18
BRANCH  15  20
ATOM     20  O   UNL     1      -0.095 -43.120 -30.440  1.00  0.00    -0.385 OA
ATOM     21  H   UNL     1      -0.132 -43.884 -29.802  1.00  0.00     0.211 HD
ENDBRANCH  15  20
ENDBRANCH   8   9
ENDBRANCH   7   8
ENDBRANCH   1   7
BRANCH   2  22
ATOM     22  O   UNL     1      -3.840 -40.112 -31.922  1.00  0.00    -0.387 OA
ATOM     23  H   UNL     1      -4.325 -40.762 -31.346  1.00  0.00     0.211 HD
ENDBRANCH   2  22
BRANCH   3  24
ATOM     24  O   UNL     1      -5.996 -40.960 -33.384  1.00  0.00    -0.387 OA
ATOM     25  H   UNL     1      -6.722 -41.601 -33.594  1.00  0.00     0.211 HD
ENDBRANCH   3  24
BRANCH   5  26
ATOM     26  O   UNL     1      -2.989 -44.124 -34.046  1.00  0.00    -0.462 OA
BRANCH  26  27
ATOM     27  C   UNL     1      -1.993 -45.091 -34.250  1.00  0.00     0.130 A 
ATOM     28  C   UNL     1      -1.489 -45.890 -33.209  1.00  0.00     0.093 A 
ATOM     29  C   UNL     1      -1.465 -45.238 -35.533  1.00  0.00     0.094 A 
ATOM     30  C   UNL     1      -0.484 -46.835 -33.442  1.00  0.00     0.133 A 
ATOM     31  C   UNL     1      -0.428 -46.142 -35.777  1.00  0.00     0.138 A 
ATOM     32  C   UNL     1       0.025 -47.006 -34.756  1.00  0.00     0.102 A 
ATOM     33  O   UNL     1       0.184 -46.165 -37.036  1.00  0.00    -0.484 OA
ATOM     34  C   UNL     1       0.980 -48.083 -35.156  1.00  0.00     0.174 C 
ATOM     35  C   UNL     1       1.480 -46.740 -37.188  1.00  0.00     0.211 C 
ATOM     36  O   UNL     1       1.278 -49.024 -34.376  1.00  0.00    -0.294 OA
ATOM     37  C   UNL     1       1.481 -48.149 -36.575  1.00  0.00     0.131 C 
BRANCH  30  38
ATOM     38  O   UNL     1      -0.009 -47.545 -32.338  1.00  0.00    -0.507 OA
ATOM     39  H   UNL     1       0.721 -48.243 -32.382  1.00  0.00     0.293 HD
ENDBRANCH  30  38
BRANCH  35  40
ATOM     40  C   UNL     1       1.938 -46.653 -38.631  1.00  0.00    -0.003 A 
ATOM     41  C   UNL     1       1.070 -46.824 -39.728  1.00  0.00     0.057 A 
ATOM     42  C   UNL     1       3.292 -46.375 -38.884  1.00  0.00     0.011 A 
ATOM     43  C   UNL     1       1.559 -46.788 -41.039  1.00  0.00     0.158 A 
ATOM     44  C   UNL     1       3.787 -46.332 -40.190  1.00  0.00     0.051 A 
ATOM     45  C   UNL     1       2.927 -46.555 -41.282  1.00  0.00     0.160 A 
BRANCH  43  46
ATOM     46  O   UNL     1       0.669 -47.006 -42.091  1.00  0.00    -0.504 OA
ATOM     47  H   UNL     1       0.468 -47.935 -42.443  1.00  0.00     0.293 HD
ENDBRANCH  43  46
BRANCH  45  48
ATOM     48  O   UNL     1       3.396 -46.559 -42.606  1.00  0.00    -0.493 OA
ATOM     49  C   UNL     1       3.074 -45.567 -43.578  1.00  0.00     0.278 C 
ENDBRANCH  45  48
ENDBRANCH  35  40
ENDBRANCH  26  27
ENDBRANCH   5  26
BRANCH   4  50
ATOM     50  O   UNL     1      -5.698 -43.838 -33.366  1.00  0.00    -0.384 OA
ATOM     51  H   UNL     1      -6.547 -43.339 -33.482  1.00  0.00     0.211 HD
ENDBRANCH   4  50
TORSDOF 15
ENDMDL
