MODEL 1
REMARK VINA RESULT:    -4.849      0.000      0.000
REMARK INTER + INTRA:          -5.324
REMARK INTER:                  -5.274
REMARK INTRA:                  -0.050
REMARK UNBOUND:                -0.050
REMARK SMILES COc1cc2ccc(=O)oc2cc1O
REMARK SMILES IDX 3 1 13 2 12 3 11 4 5 5 4 6 6 7 7 8 8 9 9 10 10 11 2 12 1 13
REMARK SMILES IDX 14 14
REMARK H PARENT 14 15
REMARK Flexibility Score: inf
ROOT
ATOM      1  C   UNL     1      12.816  17.010   9.629  1.00  0.00     0.161 A 
ATOM      2  C   UNL     1      13.247  16.928   8.295  1.00  0.00     0.161 A 
ATOM      3  C   UNL     1      14.614  16.999   7.988  1.00  0.00     0.098 A 
ATOM      4  C   UNL     1      15.558  17.151   9.005  1.00  0.00     0.142 A 
ATOM      5  C   UNL     1      15.133  17.235  10.348  1.00  0.00     0.022 A 
ATOM      6  C   UNL     1      13.768  17.165  10.657  1.00  0.00     0.062 A 
ATOM      7  C   UNL     1      16.102  17.388  11.346  1.00  0.00     0.019 A 
ATOM      8  C   UNL     1      17.448  17.452  10.987  1.00  0.00     0.094 A 
ATOM      9  C   UNL     1      17.796  17.362   9.635  1.00  0.00     0.336 A 
ATOM     10  O   UNL     1      19.005  17.419   9.291  1.00  0.00    -0.246 OA
ATOM     11  O   UNL     1      16.854  17.217   8.707  1.00  0.00    -0.423 OA
ENDROOT
BRANCH   1  12
ATOM     12  O   UNL     1      11.439  16.936   9.890  1.00  0.00    -0.493 OA
ATOM     13  C   UNL     1      10.866  16.265  11.006  1.00  0.00     0.278 C 
ENDBRANCH   1  12
BRANCH   2  14
ATOM     14  O   UNL     1      12.307  16.776   7.277  1.00  0.00    -0.504 OA
ATOM     15  H   UNL     1      11.703  15.963   7.231  1.00  0.00     0.293 HD
ENDBRANCH   2  14
TORSDOF 2
ENDMDL
MODEL 2
REMARK VINA RESULT:    -4.843      1.238      5.414
REMARK INTER + INTRA:          -5.318
REMARK INTER:                  -5.266
REMARK INTRA:                  -0.052
REMARK UNBOUND:                -0.050
REMARK SMILES COc1cc2ccc(=O)oc2cc1O
REMARK SMILES IDX 3 1 13 2 12 3 11 4 5 5 4 6 6 7 7 8 8 9 9 10 10 11 2 12 1 13
REMARK SMILES IDX 14 14
REMARK H PARENT 14 15
REMARK Flexibility Score: inf
ROOT
ATOM      1  C   UNL     1      17.524  17.293   9.586  1.00  0.00     0.161 A 
ATOM      2  C   UNL     1      17.006  17.330  10.891  1.00  0.00     0.161 A 
ATOM      3  C   UNL     1      15.619  17.312  11.103  1.00  0.00     0.098 A 
ATOM      4  C   UNL     1      14.741  17.257  10.018  1.00  0.00     0.142 A 
ATOM      5  C   UNL     1      15.254  17.219   8.704  1.00  0.00     0.022 A 
ATOM      6  C   UNL     1      16.638  17.238   8.490  1.00  0.00     0.062 A 
ATOM      7  C   UNL     1      14.349  17.165   7.638  1.00  0.00     0.019 A 
ATOM      8  C   UNL     1      12.980  17.149   7.902  1.00  0.00     0.094 A 
ATOM      9  C   UNL     1      12.545  17.187   9.232  1.00  0.00     0.336 A 
ATOM     10  O   UNL     1      11.314  17.174   9.490  1.00  0.00    -0.246 OA
ATOM     11  O   UNL     1      13.427  17.239  10.226  1.00  0.00    -0.423 OA
ENDROOT
BRANCH   1  12
ATOM     12  O   UNL     1      18.917  17.314   9.421  1.00  0.00    -0.493 OA
ATOM     13  C   UNL     1      19.731  16.153   9.293  1.00  0.00     0.278 C 
ENDBRANCH   1  12
BRANCH   2  14
ATOM     14  O   UNL     1      17.880  17.384  11.976  1.00  0.00    -0.504 OA
ATOM     15  H   UNL     1      18.863  17.159  11.876  1.00  0.00     0.293 HD
ENDBRANCH   2  14
TORSDOF 2
ENDMDL
MODEL 3
REMARK VINA RESULT:    -4.697      1.390      2.569
REMARK INTER + INTRA:          -5.159
REMARK INTER:                  -5.117
REMARK INTRA:                  -0.043
REMARK UNBOUND:                -0.050
REMARK SMILES COc1cc2ccc(=O)oc2cc1O
REMARK SMILES IDX 3 1 13 2 12 3 11 4 5 5 4 6 6 7 7 8 8 9 9 10 10 11 2 12 1 13
REMARK SMILES IDX 14 14
REMARK H PARENT 14 15
REMARK Flexibility Score: inf
ROOT
ATOM      1  C   UNL     1      12.930  17.382  10.689  1.00  0.00     0.161 A 
ATOM      2  C   UNL     1      13.707  17.788  11.786  1.00  0.00     0.161 A 
ATOM      3  C   UNL     1      15.104  17.853  11.679  1.00  0.00     0.098 A 
ATOM      4  C   UNL     1      15.735  17.516  10.480  1.00  0.00     0.142 A 
ATOM      5  C   UNL     1      14.961  17.108   9.372  1.00  0.00     0.022 A 
ATOM      6  C   UNL     1      13.566  17.041   9.477  1.00  0.00     0.062 A 
ATOM      7  C   UNL     1      15.622  16.776   8.184  1.00  0.00     0.019 A 
ATOM      8  C   UNL     1      17.013  16.857   8.129  1.00  0.00     0.094 A 
ATOM      9  C   UNL     1      17.714  17.271   9.268  1.00  0.00     0.336 A 
ATOM     10  O   UNL     1      18.970  17.351   9.238  1.00  0.00    -0.246 OA
ATOM     11  O   UNL     1      17.061  17.580  10.384  1.00  0.00    -0.423 OA
ENDROOT
BRANCH   1  12
ATOM     12  O   UNL     1      11.536  17.330  10.841  1.00  0.00    -0.493 OA
ATOM     13  C   UNL     1      10.813  16.178  11.260  1.00  0.00     0.278 C 
ENDBRANCH   1  12
BRANCH   2  14
ATOM     14  O   UNL     1      13.079  18.125  12.984  1.00  0.00    -0.504 OA
ATOM     15  H   UNL     1      12.077  18.269  13.036  1.00  0.00     0.293 HD
ENDBRANCH   2  14
TORSDOF 2
ENDMDL
MODEL 4
REMARK VINA RESULT:    -4.671      1.133      4.849
REMARK INTER + INTRA:          -5.131
REMARK INTER:                  -5.086
REMARK INTRA:                  -0.045
REMARK UNBOUND:                -0.050
REMARK SMILES COc1cc2ccc(=O)oc2cc1O
REMARK SMILES IDX 3 1 13 2 12 3 11 4 5 5 4 6 6 7 7 8 8 9 9 10 10 11 2 12 1 13
REMARK SMILES IDX 14 14
REMARK H PARENT 14 15
REMARK Flexibility Score: inf
ROOT
ATOM      1  C   UNL     1      17.047  17.313  10.084  1.00  0.00     0.161 A 
ATOM      2  C   UNL     1      16.828  17.015   8.730  1.00  0.00     0.161 A 
ATOM      3  C   UNL     1      15.522  16.884   8.236  1.00  0.00     0.098 A 
ATOM      4  C   UNL     1      14.427  17.050   9.086  1.00  0.00     0.142 A 
ATOM      5  C   UNL     1      14.638  17.350  10.449  1.00  0.00     0.022 A 
ATOM      6  C   UNL     1      15.942  17.480  10.945  1.00  0.00     0.062 A 
ATOM      7  C   UNL     1      13.521  17.509  11.277  1.00  0.00     0.019 A 
ATOM      8  C   UNL     1      12.243  17.369  10.736  1.00  0.00     0.094 A 
ATOM      9  C   UNL     1      12.111  17.072   9.375  1.00  0.00     0.336 A 
ATOM     10  O   UNL     1      10.966  16.941   8.869  1.00  0.00    -0.246 OA
ATOM     11  O   UNL     1      13.190  16.925   8.611  1.00  0.00    -0.423 OA
ENDROOT
BRANCH   1  12
ATOM     12  O   UNL     1      18.370  17.434  10.536  1.00  0.00    -0.493 OA
ATOM     13  C   UNL     1      18.739  17.805  11.859  1.00  0.00     0.278 C 
ENDBRANCH   1  12
BRANCH   2  14
ATOM     14  O   UNL     1      17.919  16.850   7.878  1.00  0.00    -0.504 OA
ATOM     15  H   UNL     1      18.742  17.436   7.951  1.00  0.00     0.293 HD
ENDBRANCH   2  14
TORSDOF 2
ENDMDL
MODEL 5
REMARK VINA RESULT:    -4.524      1.534      2.506
REMARK INTER + INTRA:          -4.971
REMARK INTER:                  -4.906
REMARK INTRA:                  -0.065
REMARK UNBOUND:                -0.050
REMARK SMILES COc1cc2ccc(=O)oc2cc1O
REMARK SMILES IDX 3 1 13 2 12 3 11 4 5 5 4 6 6 7 7 8 8 9 9 10 10 11 2 12 1 13
REMARK SMILES IDX 14 14
REMARK H PARENT 14 15
REMARK Flexibility Score: inf
ROOT
ATOM      1  C   UNL     1      12.270  16.861   8.837  1.00  0.00     0.161 A 
ATOM      2  C   UNL     1      12.124  17.035  10.223  1.00  0.00     0.161 A 
ATOM      3  C   UNL     1      13.239  17.329  11.020  1.00  0.00     0.098 A 
ATOM      4  C   UNL     1      14.505  17.452  10.444  1.00  0.00     0.142 A 
ATOM      5  C   UNL     1      14.661  17.279   9.052  1.00  0.00     0.022 A 
ATOM      6  C   UNL     1      13.548  16.985   8.254  1.00  0.00     0.062 A 
ATOM      7  C   UNL     1      15.941  17.408   8.504  1.00  0.00     0.019 A 
ATOM      8  C   UNL     1      17.018  17.702   9.341  1.00  0.00     0.094 A 
ATOM      9  C   UNL     1      16.787  17.860  10.712  1.00  0.00     0.336 A 
ATOM     10  O   UNL     1      17.746  18.125  11.483  1.00  0.00    -0.246 OA
ATOM     11  O   UNL     1      15.560  17.732  11.207  1.00  0.00    -0.423 OA
ENDROOT
BRANCH   1  12
ATOM     12  O   UNL     1      11.127  16.567   8.077  1.00  0.00    -0.493 OA
ATOM     13  C   UNL     1      10.839  15.291   7.516  1.00  0.00     0.278 C 
ENDBRANCH   1  12
BRANCH   2  14
ATOM     14  O   UNL     1      10.861  16.913  10.801  1.00  0.00    -0.504 OA
ATOM     15  H   UNL     1      10.049  16.654  10.252  1.00  0.00     0.293 HD
ENDBRANCH   2  14
TORSDOF 2
ENDMDL
MODEL 6
REMARK VINA RESULT:    -4.447     10.947     12.352
REMARK INTER + INTRA:          -4.888
REMARK INTER:                  -4.826
REMARK INTRA:                  -0.062
REMARK UNBOUND:                -0.050
REMARK SMILES COc1cc2ccc(=O)oc2cc1O
REMARK SMILES IDX 3 1 13 2 12 3 11 4 5 5 4 6 6 7 7 8 8 9 9 10 10 11 2 12 1 13
REMARK SMILES IDX 14 14
REMARK H PARENT 14 15
REMARK Flexibility Score: inf
ROOT
ATOM      1  C   UNL     1      17.458  13.118  18.148  1.00  0.00     0.161 A 
ATOM      2  C   UNL     1      18.294  13.734  19.093  1.00  0.00     0.161 A 
ATOM      3  C   UNL     1      18.649  13.059  20.270  1.00  0.00     0.098 A 
ATOM      4  C   UNL     1      18.174  11.769  20.514  1.00  0.00     0.142 A 
ATOM      5  C   UNL     1      17.333  11.143  19.569  1.00  0.00     0.022 A 
ATOM      6  C   UNL     1      16.977  11.815  18.393  1.00  0.00     0.062 A 
ATOM      7  C   UNL     1      16.873   9.850  19.841  1.00  0.00     0.019 A 
ATOM      8  C   UNL     1      17.255   9.222  21.027  1.00  0.00     0.094 A 
ATOM      9  C   UNL     1      18.093   9.905  21.916  1.00  0.00     0.336 A 
ATOM     10  O   UNL     1      18.449   9.356  22.991  1.00  0.00    -0.246 OA
ATOM     11  O   UNL     1      18.515  11.134  21.633  1.00  0.00    -0.423 OA
ENDROOT
BRANCH   1  12
ATOM     12  O   UNL     1      17.127  13.830  16.985  1.00  0.00    -0.493 OA
ATOM     13  C   UNL     1      15.919  14.560  16.802  1.00  0.00     0.278 C 
ENDBRANCH   1  12
BRANCH   2  14
ATOM     14  O   UNL     1      18.770  15.022  18.852  1.00  0.00    -0.504 OA
ATOM     15  H   UNL     1      19.679  15.182  18.435  1.00  0.00     0.293 HD
ENDBRANCH   2  14
TORSDOF 2
ENDMDL
MODEL 7
REMARK VINA RESULT:    -4.415      2.023      4.785
REMARK INTER + INTRA:          -4.852
REMARK INTER:                  -4.806
REMARK INTRA:                  -0.046
REMARK UNBOUND:                -0.050
REMARK SMILES COc1cc2ccc(=O)oc2cc1O
REMARK SMILES IDX 3 1 13 2 12 3 11 4 5 5 4 6 6 7 7 8 8 9 9 10 10 11 2 12 1 13
REMARK SMILES IDX 14 14
REMARK H PARENT 14 15
REMARK Flexibility Score: inf
ROOT
ATOM      1  C   UNL     1      15.208  17.739  12.198  1.00  0.00     0.161 A 
ATOM      2  C   UNL     1      15.978  17.435  11.064  1.00  0.00     0.161 A 
ATOM      3  C   UNL     1      15.355  17.050   9.868  1.00  0.00     0.098 A 
ATOM      4  C   UNL     1      13.964  16.964   9.794  1.00  0.00     0.142 A 
ATOM      5  C   UNL     1      13.182  17.267  10.929  1.00  0.00     0.022 A 
ATOM      6  C   UNL     1      13.802  17.652  12.125  1.00  0.00     0.062 A 
ATOM      7  C   UNL     1      11.790  17.172  10.824  1.00  0.00     0.019 A 
ATOM      8  C   UNL     1      11.220  16.784   9.612  1.00  0.00     0.094 A 
ATOM      9  C   UNL     1      12.059  16.500   8.528  1.00  0.00     0.336 A 
ATOM     10  O   UNL     1      11.563  16.148   7.426  1.00  0.00    -0.246 OA
ATOM     11  O   UNL     1      13.379  16.598   8.656  1.00  0.00    -0.423 OA
ENDROOT
BRANCH   1  12
ATOM     12  O   UNL     1      15.872  18.119  13.374  1.00  0.00    -0.493 OA
ATOM     13  C   UNL     1      15.299  18.070  14.676  1.00  0.00     0.278 C 
ENDBRANCH   1  12
BRANCH   2  14
ATOM     14  O   UNL     1      17.368  17.520  11.135  1.00  0.00    -0.504 OA
ATOM     15  H   UNL     1      17.889  18.177  10.566  1.00  0.00     0.293 HD
ENDBRANCH   2  14
TORSDOF 2
ENDMDL
MODEL 8
REMARK VINA RESULT:    -4.412      2.045      2.635
REMARK INTER + INTRA:          -4.849
REMARK INTER:                  -4.784
REMARK INTRA:                  -0.065
REMARK UNBOUND:                -0.050
REMARK SMILES COc1cc2ccc(=O)oc2cc1O
REMARK SMILES IDX 3 1 13 2 12 3 11 4 5 5 4 6 6 7 7 8 8 9 9 10 10 11 2 12 1 13
REMARK SMILES IDX 14 14
REMARK H PARENT 14 15
REMARK Flexibility Score: inf
ROOT
ATOM      1  C   UNL     1      12.415  15.772  10.196  1.00  0.00     0.161 A 
ATOM      2  C   UNL     1      13.006  14.524  10.453  1.00  0.00     0.161 A 
ATOM      3  C   UNL     1      14.312  14.257  10.015  1.00  0.00     0.098 A 
ATOM      4  C   UNL     1      15.035  15.228   9.320  1.00  0.00     0.142 A 
ATOM      5  C   UNL     1      14.448  16.485   9.058  1.00  0.00     0.022 A 
ATOM      6  C   UNL     1      13.144  16.754   9.494  1.00  0.00     0.062 A 
ATOM      7  C   UNL     1      15.197  17.437   8.360  1.00  0.00     0.019 A 
ATOM      8  C   UNL     1      16.491  17.121   7.946  1.00  0.00     0.094 A 
ATOM      9  C   UNL     1      17.008  15.855   8.242  1.00  0.00     0.336 A 
ATOM     10  O   UNL     1      18.173  15.551   7.877  1.00  0.00    -0.246 OA
ATOM     11  O   UNL     1      16.274  14.968   8.908  1.00  0.00    -0.423 OA
ENDROOT
BRANCH   1  12
ATOM     12  O   UNL     1      11.106  15.996  10.652  1.00  0.00    -0.493 OA
ATOM     13  C   UNL     1      10.772  16.796  11.781  1.00  0.00     0.278 C 
ENDBRANCH   1  12
BRANCH   2  14
ATOM     14  O   UNL     1      12.286  13.553  11.147  1.00  0.00    -0.504 OA
ATOM     15  H   UNL     1      12.049  12.664  10.721  1.00  0.00     0.293 HD
ENDBRANCH   2  14
TORSDOF 2
ENDMDL
MODEL 9
REMARK VINA RESULT:    -4.329      6.045      7.458
REMARK INTER + INTRA:          -4.759
REMARK INTER:                  -4.697
REMARK INTRA:                  -0.061
REMARK UNBOUND:                -0.050
REMARK SMILES COc1cc2ccc(=O)oc2cc1O
REMARK SMILES IDX 3 1 13 2 12 3 11 4 5 5 4 6 6 7 7 8 8 9 9 10 10 11 2 12 1 13
REMARK SMILES IDX 14 14
REMARK H PARENT 14 15
REMARK Flexibility Score: inf
ROOT
ATOM      1  C   UNL     1      16.339  16.307  13.817  1.00  0.00     0.161 A 
ATOM      2  C   UNL     1      15.610  16.732  14.939  1.00  0.00     0.161 A 
ATOM      3  C   UNL     1      15.630  15.979  16.123  1.00  0.00     0.098 A 
ATOM      4  C   UNL     1      16.376  14.801  16.196  1.00  0.00     0.142 A 
ATOM      5  C   UNL     1      17.112  14.367  15.073  1.00  0.00     0.022 A 
ATOM      6  C   UNL     1      17.092  15.117  13.890  1.00  0.00     0.062 A 
ATOM      7  C   UNL     1      17.849  13.182  15.176  1.00  0.00     0.019 A 
ATOM      8  C   UNL     1      17.836  12.471  16.376  1.00  0.00     0.094 A 
ATOM      9  C   UNL     1      17.083  12.963  17.448  1.00  0.00     0.336 A 
ATOM     10  O   UNL     1      17.059  12.335  18.539  1.00  0.00    -0.246 OA
ATOM     11  O   UNL     1      16.391  14.092  17.322  1.00  0.00    -0.423 OA
ENDROOT
BRANCH   1  12
ATOM     12  O   UNL     1      16.290  17.090  12.653  1.00  0.00    -0.493 OA
ATOM     13  C   UNL     1      17.277  18.045  12.282  1.00  0.00     0.278 C 
ENDBRANCH   1  12
BRANCH   2  14
ATOM     14  O   UNL     1      14.865  17.908  14.869  1.00  0.00    -0.504 OA
ATOM     15  H   UNL     1      14.007  18.025  15.397  1.00  0.00     0.293 HD
ENDBRANCH   2  14
TORSDOF 2
ENDMDL
