MODEL 1
REMARK VINA RESULT:    -4.568      0.000      0.000
REMARK INTER + INTRA:          -5.829
REMARK INTER:                  -5.636
REMARK INTRA:                  -0.193
REMARK UNBOUND:                -0.193
REMARK SMILES C=CC[C@@H](C)C(=O)CC
REMARK SMILES IDX 4 1 5 2 6 3 7 4 8 5 9 6 3 7 2 8 1 9
REMARK H PARENT
REMARK Flexibility Score: inf
ROOT
ATOM      1  C   UNL     1      28.719   9.077  25.812  1.00  0.00     0.057 C 
ATOM      2  C   UNL     1      29.265   7.843  26.537  1.00  0.00     0.016 C 
ENDROOT
BRANCH   1   3
ATOM      3  C   UNL     1      27.441   9.547  26.479  1.00  0.00     0.135 C 
ATOM      4  O   UNL     1      26.459   8.818  26.490  1.00  0.00    -0.299 OA
BRANCH   3   5
ATOM      5  C   UNL     1      27.363  10.895  27.146  1.00  0.00     0.072 C 
ATOM      6  C   UNL     1      25.943  11.180  27.622  1.00  0.00     0.012 C 
ENDBRANCH   3   5
ENDBRANCH   1   3
BRANCH   1   7
ATOM      7  C   UNL     1      29.776  10.201  25.781  1.00  0.00     0.038 C 
BRANCH   7   8
ATOM      8  C   UNL     1      31.173   9.670  25.972  1.00  0.00    -0.034 C 
ATOM      9  C   UNL     1      31.990  10.156  26.911  1.00  0.00     0.004 C 
ENDBRANCH   7   8
ENDBRANCH   1   7
TORSDOF 4
ENDMDL
MODEL 2
REMARK VINA RESULT:    -4.536      2.668      3.508
REMARK INTER + INTRA:          -5.789
REMARK INTER:                  -5.780
REMARK INTRA:                  -0.009
REMARK UNBOUND:                -0.193
REMARK SMILES C=CC[C@@H](C)C(=O)CC
REMARK SMILES IDX 4 1 5 2 6 3 7 4 8 5 9 6 3 7 2 8 1 9
REMARK H PARENT
REMARK Flexibility Score: inf
ROOT
ATOM      1  C   UNL     1      27.061  11.149  26.281  1.00  0.00     0.057 C 
ATOM      2  C   UNL     1      26.102  11.351  27.459  1.00  0.00     0.016 C 
ENDROOT
BRANCH   1   3
ATOM      3  C   UNL     1      27.215  12.444  25.508  1.00  0.00     0.135 C 
ATOM      4  O   UNL     1      26.809  13.491  25.992  1.00  0.00    -0.299 OA
BRANCH   3   5
ATOM      5  C   UNL     1      27.875  12.467  24.155  1.00  0.00     0.072 C 
ATOM      6  C   UNL     1      27.189  13.473  23.237  1.00  0.00     0.012 C 
ENDBRANCH   3   5
ENDBRANCH   1   3
BRANCH   1   7
ATOM      7  C   UNL     1      28.428  10.632  26.777  1.00  0.00     0.038 C 
BRANCH   7   8
ATOM      8  C   UNL     1      29.162   9.859  25.712  1.00  0.00    -0.034 C 
ATOM      9  C   UNL     1      30.497   9.805  25.675  1.00  0.00     0.004 C 
ENDBRANCH   7   8
ENDBRANCH   1   7
TORSDOF 4
ENDMDL
MODEL 3
REMARK VINA RESULT:    -4.507      1.378      2.178
REMARK INTER + INTRA:          -5.754
REMARK INTER:                  -5.611
REMARK INTRA:                  -0.143
REMARK UNBOUND:                -0.193
REMARK SMILES C=CC[C@@H](C)C(=O)CC
REMARK SMILES IDX 4 1 5 2 6 3 7 4 8 5 9 6 3 7 2 8 1 9
REMARK H PARENT
REMARK Flexibility Score: inf
ROOT
ATOM      1  C   UNL     1      28.206  10.234  26.640  1.00  0.00     0.057 C 
ATOM      2  C   UNL     1      27.439  11.548  26.457  1.00  0.00     0.016 C 
ENDROOT
BRANCH   1   3
ATOM      3  C   UNL     1      27.276   9.056  26.424  1.00  0.00     0.135 C 
ATOM      4  O   UNL     1      27.730   7.988  26.036  1.00  0.00    -0.299 OA
BRANCH   3   5
ATOM      5  C   UNL     1      25.800   9.172  26.693  1.00  0.00     0.072 C 
ATOM      6  C   UNL     1      25.183   7.796  26.924  1.00  0.00     0.012 C 
ENDBRANCH   3   5
ENDBRANCH   1   3
BRANCH   1   7
ATOM      7  C   UNL     1      29.414  10.173  25.682  1.00  0.00     0.038 C 
BRANCH   7   8
ATOM      8  C   UNL     1      30.702   9.895  26.411  1.00  0.00    -0.034 C 
ATOM      9  C   UNL     1      31.795   9.463  25.773  1.00  0.00     0.004 C 
ENDBRANCH   7   8
ENDBRANCH   1   7
TORSDOF 4
ENDMDL
MODEL 4
REMARK VINA RESULT:    -4.479      1.639      3.952
REMARK INTER + INTRA:          -5.720
REMARK INTER:                  -5.494
REMARK INTRA:                  -0.226
REMARK UNBOUND:                -0.193
REMARK SMILES C=CC[C@@H](C)C(=O)CC
REMARK SMILES IDX 4 1 5 2 6 3 7 4 8 5 9 6 3 7 2 8 1 9
REMARK H PARENT
REMARK Flexibility Score: inf
ROOT
ATOM      1  C   UNL     1      28.660   9.135  26.653  1.00  0.00     0.057 C 
ATOM      2  C   UNL     1      27.593   8.164  26.138  1.00  0.00     0.016 C 
ENDROOT
BRANCH   1   3
ATOM      3  C   UNL     1      30.000   8.817  26.021  1.00  0.00     0.135 C 
ATOM      4  O   UNL     1      30.291   7.656  25.767  1.00  0.00    -0.299 OA
BRANCH   3   5
ATOM      5  C   UNL     1      30.979   9.910  25.683  1.00  0.00     0.072 C 
ATOM      6  C   UNL     1      31.964  10.125  26.827  1.00  0.00     0.012 C 
ENDBRANCH   3   5
ENDBRANCH   1   3
BRANCH   1   7
ATOM      7  C   UNL     1      28.245  10.595  26.374  1.00  0.00     0.038 C 
BRANCH   7   8
ATOM      8  C   UNL     1      27.131  11.051  27.279  1.00  0.00    -0.034 C 
ATOM      9  C   UNL     1      26.299  12.038  26.932  1.00  0.00     0.004 C 
ENDBRANCH   7   8
ENDBRANCH   1   7
TORSDOF 4
ENDMDL
MODEL 5
REMARK VINA RESULT:    -4.461      1.210      2.134
REMARK INTER + INTRA:          -5.697
REMARK INTER:                  -5.510
REMARK INTRA:                  -0.188
REMARK UNBOUND:                -0.193
REMARK SMILES C=CC[C@@H](C)C(=O)CC
REMARK SMILES IDX 4 1 5 2 6 3 7 4 8 5 9 6 3 7 2 8 1 9
REMARK H PARENT
REMARK Flexibility Score: inf
ROOT
ATOM      1  C   UNL     1      27.914  11.146  26.123  1.00  0.00     0.057 C 
ATOM      2  C   UNL     1      27.575  12.104  24.976  1.00  0.00     0.016 C 
ENDROOT
BRANCH   1   3
ATOM      3  C   UNL     1      26.640  10.665  26.791  1.00  0.00     0.135 C 
ATOM      4  O   UNL     1      26.090   9.650  26.387  1.00  0.00    -0.299 OA
BRANCH   3   5
ATOM      5  C   UNL     1      26.047  11.408  27.958  1.00  0.00     0.072 C 
ATOM      6  C   UNL     1      24.905  12.310  27.500  1.00  0.00     0.012 C 
ENDBRANCH   3   5
ENDBRANCH   1   3
BRANCH   1   7
ATOM      7  C   UNL     1      28.754   9.959  25.608  1.00  0.00     0.038 C 
BRANCH   7   8
ATOM      8  C   UNL     1      30.070   9.839  26.331  1.00  0.00    -0.034 C 
ATOM      9  C   UNL     1      31.238   9.892  25.684  1.00  0.00     0.004 C 
ENDBRANCH   7   8
ENDBRANCH   1   7
TORSDOF 4
ENDMDL
MODEL 6
REMARK VINA RESULT:    -4.433      2.985      4.875
REMARK INTER + INTRA:          -5.663
REMARK INTER:                  -5.460
REMARK INTRA:                  -0.202
REMARK UNBOUND:                -0.193
REMARK SMILES C=CC[C@@H](C)C(=O)CC
REMARK SMILES IDX 4 1 5 2 6 3 7 4 8 5 9 6 3 7 2 8 1 9
REMARK H PARENT
REMARK Flexibility Score: inf
ROOT
ATOM      1  C   UNL     1      27.512  11.652  26.279  1.00  0.00     0.057 C 
ATOM      2  C   UNL     1      28.515  10.614  25.765  1.00  0.00     0.016 C 
ENDROOT
BRANCH   1   3
ATOM      3  C   UNL     1      27.388  12.791  25.285  1.00  0.00     0.135 C 
ATOM      4  O   UNL     1      26.922  13.863  25.646  1.00  0.00    -0.299 OA
BRANCH   3   5
ATOM      5  C   UNL     1      27.845  12.631  23.860  1.00  0.00     0.072 C 
ATOM      6  C   UNL     1      27.095  13.590  22.942  1.00  0.00     0.012 C 
ENDBRANCH   3   5
ENDBRANCH   1   3
BRANCH   1   7
ATOM      7  C   UNL     1      26.141  10.996  26.547  1.00  0.00     0.038 C 
BRANCH   7   8
ATOM      8  C   UNL     1      25.480  11.549  27.782  1.00  0.00    -0.034 C 
ATOM      9  C   UNL     1      24.533  12.490  27.714  1.00  0.00     0.004 C 
ENDBRANCH   7   8
ENDBRANCH   1   7
TORSDOF 4
ENDMDL
MODEL 7
REMARK VINA RESULT:    -4.396      1.249      4.203
REMARK INTER + INTRA:          -5.618
REMARK INTER:                  -5.421
REMARK INTRA:                  -0.197
REMARK UNBOUND:                -0.193
REMARK SMILES C=CC[C@@H](C)C(=O)CC
REMARK SMILES IDX 4 1 5 2 6 3 7 4 8 5 9 6 3 7 2 8 1 9
REMARK H PARENT
REMARK Flexibility Score: inf
ROOT
ATOM      1  C   UNL     1      27.057   9.610  26.842  1.00  0.00     0.057 C 
ATOM      2  C   UNL     1      25.942   8.636  26.447  1.00  0.00     0.016 C 
ENDROOT
BRANCH   1   3
ATOM      3  C   UNL     1      28.348   9.232  26.141  1.00  0.00     0.135 C 
ATOM      4  O   UNL     1      28.634   8.052  25.992  1.00  0.00    -0.299 OA
BRANCH   3   5
ATOM      5  C   UNL     1      29.280  10.287  25.609  1.00  0.00     0.072 C 
ATOM      6  C   UNL     1      30.730   9.823  25.701  1.00  0.00     0.012 C 
ENDBRANCH   3   5
ENDBRANCH   1   3
BRANCH   1   7
ATOM      7  C   UNL     1      26.651  11.062  26.514  1.00  0.00     0.038 C 
BRANCH   7   8
ATOM      8  C   UNL     1      25.971  11.736  27.677  1.00  0.00    -0.034 C 
ATOM      9  C   UNL     1      24.872  12.480  27.516  1.00  0.00     0.004 C 
ENDBRANCH   7   8
ENDBRANCH   1   7
TORSDOF 4
ENDMDL
MODEL 8
REMARK VINA RESULT:    -4.315      4.722      7.023
REMARK INTER + INTRA:          -5.517
REMARK INTER:                  -5.278
REMARK INTRA:                  -0.239
REMARK UNBOUND:                -0.193
REMARK SMILES C=CC[C@@H](C)C(=O)CC
REMARK SMILES IDX 4 1 5 2 6 3 7 4 8 5 9 6 3 7 2 8 1 9
REMARK H PARENT
REMARK Flexibility Score: inf
ROOT
ATOM      1  C   UNL     1      34.651  10.133  28.218  1.00  0.00     0.057 C 
ATOM      2  C   UNL     1      35.182   9.640  26.868  1.00  0.00     0.016 C 
ENDROOT
BRANCH   1   3
ATOM      3  C   UNL     1      35.441  11.342  28.677  1.00  0.00     0.135 C 
ATOM      4  O   UNL     1      36.629  11.433  28.396  1.00  0.00    -0.299 OA
BRANCH   3   5
ATOM      5  C   UNL     1      34.786  12.446  29.462  1.00  0.00     0.072 C 
ATOM      6  C   UNL     1      35.199  13.812  28.924  1.00  0.00     0.012 C 
ENDBRANCH   3   5
ENDBRANCH   1   3
BRANCH   1   7
ATOM      7  C   UNL     1      33.145  10.455  28.123  1.00  0.00     0.038 C 
BRANCH   7   8
ATOM      8  C   UNL     1      32.534   9.940  26.846  1.00  0.00    -0.034 C 
ATOM      9  C   UNL     1      31.229  10.069  26.586  1.00  0.00     0.004 C 
ENDBRANCH   7   8
ENDBRANCH   1   7
TORSDOF 4
ENDMDL
MODEL 9
REMARK VINA RESULT:    -4.289      1.373      3.927
REMARK INTER + INTRA:          -5.485
REMARK INTER:                  -5.338
REMARK INTRA:                  -0.146
REMARK UNBOUND:                -0.193
REMARK SMILES C=CC[C@@H](C)C(=O)CC
REMARK SMILES IDX 4 1 5 2 6 3 7 4 8 5 9 6 3 7 2 8 1 9
REMARK H PARENT
REMARK Flexibility Score: inf
ROOT
ATOM      1  C   UNL     1      29.161   9.559  25.741  1.00  0.00     0.057 C 
ATOM      2  C   UNL     1      30.653   9.859  25.913  1.00  0.00     0.016 C 
ENDROOT
BRANCH   1   3
ATOM      3  C   UNL     1      28.908   8.073  25.900  1.00  0.00     0.135 C 
ATOM      4  O   UNL     1      27.763   7.663  26.031  1.00  0.00    -0.299 OA
BRANCH   3   5
ATOM      5  C   UNL     1      30.044   7.085  25.883  1.00  0.00     0.072 C 
ATOM      6  C   UNL     1      29.557   5.708  25.446  1.00  0.00     0.012 C 
ENDBRANCH   3   5
ENDBRANCH   1   3
BRANCH   1   7
ATOM      7  C   UNL     1      28.324  10.376  26.748  1.00  0.00     0.038 C 
BRANCH   7   8
ATOM      8  C   UNL     1      27.471  11.414  26.066  1.00  0.00    -0.034 C 
ATOM      9  C   UNL     1      26.590  12.158  26.742  1.00  0.00     0.004 C 
ENDBRANCH   7   8
ENDBRANCH   1   7
TORSDOF 4
ENDMDL
