MODEL 1
REMARK VINA RESULT:    -7.734      0.000      0.000
REMARK INTER + INTRA:          -8.636
REMARK INTER:                  -8.412
REMARK INTRA:                  -0.224
REMARK UNBOUND:                -0.224
REMARK SMILES CC1(C)CC[C@@]2(C(=O)[O-])CC[C@]3(C)C(=CC[C@H]4[C@@]5(C)CC[C@H](O)C(C)(C)[C@H]5CC[C@@]43C)[C@H]2C1
REMARK SMILES IDX 6 1 5 2 10 3 32 4 4 5 11 6 14 7 33 8 2 9 12 10 15 11 1 12
REMARK SMILES IDX 3 13 13 14 30 15 16 16 17 17 29 18 31 19 18 20 28 21 27 22
REMARK SMILES IDX 20 23 19 24 24 25 21 26 22 27 25 28 26 29 7 30 8 31 9 32
REMARK SMILES IDX 23 33
REMARK H PARENT 23 34
REMARK Flexibility Score: inf
ROOT
ATOM      1  C   UNL     1     -20.990 -46.125 101.916  1.00  0.00     0.017 C 
ATOM      2  C   UNL     1     -21.459 -45.625 100.518  1.00  0.00     0.014 C 
ATOM      3  C   UNL     1     -19.806 -47.150 101.762  1.00  0.00     0.014 C 
ATOM      4  C   UNL     1     -20.621 -44.899 102.830  1.00  0.00     0.028 C 
ATOM      5  C   UNL     1     -20.510 -44.605  99.874  1.00  0.00     0.007 C 
ATOM      6  C   UNL     1     -18.570 -46.894 102.645  1.00  0.00     0.013 C 
ATOM      7  C   UNL     1     -19.921 -45.335 104.112  1.00  0.00    -0.064 C 
ATOM      8  C   UNL     1     -19.762 -43.803 102.143  1.00  0.00     0.015 C 
ATOM      9  C   UNL     1     -20.283 -43.360 100.757  1.00  0.00    -0.035 C 
ATOM     10  C   UNL     1     -18.875 -46.472 104.120  1.00  0.00    -0.006 C 
ATOM     11  C   UNL     1     -20.137 -44.620 105.239  1.00  0.00    -0.027 C 
ATOM     12  C   UNL     1     -21.576 -42.521 100.894  1.00  0.00     0.011 C 
ATOM     13  C   UNL     1     -19.213 -42.470 100.086  1.00  0.00     0.011 C 
ATOM     14  C   UNL     1     -19.625 -47.680 104.775  1.00  0.00     0.017 C 
ATOM     15  C   UNL     1     -17.510 -46.047 104.956  1.00  0.00    -0.020 C 
ATOM     16  C   UNL     1     -19.118 -44.645 106.342  1.00  0.00     0.032 C 
ATOM     17  C   UNL     1     -17.724 -44.649 105.660  1.00  0.00     0.006 C 
ATOM     18  C   UNL     1     -16.272 -45.832 104.042  1.00  0.00     0.008 C 
ATOM     19  C   UNL     1     -17.133 -47.189 105.962  1.00  0.00     0.012 C 
ATOM     20  C   UNL     1     -16.526 -43.976 106.462  1.00  0.00    -0.025 C 
ATOM     21  C   UNL     1     -15.012 -45.400 104.804  1.00  0.00     0.005 C 
ATOM     22  C   UNL     1     -15.152 -44.092 105.642  1.00  0.00     0.003 C 
ATOM     23  C   UNL     1     -16.437 -44.549 107.911  1.00  0.00     0.010 C 
ATOM     24  C   UNL     1     -16.872 -42.453 106.585  1.00  0.00     0.012 C 
ATOM     25  C   UNL     1     -13.826 -43.781 106.487  1.00  0.00    -0.006 C 
ATOM     26  C   UNL     1     -15.167 -44.158 108.668  1.00  0.00     0.033 C 
ATOM     27  C   UNL     1     -13.900 -44.505 107.868  1.00  0.00     0.120 C 
ATOM     28  C   UNL     1     -13.603 -42.243 106.658  1.00  0.00     0.014 C 
ATOM     29  C   UNL     1     -12.546 -44.289 105.753  1.00  0.00     0.014 C 
ENDROOT
BRANCH   1  30
ATOM     30  C   UNL     1     -22.190 -46.872 102.500  1.00  0.00     0.048 C 
ATOM     31  O   UNL     1     -23.092 -46.274 103.147  1.00  0.00    -0.550 OA
ATOM     32  O   UNL     1     -22.308 -48.245 102.307  1.00  0.00    -0.550 OA
ENDBRANCH   1  30
BRANCH  27  33
ATOM     33  O   UNL     1     -12.747 -44.270 108.643  1.00  0.00    -0.393 OA
ATOM     34  H   UNL     1     -13.011 -44.274 109.600  1.00  0.00     0.210 HD
ENDBRANCH  27  33
TORSDOF 2
ENDMDL
MODEL 2
REMARK VINA RESULT:    -7.467      1.832      4.432
REMARK INTER + INTRA:          -8.346
REMARK INTER:                  -8.610
REMARK INTRA:                   0.264
REMARK UNBOUND:                -0.224
REMARK SMILES CC1(C)CC[C@@]2(C(=O)[O-])CC[C@]3(C)C(=CC[C@H]4[C@@]5(C)CC[C@H](O)C(C)(C)[C@H]5CC[C@@]43C)[C@H]2C1
REMARK SMILES IDX 6 1 5 2 10 3 32 4 4 5 11 6 14 7 33 8 2 9 12 10 15 11 1 12
REMARK SMILES IDX 3 13 13 14 30 15 16 16 17 17 29 18 31 19 18 20 28 21 27 22
REMARK SMILES IDX 20 23 19 24 24 25 21 26 22 27 25 28 26 29 7 30 8 31 9 32
REMARK SMILES IDX 23 33
REMARK H PARENT 23 34
REMARK Flexibility Score: inf
ROOT
ATOM      1  C   UNL     1     -22.015 -47.595 103.902  1.00  0.00     0.017 C 
ATOM      2  C   UNL     1     -23.230 -48.342 104.527  1.00  0.00     0.014 C 
ATOM      3  C   UNL     1     -22.111 -46.053 104.198  1.00  0.00     0.014 C 
ATOM      4  C   UNL     1     -20.671 -48.232 104.413  1.00  0.00     0.028 C 
ATOM      5  C   UNL     1     -23.137 -48.513 106.049  1.00  0.00     0.007 C 
ATOM      6  C   UNL     1     -20.839 -45.391 104.762  1.00  0.00     0.013 C 
ATOM      7  C   UNL     1     -19.461 -47.386 104.035  1.00  0.00    -0.064 C 
ATOM      8  C   UNL     1     -20.618 -48.522 105.938  1.00  0.00     0.015 C 
ATOM      9  C   UNL     1     -21.859 -49.259 106.490  1.00  0.00    -0.035 C 
ATOM     10  C   UNL     1     -19.497 -45.842 104.098  1.00  0.00    -0.006 C 
ATOM     11  C   UNL     1     -18.296 -48.014 103.761  1.00  0.00    -0.027 C 
ATOM     12  C   UNL     1     -21.877 -50.736 106.023  1.00  0.00     0.011 C 
ATOM     13  C   UNL     1     -21.794 -49.254 108.033  1.00  0.00     0.011 C 
ATOM     14  C   UNL     1     -19.580 -45.400 102.599  1.00  0.00     0.017 C 
ATOM     15  C   UNL     1     -18.167 -45.225 104.867  1.00  0.00    -0.020 C 
ATOM     16  C   UNL     1     -16.997 -47.274 103.916  1.00  0.00     0.032 C 
ATOM     17  C   UNL     1     -17.140 -46.385 105.180  1.00  0.00     0.006 C 
ATOM     18  C   UNL     1     -18.491 -44.613 106.258  1.00  0.00     0.008 C 
ATOM     19  C   UNL     1     -17.546 -44.074 104.003  1.00  0.00     0.012 C 
ATOM     20  C   UNL     1     -15.810 -46.065 105.992  1.00  0.00    -0.025 C 
ATOM     21  C   UNL     1     -17.257 -44.074 106.996  1.00  0.00     0.005 C 
ATOM     22  C   UNL     1     -16.119 -45.111 107.244  1.00  0.00     0.003 C 
ATOM     23  C   UNL     1     -14.701 -45.512 105.045  1.00  0.00     0.010 C 
ATOM     24  C   UNL     1     -15.296 -47.433 106.560  1.00  0.00     0.012 C 
ATOM     25  C   UNL     1     -14.833 -44.433 107.918  1.00  0.00    -0.006 C 
ATOM     26  C   UNL     1     -13.483 -44.934 105.767  1.00  0.00     0.033 C 
ATOM     27  C   UNL     1     -13.888 -43.876 106.807  1.00  0.00     0.120 C 
ATOM     28  C   UNL     1     -14.084 -45.435 108.857  1.00  0.00     0.014 C 
ATOM     29  C   UNL     1     -15.231 -43.242 108.844  1.00  0.00     0.014 C 
ENDROOT
BRANCH   1  30
ATOM     30  C   UNL     1     -22.152 -47.797 102.393  1.00  0.00     0.048 C 
ATOM     31  O   UNL     1     -21.775 -46.919 101.570  1.00  0.00    -0.550 OA
ATOM     32  O   UNL     1     -22.692 -48.981 101.901  1.00  0.00    -0.550 OA
ENDBRANCH   1  30
BRANCH  27  33
ATOM     33  O   UNL     1     -12.747 -43.258 107.354  1.00  0.00    -0.393 OA
ATOM     34  H   UNL     1     -12.877 -42.275 107.314  1.00  0.00     0.210 HD
ENDBRANCH  27  33
TORSDOF 2
ENDMDL
MODEL 3
REMARK VINA RESULT:    -7.372      1.634      3.831
REMARK INTER + INTRA:          -8.243
REMARK INTER:                  -7.996
REMARK INTRA:                  -0.246
REMARK UNBOUND:                -0.224
REMARK SMILES CC1(C)CC[C@@]2(C(=O)[O-])CC[C@]3(C)C(=CC[C@H]4[C@@]5(C)CC[C@H](O)C(C)(C)[C@H]5CC[C@@]43C)[C@H]2C1
REMARK SMILES IDX 6 1 5 2 10 3 32 4 4 5 11 6 14 7 33 8 2 9 12 10 15 11 1 12
REMARK SMILES IDX 3 13 13 14 30 15 16 16 17 17 29 18 31 19 18 20 28 21 27 22
REMARK SMILES IDX 20 23 19 24 24 25 21 26 22 27 25 28 26 29 7 30 8 31 9 32
REMARK SMILES IDX 23 33
REMARK H PARENT 23 34
REMARK Flexibility Score: inf
ROOT
ATOM      1  C   UNL     1     -21.040 -45.925 101.834  1.00  0.00     0.017 C 
ATOM      2  C   UNL     1     -22.495 -46.464 101.956  1.00  0.00     0.014 C 
ATOM      3  C   UNL     1     -20.967 -44.431 102.323  1.00  0.00     0.014 C 
ATOM      4  C   UNL     1     -20.050 -46.869 102.609  1.00  0.00     0.028 C 
ATOM      5  C   UNL     1     -22.916 -46.796 103.394  1.00  0.00     0.007 C 
ATOM      6  C   UNL     1     -19.846 -44.101 103.327  1.00  0.00     0.013 C 
ATOM      7  C   UNL     1     -18.659 -46.257 102.734  1.00  0.00    -0.064 C 
ATOM      8  C   UNL     1     -20.528 -47.309 104.019  1.00  0.00     0.015 C 
ATOM      9  C   UNL     1     -21.983 -47.826 104.067  1.00  0.00    -0.035 C 
ATOM     10  C   UNL     1     -18.457 -44.752 103.020  1.00  0.00    -0.006 C 
ATOM     11  C   UNL     1     -17.588 -47.081 102.717  1.00  0.00    -0.027 C 
ATOM     12  C   UNL     1     -22.098 -49.216 103.393  1.00  0.00     0.011 C 
ATOM     13  C   UNL     1     -22.407 -47.982 105.544  1.00  0.00     0.011 C 
ATOM     14  C   UNL     1     -17.990 -44.160 101.649  1.00  0.00     0.017 C 
ATOM     15  C   UNL     1     -17.355 -44.497 104.228  1.00  0.00    -0.020 C 
ATOM     16  C   UNL     1     -16.300 -46.641 103.354  1.00  0.00     0.032 C 
ATOM     17  C   UNL     1     -16.684 -45.867 104.643  1.00  0.00     0.006 C 
ATOM     18  C   UNL     1     -17.993 -43.968 105.542  1.00  0.00     0.008 C 
ATOM     19  C   UNL     1     -16.311 -43.419 103.770  1.00  0.00     0.012 C 
ATOM     20  C   UNL     1     -15.644 -45.905 105.846  1.00  0.00    -0.025 C 
ATOM     21  C   UNL     1     -16.983 -43.766 106.680  1.00  0.00     0.005 C 
ATOM     22  C   UNL     1     -16.169 -45.033 107.085  1.00  0.00     0.003 C 
ATOM     23  C   UNL     1     -14.217 -45.502 105.359  1.00  0.00     0.010 C 
ATOM     24  C   UNL     1     -15.568 -47.397 106.321  1.00  0.00     0.012 C 
ATOM     25  C   UNL     1     -15.066 -44.701 108.200  1.00  0.00    -0.006 C 
ATOM     26  C   UNL     1     -13.211 -45.259 106.484  1.00  0.00     0.033 C 
ATOM     27  C   UNL     1     -13.742 -44.244 107.511  1.00  0.00     0.120 C 
ATOM     28  C   UNL     1     -14.828 -45.919 109.150  1.00  0.00     0.014 C 
ATOM     29  C   UNL     1     -15.532 -43.547 109.142  1.00  0.00     0.014 C 
ENDROOT
BRANCH   1  30
ATOM     30  C   UNL     1     -20.726 -45.949 100.338  1.00  0.00     0.048 C 
ATOM     31  O   UNL     1     -20.795 -44.908  99.629  1.00  0.00    -0.550 OA
ATOM     32  O   UNL     1     -20.341 -47.141  99.733  1.00  0.00    -0.550 OA
ENDBRANCH   1  30
BRANCH  27  33
ATOM     33  O   UNL     1     -12.744 -43.929 108.455  1.00  0.00    -0.393 OA
ATOM     34  H   UNL     1     -12.803 -44.583 109.198  1.00  0.00     0.210 HD
ENDBRANCH  27  33
TORSDOF 2
ENDMDL
MODEL 4
REMARK VINA RESULT:    -7.260      1.847      7.731
REMARK INTER + INTRA:          -8.121
REMARK INTER:                  -7.890
REMARK INTRA:                  -0.230
REMARK UNBOUND:                -0.224
REMARK SMILES CC1(C)CC[C@@]2(C(=O)[O-])CC[C@]3(C)C(=CC[C@H]4[C@@]5(C)CC[C@H](O)C(C)(C)[C@H]5CC[C@@]43C)[C@H]2C1
REMARK SMILES IDX 6 1 5 2 10 3 32 4 4 5 11 6 14 7 33 8 2 9 12 10 15 11 1 12
REMARK SMILES IDX 3 13 13 14 30 15 16 16 17 17 29 18 31 19 18 20 28 21 27 22
REMARK SMILES IDX 20 23 19 24 24 25 21 26 22 27 25 28 26 29 7 30 8 31 9 32
REMARK SMILES IDX 23 33
REMARK H PARENT 23 34
REMARK Flexibility Score: inf
ROOT
ATOM      1  C   UNL     1     -14.722 -45.824 107.492  1.00  0.00     0.017 C 
ATOM      2  C   UNL     1     -13.169 -45.926 107.523  1.00  0.00     0.014 C 
ATOM      3  C   UNL     1     -15.169 -44.328 107.300  1.00  0.00     0.014 C 
ATOM      4  C   UNL     1     -15.302 -46.780 106.385  1.00  0.00     0.028 C 
ATOM      5  C   UNL     1     -12.510 -45.788 106.144  1.00  0.00     0.007 C 
ATOM      6  C   UNL     1     -16.216 -44.069 106.199  1.00  0.00     0.013 C 
ATOM      7  C   UNL     1     -16.786 -46.535 106.141  1.00  0.00    -0.064 C 
ATOM      8  C   UNL     1     -14.560 -46.735 105.022  1.00  0.00     0.015 C 
ATOM      9  C   UNL     1     -13.021 -46.834 105.130  1.00  0.00    -0.035 C 
ATOM     10  C   UNL     1     -17.381 -45.109 106.124  1.00  0.00    -0.006 C 
ATOM     11  C   UNL     1     -17.567 -47.587 105.808  1.00  0.00    -0.027 C 
ATOM     12  C   UNL     1     -12.586 -48.266 105.528  1.00  0.00     0.011 C 
ATOM     13  C   UNL     1     -12.405 -46.522 103.749  1.00  0.00     0.011 C 
ATOM     14  C   UNL     1     -18.153 -45.000 107.481  1.00  0.00     0.017 C 
ATOM     15  C   UNL     1     -18.366 -44.868 104.815  1.00  0.00    -0.020 C 
ATOM     16  C   UNL     1     -18.846 -47.355 105.054  1.00  0.00     0.032 C 
ATOM     17  C   UNL     1     -18.558 -46.226 104.029  1.00  0.00     0.006 C 
ATOM     18  C   UNL     1     -17.763 -43.897 103.763  1.00  0.00     0.008 C 
ATOM     19  C   UNL     1     -19.722 -44.235 105.285  1.00  0.00     0.012 C 
ATOM     20  C   UNL     1     -19.399 -46.245 102.679  1.00  0.00    -0.025 C 
ATOM     21  C   UNL     1     -18.652 -43.698 102.527  1.00  0.00     0.005 C 
ATOM     22  C   UNL     1     -19.012 -44.999 101.746  1.00  0.00     0.003 C 
ATOM     23  C   UNL     1     -20.927 -46.350 102.978  1.00  0.00     0.010 C 
ATOM     24  C   UNL     1     -18.985 -47.549 101.915  1.00  0.00     0.012 C 
ATOM     25  C   UNL     1     -20.030 -44.707 100.541  1.00  0.00    -0.006 C 
ATOM     26  C   UNL     1     -21.826 -46.114 101.763  1.00  0.00     0.033 C 
ATOM     27  C   UNL     1     -21.499 -44.784 101.064  1.00  0.00     0.120 C 
ATOM     28  C   UNL     1     -19.795 -45.685  99.345  1.00  0.00     0.014 C 
ATOM     29  C   UNL     1     -19.813 -43.284  99.940  1.00  0.00     0.014 C 
ENDROOT
BRANCH   1  30
ATOM     30  C   UNL     1     -15.184 -46.282 108.876  1.00  0.00     0.048 C 
ATOM     31  O   UNL     1     -15.359 -47.502 109.146  1.00  0.00    -0.550 OA
ATOM     32  O   UNL     1     -15.408 -45.340 109.874  1.00  0.00    -0.550 OA
ENDBRANCH   1  30
BRANCH  27  33
ATOM     33  O   UNL     1     -22.431 -44.521 100.040  1.00  0.00    -0.393 OA
ATOM     34  H   UNL     1     -22.403 -43.550  99.838  1.00  0.00     0.210 HD
ENDBRANCH  27  33
TORSDOF 2
ENDMDL
MODEL 5
REMARK VINA RESULT:    -7.082      5.160     10.263
REMARK INTER + INTRA:          -7.928
REMARK INTER:                  -7.797
REMARK INTRA:                  -0.131
REMARK UNBOUND:                -0.224
REMARK SMILES CC1(C)CC[C@@]2(C(=O)[O-])CC[C@]3(C)C(=CC[C@H]4[C@@]5(C)CC[C@H](O)C(C)(C)[C@H]5CC[C@@]43C)[C@H]2C1
REMARK SMILES IDX 6 1 5 2 10 3 32 4 4 5 11 6 14 7 33 8 2 9 12 10 15 11 1 12
REMARK SMILES IDX 3 13 13 14 30 15 16 16 17 17 29 18 31 19 18 20 28 21 27 22
REMARK SMILES IDX 20 23 19 24 24 25 21 26 22 27 25 28 26 29 7 30 8 31 9 32
REMARK SMILES IDX 23 33
REMARK H PARENT 23 34
REMARK Flexibility Score: inf
ROOT
ATOM      1  C   UNL     1     -13.527 -48.701 113.348  1.00  0.00     0.017 C 
ATOM      2  C   UNL     1     -12.788 -49.971 113.862  1.00  0.00     0.014 C 
ATOM      3  C   UNL     1     -12.576 -47.848 112.430  1.00  0.00     0.014 C 
ATOM      4  C   UNL     1     -14.863 -49.111 112.628  1.00  0.00     0.028 C 
ATOM      5  C   UNL     1     -12.636 -51.072 112.804  1.00  0.00     0.007 C 
ATOM      6  C   UNL     1     -13.159 -47.409 111.073  1.00  0.00     0.013 C 
ATOM      7  C   UNL     1     -15.496 -47.937 111.890  1.00  0.00    -0.064 C 
ATOM      8  C   UNL     1     -14.740 -50.308 111.646  1.00  0.00     0.015 C 
ATOM      9  C   UNL     1     -13.990 -51.530 112.220  1.00  0.00    -0.035 C 
ATOM     10  C   UNL     1     -14.642 -46.913 111.109  1.00  0.00    -0.006 C 
ATOM     11  C   UNL     1     -16.844 -47.872 111.819  1.00  0.00    -0.027 C 
ATOM     12  C   UNL     1     -14.847 -52.255 113.286  1.00  0.00     0.011 C 
ATOM     13  C   UNL     1     -13.718 -52.530 111.075  1.00  0.00     0.011 C 
ATOM     14  C   UNL     1     -14.655 -45.635 112.013  1.00  0.00     0.017 C 
ATOM     15  C   UNL     1     -15.254 -46.625 109.598  1.00  0.00    -0.020 C 
ATOM     16  C   UNL     1     -17.494 -47.100 110.705  1.00  0.00     0.032 C 
ATOM     17  C   UNL     1     -16.645 -47.356 109.432  1.00  0.00     0.006 C 
ATOM     18  C   UNL     1     -14.374 -47.209 108.458  1.00  0.00     0.008 C 
ATOM     19  C   UNL     1     -15.341 -45.079 109.352  1.00  0.00     0.012 C 
ATOM     20  C   UNL     1     -17.404 -47.303 108.035  1.00  0.00    -0.025 C 
ATOM     21  C   UNL     1     -14.954 -46.980 107.055  1.00  0.00     0.005 C 
ATOM     22  C   UNL     1     -16.386 -47.552 106.820  1.00  0.00     0.003 C 
ATOM     23  C   UNL     1     -18.226 -45.984 107.899  1.00  0.00     0.010 C 
ATOM     24  C   UNL     1     -18.428 -48.490 108.040  1.00  0.00     0.012 C 
ATOM     25  C   UNL     1     -16.950 -47.171 105.369  1.00  0.00    -0.006 C 
ATOM     26  C   UNL     1     -18.776 -45.724 106.497  1.00  0.00     0.033 C 
ATOM     27  C   UNL     1     -17.668 -45.786 105.431  1.00  0.00     0.120 C 
ATOM     28  C   UNL     1     -17.897 -48.283 104.813  1.00  0.00     0.014 C 
ATOM     29  C   UNL     1     -15.802 -47.063 104.318  1.00  0.00     0.014 C 
ENDROOT
BRANCH   1  30
ATOM     30  C   UNL     1     -13.836 -47.880 114.601  1.00  0.00     0.048 C 
ATOM     31  O   UNL     1     -14.585 -48.323 115.515  1.00  0.00    -0.550 OA
ATOM     32  O   UNL     1     -13.273 -46.618 114.755  1.00  0.00    -0.550 OA
ENDBRANCH   1  30
BRANCH  27  33
ATOM     33  O   UNL     1     -18.171 -45.402 104.172  1.00  0.00    -0.393 OA
ATOM     34  H   UNL     1     -18.870 -44.713 104.315  1.00  0.00     0.210 HD
ENDBRANCH  27  33
TORSDOF 2
ENDMDL
MODEL 6
REMARK VINA RESULT:    -7.033      2.843      8.864
REMARK INTER + INTRA:          -7.874
REMARK INTER:                  -7.639
REMARK INTRA:                  -0.235
REMARK UNBOUND:                -0.224
REMARK SMILES CC1(C)CC[C@@]2(C(=O)[O-])CC[C@]3(C)C(=CC[C@H]4[C@@]5(C)CC[C@H](O)C(C)(C)[C@H]5CC[C@@]43C)[C@H]2C1
REMARK SMILES IDX 6 1 5 2 10 3 32 4 4 5 11 6 14 7 33 8 2 9 12 10 15 11 1 12
REMARK SMILES IDX 3 13 13 14 30 15 16 16 17 17 29 18 31 19 18 20 28 21 27 22
REMARK SMILES IDX 20 23 19 24 24 25 21 26 22 27 25 28 26 29 7 30 8 31 9 32
REMARK SMILES IDX 23 33
REMARK H PARENT 23 34
REMARK Flexibility Score: inf
ROOT
ATOM      1  C   UNL     1     -13.859 -45.883 111.590  1.00  0.00     0.017 C 
ATOM      2  C   UNL     1     -13.831 -45.168 112.973  1.00  0.00     0.014 C 
ATOM      3  C   UNL     1     -15.131 -46.802 111.476  1.00  0.00     0.014 C 
ATOM      4  C   UNL     1     -13.768 -44.821 110.434  1.00  0.00     0.028 C 
ATOM      5  C   UNL     1     -14.822 -44.003 113.090  1.00  0.00     0.007 C 
ATOM      6  C   UNL     1     -15.968 -46.644 110.191  1.00  0.00     0.013 C 
ATOM      7  C   UNL     1     -14.044 -45.441 109.069  1.00  0.00    -0.064 C 
ATOM      8  C   UNL     1     -14.681 -43.577 110.609  1.00  0.00     0.015 C 
ATOM      9  C   UNL     1     -14.606 -42.923 112.007  1.00  0.00    -0.035 C 
ATOM     10  C   UNL     1     -15.145 -46.505 108.868  1.00  0.00    -0.006 C 
ATOM     11  C   UNL     1     -13.390 -44.948 107.993  1.00  0.00    -0.027 C 
ATOM     12  C   UNL     1     -13.257 -42.189 112.203  1.00  0.00     0.011 C 
ATOM     13  C   UNL     1     -15.734 -41.875 112.126  1.00  0.00     0.011 C 
ATOM     14  C   UNL     1     -14.356 -47.847 108.701  1.00  0.00     0.017 C 
ATOM     15  C   UNL     1     -16.100 -46.165 107.559  1.00  0.00    -0.020 C 
ATOM     16  C   UNL     1     -13.980 -45.116 106.622  1.00  0.00     0.032 C 
ATOM     17  C   UNL     1     -15.513 -44.927 106.772  1.00  0.00     0.006 C 
ATOM     18  C   UNL     1     -17.540 -45.728 107.945  1.00  0.00     0.008 C 
ATOM     19  C   UNL     1     -16.243 -47.446 106.665  1.00  0.00     0.012 C 
ATOM     20  C   UNL     1     -16.295 -44.346 105.514  1.00  0.00    -0.025 C 
ATOM     21  C   UNL     1     -18.420 -45.374 106.738  1.00  0.00     0.005 C 
ATOM     22  C   UNL     1     -17.868 -44.244 105.815  1.00  0.00     0.003 C 
ATOM     23  C   UNL     1     -15.959 -45.161 104.227  1.00  0.00     0.010 C 
ATOM     24  C   UNL     1     -15.764 -42.888 105.294  1.00  0.00     0.012 C 
ATOM     25  C   UNL     1     -18.795 -44.020 104.527  1.00  0.00    -0.006 C 
ATOM     26  C   UNL     1     -16.854 -44.846 103.028  1.00  0.00     0.033 C 
ATOM     27  C   UNL     1     -18.345 -44.980 103.382  1.00  0.00     0.120 C 
ATOM     28  C   UNL     1     -18.779 -42.527 104.064  1.00  0.00     0.014 C 
ATOM     29  C   UNL     1     -20.293 -44.324 104.840  1.00  0.00     0.014 C 
ENDROOT
BRANCH   1  30
ATOM     30  C   UNL     1     -12.623 -46.782 111.576  1.00  0.00     0.048 C 
ATOM     31  O   UNL     1     -11.465 -46.314 111.398  1.00  0.00    -0.550 OA
ATOM     32  O   UNL     1     -12.763 -48.151 111.777  1.00  0.00    -0.550 OA
ENDBRANCH   1  30
BRANCH  27  33
ATOM     33  O   UNL     1     -19.142 -44.827 102.230  1.00  0.00    -0.393 OA
ATOM     34  H   UNL     1     -19.272 -43.857 102.070  1.00  0.00     0.210 HD
ENDBRANCH  27  33
TORSDOF 2
ENDMDL
MODEL 7
REMARK VINA RESULT:    -6.997      2.064      8.162
REMARK INTER + INTRA:          -7.834
REMARK INTER:                  -7.590
REMARK INTRA:                  -0.244
REMARK UNBOUND:                -0.224
REMARK SMILES CC1(C)CC[C@@]2(C(=O)[O-])CC[C@]3(C)C(=CC[C@H]4[C@@]5(C)CC[C@H](O)C(C)(C)[C@H]5CC[C@@]43C)[C@H]2C1
REMARK SMILES IDX 6 1 5 2 10 3 32 4 4 5 11 6 14 7 33 8 2 9 12 10 15 11 1 12
REMARK SMILES IDX 3 13 13 14 30 15 16 16 17 17 29 18 31 19 18 20 28 21 27 22
REMARK SMILES IDX 20 23 19 24 24 25 21 26 22 27 25 28 26 29 7 30 8 31 9 32
REMARK SMILES IDX 23 33
REMARK H PARENT 23 34
REMARK Flexibility Score: inf
ROOT
ATOM      1  C   UNL     1     -12.793 -45.665 107.337  1.00  0.00     0.017 C 
ATOM      2  C   UNL     1     -12.378 -44.867 108.607  1.00  0.00     0.014 C 
ATOM      3  C   UNL     1     -13.358 -47.078 107.739  1.00  0.00     0.014 C 
ATOM      4  C   UNL     1     -13.810 -44.824 106.481  1.00  0.00     0.028 C 
ATOM      5  C   UNL     1     -13.563 -44.294 109.396  1.00  0.00     0.007 C 
ATOM      6  C   UNL     1     -14.703 -47.477 107.102  1.00  0.00     0.013 C 
ATOM      7  C   UNL     1     -14.439 -45.653 105.367  1.00  0.00    -0.064 C 
ATOM      8  C   UNL     1     -14.943 -44.139 107.292  1.00  0.00     0.015 C 
ATOM      9  C   UNL     1     -14.458 -43.370 108.542  1.00  0.00    -0.035 C 
ATOM     10  C   UNL     1     -14.858 -47.123 105.587  1.00  0.00    -0.006 C 
ATOM     11  C   UNL     1     -14.747 -45.038 104.203  1.00  0.00    -0.027 C 
ATOM     12  C   UNL     1     -13.712 -42.075 108.140  1.00  0.00     0.011 C 
ATOM     13  C   UNL     1     -15.688 -42.964 109.383  1.00  0.00     0.011 C 
ATOM     14  C   UNL     1     -13.766 -47.950 104.830  1.00  0.00     0.017 C 
ATOM     15  C   UNL     1     -16.384 -47.420 105.017  1.00  0.00    -0.020 C 
ATOM     16  C   UNL     1     -15.812 -45.618 103.315  1.00  0.00     0.032 C 
ATOM     17  C   UNL     1     -16.930 -46.150 104.251  1.00  0.00     0.006 C 
ATOM     18  C   UNL     1     -17.424 -47.664 106.145  1.00  0.00     0.008 C 
ATOM     19  C   UNL     1     -16.372 -48.713 104.129  1.00  0.00     0.012 C 
ATOM     20  C   UNL     1     -18.413 -46.150 103.677  1.00  0.00    -0.025 C 
ATOM     21  C   UNL     1     -18.850 -47.902 105.628  1.00  0.00     0.005 C 
ATOM     22  C   UNL     1     -19.442 -46.759 104.747  1.00  0.00     0.003 C 
ATOM     23  C   UNL     1     -18.470 -46.855 102.286  1.00  0.00     0.010 C 
ATOM     24  C   UNL     1     -18.804 -44.648 103.453  1.00  0.00     0.012 C 
ATOM     25  C   UNL     1     -20.884 -47.143 104.163  1.00  0.00    -0.006 C 
ATOM     26  C   UNL     1     -19.884 -47.134 101.776  1.00  0.00     0.033 C 
ATOM     27  C   UNL     1     -20.719 -47.906 102.812  1.00  0.00     0.120 C 
ATOM     28  C   UNL     1     -21.790 -45.879 104.001  1.00  0.00     0.014 C 
ATOM     29  C   UNL     1     -21.669 -48.073 105.140  1.00  0.00     0.014 C 
ENDROOT
BRANCH   1  30
ATOM     30  C   UNL     1     -11.498 -45.879 106.553  1.00  0.00     0.048 C 
ATOM     31  O   UNL     1     -10.881 -46.979 106.580  1.00  0.00    -0.550 OA
ATOM     32  O   UNL     1     -10.983 -44.846 105.777  1.00  0.00    -0.550 OA
ENDBRANCH   1  30
BRANCH  27  33
ATOM     33  O   UNL     1     -21.965 -48.276 102.266  1.00  0.00    -0.393 OA
ATOM     34  H   UNL     1     -22.529 -47.462 102.203  1.00  0.00     0.210 HD
ENDBRANCH  27  33
TORSDOF 2
ENDMDL
MODEL 8
REMARK VINA RESULT:    -6.975      1.663      7.932
REMARK INTER + INTRA:          -7.811
REMARK INTER:                  -7.580
REMARK INTRA:                  -0.231
REMARK UNBOUND:                -0.224
REMARK SMILES CC1(C)CC[C@@]2(C(=O)[O-])CC[C@]3(C)C(=CC[C@H]4[C@@]5(C)CC[C@H](O)C(C)(C)[C@H]5CC[C@@]43C)[C@H]2C1
REMARK SMILES IDX 6 1 5 2 10 3 32 4 4 5 11 6 14 7 33 8 2 9 12 10 15 11 1 12
REMARK SMILES IDX 3 13 13 14 30 15 16 16 17 17 29 18 31 19 18 20 28 21 27 22
REMARK SMILES IDX 20 23 19 24 24 25 21 26 22 27 25 28 26 29 7 30 8 31 9 32
REMARK SMILES IDX 23 33
REMARK H PARENT 23 34
REMARK Flexibility Score: inf
ROOT
ATOM      1  C   UNL     1     -14.400 -43.542 107.938  1.00  0.00     0.017 C 
ATOM      2  C   UNL     1     -12.873 -43.806 108.085  1.00  0.00     0.014 C 
ATOM      3  C   UNL     1     -14.655 -42.325 106.973  1.00  0.00     0.014 C 
ATOM      4  C   UNL     1     -15.130 -44.854 107.472  1.00  0.00     0.028 C 
ATOM      5  C   UNL     1     -12.242 -44.495 106.868  1.00  0.00     0.007 C 
ATOM      6  C   UNL     1     -15.691 -42.553 105.855  1.00  0.00     0.013 C 
ATOM      7  C   UNL     1     -16.577 -44.589 107.072  1.00  0.00    -0.064 C 
ATOM      8  C   UNL     1     -14.429 -45.623 106.321  1.00  0.00     0.015 C 
ATOM      9  C   UNL     1     -12.914 -45.843 106.531  1.00  0.00    -0.035 C 
ATOM     10  C   UNL     1     -16.983 -43.322 106.286  1.00  0.00    -0.006 C 
ATOM     11  C   UNL     1     -17.497 -45.551 107.306  1.00  0.00    -0.027 C 
ATOM     12  C   UNL     1     -12.656 -46.895 107.637  1.00  0.00     0.011 C 
ATOM     13  C   UNL     1     -12.303 -46.381 105.218  1.00  0.00     0.011 C 
ATOM     14  C   UNL     1     -17.694 -42.422 107.350  1.00  0.00     0.017 C 
ATOM     15  C   UNL     1     -17.966 -43.682 105.003  1.00  0.00    -0.020 C 
ATOM     16  C   UNL     1     -18.757 -45.591 106.487  1.00  0.00     0.032 C 
ATOM     17  C   UNL     1     -18.356 -45.213 105.037  1.00  0.00     0.006 C 
ATOM     18  C   UNL     1     -17.274 -43.491 103.626  1.00  0.00     0.008 C 
ATOM     19  C   UNL     1     -19.214 -42.732 105.014  1.00  0.00     0.012 C 
ATOM     20  C   UNL     1     -19.232 -45.832 103.861  1.00  0.00    -0.025 C 
ATOM     21  C   UNL     1     -18.166 -43.860 102.432  1.00  0.00     0.005 C 
ATOM     22  C   UNL     1     -18.714 -45.320 102.431  1.00  0.00     0.003 C 
ATOM     23  C   UNL     1     -20.751 -45.572 104.105  1.00  0.00     0.010 C 
ATOM     24  C   UNL     1     -19.012 -47.383 103.912  1.00  0.00     0.012 C 
ATOM     25  C   UNL     1     -19.720 -45.578 101.210  1.00  0.00    -0.006 C 
ATOM     26  C   UNL     1     -21.647 -45.897 102.909  1.00  0.00     0.033 C 
ATOM     27  C   UNL     1     -21.171 -45.185 101.632  1.00  0.00     0.120 C 
ATOM     28  C   UNL     1     -19.649 -47.059 100.714  1.00  0.00     0.014 C 
ATOM     29  C   UNL     1     -19.339 -44.722  99.963  1.00  0.00     0.014 C 
ENDROOT
BRANCH   1  30
ATOM     30  C   UNL     1     -14.876 -43.144 109.336  1.00  0.00     0.048 C 
ATOM     31  O   UNL     1     -15.155 -41.948 109.626  1.00  0.00    -0.550 OA
ATOM     32  O   UNL     1     -15.023 -44.118 110.318  1.00  0.00    -0.550 OA
ENDBRANCH   1  30
BRANCH  27  33
ATOM     33  O   UNL     1     -22.091 -45.383 100.583  1.00  0.00    -0.393 OA
ATOM     34  H   UNL     1     -21.966 -44.656  99.920  1.00  0.00     0.210 HD
ENDBRANCH  27  33
TORSDOF 2
ENDMDL
