MODEL 1
REMARK VINA RESULT:    -2.824      0.000      0.000
REMARK INTER + INTRA:          -5.370
REMARK INTER:                  -4.310
REMARK INTRA:                  -1.060
REMARK UNBOUND:                -1.060
REMARK SMILES CCCCCCCCCCC(=O)[O-]
REMARK SMILES IDX 7 1 8 2 9 3 10 4 11 5 12 6 13 7 6 8 5 9 4 10 3 11 2 12 1 13
REMARK H PARENT
REMARK Flexibility Score: inf
ROOT
ATOM      1  C   UNL     1      21.728  19.878  19.139  1.00  0.00     0.000 C 
ENDROOT
BRANCH   1   2
ATOM      2  C   UNL     1      20.645  19.881  20.232  1.00  0.00     0.000 C 
BRANCH   2   3
ATOM      3  C   UNL     1      19.370  20.632  19.795  1.00  0.00     0.006 C 
BRANCH   3   4
ATOM      4  C   UNL     1      18.983  21.784  20.737  1.00  0.00     0.053 C 
BRANCH   4   5
ATOM      5  C   UNL     1      18.785  23.075  20.008  1.00  0.00     0.041 C 
ATOM      6  O   UNL     1      18.411  23.071  18.805  1.00  0.00    -0.550 OA
ATOM      7  O   UNL     1      18.987  24.283  20.662  1.00  0.00    -0.550 OA
ENDBRANCH   4   5
ENDBRANCH   3   4
ENDBRANCH   2   3
ENDBRANCH   1   2
BRANCH   1   8
ATOM      8  C   UNL     1      22.659  21.099  19.224  1.00  0.00     0.000 C 
BRANCH   8   9
ATOM      9  C   UNL     1      22.719  21.701  20.636  1.00  0.00    -0.000 C 
BRANCH   9  10
ATOM     10  C   UNL     1      22.489  23.216  20.597  1.00  0.00    -0.000 C 
BRANCH  10  11
ATOM     11  C   UNL     1      22.837  23.791  19.217  1.00  0.00    -0.000 C 
BRANCH  11  12
ATOM     12  C   UNL     1      22.042  25.064  18.889  1.00  0.00    -0.003 C 
ATOM     13  C   UNL     1      21.125  24.895  17.678  1.00  0.00     0.004 C 
ENDBRANCH  11  12
ENDBRANCH  10  11
ENDBRANCH   9  10
ENDBRANCH   8   9
ENDBRANCH   1   8
TORSDOF 9
ENDMDL
MODEL 2
REMARK VINA RESULT:    -2.605     11.232     13.689
REMARK INTER + INTRA:          -5.035
REMARK INTER:                  -3.866
REMARK INTRA:                  -1.169
REMARK UNBOUND:                -1.060
REMARK SMILES CCCCCCCCCCC(=O)[O-]
REMARK SMILES IDX 7 1 8 2 9 3 10 4 11 5 12 6 13 7 6 8 5 9 4 10 3 11 2 12 1 13
REMARK H PARENT
REMARK Flexibility Score: inf
ROOT
ATOM      1  C   UNL     1      18.325   9.628  16.200  1.00  0.00     0.000 C 
ENDROOT
BRANCH   1   2
ATOM      2  C   UNL     1      18.732  10.878  16.999  1.00  0.00     0.000 C 
BRANCH   2   3
ATOM      3  C   UNL     1      20.065  10.686  17.752  1.00  0.00     0.006 C 
BRANCH   3   4
ATOM      4  C   UNL     1      21.285  11.233  16.991  1.00  0.00     0.053 C 
BRANCH   4   5
ATOM      5  C   UNL     1      21.317  12.728  16.965  1.00  0.00     0.041 C 
ATOM      6  O   UNL     1      21.680  13.335  15.923  1.00  0.00    -0.550 OA
ATOM      7  O   UNL     1      20.921  13.453  18.081  1.00  0.00    -0.550 OA
ENDBRANCH   4   5
ENDBRANCH   3   4
ENDBRANCH   2   3
ENDBRANCH   1   2
BRANCH   1   8
ATOM      8  C   UNL     1      18.519   8.327  16.996  1.00  0.00     0.000 C 
BRANCH   8   9
ATOM      9  C   UNL     1      18.965   7.152  16.114  1.00  0.00    -0.000 C 
BRANCH   9  10
ATOM     10  C   UNL     1      20.266   7.485  15.373  1.00  0.00    -0.000 C 
BRANCH  10  11
ATOM     11  C   UNL     1      21.469   6.804  16.041  1.00  0.00    -0.000 C 
BRANCH  11  12
ATOM     12  C   UNL     1      22.263   7.759  16.945  1.00  0.00    -0.003 C 
ATOM     13  C   UNL     1      21.973   7.545  18.430  1.00  0.00     0.004 C 
ENDBRANCH  11  12
ENDBRANCH  10  11
ENDBRANCH   9  10
ENDBRANCH   8   9
ENDBRANCH   1   8
TORSDOF 9
ENDMDL
MODEL 3
REMARK VINA RESULT:    -2.473     12.462     14.643
REMARK INTER + INTRA:          -4.835
REMARK INTER:                  -4.061
REMARK INTRA:                  -0.773
REMARK UNBOUND:                -1.060
REMARK SMILES CCCCCCCCCCC(=O)[O-]
REMARK SMILES IDX 7 1 8 2 9 3 10 4 11 5 12 6 13 7 6 8 5 9 4 10 3 11 2 12 1 13
REMARK H PARENT
REMARK Flexibility Score: inf
ROOT
ATOM      1  C   UNL     1      20.962   7.950  16.472  1.00  0.00     0.000 C 
ENDROOT
BRANCH   1   2
ATOM      2  C   UNL     1      22.034   8.896  17.043  1.00  0.00     0.000 C 
BRANCH   2   3
ATOM      3  C   UNL     1      23.336   8.154  17.411  1.00  0.00     0.006 C 
BRANCH   3   4
ATOM      4  C   UNL     1      23.489   6.796  16.706  1.00  0.00     0.053 C 
BRANCH   4   5
ATOM      5  C   UNL     1      24.827   6.638  16.058  1.00  0.00     0.041 C 
ATOM      6  O   UNL     1      25.879   6.750  16.742  1.00  0.00    -0.550 OA
ATOM      7  O   UNL     1      24.916   6.342  14.704  1.00  0.00    -0.550 OA
ENDBRANCH   4   5
ENDBRANCH   3   4
ENDBRANCH   2   3
ENDBRANCH   1   2
BRANCH   1   8
ATOM      8  C   UNL     1      19.599   8.639  16.294  1.00  0.00     0.000 C 
BRANCH   8   9
ATOM      9  C   UNL     1      19.201   9.489  17.510  1.00  0.00    -0.000 C 
BRANCH   9  10
ATOM     10  C   UNL     1      18.160  10.547  17.123  1.00  0.00    -0.000 C 
BRANCH  10  11
ATOM     11  C   UNL     1      18.828  11.901  16.843  1.00  0.00    -0.000 C 
BRANCH  11  12
ATOM     12  C   UNL     1      20.135  12.089  17.629  1.00  0.00    -0.003 C 
ATOM     13  C   UNL     1      21.287  12.579  16.752  1.00  0.00     0.004 C 
ENDBRANCH  11  12
ENDBRANCH  10  11
ENDBRANCH   9  10
ENDBRANCH   8   9
ENDBRANCH   1   8
TORSDOF 9
ENDMDL
MODEL 4
REMARK VINA RESULT:    -2.471     13.291     15.486
REMARK INTER + INTRA:          -4.831
REMARK INTER:                  -4.193
REMARK INTRA:                  -0.639
REMARK UNBOUND:                -1.060
REMARK SMILES CCCCCCCCCCC(=O)[O-]
REMARK SMILES IDX 7 1 8 2 9 3 10 4 11 5 12 6 13 7 6 8 5 9 4 10 3 11 2 12 1 13
REMARK H PARENT
REMARK Flexibility Score: inf
ROOT
ATOM      1  C   UNL     1      20.314   7.475  15.503  1.00  0.00     0.000 C 
ENDROOT
BRANCH   1   2
ATOM      2  C   UNL     1      21.166   6.532  16.371  1.00  0.00     0.000 C 
BRANCH   2   3
ATOM      3  C   UNL     1      22.564   6.281  15.767  1.00  0.00     0.006 C 
BRANCH   3   4
ATOM      4  C   UNL     1      23.706   6.920  16.576  1.00  0.00     0.053 C 
BRANCH   4   5
ATOM      5  C   UNL     1      25.050   6.631  15.989  1.00  0.00     0.041 C 
ATOM      6  O   UNL     1      26.089   6.767  16.689  1.00  0.00    -0.550 OA
ATOM      7  O   UNL     1      25.158   6.186  14.678  1.00  0.00    -0.550 OA
ENDBRANCH   4   5
ENDBRANCH   3   4
ENDBRANCH   2   3
ENDBRANCH   1   2
BRANCH   1   8
ATOM      8  C   UNL     1      18.819   7.415  15.856  1.00  0.00     0.000 C 
BRANCH   8   9
ATOM      9  C   UNL     1      18.192   8.807  16.019  1.00  0.00    -0.000 C 
BRANCH   9  10
ATOM     10  C   UNL     1      18.809   9.552  17.209  1.00  0.00    -0.000 C 
BRANCH  10  11
ATOM     11  C   UNL     1      18.845  11.066  16.952  1.00  0.00    -0.000 C 
BRANCH  11  12
ATOM     12  C   UNL     1      20.242  11.668  17.169  1.00  0.00    -0.003 C 
ATOM     13  C   UNL     1      21.357  10.630  17.060  1.00  0.00     0.004 C 
ENDBRANCH  11  12
ENDBRANCH  10  11
ENDBRANCH   9  10
ENDBRANCH   8   9
ENDBRANCH   1   8
TORSDOF 9
ENDMDL
MODEL 5
REMARK VINA RESULT:    -2.468     11.459     13.845
REMARK INTER + INTRA:          -4.827
REMARK INTER:                  -3.694
REMARK INTRA:                  -1.133
REMARK UNBOUND:                -1.060
REMARK SMILES CCCCCCCCCCC(=O)[O-]
REMARK SMILES IDX 7 1 8 2 9 3 10 4 11 5 12 6 13 7 6 8 5 9 4 10 3 11 2 12 1 13
REMARK H PARENT
REMARK Flexibility Score: inf
ROOT
ATOM      1  C   UNL     1      21.563   7.923  18.108  1.00  0.00     0.000 C 
ENDROOT
BRANCH   1   2
ATOM      2  C   UNL     1      22.060   9.379  18.083  1.00  0.00     0.000 C 
BRANCH   2   3
ATOM      3  C   UNL     1      21.389  10.210  16.970  1.00  0.00     0.006 C 
BRANCH   3   4
ATOM      4  C   UNL     1      20.572  11.401  17.500  1.00  0.00     0.053 C 
BRANCH   4   5
ATOM      5  C   UNL     1      21.317  12.694  17.396  1.00  0.00     0.041 C 
ATOM      6  O   UNL     1      21.681  13.300  18.437  1.00  0.00    -0.550 OA
ATOM      7  O   UNL     1      21.631  13.218  16.149  1.00  0.00    -0.550 OA
ENDBRANCH   4   5
ENDBRANCH   3   4
ENDBRANCH   2   3
ENDBRANCH   1   2
BRANCH   1   8
ATOM      8  C   UNL     1      22.072   7.103  16.912  1.00  0.00     0.000 C 
BRANCH   8   9
ATOM      9  C   UNL     1      20.945   6.357  16.182  1.00  0.00    -0.000 C 
BRANCH   9  10
ATOM     10  C   UNL     1      20.112   7.319  15.327  1.00  0.00    -0.000 C 
BRANCH  10  11
ATOM     11  C   UNL     1      18.630   7.269  15.725  1.00  0.00    -0.000 C 
BRANCH  11  12
ATOM     12  C   UNL     1      18.083   8.643  16.142  1.00  0.00    -0.003 C 
ATOM     13  C   UNL     1      17.897   8.771  17.653  1.00  0.00     0.004 C 
ENDBRANCH  11  12
ENDBRANCH  10  11
ENDBRANCH   9  10
ENDBRANCH   8   9
ENDBRANCH   1   8
TORSDOF 9
ENDMDL
MODEL 6
REMARK VINA RESULT:    -2.462     14.391     16.443
REMARK INTER + INTRA:          -4.817
REMARK INTER:                  -3.629
REMARK INTRA:                  -1.188
REMARK UNBOUND:                -1.060
REMARK SMILES CCCCCCCCCCC(=O)[O-]
REMARK SMILES IDX 7 1 8 2 9 3 10 4 11 5 12 6 13 7 6 8 5 9 4 10 3 11 2 12 1 13
REMARK H PARENT
REMARK Flexibility Score: inf
ROOT
ATOM      1  C   UNL     1      23.134   5.823  14.783  1.00  0.00     0.000 C 
ENDROOT
BRANCH   1   2
ATOM      2  C   UNL     1      24.587   6.173  15.151  1.00  0.00     0.000 C 
BRANCH   2   3
ATOM      3  C   UNL     1      24.779   6.361  16.671  1.00  0.00     0.006 C 
BRANCH   3   4
ATOM      4  C   UNL     1      25.627   7.591  17.035  1.00  0.00     0.053 C 
BRANCH   4   5
ATOM      5  C   UNL     1      26.173   7.516  18.425  1.00  0.00     0.041 C 
ATOM      6  O   UNL     1      26.881   6.535  18.775  1.00  0.00    -0.550 OA
ATOM      7  O   UNL     1      25.923   8.540  19.329  1.00  0.00    -0.550 OA
ENDBRANCH   4   5
ENDBRANCH   3   4
ENDBRANCH   2   3
ENDBRANCH   1   2
BRANCH   1   8
ATOM      8  C   UNL     1      22.426   5.009  15.877  1.00  0.00     0.000 C 
BRANCH   8   9
ATOM      9  C   UNL     1      21.187   5.722  16.439  1.00  0.00    -0.000 C 
BRANCH   9  10
ATOM     10  C   UNL     1      20.919   7.031  15.687  1.00  0.00    -0.000 C 
BRANCH  10  11
ATOM     11  C   UNL     1      20.702   8.194  16.666  1.00  0.00    -0.000 C 
BRANCH  11  12
ATOM     12  C   UNL     1      22.021   8.848  17.107  1.00  0.00    -0.003 C 
ATOM     13  C   UNL     1      22.358   8.572  18.572  1.00  0.00     0.004 C 
ENDBRANCH  11  12
ENDBRANCH  10  11
ENDBRANCH   9  10
ENDBRANCH   8   9
ENDBRANCH   1   8
TORSDOF 9
ENDMDL
MODEL 7
REMARK VINA RESULT:    -2.391     13.955     15.986
REMARK INTER + INTRA:          -4.709
REMARK INTER:                  -3.792
REMARK INTRA:                  -0.918
REMARK UNBOUND:                -1.060
REMARK SMILES CCCCCCCCCCC(=O)[O-]
REMARK SMILES IDX 7 1 8 2 9 3 10 4 11 5 12 6 13 7 6 8 5 9 4 10 3 11 2 12 1 13
REMARK H PARENT
REMARK Flexibility Score: inf
ROOT
ATOM      1  C   UNL     1      22.526   8.630  17.365  1.00  0.00     0.000 C 
ENDROOT
BRANCH   1   2
ATOM      2  C   UNL     1      21.895   7.239  17.557  1.00  0.00     0.000 C 
BRANCH   2   3
ATOM      3  C   UNL     1      21.843   6.431  16.243  1.00  0.00     0.006 C 
BRANCH   3   4
ATOM      4  C   UNL     1      23.044   5.489  16.054  1.00  0.00     0.053 C 
BRANCH   4   5
ATOM      5  C   UNL     1      23.809   5.785  14.804  1.00  0.00     0.041 C 
ATOM      6  O   UNL     1      23.298   5.548  13.677  1.00  0.00    -0.550 OA
ATOM      7  O   UNL     1      25.077   6.347  14.879  1.00  0.00    -0.550 OA
ENDBRANCH   4   5
ENDBRANCH   3   4
ENDBRANCH   2   3
ENDBRANCH   1   2
BRANCH   1   8
ATOM      8  C   UNL     1      21.492   9.700  16.978  1.00  0.00     0.000 C 
BRANCH   8   9
ATOM      9  C   UNL     1      20.154   9.525  17.712  1.00  0.00    -0.000 C 
BRANCH   9  10
ATOM     10  C   UNL     1      19.015  10.214  16.951  1.00  0.00    -0.000 C 
BRANCH  10  11
ATOM     11  C   UNL     1      18.278   9.219  16.043  1.00  0.00    -0.000 C 
BRANCH  11  12
ATOM     12  C   UNL     1      18.265   7.794  16.617  1.00  0.00    -0.003 C 
ATOM     13  C   UNL     1      18.240   6.719  15.531  1.00  0.00     0.004 C 
ENDBRANCH  11  12
ENDBRANCH  10  11
ENDBRANCH   9  10
ENDBRANCH   8   9
ENDBRANCH   1   8
TORSDOF 9
ENDMDL
MODEL 8
REMARK VINA RESULT:    -2.375     13.593     15.813
REMARK INTER + INTRA:          -4.684
REMARK INTER:                  -3.744
REMARK INTRA:                  -0.940
REMARK UNBOUND:                -1.060
REMARK SMILES CCCCCCCCCCC(=O)[O-]
REMARK SMILES IDX 7 1 8 2 9 3 10 4 11 5 12 6 13 7 6 8 5 9 4 10 3 11 2 12 1 13
REMARK H PARENT
REMARK Flexibility Score: inf
ROOT
ATOM      1  C   UNL     1      26.020   8.259  19.000  1.00  0.00     0.000 C 
ENDROOT
BRANCH   1   2
ATOM      2  C   UNL     1      26.080   8.153  17.466  1.00  0.00     0.000 C 
BRANCH   2   3
ATOM      3  C   UNL     1      25.689   6.749  16.958  1.00  0.00     0.006 C 
BRANCH   3   4
ATOM      4  C   UNL     1      25.027   6.760  15.570  1.00  0.00     0.053 C 
BRANCH   4   5
ATOM      5  C   UNL     1      24.071   5.625  15.386  1.00  0.00     0.041 C 
ATOM      6  O   UNL     1      23.919   5.103  14.250  1.00  0.00    -0.550 OA
ATOM      7  O   UNL     1      23.365   5.125  16.473  1.00  0.00    -0.550 OA
ENDBRANCH   4   5
ENDBRANCH   3   4
ENDBRANCH   2   3
ENDBRANCH   1   2
BRANCH   1   8
ATOM      8  C   UNL     1      24.723   7.676  19.584  1.00  0.00     0.000 C 
BRANCH   8   9
ATOM      9  C   UNL     1      23.515   8.603  19.386  1.00  0.00    -0.000 C 
BRANCH   9  10
ATOM     10  C   UNL     1      22.480   7.965  18.451  1.00  0.00    -0.000 C 
BRANCH  10  11
ATOM     11  C   UNL     1      22.341   8.770  17.151  1.00  0.00    -0.000 C 
BRANCH  11  12
ATOM     12  C   UNL     1      21.028   9.565  17.086  1.00  0.00    -0.003 C 
ATOM     13  C   UNL     1      21.251  11.076  17.078  1.00  0.00     0.004 C 
ENDBRANCH  11  12
ENDBRANCH  10  11
ENDBRANCH   9  10
ENDBRANCH   8   9
ENDBRANCH   1   8
TORSDOF 9
ENDMDL
