MODEL 1
REMARK VINA RESULT:    -2.436      0.000      0.000
REMARK INTER + INTRA:          -3.086
REMARK INTER:                  -3.006
REMARK INTRA:                  -0.081
REMARK UNBOUND:                -0.081
REMARK SMILES CCCCCC(=O)[O-]
REMARK SMILES IDX 4 1 5 2 6 3 7 4 8 5 3 6 2 7 1 8
REMARK H PARENT
REMARK Flexibility Score: inf
ROOT
ATOM      1  C   UNL     1      16.257  38.233  47.096  1.00  0.00     0.006 C 
ENDROOT
BRANCH   1   2
ATOM      2  C   UNL     1      15.304  39.433  47.215  1.00  0.00     0.053 C 
BRANCH   2   3
ATOM      3  C   UNL     1      13.933  39.115  46.702  1.00  0.00     0.041 C 
ATOM      4  O   UNL     1      13.319  39.944  45.981  1.00  0.00    -0.550 OA
ATOM      5  O   UNL     1      13.349  37.889  46.994  1.00  0.00    -0.550 OA
ENDBRANCH   2   3
ENDBRANCH   1   2
BRANCH   1   6
ATOM      6  C   UNL     1      17.446  38.460  46.144  1.00  0.00     0.000 C 
BRANCH   6   7
ATOM      7  C   UNL     1      18.798  38.136  46.795  1.00  0.00    -0.003 C 
ATOM      8  C   UNL     1      19.674  39.383  46.889  1.00  0.00     0.004 C 
ENDBRANCH   6   7
ENDBRANCH   1   6
TORSDOF 4
ENDMDL
MODEL 2
REMARK VINA RESULT:    -2.379     18.938     19.688
REMARK INTER + INTRA:          -3.015
REMARK INTER:                  -2.978
REMARK INTRA:                  -0.038
REMARK UNBOUND:                -0.081
REMARK SMILES CCCCCC(=O)[O-]
REMARK SMILES IDX 4 1 5 2 6 3 7 4 8 5 3 6 2 7 1 8
REMARK H PARENT
REMARK Flexibility Score: inf
ROOT
ATOM      1  C   UNL     1      17.920  20.626  49.968  1.00  0.00     0.006 C 
ENDROOT
BRANCH   1   2
ATOM      2  C   UNL     1      19.274  19.916  49.809  1.00  0.00     0.053 C 
BRANCH   2   3
ATOM      3  C   UNL     1      20.236  20.294  50.893  1.00  0.00     0.041 C 
ATOM      4  O   UNL     1      21.242  21.005  50.628  1.00  0.00    -0.550 OA
ATOM      5  O   UNL     1      20.005  19.890  52.201  1.00  0.00    -0.550 OA
ENDBRANCH   2   3
ENDBRANCH   1   2
BRANCH   1   6
ATOM      6  C   UNL     1      16.913  19.875  50.859  1.00  0.00     0.000 C 
BRANCH   6   7
ATOM      7  C   UNL     1      15.992  20.822  51.643  1.00  0.00    -0.003 C 
ATOM      8  C   UNL     1      15.043  20.040  52.548  1.00  0.00     0.004 C 
ENDBRANCH   6   7
ENDBRANCH   1   6
TORSDOF 4
ENDMDL
MODEL 3
REMARK VINA RESULT:    -1.921      3.094      4.817
REMARK INTER + INTRA:          -2.450
REMARK INTER:                  -2.349
REMARK INTRA:                  -0.101
REMARK UNBOUND:                -0.081
REMARK SMILES CCCCCC(=O)[O-]
REMARK SMILES IDX 4 1 5 2 6 3 7 4 8 5 3 6 2 7 1 8
REMARK H PARENT
REMARK Flexibility Score: inf
ROOT
ATOM      1  C   UNL     1      16.248  38.398  47.153  1.00  0.00     0.006 C 
ENDROOT
BRANCH   1   2
ATOM      2  C   UNL     1      17.322  38.349  46.054  1.00  0.00     0.053 C 
BRANCH   2   3
ATOM      3  C   UNL     1      18.706  38.297  46.624  1.00  0.00     0.041 C 
ATOM      4  O   UNL     1      19.307  37.196  46.730  1.00  0.00    -0.550 OA
ATOM      5  O   UNL     1      19.346  39.470  47.005  1.00  0.00    -0.550 OA
ENDBRANCH   2   3
ENDBRANCH   1   2
BRANCH   1   6
ATOM      6  C   UNL     1      15.203  39.513  46.969  1.00  0.00     0.000 C 
BRANCH   6   7
ATOM      7  C   UNL     1      13.812  38.971  46.613  1.00  0.00    -0.003 C 
ATOM      8  C   UNL     1      13.550  37.635  47.304  1.00  0.00     0.004 C 
ENDBRANCH   6   7
ENDBRANCH   1   6
TORSDOF 4
ENDMDL
MODEL 4
REMARK VINA RESULT:    -1.858     18.582     19.528
REMARK INTER + INTRA:          -2.374
REMARK INTER:                  -2.298
REMARK INTRA:                  -0.076
REMARK UNBOUND:                -0.081
REMARK SMILES CCCCCC(=O)[O-]
REMARK SMILES IDX 4 1 5 2 6 3 7 4 8 5 3 6 2 7 1 8
REMARK H PARENT
REMARK Flexibility Score: inf
ROOT
ATOM      1  C   UNL     1      16.907  21.125  50.709  1.00  0.00     0.006 C 
ENDROOT
BRANCH   1   2
ATOM      2  C   UNL     1      17.763  19.875  50.448  1.00  0.00     0.053 C 
BRANCH   2   3
ATOM      3  C   UNL     1      18.873  20.146  49.479  1.00  0.00     0.041 C 
ATOM      4  O   UNL     1      18.626  20.267  48.251  1.00  0.00    -0.550 OA
ATOM      5  O   UNL     1      20.175  20.298  49.938  1.00  0.00    -0.550 OA
ENDBRANCH   2   3
ENDBRANCH   1   2
BRANCH   1   6
ATOM      6  C   UNL     1      15.689  20.880  51.617  1.00  0.00     0.000 C 
BRANCH   6   7
ATOM      7  C   UNL     1      15.998  19.928  52.782  1.00  0.00    -0.003 C 
ATOM      8  C   UNL     1      14.836  19.875  53.770  1.00  0.00     0.004 C 
ENDBRANCH   6   7
ENDBRANCH   1   6
TORSDOF 4
ENDMDL
MODEL 5
REMARK VINA RESULT:    -1.108     18.574     19.586
REMARK INTER + INTRA:          -1.448
REMARK INTER:                  -1.352
REMARK INTRA:                  -0.095
REMARK UNBOUND:                -0.081
REMARK SMILES CCCCCC(=O)[O-]
REMARK SMILES IDX 4 1 5 2 6 3 7 4 8 5 3 6 2 7 1 8
REMARK H PARENT
REMARK Flexibility Score: inf
ROOT
ATOM      1  C   UNL     1      18.839  20.047  50.587  1.00  0.00     0.006 C 
ENDROOT
BRANCH   1   2
ATOM      2  C   UNL     1      20.344  19.895  50.863  1.00  0.00     0.053 C 
BRANCH   2   3
ATOM      3  C   UNL     1      20.665  20.044  52.318  1.00  0.00     0.041 C 
ATOM      4  O   UNL     1      19.769  19.875  53.186  1.00  0.00    -0.550 OA
ATOM      5  O   UNL     1      21.963  20.337  52.718  1.00  0.00    -0.550 OA
ENDBRANCH   2   3
ENDBRANCH   1   2
BRANCH   1   6
ATOM      6  C   UNL     1      18.465  20.027  49.093  1.00  0.00     0.000 C 
BRANCH   6   7
ATOM      7  C   UNL     1      17.893  21.366  48.606  1.00  0.00    -0.003 C 
ATOM      8  C   UNL     1      17.212  22.119  49.746  1.00  0.00     0.004 C 
ENDBRANCH   6   7
ENDBRANCH   1   6
TORSDOF 4
ENDMDL
MODEL 6
REMARK VINA RESULT:    -1.038     18.475     19.302
REMARK INTER + INTRA:          -1.361
REMARK INTER:                  -1.308
REMARK INTRA:                  -0.053
REMARK UNBOUND:                -0.081
REMARK SMILES CCCCCC(=O)[O-]
REMARK SMILES IDX 4 1 5 2 6 3 7 4 8 5 3 6 2 7 1 8
REMARK H PARENT
REMARK Flexibility Score: inf
ROOT
ATOM      1  C   UNL     1      18.229  20.116  51.678  1.00  0.00     0.006 C 
ENDROOT
BRANCH   1   2
ATOM      2  C   UNL     1      17.413  19.904  50.393  1.00  0.00     0.053 C 
BRANCH   2   3
ATOM      3  C   UNL     1      18.013  20.621  49.223  1.00  0.00     0.041 C 
ATOM      4  O   UNL     1      18.633  19.977  48.336  1.00  0.00    -0.550 OA
ATOM      5  O   UNL     1      17.858  21.995  49.094  1.00  0.00    -0.550 OA
ENDBRANCH   2   3
ENDBRANCH   1   2
BRANCH   1   6
ATOM      6  C   UNL     1      19.741  19.875  51.515  1.00  0.00     0.000 C 
BRANCH   6   7
ATOM      7  C   UNL     1      20.504  19.967  52.844  1.00  0.00    -0.003 C 
ATOM      8  C   UNL     1      21.999  20.163  52.606  1.00  0.00     0.004 C 
ENDBRANCH   6   7
ENDBRANCH   1   6
TORSDOF 4
ENDMDL
MODEL 7
REMARK VINA RESULT:    -0.412     18.211     19.021
REMARK INTER + INTRA:          -0.589
REMARK INTER:                  -0.503
REMARK INTRA:                  -0.086
REMARK UNBOUND:                -0.081
REMARK SMILES CCCCCC(=O)[O-]
REMARK SMILES IDX 4 1 5 2 6 3 7 4 8 5 3 6 2 7 1 8
REMARK H PARENT
REMARK Flexibility Score: inf
ROOT
ATOM      1  C   UNL     1      18.172  19.875  51.100  1.00  0.00     0.006 C 
ENDROOT
BRANCH   1   2
ATOM      2  C   UNL     1      17.126  20.714  50.348  1.00  0.00     0.053 C 
BRANCH   2   3
ATOM      3  C   UNL     1      15.973  21.092  51.226  1.00  0.00     0.041 C 
ATOM      4  O   UNL     1      15.388  20.217  51.916  1.00  0.00    -0.550 OA
ATOM      5  O   UNL     1      15.567  22.418  51.308  1.00  0.00    -0.550 OA
ENDBRANCH   2   3
ENDBRANCH   1   2
BRANCH   1   6
ATOM      6  C   UNL     1      19.569  19.876  50.453  1.00  0.00     0.000 C 
BRANCH   6   7
ATOM      7  C   UNL     1      20.690  20.175  51.459  1.00  0.00    -0.003 C 
ATOM      8  C   UNL     1      20.240  19.876  52.887  1.00  0.00     0.004 C 
ENDBRANCH   6   7
ENDBRANCH   1   6
TORSDOF 4
ENDMDL
MODEL 8
REMARK VINA RESULT:    -0.014      1.022      1.275
REMARK INTER + INTRA:          -0.097
REMARK INTER:                  -0.024
REMARK INTRA:                  -0.073
REMARK UNBOUND:                -0.081
REMARK SMILES CCCCCC(=O)[O-]
REMARK SMILES IDX 4 1 5 2 6 3 7 4 8 5 3 6 2 7 1 8
REMARK H PARENT
REMARK Flexibility Score: inf
ROOT
ATOM      1  C   UNL     1      16.689  39.084  47.227  1.00  0.00     0.006 C 
ENDROOT
BRANCH   1   2
ATOM      2  C   UNL     1      15.605  38.725  46.198  1.00  0.00     0.053 C 
BRANCH   2   3
ATOM      3  C   UNL     1      14.225  38.963  46.730  1.00  0.00     0.041 C 
ATOM      4  O   UNL     1      13.739  40.124  46.735  1.00  0.00    -0.550 OA
ATOM      5  O   UNL     1      13.463  37.896  47.190  1.00  0.00    -0.550 OA
ENDBRANCH   2   3
ENDBRANCH   1   2
BRANCH   1   6
ATOM      6  C   UNL     1      18.122  38.732  46.785  1.00  0.00     0.000 C 
BRANCH   6   7
ATOM      7  C   UNL     1      18.221  37.341  46.143  1.00  0.00    -0.003 C 
ATOM      8  C   UNL     1      19.632  36.775  46.274  1.00  0.00     0.004 C 
ENDBRANCH   6   7
ENDBRANCH   1   6
TORSDOF 4
ENDMDL
