MODEL 1
REMARK VINA RESULT:    -5.988      0.000      0.000
REMARK INTER + INTRA:          -9.895
REMARK INTER:                  -9.138
REMARK INTRA:                  -0.757
REMARK UNBOUND:                -0.757
REMARK SMILES O=C([O-])CCCCCCCCC(=O)[O-]
REMARK SMILES IDX 7 1 6 2 5 3 4 4 2 5 1 6 3 7 8 8 9 9 10 10 11 11 12 12 13 13
REMARK SMILES IDX 14 14
REMARK H PARENT
REMARK Flexibility Score: inf
ROOT
ATOM      1  C   UNL     1     -17.301  -8.165  -8.377  1.00  0.00     0.000 C 
ENDROOT
BRANCH   1   2
ATOM      2  C   UNL     1     -16.608  -8.768  -9.609  1.00  0.00     0.000 C 
BRANCH   2   3
ATOM      3  C   UNL     1     -17.302 -10.044 -10.113  1.00  0.00     0.006 C 
BRANCH   3   4
ATOM      4  C   UNL     1     -18.814  -9.860 -10.294  1.00  0.00     0.053 C 
BRANCH   4   5
ATOM      5  C   UNL     1     -19.308 -10.694 -11.433  1.00  0.00     0.041 C 
ATOM      6  O   UNL     1     -18.846 -11.849 -11.620  1.00  0.00    -0.550 OA
ATOM      7  O   UNL     1     -20.316 -10.213 -12.261  1.00  0.00    -0.550 OA
ENDBRANCH   4   5
ENDBRANCH   3   4
ENDBRANCH   2   3
ENDBRANCH   1   2
BRANCH   1   8
ATOM      8  C   UNL     1     -16.468  -8.400  -7.111  1.00  0.00     0.000 C 
BRANCH   8   9
ATOM      9  C   UNL     1     -14.969  -8.417  -7.432  1.00  0.00     0.000 C 
BRANCH   9  10
ATOM     10  C   UNL     1     -14.277  -9.614  -6.766  1.00  0.00     0.006 C 
BRANCH  10  11
ATOM     11  C   UNL     1     -14.019 -10.759  -7.755  1.00  0.00     0.053 C 
BRANCH  11  12
ATOM     12  C   UNL     1     -14.977 -11.892  -7.554  1.00  0.00     0.041 C 
ATOM     13  O   UNL     1     -14.882 -12.935  -8.253  1.00  0.00    -0.550 OA
ATOM     14  O   UNL     1     -15.996 -11.784  -6.615  1.00  0.00    -0.550 OA
ENDBRANCH  11  12
ENDBRANCH  10  11
ENDBRANCH   9  10
ENDBRANCH   8   9
ENDBRANCH   1   8
TORSDOF 9
ENDMDL
MODEL 2
REMARK VINA RESULT:    -5.875      0.995      4.788
REMARK INTER + INTRA:          -9.723
REMARK INTER:                  -8.994
REMARK INTRA:                  -0.729
REMARK UNBOUND:                -0.757
REMARK SMILES O=C([O-])CCCCCCCCC(=O)[O-]
REMARK SMILES IDX 7 1 6 2 5 3 4 4 2 5 1 6 3 7 8 8 9 9 10 10 11 11 12 12 13 13
REMARK SMILES IDX 14 14
REMARK H PARENT
REMARK Flexibility Score: inf
ROOT
ATOM      1  C   UNL     1     -15.882  -9.039  -6.507  1.00  0.00     0.000 C 
ENDROOT
BRANCH   1   2
ATOM      2  C   UNL     1     -14.563  -8.750  -7.239  1.00  0.00     0.000 C 
BRANCH   2   3
ATOM      3  C   UNL     1     -13.675  -9.997  -7.373  1.00  0.00     0.006 C 
BRANCH   3   4
ATOM      4  C   UNL     1     -14.442 -11.299  -7.104  1.00  0.00     0.053 C 
BRANCH   4   5
ATOM      5  C   UNL     1     -14.691 -12.031  -8.385  1.00  0.00     0.041 C 
ATOM      6  O   UNL     1     -14.485 -11.464  -9.489  1.00  0.00    -0.550 OA
ATOM      7  O   UNL     1     -15.105 -13.358  -8.357  1.00  0.00    -0.550 OA
ENDBRANCH   4   5
ENDBRANCH   3   4
ENDBRANCH   2   3
ENDBRANCH   1   2
BRANCH   1   8
ATOM      8  C   UNL     1     -17.086  -8.780  -7.422  1.00  0.00     0.000 C 
BRANCH   8   9
ATOM      9  C   UNL     1     -16.638  -8.205  -8.771  1.00  0.00     0.000 C 
BRANCH   9  10
ATOM     10  C   UNL     1     -17.021  -9.144  -9.924  1.00  0.00     0.006 C 
BRANCH  10  11
ATOM     11  C   UNL     1     -18.502  -9.543  -9.881  1.00  0.00     0.053 C 
BRANCH  11  12
ATOM     12  C   UNL     1     -18.857 -10.481 -10.992  1.00  0.00     0.041 C 
ATOM     13  O   UNL     1     -18.144 -11.494 -11.219  1.00  0.00    -0.550 OA
ATOM     14  O   UNL     1     -19.956 -10.219 -11.799  1.00  0.00    -0.550 OA
ENDBRANCH  11  12
ENDBRANCH  10  11
ENDBRANCH   9  10
ENDBRANCH   8   9
ENDBRANCH   1   8
TORSDOF 9
ENDMDL
MODEL 3
REMARK VINA RESULT:    -5.830      1.121      1.365
REMARK INTER + INTRA:          -9.654
REMARK INTER:                  -8.904
REMARK INTRA:                  -0.750
REMARK UNBOUND:                -0.757
REMARK SMILES O=C([O-])CCCCCCCCC(=O)[O-]
REMARK SMILES IDX 7 1 6 2 5 3 4 4 2 5 1 6 3 7 8 8 9 9 10 10 11 11 12 12 13 13
REMARK SMILES IDX 14 14
REMARK H PARENT
REMARK Flexibility Score: inf
ROOT
ATOM      1  C   UNL     1     -16.987  -8.763  -7.326  1.00  0.00     0.000 C 
ENDROOT
BRANCH   1   2
ATOM      2  C   UNL     1     -16.514  -8.080  -8.618  1.00  0.00     0.000 C 
BRANCH   2   3
ATOM      3  C   UNL     1     -16.945  -8.843  -9.882  1.00  0.00     0.006 C 
BRANCH   3   4
ATOM      4  C   UNL     1     -18.316  -9.514  -9.727  1.00  0.00     0.053 C 
BRANCH   4   5
ATOM      5  C   UNL     1     -18.566 -10.455 -10.862  1.00  0.00     0.041 C 
ATOM      6  O   UNL     1     -17.769 -11.402 -11.088  1.00  0.00    -0.550 OA
ATOM      7  O   UNL     1     -19.709 -10.316 -11.641  1.00  0.00    -0.550 OA
ENDBRANCH   4   5
ENDBRANCH   3   4
ENDBRANCH   2   3
ENDBRANCH   1   2
BRANCH   1   8
ATOM      8  C   UNL     1     -15.793  -9.200  -6.469  1.00  0.00     0.000 C 
BRANCH   8   9
ATOM      9  C   UNL     1     -14.470  -8.991  -7.217  1.00  0.00     0.000 C 
BRANCH   9  10
ATOM     10  C   UNL     1     -13.638 -10.281  -7.234  1.00  0.00     0.006 C 
BRANCH  10  11
ATOM     11  C   UNL     1     -14.514 -11.538  -7.170  1.00  0.00     0.053 C 
BRANCH  11  12
ATOM     12  C   UNL     1     -14.706 -12.151  -8.523  1.00  0.00     0.041 C 
ATOM     13  O   UNL     1     -14.589 -11.448  -9.560  1.00  0.00    -0.550 OA
ATOM     14  O   UNL     1     -15.046 -13.494  -8.636  1.00  0.00    -0.550 OA
ENDBRANCH  11  12
ENDBRANCH  10  11
ENDBRANCH   9  10
ENDBRANCH   8   9
ENDBRANCH   1   8
TORSDOF 9
ENDMDL
MODEL 4
REMARK VINA RESULT:    -5.786      2.834      5.568
REMARK INTER + INTRA:          -9.587
REMARK INTER:                  -8.756
REMARK INTRA:                  -0.830
REMARK UNBOUND:                -0.757
REMARK SMILES O=C([O-])CCCCCCCCC(=O)[O-]
REMARK SMILES IDX 7 1 6 2 5 3 4 4 2 5 1 6 3 7 8 8 9 9 10 10 11 11 12 12 13 13
REMARK SMILES IDX 14 14
REMARK H PARENT
REMARK Flexibility Score: inf
ROOT
ATOM      1  C   UNL     1     -15.888 -12.053 -10.218  1.00  0.00     0.000 C 
ENDROOT
BRANCH   1   2
ATOM      2  C   UNL     1     -14.845 -12.445  -9.161  1.00  0.00     0.000 C 
BRANCH   2   3
ATOM      3  C   UNL     1     -14.243 -11.226  -8.444  1.00  0.00     0.006 C 
BRANCH   3   4
ATOM      4  C   UNL     1     -14.211 -11.393  -6.920  1.00  0.00     0.053 C 
BRANCH   4   5
ATOM      5  C   UNL     1     -13.063 -10.632  -6.335  1.00  0.00     0.041 C 
ATOM      6  O   UNL     1     -12.464 -11.071  -5.319  1.00  0.00    -0.550 OA
ATOM      7  O   UNL     1     -12.624  -9.462  -6.942  1.00  0.00    -0.550 OA
ENDBRANCH   4   5
ENDBRANCH   3   4
ENDBRANCH   2   3
ENDBRANCH   1   2
BRANCH   1   8
ATOM      8  C   UNL     1     -16.175 -10.547 -10.174  1.00  0.00     0.000 C 
BRANCH   8   9
ATOM      9  C   UNL     1     -17.682 -10.271 -10.215  1.00  0.00     0.000 C 
BRANCH   9  10
ATOM     10  C   UNL     1     -18.055  -9.111  -9.281  1.00  0.00     0.006 C 
BRANCH  10  11
ATOM     11  C   UNL     1     -16.820  -8.444  -8.663  1.00  0.00     0.053 C 
BRANCH  11  12
ATOM     12  C   UNL     1     -16.709  -8.730  -7.197  1.00  0.00     0.041 C 
ATOM     13  O   UNL     1     -15.791  -8.204  -6.515  1.00  0.00    -0.550 OA
ATOM     14  O   UNL     1     -17.601  -9.605  -6.590  1.00  0.00    -0.550 OA
ENDBRANCH  11  12
ENDBRANCH  10  11
ENDBRANCH   9  10
ENDBRANCH   8   9
ENDBRANCH   1   8
TORSDOF 9
ENDMDL
MODEL 5
REMARK VINA RESULT:    -5.740      2.839      4.103
REMARK INTER + INTRA:          -9.516
REMARK INTER:                  -8.636
REMARK INTRA:                  -0.880
REMARK UNBOUND:                -0.757
REMARK SMILES O=C([O-])CCCCCCCCC(=O)[O-]
REMARK SMILES IDX 7 1 6 2 5 3 4 4 2 5 1 6 3 7 8 8 9 9 10 10 11 11 12 12 13 13
REMARK SMILES IDX 14 14
REMARK H PARENT
REMARK Flexibility Score: inf
ROOT
ATOM      1  C   UNL     1     -15.994 -11.476 -10.565  1.00  0.00     0.000 C 
ENDROOT
BRANCH   1   2
ATOM      2  C   UNL     1     -17.010 -10.590  -9.830  1.00  0.00     0.000 C 
BRANCH   2   3
ATOM      3  C   UNL     1     -16.533  -9.135  -9.687  1.00  0.00     0.006 C 
BRANCH   3   4
ATOM      4  C   UNL     1     -17.328  -8.354  -8.633  1.00  0.00     0.053 C 
BRANCH   4   5
ATOM      5  C   UNL     1     -16.949  -8.801  -7.257  1.00  0.00     0.041 C 
ATOM      6  O   UNL     1     -16.013  -8.229  -6.640  1.00  0.00    -0.550 OA
ATOM      7  O   UNL     1     -17.663  -9.819  -6.635  1.00  0.00    -0.550 OA
ENDBRANCH   4   5
ENDBRANCH   3   4
ENDBRANCH   2   3
ENDBRANCH   1   2
BRANCH   1   8
ATOM      8  C   UNL     1     -14.767 -11.748  -9.685  1.00  0.00     0.000 C 
BRANCH   8   9
ATOM      9  C   UNL     1     -15.170 -12.433  -8.374  1.00  0.00     0.000 C 
BRANCH   9  10
ATOM     10  C   UNL     1     -14.531 -11.731  -7.167  1.00  0.00     0.006 C 
BRANCH  10  11
ATOM     11  C   UNL     1     -13.715 -10.498  -7.579  1.00  0.00     0.053 C 
BRANCH  11  12
ATOM     12  C   UNL     1     -12.677 -10.153  -6.557  1.00  0.00     0.041 C 
ATOM     13  O   UNL     1     -12.646 -10.760  -5.454  1.00  0.00    -0.550 OA
ATOM     14  O   UNL     1     -11.763  -9.138  -6.809  1.00  0.00    -0.550 OA
ENDBRANCH  11  12
ENDBRANCH  10  11
ENDBRANCH   9  10
ENDBRANCH   8   9
ENDBRANCH   1   8
TORSDOF 9
ENDMDL
MODEL 6
REMARK VINA RESULT:    -5.728      2.079      5.628
REMARK INTER + INTRA:          -9.498
REMARK INTER:                  -8.592
REMARK INTRA:                  -0.906
REMARK UNBOUND:                -0.757
REMARK SMILES O=C([O-])CCCCCCCCC(=O)[O-]
REMARK SMILES IDX 7 1 6 2 5 3 4 4 2 5 1 6 3 7 8 8 9 9 10 10 11 11 12 12 13 13
REMARK SMILES IDX 14 14
REMARK H PARENT
REMARK Flexibility Score: inf
ROOT
ATOM      1  C   UNL     1     -16.486 -10.040  -6.456  1.00  0.00     0.000 C 
ENDROOT
BRANCH   1   2
ATOM      2  C   UNL     1     -15.782 -11.296  -6.994  1.00  0.00     0.000 C 
BRANCH   2   3
ATOM      3  C   UNL     1     -14.473 -10.970  -7.731  1.00  0.00     0.006 C 
BRANCH   3   4
ATOM      4  C   UNL     1     -13.856  -9.641  -7.278  1.00  0.00     0.053 C 
BRANCH   4   5
ATOM      5  C   UNL     1     -12.560  -9.882  -6.571  1.00  0.00     0.041 C 
ATOM      6  O   UNL     1     -11.547  -9.190  -6.851  1.00  0.00    -0.550 OA
ATOM      7  O   UNL     1     -12.485 -10.840  -5.566  1.00  0.00    -0.550 OA
ENDBRANCH   4   5
ENDBRANCH   3   4
ENDBRANCH   2   3
ENDBRANCH   1   2
BRANCH   1   8
ATOM      8  C   UNL     1     -17.633  -9.616  -7.382  1.00  0.00     0.000 C 
BRANCH   8   9
ATOM      9  C   UNL     1     -17.209  -8.454  -8.289  1.00  0.00     0.000 C 
BRANCH   9  10
ATOM     10  C   UNL     1     -17.069  -8.915  -9.746  1.00  0.00     0.006 C 
BRANCH  10  11
ATOM     11  C   UNL     1     -18.254  -9.780 -10.197  1.00  0.00     0.053 C 
BRANCH  11  12
ATOM     12  C   UNL     1     -17.799 -11.049 -10.848  1.00  0.00     0.041 C 
ATOM     13  O   UNL     1     -16.623 -11.465 -10.674  1.00  0.00    -0.550 OA
ATOM     14  O   UNL     1     -18.664 -11.757 -11.674  1.00  0.00    -0.550 OA
ENDBRANCH  11  12
ENDBRANCH  10  11
ENDBRANCH   9  10
ENDBRANCH   8   9
ENDBRANCH   1   8
TORSDOF 9
ENDMDL
MODEL 7
REMARK VINA RESULT:    -5.665      1.290      5.812
REMARK INTER + INTRA:          -9.402
REMARK INTER:                  -8.749
REMARK INTRA:                  -0.653
REMARK UNBOUND:                -0.757
REMARK SMILES O=C([O-])CCCCCCCCC(=O)[O-]
REMARK SMILES IDX 7 1 6 2 5 3 4 4 2 5 1 6 3 7 8 8 9 9 10 10 11 11 12 12 13 13
REMARK SMILES IDX 14 14
REMARK H PARENT
REMARK Flexibility Score: inf
ROOT
ATOM      1  C   UNL     1     -16.251  -8.198  -8.621  1.00  0.00     0.000 C 
ENDROOT
BRANCH   1   2
ATOM      2  C   UNL     1     -16.895  -8.730  -7.332  1.00  0.00     0.000 C 
BRANCH   2   3
ATOM      3  C   UNL     1     -15.890  -9.461  -6.427  1.00  0.00     0.006 C 
BRANCH   3   4
ATOM      4  C   UNL     1     -14.466  -9.449  -6.998  1.00  0.00     0.053 C 
BRANCH   4   5
ATOM      5  C   UNL     1     -13.828 -10.792  -6.835  1.00  0.00     0.041 C 
ATOM      6  O   UNL     1     -14.133 -11.737  -7.608  1.00  0.00    -0.550 OA
ATOM      7  O   UNL     1     -12.858 -10.987  -5.858  1.00  0.00    -0.550 OA
ENDBRANCH   4   5
ENDBRANCH   3   4
ENDBRANCH   2   3
ENDBRANCH   1   2
BRANCH   1   8
ATOM      8  C   UNL     1     -16.924  -8.803  -9.860  1.00  0.00     0.000 C 
BRANCH   8   9
ATOM      9  C   UNL     1     -16.582 -10.291 -10.002  1.00  0.00     0.000 C 
BRANCH   9  10
ATOM     10  C   UNL     1     -17.691 -11.042 -10.753  1.00  0.00     0.006 C 
BRANCH  10  11
ATOM     11  C   UNL     1     -18.967 -10.202 -10.893  1.00  0.00     0.053 C 
BRANCH  11  12
ATOM     12  C   UNL     1     -19.818 -10.671 -12.033  1.00  0.00     0.041 C 
ATOM     13  O   UNL     1     -19.554 -11.754 -12.618  1.00  0.00    -0.550 OA
ATOM     14  O   UNL     1     -20.883  -9.894 -12.472  1.00  0.00    -0.550 OA
ENDBRANCH  11  12
ENDBRANCH  10  11
ENDBRANCH   9  10
ENDBRANCH   8   9
ENDBRANCH   1   8
TORSDOF 9
ENDMDL
MODEL 8
REMARK VINA RESULT:    -5.662      1.268      1.699
REMARK INTER + INTRA:          -9.397
REMARK INTER:                  -8.775
REMARK INTRA:                  -0.622
REMARK UNBOUND:                -0.757
REMARK SMILES O=C([O-])CCCCCCCCC(=O)[O-]
REMARK SMILES IDX 7 1 6 2 5 3 4 4 2 5 1 6 3 7 8 8 9 9 10 10 11 11 12 12 13 13
REMARK SMILES IDX 14 14
REMARK H PARENT
REMARK Flexibility Score: inf
ROOT
ATOM      1  C   UNL     1     -16.645  -8.846  -9.863  1.00  0.00     0.000 C 
ENDROOT
BRANCH   1   2
ATOM      2  C   UNL     1     -17.297 -10.209 -10.140  1.00  0.00     0.000 C 
BRANCH   2   3
ATOM      3  C   UNL     1     -18.737 -10.080 -10.661  1.00  0.00     0.006 C 
BRANCH   3   4
ATOM      4  C   UNL     1     -19.213 -11.340 -11.397  1.00  0.00     0.053 C 
BRANCH   4   5
ATOM      5  C   UNL     1     -20.068 -10.969 -12.567  1.00  0.00     0.041 C 
ATOM      6  O   UNL     1     -20.021 -11.646 -13.627  1.00  0.00    -0.550 OA
ATOM      7  O   UNL     1     -20.954  -9.903 -12.469  1.00  0.00    -0.550 OA
ENDBRANCH   4   5
ENDBRANCH   3   4
ENDBRANCH   2   3
ENDBRANCH   1   2
BRANCH   1   8
ATOM      8  C   UNL     1     -16.948  -8.374  -8.435  1.00  0.00     0.000 C 
BRANCH   8   9
ATOM      9  C   UNL     1     -15.726  -8.552  -7.525  1.00  0.00     0.000 C 
BRANCH   9  10
ATOM     10  C   UNL     1     -16.012  -9.573  -6.414  1.00  0.00     0.006 C 
BRANCH  10  11
ATOM     11  C   UNL     1     -15.792 -11.017  -6.883  1.00  0.00     0.053 C 
BRANCH  11  12
ATOM     12  C   UNL     1     -14.416 -11.216  -7.439  1.00  0.00     0.041 C 
ATOM     13  O   UNL     1     -14.262 -11.628  -8.618  1.00  0.00    -0.550 OA
ATOM     14  O   UNL     1     -13.303 -10.979  -6.642  1.00  0.00    -0.550 OA
ENDBRANCH  11  12
ENDBRANCH  10  11
ENDBRANCH   9  10
ENDBRANCH   8   9
ENDBRANCH   1   8
TORSDOF 9
ENDMDL
MODEL 9
REMARK VINA RESULT:    -5.483      2.658      3.664
REMARK INTER + INTRA:          -9.124
REMARK INTER:                  -8.198
REMARK INTRA:                  -0.926
REMARK UNBOUND:                -0.757
REMARK SMILES O=C([O-])CCCCCCCCC(=O)[O-]
REMARK SMILES IDX 7 1 6 2 5 3 4 4 2 5 1 6 3 7 8 8 9 9 10 10 11 11 12 12 13 13
REMARK SMILES IDX 14 14
REMARK H PARENT
REMARK Flexibility Score: inf
ROOT
ATOM      1  C   UNL     1     -16.849  -8.768  -9.787  1.00  0.00     0.000 C 
ENDROOT
BRANCH   1   2
ATOM      2  C   UNL     1     -17.426 -10.181  -9.609  1.00  0.00     0.000 C 
BRANCH   2   3
ATOM      3  C   UNL     1     -16.604 -11.252 -10.343  1.00  0.00     0.006 C 
BRANCH   3   4
ATOM      4  C   UNL     1     -15.151 -11.318  -9.854  1.00  0.00     0.053 C 
BRANCH   4   5
ATOM      5  C   UNL     1     -14.954 -12.503  -8.963  1.00  0.00     0.041 C 
ATOM      6  O   UNL     1     -15.277 -12.443  -7.748  1.00  0.00    -0.550 OA
ATOM      7  O   UNL     1     -14.458 -13.691  -9.486  1.00  0.00    -0.550 OA
ENDBRANCH   4   5
ENDBRANCH   3   4
ENDBRANCH   2   3
ENDBRANCH   1   2
BRANCH   1   8
ATOM      8  C   UNL     1     -16.607  -8.100  -8.428  1.00  0.00     0.000 C 
BRANCH   8   9
ATOM      9  C   UNL     1     -16.653  -9.129  -7.291  1.00  0.00     0.000 C 
BRANCH   9  10
ATOM     10  C   UNL     1     -15.346  -9.116  -6.485  1.00  0.00     0.006 C 
BRANCH  10  11
ATOM     11  C   UNL     1     -14.106  -9.154  -7.389  1.00  0.00     0.053 C 
BRANCH  11  12
ATOM     12  C   UNL     1     -12.923  -9.740  -6.682  1.00  0.00     0.041 C 
ATOM     13  O   UNL     1     -11.789  -9.203  -6.792  1.00  0.00    -0.550 OA
ATOM     14  O   UNL     1     -13.066 -10.899  -5.929  1.00  0.00    -0.550 OA
ENDBRANCH  11  12
ENDBRANCH  10  11
ENDBRANCH   9  10
ENDBRANCH   8   9
ENDBRANCH   1   8
TORSDOF 9
ENDMDL
