MODEL 1
REMARK VINA RESULT:    -3.351      0.000      0.000
REMARK INTER + INTRA:          -8.073
REMARK INTER:                  -6.485
REMARK INTRA:                  -1.587
REMARK UNBOUND:                -1.587
REMARK SMILES CCCCCCCCCCCCCCCCCC(=O)[O-]
REMARK SMILES IDX 10 1 11 2 12 3 13 4 14 5 15 6 16 7 17 8 18 9 19 10 20 11
REMARK SMILES IDX 9 12 8 13 7 14 6 15 5 16 4 17 3 18 2 19 1 20
REMARK H PARENT
REMARK Flexibility Score: inf
ROOT
ATOM      1  C   UNL     1      11.576  -7.147   5.840  1.00  0.00     0.000 C 
ENDROOT
BRANCH   1   2
ATOM      2  C   UNL     1      12.240  -7.311   4.469  1.00  0.00     0.000 C 
BRANCH   2   3
ATOM      3  C   UNL     1      13.738  -7.615   4.614  1.00  0.00     0.000 C 
BRANCH   3   4
ATOM      4  C   UNL     1      14.150  -7.827   6.087  1.00  0.00     0.000 C 
BRANCH   4   5
ATOM      5  C   UNL     1      15.407  -8.702   6.260  1.00  0.00     0.000 C 
BRANCH   5   6
ATOM      6  C   UNL     1      16.621  -8.258   5.426  1.00  0.00     0.000 C 
BRANCH   6   7
ATOM      7  C   UNL     1      17.116  -6.852   5.795  1.00  0.00     0.006 C 
BRANCH   7   8
ATOM      8  C   UNL     1      18.644  -6.819   5.891  1.00  0.00     0.053 C 
BRANCH   8   9
ATOM      9  C   UNL     1      19.091  -7.220   7.263  1.00  0.00     0.041 C 
ATOM     10  O   UNL     1      19.582  -8.362   7.460  1.00  0.00    -0.550 OA
ATOM     11  O   UNL     1      18.998  -6.321   8.317  1.00  0.00    -0.550 OA
ENDBRANCH   8   9
ENDBRANCH   7   8
ENDBRANCH   6   7
ENDBRANCH   5   6
ENDBRANCH   4   5
ENDBRANCH   3   4
ENDBRANCH   2   3
ENDBRANCH   1   2
BRANCH   1  12
ATOM     12  C   UNL     1      10.074  -7.464   5.767  1.00  0.00     0.000 C 
BRANCH  12  13
ATOM     13  C   UNL     1       9.784  -8.742   4.951  1.00  0.00    -0.000 C 
BRANCH  13  14
ATOM     14  C   UNL     1       8.960  -9.798   5.716  1.00  0.00    -0.000 C 
BRANCH  14  15
ATOM     15  C   UNL     1       8.472  -9.367   7.110  1.00  0.00    -0.000 C 
BRANCH  15  16
ATOM     16  C   UNL     1       6.939  -9.329   7.223  1.00  0.00    -0.000 C 
BRANCH  16  17
ATOM     17  C   UNL     1       6.235  -9.752   5.920  1.00  0.00    -0.000 C 
BRANCH  17  18
ATOM     18  C   UNL     1       5.465  -8.628   5.204  1.00  0.00    -0.000 C 
BRANCH  18  19
ATOM     19  C   UNL     1       5.966  -7.226   5.583  1.00  0.00    -0.003 C 
ATOM     20  C   UNL     1       6.742  -6.590   4.433  1.00  0.00     0.004 C 
ENDBRANCH  18  19
ENDBRANCH  17  18
ENDBRANCH  16  17
ENDBRANCH  15  16
ENDBRANCH  14  15
ENDBRANCH  13  14
ENDBRANCH  12  13
ENDBRANCH   1  12
TORSDOF 16
ENDMDL
MODEL 2
REMARK VINA RESULT:    -3.168      1.549      2.684
REMARK INTER + INTRA:          -7.718
REMARK INTER:                  -6.166
REMARK INTRA:                  -1.552
REMARK UNBOUND:                -1.587
REMARK SMILES CCCCCCCCCCCCCCCCCC(=O)[O-]
REMARK SMILES IDX 10 1 11 2 12 3 13 4 14 5 15 6 16 7 17 8 18 9 19 10 20 11
REMARK SMILES IDX 9 12 8 13 7 14 6 15 5 16 4 17 3 18 2 19 1 20
REMARK H PARENT
REMARK Flexibility Score: inf
ROOT
ATOM      1  C   UNL     1      12.680  -7.724   4.763  1.00  0.00     0.000 C 
ENDROOT
BRANCH   1   2
ATOM      2  C   UNL     1      13.525  -8.985   4.550  1.00  0.00     0.000 C 
BRANCH   2   3
ATOM      3  C   UNL     1      14.915  -8.831   5.183  1.00  0.00     0.000 C 
BRANCH   3   4
ATOM      4  C   UNL     1      14.878  -7.985   6.475  1.00  0.00     0.000 C 
BRANCH   4   5
ATOM      5  C   UNL     1      15.995  -6.926   6.556  1.00  0.00     0.000 C 
BRANCH   5   6
ATOM      6  C   UNL     1      16.444  -6.358   5.199  1.00  0.00     0.000 C 
BRANCH   6   7
ATOM      7  C   UNL     1      17.838  -6.848   4.780  1.00  0.00     0.006 C 
BRANCH   7   8
ATOM      8  C   UNL     1      18.806  -6.823   5.966  1.00  0.00     0.053 C 
BRANCH   8   9
ATOM      9  C   UNL     1      20.197  -6.525   5.501  1.00  0.00     0.041 C 
ATOM     10  O   UNL     1      20.614  -5.338   5.469  1.00  0.00    -0.550 OA
ATOM     11  O   UNL     1      21.047  -7.562   5.136  1.00  0.00    -0.550 OA
ENDBRANCH   8   9
ENDBRANCH   7   8
ENDBRANCH   6   7
ENDBRANCH   5   6
ENDBRANCH   4   5
ENDBRANCH   3   4
ENDBRANCH   2   3
ENDBRANCH   1   2
BRANCH   1  12
ATOM     12  C   UNL     1      11.184  -8.067   4.826  1.00  0.00     0.000 C 
BRANCH  12  13
ATOM     13  C   UNL     1      10.395  -7.087   5.720  1.00  0.00    -0.000 C 
BRANCH  13  14
ATOM     14  C   UNL     1       9.599  -6.026   4.932  1.00  0.00    -0.000 C 
BRANCH  14  15
ATOM     15  C   UNL     1       8.587  -6.585   3.917  1.00  0.00    -0.000 C 
BRANCH  15  16
ATOM     16  C   UNL     1       7.366  -7.239   4.586  1.00  0.00    -0.000 C 
BRANCH  16  17
ATOM     17  C   UNL     1       7.255  -8.744   4.281  1.00  0.00    -0.000 C 
BRANCH  17  18
ATOM     18  C   UNL     1       7.530  -9.671   5.477  1.00  0.00    -0.000 C 
BRANCH  18  19
ATOM     19  C   UNL     1       7.164  -9.032   6.825  1.00  0.00    -0.003 C 
ATOM     20  C   UNL     1       8.181  -9.400   7.902  1.00  0.00     0.004 C 
ENDBRANCH  18  19
ENDBRANCH  17  18
ENDBRANCH  16  17
ENDBRANCH  15  16
ENDBRANCH  14  15
ENDBRANCH  13  14
ENDBRANCH  12  13
ENDBRANCH   1  12
TORSDOF 16
ENDMDL
MODEL 3
REMARK VINA RESULT:    -3.068      2.097      4.021
REMARK INTER + INTRA:          -7.525
REMARK INTER:                  -6.269
REMARK INTRA:                  -1.256
REMARK UNBOUND:                -1.587
REMARK SMILES CCCCCCCCCCCCCCCCCC(=O)[O-]
REMARK SMILES IDX 10 1 11 2 12 3 13 4 14 5 15 6 16 7 17 8 18 9 19 10 20 11
REMARK SMILES IDX 9 12 8 13 7 14 6 15 5 16 4 17 3 18 2 19 1 20
REMARK H PARENT
REMARK Flexibility Score: inf
ROOT
ATOM      1  C   UNL     1      15.596  -7.195   5.603  1.00  0.00     0.000 C 
ENDROOT
BRANCH   1   2
ATOM      2  C   UNL     1      16.384  -8.288   4.872  1.00  0.00     0.000 C 
BRANCH   2   3
ATOM      3  C   UNL     1      16.688  -9.468   5.807  1.00  0.00     0.000 C 
BRANCH   3   4
ATOM      4  C   UNL     1      18.136  -9.981   5.647  1.00  0.00     0.000 C 
BRANCH   4   5
ATOM      5  C   UNL     1      19.125  -8.905   5.159  1.00  0.00     0.000 C 
BRANCH   5   6
ATOM      6  C   UNL     1      19.820  -8.113   6.279  1.00  0.00     0.000 C 
BRANCH   6   7
ATOM      7  C   UNL     1      19.570  -6.601   6.184  1.00  0.00     0.006 C 
BRANCH   7   8
ATOM      8  C   UNL     1      19.809  -6.097   4.758  1.00  0.00     0.053 C 
BRANCH   8   9
ATOM      9  C   UNL     1      21.077  -5.304   4.689  1.00  0.00     0.041 C 
ATOM     10  O   UNL     1      21.039  -4.065   4.470  1.00  0.00    -0.550 OA
ATOM     11  O   UNL     1      22.301  -5.927   4.901  1.00  0.00    -0.550 OA
ENDBRANCH   8   9
ENDBRANCH   7   8
ENDBRANCH   6   7
ENDBRANCH   5   6
ENDBRANCH   4   5
ENDBRANCH   3   4
ENDBRANCH   2   3
ENDBRANCH   1   2
BRANCH   1  12
ATOM     12  C   UNL     1      14.302  -7.761   6.210  1.00  0.00     0.000 C 
BRANCH  12  13
ATOM     13  C   UNL     1      13.273  -8.156   5.129  1.00  0.00    -0.000 C 
BRANCH  13  14
ATOM     14  C   UNL     1      12.682  -6.955   4.362  1.00  0.00    -0.000 C 
BRANCH  14  15
ATOM     15  C   UNL     1      11.153  -6.803   4.456  1.00  0.00    -0.000 C 
BRANCH  15  16
ATOM     16  C   UNL     1      10.510  -7.809   5.426  1.00  0.00    -0.000 C 
BRANCH  16  17
ATOM     17  C   UNL     1       8.972  -7.799   5.361  1.00  0.00    -0.000 C 
BRANCH  17  18
ATOM     18  C   UNL     1       8.285  -9.002   6.031  1.00  0.00    -0.000 C 
BRANCH  18  19
ATOM     19  C   UNL     1       8.689  -9.176   7.504  1.00  0.00    -0.003 C 
ATOM     20  C   UNL     1       7.461  -9.350   8.393  1.00  0.00     0.004 C 
ENDBRANCH  18  19
ENDBRANCH  17  18
ENDBRANCH  16  17
ENDBRANCH  15  16
ENDBRANCH  14  15
ENDBRANCH  13  14
ENDBRANCH  12  13
ENDBRANCH   1  12
TORSDOF 16
ENDMDL
MODEL 4
REMARK VINA RESULT:    -3.051      1.717      3.535
REMARK INTER + INTRA:          -7.492
REMARK INTER:                  -6.183
REMARK INTRA:                  -1.309
REMARK UNBOUND:                -1.587
REMARK SMILES CCCCCCCCCCCCCCCCCC(=O)[O-]
REMARK SMILES IDX 10 1 11 2 12 3 13 4 14 5 15 6 16 7 17 8 18 9 19 10 20 11
REMARK SMILES IDX 9 12 8 13 7 14 6 15 5 16 4 17 3 18 2 19 1 20
REMARK H PARENT
REMARK Flexibility Score: inf
ROOT
ATOM      1  C   UNL     1      15.618  -7.349   6.182  1.00  0.00     0.000 C 
ENDROOT
BRANCH   1   2
ATOM      2  C   UNL     1      16.004  -6.135   5.331  1.00  0.00     0.000 C 
BRANCH   2   3
ATOM      3  C   UNL     1      16.465  -6.567   3.931  1.00  0.00     0.000 C 
BRANCH   3   4
ATOM      4  C   UNL     1      17.011  -8.011   3.916  1.00  0.00     0.000 C 
BRANCH   4   5
ATOM      5  C   UNL     1      18.549  -8.093   3.875  1.00  0.00     0.000 C 
BRANCH   5   6
ATOM      6  C   UNL     1      19.179  -8.950   4.985  1.00  0.00     0.000 C 
BRANCH   6   7
ATOM      7  C   UNL     1      20.078  -8.138   5.929  1.00  0.00     0.006 C 
BRANCH   7   8
ATOM      8  C   UNL     1      19.298  -6.985   6.568  1.00  0.00     0.053 C 
BRANCH   8   9
ATOM      9  C   UNL     1      19.297  -7.116   8.059  1.00  0.00     0.041 C 
ATOM     10  O   UNL     1      18.897  -6.163   8.778  1.00  0.00    -0.550 OA
ATOM     11  O   UNL     1      19.706  -8.303   8.655  1.00  0.00    -0.550 OA
ENDBRANCH   8   9
ENDBRANCH   7   8
ENDBRANCH   6   7
ENDBRANCH   5   6
ENDBRANCH   4   5
ENDBRANCH   3   4
ENDBRANCH   2   3
ENDBRANCH   1   2
BRANCH   1  12
ATOM     12  C   UNL     1      14.099  -7.582   6.152  1.00  0.00     0.000 C 
BRANCH  12  13
ATOM     13  C   UNL     1      13.670  -8.498   4.986  1.00  0.00    -0.000 C 
BRANCH  13  14
ATOM     14  C   UNL     1      12.376  -8.043   4.279  1.00  0.00    -0.000 C 
BRANCH  14  15
ATOM     15  C   UNL     1      11.425  -7.187   5.134  1.00  0.00    -0.000 C 
BRANCH  15  16
ATOM     16  C   UNL     1       9.977  -7.705   5.120  1.00  0.00    -0.000 C 
BRANCH  16  17
ATOM     17  C   UNL     1       9.562  -8.349   6.456  1.00  0.00    -0.000 C 
BRANCH  17  18
ATOM     18  C   UNL     1       8.591  -9.536   6.331  1.00  0.00    -0.000 C 
BRANCH  18  19
ATOM     19  C   UNL     1       8.189 -10.125   7.692  1.00  0.00    -0.003 C 
ATOM     20  C   UNL     1       7.398  -9.112   8.515  1.00  0.00     0.004 C 
ENDBRANCH  18  19
ENDBRANCH  17  18
ENDBRANCH  16  17
ENDBRANCH  15  16
ENDBRANCH  14  15
ENDBRANCH  13  14
ENDBRANCH  12  13
ENDBRANCH   1  12
TORSDOF 16
ENDMDL
MODEL 5
REMARK VINA RESULT:    -2.838      5.014     10.501
REMARK INTER + INTRA:          -7.079
REMARK INTER:                  -6.259
REMARK INTRA:                  -0.820
REMARK UNBOUND:                -1.587
REMARK SMILES CCCCCCCCCCCCCCCCCC(=O)[O-]
REMARK SMILES IDX 10 1 11 2 12 3 13 4 14 5 15 6 16 7 17 8 18 9 19 10 20 11
REMARK SMILES IDX 9 12 8 13 7 14 6 15 5 16 4 17 3 18 2 19 1 20
REMARK H PARENT
REMARK Flexibility Score: inf
ROOT
ATOM      1  C   UNL     1      11.883  -6.810   4.586  1.00  0.00     0.000 C 
ENDROOT
BRANCH   1   2
ATOM      2  C   UNL     1      11.044  -7.312   5.767  1.00  0.00     0.000 C 
BRANCH   2   3
ATOM      3  C   UNL     1       9.807  -8.079   5.278  1.00  0.00     0.000 C 
BRANCH   3   4
ATOM      4  C   UNL     1       9.026  -8.729   6.441  1.00  0.00     0.000 C 
BRANCH   4   5
ATOM      5  C   UNL     1       7.872  -9.640   5.980  1.00  0.00     0.000 C 
BRANCH   5   6
ATOM      6  C   UNL     1       6.827  -8.955   5.084  1.00  0.00     0.000 C 
BRANCH   6   7
ATOM      7  C   UNL     1       6.156  -7.751   5.762  1.00  0.00     0.006 C 
BRANCH   7   8
ATOM      8  C   UNL     1       6.078  -6.559   4.805  1.00  0.00     0.053 C 
BRANCH   8   9
ATOM      9  C   UNL     1       4.660  -6.110   4.641  1.00  0.00     0.041 C 
ATOM     10  O   UNL     1       4.393  -4.887   4.516  1.00  0.00    -0.550 OA
ATOM     11  O   UNL     1       3.634  -7.046   4.591  1.00  0.00    -0.550 OA
ENDBRANCH   8   9
ENDBRANCH   7   8
ENDBRANCH   6   7
ENDBRANCH   5   6
ENDBRANCH   4   5
ENDBRANCH   3   4
ENDBRANCH   2   3
ENDBRANCH   1   2
BRANCH   1  12
ATOM     12  C   UNL     1      12.856  -7.896   4.100  1.00  0.00     0.000 C 
BRANCH  12  13
ATOM     13  C   UNL     1      14.196  -7.866   4.865  1.00  0.00    -0.000 C 
BRANCH  13  14
ATOM     14  C   UNL     1      15.130  -6.713   4.443  1.00  0.00    -0.000 C 
BRANCH  14  15
ATOM     15  C   UNL     1      16.363  -6.505   5.339  1.00  0.00    -0.000 C 
BRANCH  15  16
ATOM     16  C   UNL     1      17.577  -7.336   4.891  1.00  0.00    -0.000 C 
BRANCH  16  17
ATOM     17  C   UNL     1      18.856  -6.491   4.743  1.00  0.00    -0.000 C 
BRANCH  17  18
ATOM     18  C   UNL     1      19.830  -6.573   5.932  1.00  0.00    -0.000 C 
BRANCH  18  19
ATOM     19  C   UNL     1      19.263  -7.374   7.114  1.00  0.00    -0.003 C 
ATOM     20  C   UNL     1      19.045  -6.479   8.331  1.00  0.00     0.004 C 
ENDBRANCH  18  19
ENDBRANCH  17  18
ENDBRANCH  16  17
ENDBRANCH  15  16
ENDBRANCH  14  15
ENDBRANCH  13  14
ENDBRANCH  12  13
ENDBRANCH   1  12
TORSDOF 16
ENDMDL
MODEL 6
REMARK VINA RESULT:    -2.778      1.245      2.183
REMARK INTER + INTRA:          -6.964
REMARK INTER:                  -5.951
REMARK INTRA:                  -1.012
REMARK UNBOUND:                -1.587
REMARK SMILES CCCCCCCCCCCCCCCCCC(=O)[O-]
REMARK SMILES IDX 10 1 11 2 12 3 13 4 14 5 15 6 16 7 17 8 18 9 19 10 20 11
REMARK SMILES IDX 9 12 8 13 7 14 6 15 5 16 4 17 3 18 2 19 1 20
REMARK H PARENT
REMARK Flexibility Score: inf
ROOT
ATOM      1  C   UNL     1      11.738  -7.369   5.977  1.00  0.00     0.000 C 
ENDROOT
BRANCH   1   2
ATOM      2  C   UNL     1      12.885  -7.310   4.962  1.00  0.00     0.000 C 
BRANCH   2   3
ATOM      3  C   UNL     1      13.893  -8.443   5.203  1.00  0.00     0.000 C 
BRANCH   3   4
ATOM      4  C   UNL     1      15.264  -8.153   4.553  1.00  0.00     0.000 C 
BRANCH   4   5
ATOM      5  C   UNL     1      15.619  -6.654   4.497  1.00  0.00     0.000 C 
BRANCH   5   6
ATOM      6  C   UNL     1      17.105  -6.334   4.729  1.00  0.00     0.000 C 
BRANCH   6   7
ATOM      7  C   UNL     1      17.826  -7.411   5.554  1.00  0.00     0.006 C 
BRANCH   7   8
ATOM      8  C   UNL     1      19.143  -6.874   6.120  1.00  0.00     0.053 C 
BRANCH   8   9
ATOM      9  C   UNL     1      19.253  -7.190   7.579  1.00  0.00     0.041 C 
ATOM     10  O   UNL     1      18.826  -6.374   8.438  1.00  0.00    -0.550 OA
ATOM     11  O   UNL     1      19.794  -8.401   7.992  1.00  0.00    -0.550 OA
ENDBRANCH   8   9
ENDBRANCH   7   8
ENDBRANCH   6   7
ENDBRANCH   5   6
ENDBRANCH   4   5
ENDBRANCH   3   4
ENDBRANCH   2   3
ENDBRANCH   1   2
BRANCH   1  12
ATOM     12  C   UNL     1      10.377  -7.211   5.279  1.00  0.00     0.000 C 
BRANCH  12  13
ATOM     13  C   UNL     1       9.743  -8.571   4.917  1.00  0.00    -0.000 C 
BRANCH  13  14
ATOM     14  C   UNL     1       8.201  -8.572   4.963  1.00  0.00    -0.000 C 
BRANCH  14  15
ATOM     15  C   UNL     1       7.514  -7.594   3.994  1.00  0.00    -0.000 C 
BRANCH  15  16
ATOM     16  C   UNL     1       6.796  -6.441   4.716  1.00  0.00    -0.000 C 
BRANCH  16  17
ATOM     17  C   UNL     1       5.524  -6.899   5.453  1.00  0.00    -0.000 C 
BRANCH  17  18
ATOM     18  C   UNL     1       4.264  -6.997   4.575  1.00  0.00    -0.000 C 
BRANCH  18  19
ATOM     19  C   UNL     1       3.726  -8.431   4.459  1.00  0.00    -0.003 C 
ATOM     20  C   UNL     1       4.525  -9.390   5.337  1.00  0.00     0.004 C 
ENDBRANCH  18  19
ENDBRANCH  17  18
ENDBRANCH  16  17
ENDBRANCH  15  16
ENDBRANCH  14  15
ENDBRANCH  13  14
ENDBRANCH  12  13
ENDBRANCH   1  12
TORSDOF 16
ENDMDL
MODEL 7
REMARK VINA RESULT:    -2.673      3.837      9.932
REMARK INTER + INTRA:          -6.760
REMARK INTER:                  -5.662
REMARK INTRA:                  -1.098
REMARK UNBOUND:                -1.587
REMARK SMILES CCCCCCCCCCCCCCCCCC(=O)[O-]
REMARK SMILES IDX 10 1 11 2 12 3 13 4 14 5 15 6 16 7 17 8 18 9 19 10 20 11
REMARK SMILES IDX 9 12 8 13 7 14 6 15 5 16 4 17 3 18 2 19 1 20
REMARK H PARENT
REMARK Flexibility Score: inf
ROOT
ATOM      1  C   UNL     1      13.636  -7.521   5.205  1.00  0.00     0.000 C 
ENDROOT
BRANCH   1   2
ATOM      2  C   UNL     1      12.462  -8.297   4.598  1.00  0.00     0.000 C 
BRANCH   2   3
ATOM      3  C   UNL     1      11.281  -7.364   4.296  1.00  0.00     0.000 C 
BRANCH   3   4
ATOM      4  C   UNL     1       9.919  -8.076   4.450  1.00  0.00     0.000 C 
BRANCH   4   5
ATOM      5  C   UNL     1       8.764  -7.130   4.830  1.00  0.00     0.000 C 
BRANCH   5   6
ATOM      6  C   UNL     1       7.363  -7.758   4.749  1.00  0.00     0.000 C 
BRANCH   6   7
ATOM      7  C   UNL     1       7.283  -9.129   5.437  1.00  0.00     0.006 C 
BRANCH   7   8
ATOM      8  C   UNL     1       6.583  -9.019   6.794  1.00  0.00     0.053 C 
BRANCH   8   9
ATOM      9  C   UNL     1       7.524  -9.385   7.899  1.00  0.00     0.041 C 
ATOM     10  O   UNL     1       7.077  -9.777   9.009  1.00  0.00    -0.550 OA
ATOM     11  O   UNL     1       8.897  -9.326   7.694  1.00  0.00    -0.550 OA
ENDBRANCH   8   9
ENDBRANCH   7   8
ENDBRANCH   6   7
ENDBRANCH   5   6
ENDBRANCH   4   5
ENDBRANCH   3   4
ENDBRANCH   2   3
ENDBRANCH   1   2
BRANCH   1  12
ATOM     12  C   UNL     1      14.405  -6.748   4.122  1.00  0.00     0.000 C 
BRANCH  12  13
ATOM     13  C   UNL     1      15.921  -6.691   4.409  1.00  0.00    -0.000 C 
BRANCH  13  14
ATOM     14  C   UNL     1      16.571  -8.076   4.608  1.00  0.00    -0.000 C 
BRANCH  14  15
ATOM     15  C   UNL     1      18.034  -8.187   4.145  1.00  0.00    -0.000 C 
BRANCH  15  16
ATOM     16  C   UNL     1      18.773  -6.838   4.167  1.00  0.00    -0.000 C 
BRANCH  16  17
ATOM     17  C   UNL     1      19.566  -6.615   5.468  1.00  0.00    -0.000 C 
BRANCH  17  18
ATOM     18  C   UNL     1      20.067  -7.899   6.153  1.00  0.00    -0.000 C 
BRANCH  18  19
ATOM     19  C   UNL     1      19.586  -8.027   7.606  1.00  0.00    -0.003 C 
ATOM     20  C   UNL     1      19.037  -6.700   8.122  1.00  0.00     0.004 C 
ENDBRANCH  18  19
ENDBRANCH  17  18
ENDBRANCH  16  17
ENDBRANCH  15  16
ENDBRANCH  14  15
ENDBRANCH  13  14
ENDBRANCH  12  13
ENDBRANCH   1  12
TORSDOF 16
ENDMDL
MODEL 8
REMARK VINA RESULT:    -2.623      1.312      2.678
REMARK INTER + INTRA:          -6.664
REMARK INTER:                  -5.176
REMARK INTRA:                  -1.488
REMARK UNBOUND:                -1.587
REMARK SMILES CCCCCCCCCCCCCCCCCC(=O)[O-]
REMARK SMILES IDX 10 1 11 2 12 3 13 4 14 5 15 6 16 7 17 8 18 9 19 10 20 11
REMARK SMILES IDX 9 12 8 13 7 14 6 15 5 16 4 17 3 18 2 19 1 20
REMARK H PARENT
REMARK Flexibility Score: inf
ROOT
ATOM      1  C   UNL     1      13.100  -8.280   3.931  1.00  0.00     0.000 C 
ENDROOT
BRANCH   1   2
ATOM      2  C   UNL     1      14.207  -9.231   4.398  1.00  0.00     0.000 C 
BRANCH   2   3
ATOM      3  C   UNL     1      14.970  -8.643   5.594  1.00  0.00     0.000 C 
BRANCH   3   4
ATOM      4  C   UNL     1      14.989  -7.098   5.573  1.00  0.00     0.000 C 
BRANCH   4   5
ATOM      5  C   UNL     1      16.387  -6.498   5.328  1.00  0.00     0.000 C 
BRANCH   5   6
ATOM      6  C   UNL     1      17.537  -7.519   5.333  1.00  0.00     0.000 C 
BRANCH   6   7
ATOM      7  C   UNL     1      18.859  -6.926   5.841  1.00  0.00     0.006 C 
BRANCH   7   8
ATOM      8  C   UNL     1      19.815  -8.032   6.296  1.00  0.00     0.053 C 
BRANCH   8   9
ATOM      9  C   UNL     1      19.668  -8.279   7.765  1.00  0.00     0.041 C 
ATOM     10  O   UNL     1      19.352  -7.336   8.537  1.00  0.00    -0.550 OA
ATOM     11  O   UNL     1      19.845  -9.557   8.279  1.00  0.00    -0.550 OA
ENDBRANCH   8   9
ENDBRANCH   7   8
ENDBRANCH   6   7
ENDBRANCH   5   6
ENDBRANCH   4   5
ENDBRANCH   3   4
ENDBRANCH   2   3
ENDBRANCH   1   2
BRANCH   1  12
ATOM     12  C   UNL     1      11.724  -8.960   3.999  1.00  0.00     0.000 C 
BRANCH  12  13
ATOM     13  C   UNL     1      10.850  -8.399   5.141  1.00  0.00    -0.000 C 
BRANCH  13  14
ATOM     14  C   UNL     1      10.778  -6.858   5.173  1.00  0.00    -0.000 C 
BRANCH  14  15
ATOM     15  C   UNL     1       9.945  -6.216   4.050  1.00  0.00    -0.000 C 
BRANCH  15  16
ATOM     16  C   UNL     1       8.492  -5.933   4.469  1.00  0.00    -0.000 C 
BRANCH  16  17
ATOM     17  C   UNL     1       7.508  -7.007   3.970  1.00  0.00    -0.000 C 
BRANCH  17  18
ATOM     18  C   UNL     1       6.462  -7.460   5.003  1.00  0.00    -0.000 C 
BRANCH  18  19
ATOM     19  C   UNL     1       7.018  -8.482   6.006  1.00  0.00    -0.003 C 
ATOM     20  C   UNL     1       7.368  -9.797   5.314  1.00  0.00     0.004 C 
ENDBRANCH  18  19
ENDBRANCH  17  18
ENDBRANCH  16  17
ENDBRANCH  15  16
ENDBRANCH  14  15
ENDBRANCH  13  14
ENDBRANCH  12  13
ENDBRANCH   1  12
TORSDOF 16
ENDMDL
MODEL 9
REMARK VINA RESULT:    -2.579      4.163      9.917
REMARK INTER + INTRA:          -6.578
REMARK INTER:                  -4.673
REMARK INTRA:                  -1.905
REMARK UNBOUND:                -1.587
REMARK SMILES CCCCCCCCCCCCCCCCCC(=O)[O-]
REMARK SMILES IDX 10 1 11 2 12 3 13 4 14 5 15 6 16 7 17 8 18 9 19 10 20 11
REMARK SMILES IDX 9 12 8 13 7 14 6 15 5 16 4 17 3 18 2 19 1 20
REMARK H PARENT
REMARK Flexibility Score: inf
ROOT
ATOM      1  C   UNL     1      18.398  -6.374   7.902  1.00  0.00     0.000 C 
ENDROOT
BRANCH   1   2
ATOM      2  C   UNL     1      17.581  -6.488   6.610  1.00  0.00     0.000 C 
BRANCH   2   3
ATOM      3  C   UNL     1      16.232  -7.174   6.869  1.00  0.00     0.000 C 
BRANCH   3   4
ATOM      4  C   UNL     1      16.082  -8.487   6.068  1.00  0.00     0.000 C 
BRANCH   4   5
ATOM      5  C   UNL     1      14.804  -8.547   5.209  1.00  0.00     0.000 C 
BRANCH   5   6
ATOM      6  C   UNL     1      14.606  -7.352   4.263  1.00  0.00     0.000 C 
BRANCH   6   7
ATOM      7  C   UNL     1      13.126  -7.013   4.032  1.00  0.00     0.006 C 
BRANCH   7   8
ATOM      8  C   UNL     1      12.231  -7.785   5.005  1.00  0.00     0.053 C 
BRANCH   8   9
ATOM      9  C   UNL     1      10.926  -7.076   5.191  1.00  0.00     0.041 C 
ATOM     10  O   UNL     1      10.167  -7.386   6.147  1.00  0.00    -0.550 OA
ATOM     11  O   UNL     1      10.561  -6.049   4.329  1.00  0.00    -0.550 OA
ENDBRANCH   8   9
ENDBRANCH   7   8
ENDBRANCH   6   7
ENDBRANCH   5   6
ENDBRANCH   4   5
ENDBRANCH   3   4
ENDBRANCH   2   3
ENDBRANCH   1   2
BRANCH   1  12
ATOM     12  C   UNL     1      18.946  -7.745   8.330  1.00  0.00     0.000 C 
BRANCH  12  13
ATOM     13  C   UNL     1      19.929  -8.331   7.294  1.00  0.00    -0.000 C 
BRANCH  13  14
ATOM     14  C   UNL     1      19.458  -9.661   6.670  1.00  0.00    -0.000 C 
BRANCH  14  15
ATOM     15  C   UNL     1      19.485  -9.711   5.132  1.00  0.00    -0.000 C 
BRANCH  15  16
ATOM     16  C   UNL     1      19.776  -8.343   4.493  1.00  0.00    -0.000 C 
BRANCH  16  17
ATOM     17  C   UNL     1      21.251  -8.179   4.082  1.00  0.00    -0.000 C 
BRANCH  17  18
ATOM     18  C   UNL     1      21.710  -6.725   3.875  1.00  0.00    -0.000 C 
BRANCH  18  19
ATOM     19  C   UNL     1      21.247  -5.786   5.000  1.00  0.00    -0.003 C 
ATOM     20  C   UNL     1      20.950  -4.389   4.463  1.00  0.00     0.004 C 
ENDBRANCH  18  19
ENDBRANCH  17  18
ENDBRANCH  16  17
ENDBRANCH  15  16
ENDBRANCH  14  15
ENDBRANCH  13  14
ENDBRANCH  12  13
ENDBRANCH   1  12
TORSDOF 16
ENDMDL
