MODEL 1
REMARK VINA RESULT:    -5.433      0.000      0.000
REMARK INTER + INTRA:         -12.293
REMARK INTER:                  -9.880
REMARK INTRA:                  -2.413
REMARK UNBOUND:                -2.413
REMARK SMILES CCCCCCCCCCCCCCCC(=O)[O-]
REMARK SMILES IDX 9 1 10 2 11 3 12 4 13 5 14 6 15 7 16 8 17 9 18 10 8 11 7 12
REMARK SMILES IDX 6 13 5 14 4 15 3 16 2 17 1 18
REMARK H PARENT
REMARK Flexibility Score: inf
ROOT
ATOM      1  C   UNL     1      19.463  -6.683  35.484  1.00  0.00     0.000 C 
ENDROOT
BRANCH   1   2
ATOM      2  C   UNL     1      19.244  -7.059  34.006  1.00  0.00     0.000 C 
BRANCH   2   3
ATOM      3  C   UNL     1      19.910  -6.114  32.988  1.00  0.00     0.000 C 
BRANCH   3   4
ATOM      4  C   UNL     1      19.471  -4.642  33.089  1.00  0.00     0.000 C 
BRANCH   4   5
ATOM      5  C   UNL     1      20.596  -3.717  33.584  1.00  0.00     0.000 C 
BRANCH   5   6
ATOM      6  C   UNL     1      20.228  -2.985  34.885  1.00  0.00     0.006 C 
BRANCH   6   7
ATOM      7  C   UNL     1      18.950  -2.147  34.749  1.00  0.00     0.053 C 
BRANCH   7   8
ATOM      8  C   UNL     1      18.925  -1.066  35.781  1.00  0.00     0.041 C 
ATOM      9  O   UNL     1      18.161  -1.158  36.779  1.00  0.00    -0.550 OA
ATOM     10  O   UNL     1      19.783   0.020  35.671  1.00  0.00    -0.550 OA
ENDBRANCH   7   8
ENDBRANCH   6   7
ENDBRANCH   5   6
ENDBRANCH   4   5
ENDBRANCH   3   4
ENDBRANCH   2   3
ENDBRANCH   1   2
BRANCH   1  11
ATOM     11  C   UNL     1      18.155  -6.569  36.295  1.00  0.00     0.000 C 
BRANCH  11  12
ATOM     12  C   UNL     1      17.564  -5.152  36.261  1.00  0.00    -0.000 C 
BRANCH  12  13
ATOM     13  C   UNL     1      16.196  -5.144  35.561  1.00  0.00    -0.000 C 
BRANCH  13  14
ATOM     14  C   UNL     1      16.289  -4.728  34.084  1.00  0.00    -0.000 C 
BRANCH  14  15
ATOM     15  C   UNL     1      15.924  -5.875  33.127  1.00  0.00    -0.000 C 
BRANCH  15  16
ATOM     16  C   UNL     1      15.482  -7.153  33.864  1.00  0.00    -0.000 C 
BRANCH  16  17
ATOM     17  C   UNL     1      15.633  -8.455  33.056  1.00  0.00    -0.003 C 
ATOM     18  C   UNL     1      16.502  -8.289  31.810  1.00  0.00     0.004 C 
ENDBRANCH  16  17
ENDBRANCH  15  16
ENDBRANCH  14  15
ENDBRANCH  13  14
ENDBRANCH  12  13
ENDBRANCH  11  12
ENDBRANCH   1  11
TORSDOF 14
ENDMDL
MODEL 2
REMARK VINA RESULT:    -5.383      3.427      6.452
REMARK INTER + INTRA:         -12.201
REMARK INTER:                 -10.204
REMARK INTRA:                  -1.997
REMARK UNBOUND:                -2.413
REMARK SMILES CCCCCCCCCCCCCCCC(=O)[O-]
REMARK SMILES IDX 9 1 10 2 11 3 12 4 13 5 14 6 15 7 16 8 17 9 18 10 8 11 7 12
REMARK SMILES IDX 6 13 5 14 4 15 3 16 2 17 1 18
REMARK H PARENT
REMARK Flexibility Score: inf
ROOT
ATOM      1  C   UNL     1      19.168  -6.418  35.473  1.00  0.00     0.000 C 
ENDROOT
BRANCH   1   2
ATOM      2  C   UNL     1      17.767  -6.420  36.113  1.00  0.00     0.000 C 
BRANCH   2   3
ATOM      3  C   UNL     1      16.982  -5.102  35.967  1.00  0.00     0.000 C 
BRANCH   3   4
ATOM      4  C   UNL     1      16.206  -4.954  34.646  1.00  0.00     0.000 C 
BRANCH   4   5
ATOM      5  C   UNL     1      15.458  -6.237  34.247  1.00  0.00     0.000 C 
BRANCH   5   6
ATOM      6  C   UNL     1      15.939  -6.808  32.903  1.00  0.00     0.006 C 
BRANCH   6   7
ATOM      7  C   UNL     1      15.937  -8.342  32.879  1.00  0.00     0.053 C 
BRANCH   7   8
ATOM      8  C   UNL     1      16.454  -8.843  31.569  1.00  0.00     0.041 C 
ATOM      9  O   UNL     1      17.585  -9.392  31.501  1.00  0.00    -0.550 OA
ATOM     10  O   UNL     1      15.664  -8.752  30.430  1.00  0.00    -0.550 OA
ENDBRANCH   7   8
ENDBRANCH   6   7
ENDBRANCH   5   6
ENDBRANCH   4   5
ENDBRANCH   3   4
ENDBRANCH   2   3
ENDBRANCH   1   2
BRANCH   1  11
ATOM     11  C   UNL     1      19.233  -7.155  34.119  1.00  0.00     0.000 C 
BRANCH  11  12
ATOM     12  C   UNL     1      19.823  -6.282  33.002  1.00  0.00    -0.000 C 
BRANCH  12  13
ATOM     13  C   UNL     1      19.325  -4.833  33.116  1.00  0.00    -0.000 C 
BRANCH  13  14
ATOM     14  C   UNL     1      20.457  -3.841  33.433  1.00  0.00    -0.000 C 
BRANCH  14  15
ATOM     15  C   UNL     1      20.209  -3.066  34.738  1.00  0.00    -0.000 C 
BRANCH  15  16
ATOM     16  C   UNL     1      18.920  -2.225  34.700  1.00  0.00    -0.000 C 
BRANCH  16  17
ATOM     17  C   UNL     1      18.812  -1.151  35.798  1.00  0.00    -0.003 C 
ATOM     18  C   UNL     1      20.113  -0.377  36.007  1.00  0.00     0.004 C 
ENDBRANCH  16  17
ENDBRANCH  15  16
ENDBRANCH  14  15
ENDBRANCH  13  14
ENDBRANCH  12  13
ENDBRANCH  11  12
ENDBRANCH   1  11
TORSDOF 14
ENDMDL
MODEL 3
REMARK VINA RESULT:    -5.377      1.129      2.299
REMARK INTER + INTRA:         -12.190
REMARK INTER:                  -9.761
REMARK INTRA:                  -2.429
REMARK UNBOUND:                -2.413
REMARK SMILES CCCCCCCCCCCCCCCC(=O)[O-]
REMARK SMILES IDX 9 1 10 2 11 3 12 4 13 5 14 6 15 7 16 8 17 9 18 10 8 11 7 12
REMARK SMILES IDX 6 13 5 14 4 15 3 16 2 17 1 18
REMARK H PARENT
REMARK Flexibility Score: inf
ROOT
ATOM      1  C   UNL     1      18.323  -5.644  36.771  1.00  0.00     0.000 C 
ENDROOT
BRANCH   1   2
ATOM      2  C   UNL     1      18.173  -7.063  36.192  1.00  0.00     0.000 C 
BRANCH   2   3
ATOM      3  C   UNL     1      19.309  -7.506  35.250  1.00  0.00     0.000 C 
BRANCH   3   4
ATOM      4  C   UNL     1      18.998  -7.363  33.749  1.00  0.00     0.000 C 
BRANCH   4   5
ATOM      5  C   UNL     1      19.928  -6.364  33.040  1.00  0.00     0.000 C 
BRANCH   5   6
ATOM      6  C   UNL     1      19.345  -4.943  32.997  1.00  0.00     0.006 C 
BRANCH   6   7
ATOM      7  C   UNL     1      20.331  -3.885  33.510  1.00  0.00     0.053 C 
BRANCH   7   8
ATOM      8  C   UNL     1      19.599  -2.792  34.220  1.00  0.00     0.041 C 
ATOM      9  O   UNL     1      20.114  -2.229  35.222  1.00  0.00    -0.550 OA
ATOM     10  O   UNL     1      18.370  -2.356  33.743  1.00  0.00    -0.550 OA
ENDBRANCH   7   8
ENDBRANCH   6   7
ENDBRANCH   5   6
ENDBRANCH   4   5
ENDBRANCH   3   4
ENDBRANCH   2   3
ENDBRANCH   1   2
BRANCH   1  11
ATOM     11  C   UNL     1      17.353  -4.615  36.154  1.00  0.00     0.000 C 
BRANCH  11  12
ATOM     12  C   UNL     1      16.091  -5.271  35.574  1.00  0.00    -0.000 C 
BRANCH  12  13
ATOM     13  C   UNL     1      15.884  -4.863  34.107  1.00  0.00    -0.000 C 
BRANCH  13  14
ATOM     14  C   UNL     1      15.884  -6.067  33.151  1.00  0.00    -0.000 C 
BRANCH  14  15
ATOM     15  C   UNL     1      15.259  -7.321  33.787  1.00  0.00    -0.000 C 
BRANCH  15  16
ATOM     16  C   UNL     1      15.545  -8.605  32.987  1.00  0.00    -0.000 C 
BRANCH  16  17
ATOM     17  C   UNL     1      16.237  -8.384  31.629  1.00  0.00    -0.003 C 
ATOM     18  C   UNL     1      17.326  -9.416  31.337  1.00  0.00     0.004 C 
ENDBRANCH  16  17
ENDBRANCH  15  16
ENDBRANCH  14  15
ENDBRANCH  13  14
ENDBRANCH  12  13
ENDBRANCH  11  12
ENDBRANCH   1  11
TORSDOF 14
ENDMDL
MODEL 4
REMARK VINA RESULT:    -5.152      3.692      6.197
REMARK INTER + INTRA:         -11.782
REMARK INTER:                  -9.488
REMARK INTRA:                  -2.294
REMARK UNBOUND:                -2.413
REMARK SMILES CCCCCCCCCCCCCCCC(=O)[O-]
REMARK SMILES IDX 9 1 10 2 11 3 12 4 13 5 14 6 15 7 16 8 17 9 18 10 8 11 7 12
REMARK SMILES IDX 6 13 5 14 4 15 3 16 2 17 1 18
REMARK H PARENT
REMARK Flexibility Score: inf
ROOT
ATOM      1  C   UNL     1      17.145  -5.029  36.366  1.00  0.00     0.000 C 
ENDROOT
BRANCH   1   2
ATOM      2  C   UNL     1      18.417  -5.895  36.427  1.00  0.00     0.000 C 
BRANCH   2   3
ATOM      3  C   UNL     1      18.367  -7.187  35.589  1.00  0.00     0.000 C 
BRANCH   3   4
ATOM      4  C   UNL     1      19.496  -7.330  34.553  1.00  0.00     0.000 C 
BRANCH   4   5
ATOM      5  C   UNL     1      19.002  -7.167  33.106  1.00  0.00     0.000 C 
BRANCH   5   6
ATOM      6  C   UNL     1      18.060  -8.301  32.672  1.00  0.00     0.006 C 
BRANCH   6   7
ATOM      7  C   UNL     1      16.629  -7.812  32.412  1.00  0.00     0.053 C 
BRANCH   7   8
ATOM      8  C   UNL     1      15.843  -8.861  31.693  1.00  0.00     0.041 C 
ATOM      9  O   UNL     1      15.134  -9.678  32.339  1.00  0.00    -0.550 OA
ATOM     10  O   UNL     1      15.850  -8.905  30.305  1.00  0.00    -0.550 OA
ENDBRANCH   7   8
ENDBRANCH   6   7
ENDBRANCH   5   6
ENDBRANCH   4   5
ENDBRANCH   3   4
ENDBRANCH   2   3
ENDBRANCH   1   2
BRANCH   1  11
ATOM     11  C   UNL     1      16.175  -5.429  35.234  1.00  0.00     0.000 C 
BRANCH  11  12
ATOM     12  C   UNL     1      15.948  -4.293  34.226  1.00  0.00    -0.000 C 
BRANCH  12  13
ATOM     13  C   UNL     1      17.094  -4.228  33.205  1.00  0.00    -0.000 C 
BRANCH  13  14
ATOM     14  C   UNL     1      17.998  -3.000  33.405  1.00  0.00    -0.000 C 
BRANCH  14  15
ATOM     15  C   UNL     1      19.438  -3.387  33.783  1.00  0.00    -0.000 C 
BRANCH  15  16
ATOM     16  C   UNL     1      19.931  -2.684  35.062  1.00  0.00    -0.000 C 
BRANCH  16  17
ATOM     17  C   UNL     1      19.081  -1.483  35.512  1.00  0.00    -0.003 C 
ATOM     18  C   UNL     1      19.922  -0.292  35.970  1.00  0.00     0.004 C 
ENDBRANCH  16  17
ENDBRANCH  15  16
ENDBRANCH  14  15
ENDBRANCH  13  14
ENDBRANCH  12  13
ENDBRANCH  11  12
ENDBRANCH   1  11
TORSDOF 14
ENDMDL
MODEL 5
REMARK VINA RESULT:    -5.076      1.231      2.578
REMARK INTER + INTRA:         -11.644
REMARK INTER:                  -9.352
REMARK INTRA:                  -2.292
REMARK UNBOUND:                -2.413
REMARK SMILES CCCCCCCCCCCCCCCC(=O)[O-]
REMARK SMILES IDX 9 1 10 2 11 3 12 4 13 5 14 6 15 7 16 8 17 9 18 10 8 11 7 12
REMARK SMILES IDX 6 13 5 14 4 15 3 16 2 17 1 18
REMARK H PARENT
REMARK Flexibility Score: inf
ROOT
ATOM      1  C   UNL     1      16.341  -5.507  35.503  1.00  0.00     0.000 C 
ENDROOT
BRANCH   1   2
ATOM      2  C   UNL     1      15.945  -4.488  34.419  1.00  0.00     0.000 C 
BRANCH   2   3
ATOM      3  C   UNL     1      16.982  -4.292  33.298  1.00  0.00     0.000 C 
BRANCH   3   4
ATOM      4  C   UNL     1      17.860  -3.035  33.441  1.00  0.00     0.000 C 
BRANCH   4   5
ATOM      5  C   UNL     1      19.346  -3.365  33.654  1.00  0.00     0.000 C 
BRANCH   5   6
ATOM      6  C   UNL     1      19.933  -2.676  34.896  1.00  0.00     0.006 C 
BRANCH   6   7
ATOM      7  C   UNL     1      18.894  -1.830  35.646  1.00  0.00     0.053 C 
BRANCH   7   8
ATOM      8  C   UNL     1      19.387  -0.428  35.812  1.00  0.00     0.041 C 
ATOM      9  O   UNL     1      18.882   0.506  35.134  1.00  0.00    -0.550 OA
ATOM     10  O   UNL     1      20.367  -0.143  36.753  1.00  0.00    -0.550 OA
ENDBRANCH   7   8
ENDBRANCH   6   7
ENDBRANCH   5   6
ENDBRANCH   4   5
ENDBRANCH   3   4
ENDBRANCH   2   3
ENDBRANCH   1   2
BRANCH   1  11
ATOM     11  C   UNL     1      17.355  -4.959  36.530  1.00  0.00     0.000 C 
BRANCH  11  12
ATOM     12  C   UNL     1      18.712  -5.672  36.456  1.00  0.00    -0.000 C 
BRANCH  12  13
ATOM     13  C   UNL     1      18.535  -7.197  36.508  1.00  0.00    -0.000 C 
BRANCH  13  14
ATOM     14  C   UNL     1      19.253  -7.918  35.354  1.00  0.00    -0.000 C 
BRANCH  14  15
ATOM     15  C   UNL     1      19.262  -7.087  34.060  1.00  0.00    -0.000 C 
BRANCH  15  16
ATOM     16  C   UNL     1      18.547  -7.790  32.891  1.00  0.00    -0.000 C 
BRANCH  16  17
ATOM     17  C   UNL     1      17.013  -7.847  33.008  1.00  0.00    -0.003 C 
ATOM     18  C   UNL     1      16.334  -8.359  31.738  1.00  0.00     0.004 C 
ENDBRANCH  16  17
ENDBRANCH  15  16
ENDBRANCH  14  15
ENDBRANCH  13  14
ENDBRANCH  12  13
ENDBRANCH  11  12
ENDBRANCH   1  11
TORSDOF 14
ENDMDL
MODEL 6
REMARK VINA RESULT:    -5.069     18.783     20.006
REMARK INTER + INTRA:         -11.631
REMARK INTER:                  -9.502
REMARK INTRA:                  -2.129
REMARK UNBOUND:                -2.413
REMARK SMILES CCCCCCCCCCCCCCCC(=O)[O-]
REMARK SMILES IDX 9 1 10 2 11 3 12 4 13 5 14 6 15 7 16 8 17 9 18 10 8 11 7 12
REMARK SMILES IDX 6 13 5 14 4 15 3 16 2 17 1 18
REMARK H PARENT
REMARK Flexibility Score: inf
ROOT
ATOM      1  C   UNL     1       8.093   5.617  18.876  1.00  0.00     0.000 C 
ENDROOT
BRANCH   1   2
ATOM      2  C   UNL     1       8.487   6.412  17.617  1.00  0.00     0.000 C 
BRANCH   2   3
ATOM      3  C   UNL     1       9.950   6.238  17.167  1.00  0.00     0.000 C 
BRANCH   3   4
ATOM      4  C   UNL     1      10.909   7.343  17.643  1.00  0.00     0.000 C 
BRANCH   4   5
ATOM      5  C   UNL     1      12.172   6.786  18.321  1.00  0.00     0.000 C 
BRANCH   5   6
ATOM      6  C   UNL     1      12.809   7.788  19.298  1.00  0.00     0.006 C 
BRANCH   6   7
ATOM      7  C   UNL     1      12.218   7.690  20.711  1.00  0.00     0.053 C 
BRANCH   7   8
ATOM      8  C   UNL     1      12.841   8.713  21.607  1.00  0.00     0.041 C 
ATOM      9  O   UNL     1      14.040   8.591  21.972  1.00  0.00    -0.550 OA
ATOM     10  O   UNL     1      12.114   9.829  21.997  1.00  0.00    -0.550 OA
ENDBRANCH   7   8
ENDBRANCH   6   7
ENDBRANCH   5   6
ENDBRANCH   4   5
ENDBRANCH   3   4
ENDBRANCH   2   3
ENDBRANCH   1   2
BRANCH   1  11
ATOM     11  C   UNL     1       8.886   6.018  20.137  1.00  0.00     0.000 C 
BRANCH  11  12
ATOM     12  C   UNL     1       9.239   4.811  21.019  1.00  0.00    -0.000 C 
BRANCH  12  13
ATOM     13  C   UNL     1      10.653   4.298  20.708  1.00  0.00    -0.000 C 
BRANCH  13  14
ATOM     14  C   UNL     1      10.647   2.920  20.026  1.00  0.00    -0.000 C 
BRANCH  14  15
ATOM     15  C   UNL     1      10.883   3.014  18.509  1.00  0.00    -0.000 C 
BRANCH  15  16
ATOM     16  C   UNL     1       9.670   2.545  17.684  1.00  0.00    -0.000 C 
BRANCH  16  17
ATOM     17  C   UNL     1       8.792   1.480  18.366  1.00  0.00    -0.003 C 
ATOM     18  C   UNL     1       8.407   0.333  17.433  1.00  0.00     0.004 C 
ENDBRANCH  16  17
ENDBRANCH  15  16
ENDBRANCH  14  15
ENDBRANCH  13  14
ENDBRANCH  12  13
ENDBRANCH  11  12
ENDBRANCH   1  11
TORSDOF 14
ENDMDL
MODEL 7
REMARK VINA RESULT:    -4.996      3.560      5.763
REMARK INTER + INTRA:         -11.498
REMARK INTER:                  -8.904
REMARK INTRA:                  -2.595
REMARK UNBOUND:                -2.413
REMARK SMILES CCCCCCCCCCCCCCCC(=O)[O-]
REMARK SMILES IDX 9 1 10 2 11 3 12 4 13 5 14 6 15 7 16 8 17 9 18 10 8 11 7 12
REMARK SMILES IDX 6 13 5 14 4 15 3 16 2 17 1 18
REMARK H PARENT
REMARK Flexibility Score: inf
ROOT
ATOM      1  C   UNL     1      19.876  -4.161  33.037  1.00  0.00     0.000 C 
ENDROOT
BRANCH   1   2
ATOM      2  C   UNL     1      19.979  -5.696  32.971  1.00  0.00     0.000 C 
BRANCH   2   3
ATOM      3  C   UNL     1      18.630  -6.439  32.938  1.00  0.00     0.000 C 
BRANCH   3   4
ATOM      4  C   UNL     1      17.425  -5.574  32.525  1.00  0.00     0.000 C 
BRANCH   4   5
ATOM      5  C   UNL     1      16.076  -6.261  32.796  1.00  0.00     0.000 C 
BRANCH   5   6
ATOM      6  C   UNL     1      16.232  -7.589  33.553  1.00  0.00     0.006 C 
BRANCH   6   7
ATOM      7  C   UNL     1      15.566  -8.765  32.826  1.00  0.00     0.053 C 
BRANCH   7   8
ATOM      8  C   UNL     1      16.243  -9.019  31.517  1.00  0.00     0.041 C 
ATOM      9  O   UNL     1      15.650  -8.764  30.436  1.00  0.00    -0.550 OA
ATOM     10  O   UNL     1      17.550  -9.487  31.491  1.00  0.00    -0.550 OA
ENDBRANCH   7   8
ENDBRANCH   6   7
ENDBRANCH   5   6
ENDBRANCH   4   5
ENDBRANCH   3   4
ENDBRANCH   2   3
ENDBRANCH   1   2
BRANCH   1  11
ATOM     11  C   UNL     1      20.712  -3.531  34.171  1.00  0.00     0.000 C 
BRANCH  11  12
ATOM     12  C   UNL     1      19.951  -2.425  34.917  1.00  0.00    -0.000 C 
BRANCH  12  13
ATOM     13  C   UNL     1      18.436  -2.669  34.864  1.00  0.00    -0.000 C 
BRANCH  13  14
ATOM     14  C   UNL     1      17.891  -3.301  36.156  1.00  0.00    -0.000 C 
BRANCH  14  15
ATOM     15  C   UNL     1      17.144  -4.620  35.894  1.00  0.00    -0.000 C 
BRANCH  15  16
ATOM     16  C   UNL     1      17.709  -5.800  36.706  1.00  0.00    -0.000 C 
BRANCH  16  17
ATOM     17  C   UNL     1      19.231  -6.002  36.586  1.00  0.00    -0.003 C 
ATOM     18  C   UNL     1      19.622  -7.454  36.311  1.00  0.00     0.004 C 
ENDBRANCH  16  17
ENDBRANCH  15  16
ENDBRANCH  14  15
ENDBRANCH  13  14
ENDBRANCH  12  13
ENDBRANCH  11  12
ENDBRANCH   1  11
TORSDOF 14
ENDMDL
MODEL 8
REMARK VINA RESULT:    -4.957     19.291     20.813
REMARK INTER + INTRA:         -11.427
REMARK INTER:                  -8.912
REMARK INTRA:                  -2.515
REMARK UNBOUND:                -2.413
REMARK SMILES CCCCCCCCCCCCCCCC(=O)[O-]
REMARK SMILES IDX 9 1 10 2 11 3 12 4 13 5 14 6 15 7 16 8 17 9 18 10 8 11 7 12
REMARK SMILES IDX 6 13 5 14 4 15 3 16 2 17 1 18
REMARK H PARENT
REMARK Flexibility Score: inf
ROOT
ATOM      1  C   UNL     1      10.117   6.483  21.699  1.00  0.00     0.000 C 
ENDROOT
BRANCH   1   2
ATOM      2  C   UNL     1       8.808   5.932  21.103  1.00  0.00     0.000 C 
BRANCH   2   3
ATOM      3  C   UNL     1       8.982   4.754  20.126  1.00  0.00     0.000 C 
BRANCH   3   4
ATOM      4  C   UNL     1      10.243   3.902  20.358  1.00  0.00     0.000 C 
BRANCH   4   5
ATOM      5  C   UNL     1      10.829   3.335  19.053  1.00  0.00     0.000 C 
BRANCH   5   6
ATOM      6  C   UNL     1       9.790   3.260  17.923  1.00  0.00     0.006 C 
BRANCH   6   7
ATOM      7  C   UNL     1       9.458   1.817  17.523  1.00  0.00     0.053 C 
BRANCH   7   8
ATOM      8  C   UNL     1       8.388   1.264  18.408  1.00  0.00     0.041 C 
ATOM      9  O   UNL     1       8.590   0.208  19.066  1.00  0.00    -0.550 OA
ATOM     10  O   UNL     1       7.184   1.941  18.550  1.00  0.00    -0.550 OA
ENDBRANCH   7   8
ENDBRANCH   6   7
ENDBRANCH   5   6
ENDBRANCH   4   5
ENDBRANCH   3   4
ENDBRANCH   2   3
ENDBRANCH   1   2
BRANCH   1  11
ATOM     11  C   UNL     1      10.283   8.008  21.529  1.00  0.00     0.000 C 
BRANCH  11  12
ATOM     12  C   UNL     1      11.695   8.398  21.069  1.00  0.00    -0.000 C 
BRANCH  12  13
ATOM     13  C   UNL     1      12.384   7.224  20.355  1.00  0.00    -0.000 C 
BRANCH  13  14
ATOM     14  C   UNL     1      12.507   7.443  18.838  1.00  0.00    -0.000 C 
BRANCH  14  15
ATOM     15  C   UNL     1      11.355   6.789  18.056  1.00  0.00    -0.000 C 
BRANCH  15  16
ATOM     16  C   UNL     1      10.397   7.819  17.429  1.00  0.00    -0.000 C 
BRANCH  16  17
ATOM     17  C   UNL     1       8.904   7.576  17.715  1.00  0.00    -0.003 C 
ATOM     18  C   UNL     1       8.334   6.382  16.949  1.00  0.00     0.004 C 
ENDBRANCH  16  17
ENDBRANCH  15  16
ENDBRANCH  14  15
ENDBRANCH  13  14
ENDBRANCH  12  13
ENDBRANCH  11  12
ENDBRANCH   1  11
TORSDOF 14
ENDMDL
MODEL 9
REMARK VINA RESULT:    -4.897     19.102     20.802
REMARK INTER + INTRA:         -11.319
REMARK INTER:                  -8.979
REMARK INTRA:                  -2.339
REMARK UNBOUND:                -2.413
REMARK SMILES CCCCCCCCCCCCCCCC(=O)[O-]
REMARK SMILES IDX 9 1 10 2 11 3 12 4 13 5 14 6 15 7 16 8 17 9 18 10 8 11 7 12
REMARK SMILES IDX 6 13 5 14 4 15 3 16 2 17 1 18
REMARK H PARENT
REMARK Flexibility Score: inf
ROOT
ATOM      1  C   UNL     1       8.603   5.965  20.219  1.00  0.00     0.000 C 
ENDROOT
BRANCH   1   2
ATOM      2  C   UNL     1       9.209   4.824  21.058  1.00  0.00     0.000 C 
BRANCH   2   3
ATOM      3  C   UNL     1      10.630   4.395  20.646  1.00  0.00     0.000 C 
BRANCH   3   4
ATOM      4  C   UNL     1      10.700   3.099  19.817  1.00  0.00     0.000 C 
BRANCH   4   5
ATOM      5  C   UNL     1      10.996   3.358  18.330  1.00  0.00     0.000 C 
BRANCH   5   6
ATOM      6  C   UNL     1      10.216   2.415  17.401  1.00  0.00     0.006 C 
BRANCH   6   7
ATOM      7  C   UNL     1       8.765   2.206  17.856  1.00  0.00     0.053 C 
BRANCH   7   8
ATOM      8  C   UNL     1       8.454   0.746  17.949  1.00  0.00     0.041 C 
ATOM      9  O   UNL     1       7.961   0.138  16.963  1.00  0.00    -0.550 OA
ATOM     10  O   UNL     1       8.758   0.044  19.108  1.00  0.00    -0.550 OA
ENDBRANCH   7   8
ENDBRANCH   6   7
ENDBRANCH   5   6
ENDBRANCH   4   5
ENDBRANCH   3   4
ENDBRANCH   2   3
ENDBRANCH   1   2
BRANCH   1  11
ATOM     11  C   UNL     1       8.064   5.508  18.847  1.00  0.00     0.000 C 
BRANCH  11  12
ATOM     12  C   UNL     1       8.810   6.161  17.675  1.00  0.00    -0.000 C 
BRANCH  12  13
ATOM     13  C   UNL     1       9.759   7.262  18.172  1.00  0.00    -0.000 C 
BRANCH  13  14
ATOM     14  C   UNL     1      11.200   7.075  17.667  1.00  0.00    -0.000 C 
BRANCH  14  15
ATOM     15  C   UNL     1      12.237   7.193  18.797  1.00  0.00    -0.000 C 
BRANCH  15  16
ATOM     16  C   UNL     1      11.649   7.785  20.091  1.00  0.00    -0.000 C 
BRANCH  16  17
ATOM     17  C   UNL     1      12.527   7.611  21.344  1.00  0.00    -0.003 C 
ATOM     18  C   UNL     1      13.343   8.858  21.681  1.00  0.00     0.004 C 
ENDBRANCH  16  17
ENDBRANCH  15  16
ENDBRANCH  14  15
ENDBRANCH  13  14
ENDBRANCH  12  13
ENDBRANCH  11  12
ENDBRANCH   1  11
TORSDOF 14
ENDMDL
