MODEL 1
REMARK VINA RESULT:    -4.072      0.000      0.000
REMARK INTER + INTRA:          -6.139
REMARK INTER:                  -5.738
REMARK INTRA:                  -0.401
REMARK UNBOUND:                -0.401
REMARK SMILES CCCCCCCCC(=O)[O-]
REMARK SMILES IDX 6 1 7 2 8 3 9 4 10 5 11 6 5 7 4 8 3 9 2 10 1 11
REMARK H PARENT
REMARK Flexibility Score: inf
ROOT
ATOM      1  C   UNL     1      12.734 -31.483  22.725  1.00  0.00     0.000 C 
ENDROOT
BRANCH   1   2
ATOM      2  C   UNL     1      13.439 -31.632  21.368  1.00  0.00     0.006 C 
BRANCH   2   3
ATOM      3  C   UNL     1      14.867 -32.172  21.511  1.00  0.00     0.053 C 
BRANCH   3   4
ATOM      4  C   UNL     1      14.905 -33.667  21.422  1.00  0.00     0.041 C 
ATOM      5  O   UNL     1      15.090 -34.359  22.458  1.00  0.00    -0.550 OA
ATOM      6  O   UNL     1      14.770 -34.295  20.191  1.00  0.00    -0.550 OA
ENDBRANCH   3   4
ENDBRANCH   2   3
ENDBRANCH   1   2
BRANCH   1   7
ATOM      7  C   UNL     1      13.713 -30.984  23.799  1.00  0.00     0.000 C 
BRANCH   7   8
ATOM      8  C   UNL     1      13.614 -29.469  24.037  1.00  0.00    -0.000 C 
BRANCH   8   9
ATOM      9  C   UNL     1      12.163 -28.997  24.236  1.00  0.00    -0.000 C 
BRANCH   9  10
ATOM     10  C   UNL     1      12.079 -27.640  24.954  1.00  0.00    -0.003 C 
ATOM     11  C   UNL     1      13.450 -26.996  25.165  1.00  0.00     0.004 C 
ENDBRANCH   9  10
ENDBRANCH   8   9
ENDBRANCH   7   8
ENDBRANCH   1   7
TORSDOF 7
ENDMDL
MODEL 2
REMARK VINA RESULT:    -3.930      1.315      2.028
REMARK INTER + INTRA:          -5.940
REMARK INTER:                  -5.568
REMARK INTRA:                  -0.372
REMARK UNBOUND:                -0.401
REMARK SMILES CCCCCCCCC(=O)[O-]
REMARK SMILES IDX 6 1 7 2 8 3 9 4 10 5 11 6 5 7 4 8 3 9 2 10 1 11
REMARK H PARENT
REMARK Flexibility Score: inf
ROOT
ATOM      1  C   UNL     1      13.599 -32.175  20.898  1.00  0.00     0.000 C 
ENDROOT
BRANCH   1   2
ATOM      2  C   UNL     1      15.029 -32.597  21.269  1.00  0.00     0.006 C 
BRANCH   2   3
ATOM      3  C   UNL     1      15.168 -34.118  21.410  1.00  0.00     0.053 C 
BRANCH   3   4
ATOM      4  C   UNL     1      15.576 -34.511  22.797  1.00  0.00     0.041 C 
ATOM      5  O   UNL     1      16.568 -35.266  22.976  1.00  0.00    -0.550 OA
ATOM      6  O   UNL     1      14.840 -34.071  23.890  1.00  0.00    -0.550 OA
ENDBRANCH   3   4
ENDBRANCH   2   3
ENDBRANCH   1   2
BRANCH   1   7
ATOM      7  C   UNL     1      12.937 -31.405  22.051  1.00  0.00     0.000 C 
BRANCH   7   8
ATOM      8  C   UNL     1      13.910 -30.455  22.767  1.00  0.00    -0.000 C 
BRANCH   8   9
ATOM      9  C   UNL     1      13.483 -30.155  24.215  1.00  0.00    -0.000 C 
BRANCH   9  10
ATOM     10  C   UNL     1      12.415 -29.052  24.298  1.00  0.00    -0.003 C 
ATOM     11  C   UNL     1      12.854 -27.867  25.158  1.00  0.00     0.004 C 
ENDBRANCH   9  10
ENDBRANCH   8   9
ENDBRANCH   7   8
ENDBRANCH   1   7
TORSDOF 7
ENDMDL
MODEL 3
REMARK VINA RESULT:    -3.889      2.620      3.693
REMARK INTER + INTRA:          -5.881
REMARK INTER:                  -5.254
REMARK INTRA:                  -0.627
REMARK UNBOUND:                -0.401
REMARK SMILES CCCCCCCCC(=O)[O-]
REMARK SMILES IDX 6 1 7 2 8 3 9 4 10 5 11 6 5 7 4 8 3 9 2 10 1 11
REMARK H PARENT
REMARK Flexibility Score: inf
ROOT
ATOM      1  C   UNL     1      13.908 -32.945  20.416  1.00  0.00     0.000 C 
ENDROOT
BRANCH   1   2
ATOM      2  C   UNL     1      15.279 -33.478  20.859  1.00  0.00     0.006 C 
BRANCH   2   3
ATOM      3  C   UNL     1      15.346 -35.010  20.825  1.00  0.00     0.053 C 
BRANCH   3   4
ATOM      4  C   UNL     1      16.356 -35.500  19.833  1.00  0.00     0.041 C 
ATOM      5  O   UNL     1      16.896 -34.696  19.028  1.00  0.00    -0.550 OA
ATOM      6  O   UNL     1      16.676 -36.850  19.776  1.00  0.00    -0.550 OA
ENDBRANCH   3   4
ENDBRANCH   2   3
ENDBRANCH   1   2
BRANCH   1   7
ATOM      7  C   UNL     1      13.400 -31.866  21.384  1.00  0.00     0.000 C 
BRANCH   7   8
ATOM      8  C   UNL     1      14.540 -31.125  22.101  1.00  0.00    -0.000 C 
BRANCH   8   9
ATOM      9  C   UNL     1      14.308 -31.011  23.618  1.00  0.00    -0.000 C 
BRANCH   9  10
ATOM     10  C   UNL     1      13.849 -32.338  24.244  1.00  0.00    -0.003 C 
ATOM     11  C   UNL     1      14.995 -33.333  24.429  1.00  0.00     0.004 C 
ENDBRANCH   9  10
ENDBRANCH   8   9
ENDBRANCH   7   8
ENDBRANCH   1   7
TORSDOF 7
ENDMDL
MODEL 4
REMARK VINA RESULT:    -3.877      7.079      8.940
REMARK INTER + INTRA:          -5.865
REMARK INTER:                  -5.406
REMARK INTRA:                  -0.459
REMARK UNBOUND:                -0.401
REMARK SMILES CCCCCCCCC(=O)[O-]
REMARK SMILES IDX 6 1 7 2 8 3 9 4 10 5 11 6 5 7 4 8 3 9 2 10 1 11
REMARK H PARENT
REMARK Flexibility Score: inf
ROOT
ATOM      1  C   UNL     1      18.096 -37.470  26.078  1.00  0.00     0.000 C 
ENDROOT
BRANCH   1   2
ATOM      2  C   UNL     1      16.872 -36.576  25.828  1.00  0.00     0.006 C 
BRANCH   2   3
ATOM      3  C   UNL     1      17.075 -35.633  24.635  1.00  0.00     0.053 C 
BRANCH   3   4
ATOM      4  C   UNL     1      16.885 -34.199  25.023  1.00  0.00     0.041 C 
ATOM      5  O   UNL     1      15.867 -33.567  24.637  1.00  0.00    -0.550 OA
ATOM      6  O   UNL     1      17.850 -33.551  25.784  1.00  0.00    -0.550 OA
ENDBRANCH   3   4
ENDBRANCH   2   3
ENDBRANCH   1   2
BRANCH   1   7
ATOM      7  C   UNL     1      17.688 -38.778  26.774  1.00  0.00     0.000 C 
BRANCH   7   8
ATOM      8  C   UNL     1      16.248 -38.743  27.309  1.00  0.00    -0.000 C 
BRANCH   8   9
ATOM      9  C   UNL     1      16.181 -38.930  28.835  1.00  0.00    -0.000 C 
BRANCH   9  10
ATOM     10  C   UNL     1      16.989 -37.866  29.594  1.00  0.00    -0.003 C 
ATOM     11  C   UNL     1      18.145 -38.462  30.398  1.00  0.00     0.004 C 
ENDBRANCH   9  10
ENDBRANCH   8   9
ENDBRANCH   7   8
ENDBRANCH   1   7
TORSDOF 7
ENDMDL
MODEL 5
REMARK VINA RESULT:    -3.858      1.298      2.081
REMARK INTER + INTRA:          -5.838
REMARK INTER:                  -5.547
REMARK INTRA:                  -0.290
REMARK UNBOUND:                -0.401
REMARK SMILES CCCCCCCCC(=O)[O-]
REMARK SMILES IDX 6 1 7 2 8 3 9 4 10 5 11 6 5 7 4 8 3 9 2 10 1 11
REMARK H PARENT
REMARK Flexibility Score: inf
ROOT
ATOM      1  C   UNL     1      15.302 -32.830  24.048  1.00  0.00     0.000 C 
ENDROOT
BRANCH   1   2
ATOM      2  C   UNL     1      15.191 -34.169  23.304  1.00  0.00     0.006 C 
BRANCH   2   3
ATOM      3  C   UNL     1      16.080 -34.214  22.055  1.00  0.00     0.053 C 
BRANCH   3   4
ATOM      4  C   UNL     1      15.278 -34.072  20.798  1.00  0.00     0.041 C 
ATOM      5  O   UNL     1      14.209 -33.407  20.799  1.00  0.00    -0.550 OA
ATOM      6  O   UNL     1      15.695 -34.701  19.632  1.00  0.00    -0.550 OA
ENDBRANCH   3   4
ENDBRANCH   2   3
ENDBRANCH   1   2
BRANCH   1   7
ATOM      7  C   UNL     1      13.911 -32.292  24.420  1.00  0.00     0.000 C 
BRANCH   7   8
ATOM      8  C   UNL     1      13.438 -31.168  23.484  1.00  0.00    -0.000 C 
BRANCH   8   9
ATOM      9  C   UNL     1      13.703 -29.768  24.064  1.00  0.00    -0.000 C 
BRANCH   9  10
ATOM     10  C   UNL     1      12.404 -28.999  24.360  1.00  0.00    -0.003 C 
ATOM     11  C   UNL     1      12.643 -27.719  25.161  1.00  0.00     0.004 C 
ENDBRANCH   9  10
ENDBRANCH   8   9
ENDBRANCH   7   8
ENDBRANCH   1   7
TORSDOF 7
ENDMDL
MODEL 6
REMARK VINA RESULT:    -3.857      6.968      8.765
REMARK INTER + INTRA:          -5.836
REMARK INTER:                  -5.594
REMARK INTRA:                  -0.242
REMARK UNBOUND:                -0.401
REMARK SMILES CCCCCCCCC(=O)[O-]
REMARK SMILES IDX 6 1 7 2 8 3 9 4 10 5 11 6 5 7 4 8 3 9 2 10 1 11
REMARK H PARENT
REMARK Flexibility Score: inf
ROOT
ATOM      1  C   UNL     1      17.301 -36.812  26.264  1.00  0.00     0.000 C 
ENDROOT
BRANCH   1   2
ATOM      2  C   UNL     1      17.978 -36.682  24.891  1.00  0.00     0.006 C 
BRANCH   2   3
ATOM      3  C   UNL     1      17.213 -35.742  23.952  1.00  0.00     0.053 C 
BRANCH   3   4
ATOM      4  C   UNL     1      17.646 -35.908  22.528  1.00  0.00     0.041 C 
ATOM      5  O   UNL     1      17.430 -34.994  21.689  1.00  0.00    -0.550 OA
ATOM      6  O   UNL     1      18.258 -37.086  22.119  1.00  0.00    -0.550 OA
ENDBRANCH   3   4
ENDBRANCH   2   3
ENDBRANCH   1   2
BRANCH   1   7
ATOM      7  C   UNL     1      17.350 -38.263  26.766  1.00  0.00     0.000 C 
BRANCH   7   8
ATOM      8  C   UNL     1      16.017 -38.728  27.374  1.00  0.00    -0.000 C 
BRANCH   8   9
ATOM      9  C   UNL     1      16.136 -39.060  28.872  1.00  0.00    -0.000 C 
BRANCH   9  10
ATOM     10  C   UNL     1      17.003 -38.043  29.633  1.00  0.00    -0.003 C 
ATOM     11  C   UNL     1      18.189 -38.692  30.346  1.00  0.00     0.004 C 
ENDBRANCH   9  10
ENDBRANCH   8   9
ENDBRANCH   7   8
ENDBRANCH   1   7
TORSDOF 7
ENDMDL
MODEL 7
REMARK VINA RESULT:    -3.831      3.935      6.073
REMARK INTER + INTRA:          -5.799
REMARK INTER:                  -4.993
REMARK INTRA:                  -0.807
REMARK UNBOUND:                -0.401
REMARK SMILES CCCCCCCCC(=O)[O-]
REMARK SMILES IDX 6 1 7 2 8 3 9 4 10 5 11 6 5 7 4 8 3 9 2 10 1 11
REMARK H PARENT
REMARK Flexibility Score: inf
ROOT
ATOM      1  C   UNL     1      16.594 -35.549  20.666  1.00  0.00     0.000 C 
ENDROOT
BRANCH   1   2
ATOM      2  C   UNL     1      15.437 -34.827  21.372  1.00  0.00     0.006 C 
BRANCH   2   3
ATOM      3  C   UNL     1      14.707 -33.851  20.441  1.00  0.00     0.053 C 
BRANCH   3   4
ATOM      4  C   UNL     1      14.016 -32.764  21.207  1.00  0.00     0.041 C 
ATOM      5  O   UNL     1      13.202 -31.998  20.627  1.00  0.00    -0.550 OA
ATOM      6  O   UNL     1      14.298 -32.576  22.554  1.00  0.00    -0.550 OA
ENDBRANCH   3   4
ENDBRANCH   2   3
ENDBRANCH   1   2
BRANCH   1   7
ATOM      7  C   UNL     1      17.018 -34.795  19.396  1.00  0.00     0.000 C 
BRANCH   7   8
ATOM      8  C   UNL     1      18.530 -34.521  19.344  1.00  0.00    -0.000 C 
BRANCH   8   9
ATOM      9  C   UNL     1      18.990 -33.541  20.437  1.00  0.00    -0.000 C 
BRANCH   9  10
ATOM     10  C   UNL     1      18.129 -32.268  20.486  1.00  0.00    -0.003 C 
ATOM     11  C   UNL     1      17.716 -31.886  21.907  1.00  0.00     0.004 C 
ENDBRANCH   9  10
ENDBRANCH   8   9
ENDBRANCH   7   8
ENDBRANCH   1   7
TORSDOF 7
ENDMDL
MODEL 8
REMARK VINA RESULT:    -3.823      2.306      3.602
REMARK INTER + INTRA:          -5.789
REMARK INTER:                  -5.242
REMARK INTRA:                  -0.546
REMARK UNBOUND:                -0.401
REMARK SMILES CCCCCCCCC(=O)[O-]
REMARK SMILES IDX 6 1 7 2 8 3 9 4 10 5 11 6 5 7 4 8 3 9 2 10 1 11
REMARK H PARENT
REMARK Flexibility Score: inf
ROOT
ATOM      1  C   UNL     1      15.059 -33.576  22.234  1.00  0.00     0.000 C 
ENDROOT
BRANCH   1   2
ATOM      2  C   UNL     1      15.579 -34.857  21.563  1.00  0.00     0.006 C 
BRANCH   2   3
ATOM      3  C   UNL     1      15.493 -34.788  20.034  1.00  0.00     0.053 C 
BRANCH   3   4
ATOM      4  C   UNL     1      16.793 -35.154  19.387  1.00  0.00     0.041 C 
ATOM      5  O   UNL     1      17.558 -34.256  18.947  1.00  0.00    -0.550 OA
ATOM      6  O   UNL     1      17.145 -36.490  19.240  1.00  0.00    -0.550 OA
ENDBRANCH   3   4
ENDBRANCH   2   3
ENDBRANCH   1   2
BRANCH   1   7
ATOM      7  C   UNL     1      15.673 -32.327  21.583  1.00  0.00     0.000 C 
BRANCH   7   8
ATOM      8  C   UNL     1      14.657 -31.187  21.407  1.00  0.00    -0.000 C 
BRANCH   8   9
ATOM      9  C   UNL     1      13.201 -31.687  21.422  1.00  0.00    -0.000 C 
BRANCH   9  10
ATOM     10  C   UNL     1      12.335 -30.946  22.453  1.00  0.00    -0.003 C 
ATOM     11  C   UNL     1      13.162 -30.295  23.562  1.00  0.00     0.004 C 
ENDBRANCH   9  10
ENDBRANCH   8   9
ENDBRANCH   7   8
ENDBRANCH   1   7
TORSDOF 7
ENDMDL
MODEL 9
REMARK VINA RESULT:    -3.788      6.392      8.401
REMARK INTER + INTRA:          -5.739
REMARK INTER:                  -5.385
REMARK INTRA:                  -0.354
REMARK UNBOUND:                -0.401
REMARK SMILES CCCCCCCCC(=O)[O-]
REMARK SMILES IDX 6 1 7 2 8 3 9 4 10 5 11 6 5 7 4 8 3 9 2 10 1 11
REMARK H PARENT
REMARK Flexibility Score: inf
ROOT
ATOM      1  C   UNL     1      16.910 -36.519  25.722  1.00  0.00     0.000 C 
ENDROOT
BRANCH   1   2
ATOM      2  C   UNL     1      17.508 -35.286  25.027  1.00  0.00     0.006 C 
BRANCH   2   3
ATOM      3  C   UNL     1      18.151 -35.634  23.679  1.00  0.00     0.053 C 
BRANCH   3   4
ATOM      4  C   UNL     1      17.133 -35.712  22.582  1.00  0.00     0.041 C 
ATOM      5  O   UNL     1      17.330 -36.458  21.586  1.00  0.00    -0.550 OA
ATOM      6  O   UNL     1      15.983 -34.936  22.644  1.00  0.00    -0.550 OA
ENDBRANCH   3   4
ENDBRANCH   2   3
ENDBRANCH   1   2
BRANCH   1   7
ATOM      7  C   UNL     1      18.007 -37.349  26.407  1.00  0.00     0.000 C 
BRANCH   7   8
ATOM      8  C   UNL     1      17.510 -38.728  26.867  1.00  0.00    -0.000 C 
BRANCH   8   9
ATOM      9  C   UNL     1      16.045 -38.700  27.340  1.00  0.00    -0.000 C 
BRANCH   9  10
ATOM     10  C   UNL     1      15.894 -39.125  28.810  1.00  0.00    -0.003 C 
ATOM     11  C   UNL     1      17.077 -38.693  29.676  1.00  0.00     0.004 C 
ENDBRANCH   9  10
ENDBRANCH   8   9
ENDBRANCH   7   8
ENDBRANCH   1   7
TORSDOF 7
ENDMDL
