MODEL 1
REMARK VINA RESULT:    -3.933      0.000      0.000
REMARK INTER + INTRA:          -5.739
REMARK INTER:                  -5.312
REMARK INTRA:                  -0.427
REMARK UNBOUND:                -0.427
REMARK SMILES CCCCCCCC(=O)[O-]
REMARK SMILES IDX 5 1 6 2 7 3 8 4 9 5 10 6 4 7 3 8 2 9 1 10
REMARK H PARENT
REMARK Flexibility Score: inf
ROOT
ATOM      1  C   UNL     1      -6.498  -2.187   5.544  1.00  0.00     0.000 C 
ENDROOT
BRANCH   1   2
ATOM      2  C   UNL     1      -5.443  -1.095   5.748  1.00  0.00     0.006 C 
BRANCH   2   3
ATOM      3  C   UNL     1      -5.379  -0.658   7.214  1.00  0.00     0.053 C 
BRANCH   3   4
ATOM      4  C   UNL     1      -5.640   0.810   7.336  1.00  0.00     0.041 C 
ATOM      5  O   UNL     1      -6.817   1.235   7.482  1.00  0.00    -0.550 OA
ATOM      6  O   UNL     1      -4.578   1.706   7.338  1.00  0.00    -0.550 OA
ENDBRANCH   3   4
ENDBRANCH   2   3
ENDBRANCH   1   2
BRANCH   1   7
ATOM      7  C   UNL     1      -5.855  -3.579   5.522  1.00  0.00     0.000 C 
BRANCH   7   8
ATOM      8  C   UNL     1      -4.448  -3.526   4.909  1.00  0.00    -0.000 C 
BRANCH   8   9
ATOM      9  C   UNL     1      -3.378  -4.119   5.836  1.00  0.00    -0.003 C 
ATOM     10  C   UNL     1      -2.295  -3.108   6.214  1.00  0.00     0.004 C 
ENDBRANCH   8   9
ENDBRANCH   7   8
ENDBRANCH   1   7
TORSDOF 6
ENDMDL
MODEL 2
REMARK VINA RESULT:    -3.768     10.157     11.439
REMARK INTER + INTRA:          -5.517
REMARK INTER:                  -5.230
REMARK INTRA:                  -0.287
REMARK UNBOUND:                -0.427
REMARK SMILES CCCCCCCC(=O)[O-]
REMARK SMILES IDX 5 1 6 2 7 3 8 4 9 5 10 6 4 7 3 8 2 9 1 10
REMARK H PARENT
REMARK Flexibility Score: inf
ROOT
ATOM      1  C   UNL     1       2.727  -1.397  -2.907  1.00  0.00     0.000 C 
ENDROOT
BRANCH   1   2
ATOM      2  C   UNL     1       1.462  -2.263  -2.931  1.00  0.00     0.006 C 
BRANCH   2   3
ATOM      3  C   UNL     1       0.397  -1.709  -1.979  1.00  0.00     0.053 C 
BRANCH   3   4
ATOM      4  C   UNL     1      -0.007  -2.748  -0.983  1.00  0.00     0.041 C 
ATOM      5  O   UNL     1       0.621  -3.838  -0.912  1.00  0.00    -0.550 OA
ATOM      6  O   UNL     1      -1.048  -2.495  -0.098  1.00  0.00    -0.550 OA
ENDBRANCH   3   4
ENDBRANCH   2   3
ENDBRANCH   1   2
BRANCH   1   7
ATOM      7  C   UNL     1       2.755  -0.495  -1.667  1.00  0.00     0.000 C 
BRANCH   7   8
ATOM      8  C   UNL     1       4.186  -0.343  -1.130  1.00  0.00    -0.000 C 
BRANCH   8   9
ATOM      9  C   UNL     1       5.250  -0.714  -2.172  1.00  0.00    -0.003 C 
ATOM     10  C   UNL     1       6.669  -0.368  -1.718  1.00  0.00     0.004 C 
ENDBRANCH   8   9
ENDBRANCH   7   8
ENDBRANCH   1   7
TORSDOF 6
ENDMDL
MODEL 3
REMARK VINA RESULT:    -3.716      1.174      2.624
REMARK INTER + INTRA:          -5.446
REMARK INTER:                  -5.020
REMARK INTRA:                  -0.426
REMARK UNBOUND:                -0.427
REMARK SMILES CCCCCCCC(=O)[O-]
REMARK SMILES IDX 5 1 6 2 7 3 8 4 9 5 10 6 4 7 3 8 2 9 1 10
REMARK H PARENT
REMARK Flexibility Score: inf
ROOT
ATOM      1  C   UNL     1      -4.122  -2.411   5.894  1.00  0.00     0.000 C 
ENDROOT
BRANCH   1   2
ATOM      2  C   UNL     1      -4.762  -1.478   6.928  1.00  0.00     0.006 C 
BRANCH   2   3
ATOM      3  C   UNL     1      -5.653  -0.433   6.250  1.00  0.00     0.053 C 
BRANCH   3   4
ATOM      4  C   UNL     1      -5.733   0.807   7.081  1.00  0.00     0.041 C 
ATOM      5  O   UNL     1      -4.691   1.464   7.344  1.00  0.00    -0.550 OA
ATOM      6  O   UNL     1      -6.967   1.267   7.526  1.00  0.00    -0.550 OA
ENDBRANCH   3   4
ENDBRANCH   2   3
ENDBRANCH   1   2
BRANCH   1   7
ATOM      7  C   UNL     1      -5.190  -3.119   5.053  1.00  0.00     0.000 C 
BRANCH   7   8
ATOM      8  C   UNL     1      -5.587  -4.462   5.683  1.00  0.00    -0.000 C 
BRANCH   8   9
ATOM      9  C   UNL     1      -7.105  -4.693   5.676  1.00  0.00    -0.003 C 
ATOM     10  C   UNL     1      -7.894  -3.451   6.092  1.00  0.00     0.004 C 
ENDBRANCH   8   9
ENDBRANCH   7   8
ENDBRANCH   1   7
TORSDOF 6
ENDMDL
MODEL 4
REMARK VINA RESULT:    -3.556     10.648     11.965
REMARK INTER + INTRA:          -5.230
REMARK INTER:                  -4.930
REMARK INTRA:                  -0.300
REMARK UNBOUND:                -0.427
REMARK SMILES CCCCCCCC(=O)[O-]
REMARK SMILES IDX 5 1 6 2 7 3 8 4 9 5 10 6 4 7 3 8 2 9 1 10
REMARK H PARENT
REMARK Flexibility Score: inf
ROOT
ATOM      1  C   UNL     1       2.577  -1.725  -3.291  1.00  0.00     0.000 C 
ENDROOT
BRANCH   1   2
ATOM      2  C   UNL     1       3.047  -1.012  -2.018  1.00  0.00     0.006 C 
BRANCH   2   3
ATOM      3  C   UNL     1       4.183  -0.031  -2.323  1.00  0.00     0.053 C 
BRANCH   3   4
ATOM      4  C   UNL     1       5.376  -0.330  -1.472  1.00  0.00     0.041 C 
ATOM      5  O   UNL     1       6.401  -0.857  -1.980  1.00  0.00    -0.550 OA
ATOM      6  O   UNL     1       5.375   0.020  -0.127  1.00  0.00    -0.550 OA
ENDBRANCH   3   4
ENDBRANCH   2   3
ENDBRANCH   1   2
BRANCH   1   7
ATOM      7  C   UNL     1       1.140  -2.238  -3.139  1.00  0.00     0.000 C 
BRANCH   7   8
ATOM      8  C   UNL     1       0.569  -1.873  -1.761  1.00  0.00    -0.000 C 
BRANCH   8   9
ATOM      9  C   UNL     1       0.317  -3.106  -0.881  1.00  0.00    -0.003 C 
ATOM     10  C   UNL     1       0.634  -4.419  -1.598  1.00  0.00     0.004 C 
ENDBRANCH   8   9
ENDBRANCH   7   8
ENDBRANCH   1   7
TORSDOF 6
ENDMDL
MODEL 5
REMARK VINA RESULT:    -3.427      1.733      3.372
REMARK INTER + INTRA:          -5.056
REMARK INTER:                  -4.668
REMARK INTRA:                  -0.387
REMARK UNBOUND:                -0.427
REMARK SMILES CCCCCCCC(=O)[O-]
REMARK SMILES IDX 5 1 6 2 7 3 8 4 9 5 10 6 4 7 3 8 2 9 1 10
REMARK H PARENT
REMARK Flexibility Score: inf
ROOT
ATOM      1  C   UNL     1      -6.389  -1.789   5.461  1.00  0.00     0.000 C 
ENDROOT
BRANCH   1   2
ATOM      2  C   UNL     1      -5.104  -1.290   6.132  1.00  0.00     0.006 C 
BRANCH   2   3
ATOM      3  C   UNL     1      -5.404  -0.664   7.497  1.00  0.00     0.053 C 
BRANCH   3   4
ATOM      4  C   UNL     1      -5.669   0.801   7.356  1.00  0.00     0.041 C 
ATOM      5  O   UNL     1      -6.849   1.239   7.398  1.00  0.00    -0.550 OA
ATOM      6  O   UNL     1      -4.608   1.690   7.226  1.00  0.00    -0.550 OA
ENDBRANCH   3   4
ENDBRANCH   2   3
ENDBRANCH   1   2
BRANCH   1   7
ATOM      7  C   UNL     1      -6.714  -3.224   5.890  1.00  0.00     0.000 C 
BRANCH   7   8
ATOM      8  C   UNL     1      -7.861  -3.247   6.911  1.00  0.00    -0.000 C 
BRANCH   8   9
ATOM      9  C   UNL     1      -8.783  -2.026   6.791  1.00  0.00    -0.003 C 
ATOM     10  C   UNL     1     -10.125  -2.358   6.139  1.00  0.00     0.004 C 
ENDBRANCH   8   9
ENDBRANCH   7   8
ENDBRANCH   1   7
TORSDOF 6
ENDMDL
MODEL 6
REMARK VINA RESULT:    -3.375      2.478      4.200
REMARK INTER + INTRA:          -4.985
REMARK INTER:                  -4.444
REMARK INTRA:                  -0.542
REMARK UNBOUND:                -0.427
REMARK SMILES CCCCCCCC(=O)[O-]
REMARK SMILES IDX 5 1 6 2 7 3 8 4 9 5 10 6 4 7 3 8 2 9 1 10
REMARK H PARENT
REMARK Flexibility Score: inf
ROOT
ATOM      1  C   UNL     1      -4.685  -3.543   4.865  1.00  0.00     0.000 C 
ENDROOT
BRANCH   1   2
ATOM      2  C   UNL     1      -3.818  -4.633   5.505  1.00  0.00     0.006 C 
BRANCH   2   3
ATOM      3  C   UNL     1      -3.149  -4.124   6.784  1.00  0.00     0.053 C 
BRANCH   3   4
ATOM      4  C   UNL     1      -2.145  -3.063   6.465  1.00  0.00     0.041 C 
ATOM      5  O   UNL     1      -1.998  -2.076   7.233  1.00  0.00    -0.550 OA
ATOM      6  O   UNL     1      -1.335  -3.188   5.342  1.00  0.00    -0.550 OA
ENDBRANCH   3   4
ENDBRANCH   2   3
ENDBRANCH   1   2
BRANCH   1   7
ATOM      7  C   UNL     1      -5.987  -3.342   5.648  1.00  0.00     0.000 C 
BRANCH   7   8
ATOM      8  C   UNL     1      -6.486  -1.895   5.524  1.00  0.00    -0.000 C 
BRANCH   8   9
ATOM      9  C   UNL     1      -5.408  -0.865   5.888  1.00  0.00    -0.003 C 
ATOM     10  C   UNL     1      -5.228  -0.704   7.397  1.00  0.00     0.004 C 
ENDBRANCH   8   9
ENDBRANCH   7   8
ENDBRANCH   1   7
TORSDOF 6
ENDMDL
MODEL 7
REMARK VINA RESULT:    -3.275      3.656      5.103
REMARK INTER + INTRA:          -4.851
REMARK INTER:                  -4.415
REMARK INTRA:                  -0.435
REMARK UNBOUND:                -0.427
REMARK SMILES CCCCCCCC(=O)[O-]
REMARK SMILES IDX 5 1 6 2 7 3 8 4 9 5 10 6 4 7 3 8 2 9 1 10
REMARK H PARENT
REMARK Flexibility Score: inf
ROOT
ATOM      1  C   UNL     1      -4.854  -3.086   5.131  1.00  0.00     0.000 C 
ENDROOT
BRANCH   1   2
ATOM      2  C   UNL     1      -3.365  -2.880   5.429  1.00  0.00     0.006 C 
BRANCH   2   3
ATOM      3  C   UNL     1      -2.880  -3.851   6.510  1.00  0.00     0.053 C 
BRANCH   3   4
ATOM      4  C   UNL     1      -3.122  -5.266   6.090  1.00  0.00     0.041 C 
ATOM      5  O   UNL     1      -2.378  -5.809   5.231  1.00  0.00    -0.550 OA
ATOM      6  O   UNL     1      -4.140  -6.003   6.683  1.00  0.00    -0.550 OA
ENDBRANCH   3   4
ENDBRANCH   2   3
ENDBRANCH   1   2
BRANCH   1   7
ATOM      7  C   UNL     1      -5.729  -2.435   6.210  1.00  0.00     0.000 C 
BRANCH   7   8
ATOM      8  C   UNL     1      -6.226  -1.055   5.757  1.00  0.00    -0.000 C 
BRANCH   8   9
ATOM      9  C   UNL     1      -5.504   0.097   6.472  1.00  0.00    -0.003 C 
ATOM     10  C   UNL     1      -5.054  -0.274   7.885  1.00  0.00     0.004 C 
ENDBRANCH   8   9
ENDBRANCH   7   8
ENDBRANCH   1   7
TORSDOF 6
ENDMDL
MODEL 8
REMARK VINA RESULT:    -3.227      3.588      5.253
REMARK INTER + INTRA:          -4.787
REMARK INTER:                  -4.541
REMARK INTRA:                  -0.245
REMARK UNBOUND:                -0.427
REMARK SMILES CCCCCCCC(=O)[O-]
REMARK SMILES IDX 5 1 6 2 7 3 8 4 9 5 10 6 4 7 3 8 2 9 1 10
REMARK H PARENT
REMARK Flexibility Score: inf
ROOT
ATOM      1  C   UNL     1      -5.108  -2.350   5.789  1.00  0.00     0.000 C 
ENDROOT
BRANCH   1   2
ATOM      2  C   UNL     1      -3.818  -2.438   6.612  1.00  0.00     0.006 C 
BRANCH   2   3
ATOM      3  C   UNL     1      -2.738  -3.224   5.862  1.00  0.00     0.053 C 
BRANCH   3   4
ATOM      4  C   UNL     1      -2.808  -4.676   6.212  1.00  0.00     0.041 C 
ATOM      5  O   UNL     1      -2.348  -5.542   5.422  1.00  0.00    -0.550 OA
ATOM      6  O   UNL     1      -3.337  -5.071   7.435  1.00  0.00    -0.550 OA
ENDBRANCH   3   4
ENDBRANCH   2   3
ENDBRANCH   1   2
BRANCH   1   7
ATOM      7  C   UNL     1      -5.646  -0.915   5.758  1.00  0.00     0.000 C 
BRANCH   7   8
ATOM      8  C   UNL     1      -7.021  -0.828   6.437  1.00  0.00    -0.000 C 
BRANCH   8   9
ATOM      9  C   UNL     1      -7.738  -2.184   6.495  1.00  0.00    -0.003 C 
ATOM     10  C   UNL     1      -9.247  -2.048   6.700  1.00  0.00     0.004 C 
ENDBRANCH   8   9
ENDBRANCH   7   8
ENDBRANCH   1   7
TORSDOF 6
ENDMDL
MODEL 9
REMARK VINA RESULT:    -3.193      2.256      3.613
REMARK INTER + INTRA:          -4.740
REMARK INTER:                  -4.442
REMARK INTRA:                  -0.298
REMARK UNBOUND:                -0.427
REMARK SMILES CCCCCCCC(=O)[O-]
REMARK SMILES IDX 5 1 6 2 7 3 8 4 9 5 10 6 4 7 3 8 2 9 1 10
REMARK H PARENT
REMARK Flexibility Score: inf
ROOT
ATOM      1  C   UNL     1      -6.618  -3.401   5.758  1.00  0.00     0.000 C 
ENDROOT
BRANCH   1   2
ATOM      2  C   UNL     1      -6.188  -1.942   5.568  1.00  0.00     0.006 C 
BRANCH   2   3
ATOM      3  C   UNL     1      -7.141  -0.987   6.293  1.00  0.00     0.053 C 
BRANCH   3   4
ATOM      4  C   UNL     1      -6.390   0.177   6.855  1.00  0.00     0.041 C 
ATOM      5  O   UNL     1      -5.140   0.253   6.717  1.00  0.00    -0.550 OA
ATOM      6  O   UNL     1      -7.076   1.205   7.490  1.00  0.00    -0.550 OA
ENDBRANCH   3   4
ENDBRANCH   2   3
ENDBRANCH   1   2
BRANCH   1   7
ATOM      7  C   UNL     1      -7.938  -3.491   6.533  1.00  0.00     0.000 C 
BRANCH   7   8
ATOM      8  C   UNL     1      -8.858  -4.563   5.931  1.00  0.00    -0.000 C 
BRANCH   8   9
ATOM      9  C   UNL     1      -8.093  -5.590   5.084  1.00  0.00    -0.003 C 
ATOM     10  C   UNL     1      -8.992  -6.326   4.091  1.00  0.00     0.004 C 
ENDBRANCH   8   9
ENDBRANCH   7   8
ENDBRANCH   1   7
TORSDOF 6
ENDMDL
