MODEL 1
REMARK VINA RESULT:     7.066      0.000      0.000
REMARK INTER + INTRA:          11.862
REMARK INTER:                   9.545
REMARK INTRA:                   2.317
REMARK UNBOUND:                 2.317
REMARK SMILES O=c1c(-c2ccc(O)cc2)coc2c([C@@H]3O[C@H](CO)[C@@H](O)[C@@H](O)[C@@H]3O)c(O)ccc12
REMARK SMILES IDX 3 1 11 2 12 3 13 4 30 5 2 6 1 7 29 8 28 9 26 10 14 11 4 12
REMARK SMILES IDX 5 13 6 14 7 15 10 16 9 17 8 18 15 20 24 21 16 22 22 23 17 24
REMARK SMILES IDX 20 25 25 26 23 28 18 30 19 31 21 33 27 35
REMARK H PARENT 8 19 25 27 23 29 19 32 21 34 27 36
REMARK Flexibility Score: inf
ROOT
ATOM      1  C   UNL     1      15.954  -4.610  26.475  1.00  0.00     0.065 A 
ATOM      2  C   UNL     1      15.244  -3.403  26.559  1.00  0.00     0.208 A 
ATOM      3  O   UNL     1      15.881  -2.238  26.578  1.00  0.00    -0.463 OA
ATOM      4  C   UNL     1      17.206  -2.130  26.522  1.00  0.00     0.147 A 
ATOM      5  C   UNL     1      18.001  -3.298  26.449  1.00  0.00     0.066 A 
ATOM      6  C   UNL     1      17.359  -4.550  26.428  1.00  0.00     0.200 A 
ATOM      7  O   UNL     1      18.038  -5.613  26.390  1.00  0.00    -0.288 OA
ATOM      8  C   UNL     1      19.398  -3.184  26.411  1.00  0.00     0.020 A 
ATOM      9  C   UNL     1      20.001  -1.930  26.460  1.00  0.00     0.047 A 
ATOM     10  C   UNL     1      19.226  -0.766  26.536  1.00  0.00     0.125 A 
ATOM     11  C   UNL     1      17.812  -0.852  26.542  1.00  0.00     0.069 A 
ENDROOT
BRANCH   1  12
ATOM     12  C   UNL     1      15.220  -5.900  26.447  1.00  0.00    -0.011 A 
ATOM     13  C   UNL     1      13.814  -5.923  26.423  1.00  0.00     0.013 A 
ATOM     14  C   UNL     1      13.127  -7.140  26.405  1.00  0.00     0.047 A 
ATOM     15  C   UNL     1      13.836  -8.349  26.417  1.00  0.00     0.115 A 
ATOM     16  C   UNL     1      15.924  -7.117  26.466  1.00  0.00     0.013 A 
ATOM     17  C   UNL     1      15.234  -8.333  26.449  1.00  0.00     0.047 A 
BRANCH  15  18
ATOM     18  O   UNL     1      13.162  -9.568  26.400  1.00  0.00    -0.508 OA
ATOM     19  H   UNL     1      12.790  -9.980  27.249  1.00  0.00     0.293 HD
ENDBRANCH  15  18
ENDBRANCH   1  12
BRANCH  11  20
ATOM     20  C   UNL     1      16.940   0.394  26.647  1.00  0.00     0.188 C 
ATOM     21  C   UNL     1      15.916   0.441  25.486  1.00  0.00     0.179 C 
ATOM     22  O   UNL     1      16.278   0.431  27.900  1.00  0.00    -0.362 OA
ATOM     23  C   UNL     1      15.013   1.684  25.613  1.00  0.00     0.177 C 
ATOM     24  C   UNL     1      15.625   1.676  28.091  1.00  0.00     0.176 C 
ATOM     25  C   UNL     1      14.486   1.855  27.054  1.00  0.00     0.177 C 
BRANCH  21  26
ATOM     26  O   UNL     1      15.105  -0.708  25.503  1.00  0.00    -0.387 OA
ATOM     27  H   UNL     1      14.895  -0.934  24.558  1.00  0.00     0.211 HD
ENDBRANCH  21  26
BRANCH  23  28
ATOM     28  O   UNL     1      15.667   2.842  25.148  1.00  0.00    -0.387 OA
ATOM     29  H   UNL     1      15.045   3.609  25.226  1.00  0.00     0.211 HD
ENDBRANCH  23  28
BRANCH  24  30
ATOM     30  C   UNL     1      15.071   1.711  29.520  1.00  0.00     0.191 C 
BRANCH  30  31
ATOM     31  O   UNL     1      14.884   3.042  29.920  1.00  0.00    -0.394 OA
ATOM     32  H   UNL     1      14.692   3.554  29.091  1.00  0.00     0.210 HD
ENDBRANCH  30  31
ENDBRANCH  24  30
BRANCH  25  33
ATOM     33  O   UNL     1      13.897   3.125  27.185  1.00  0.00    -0.388 OA
ATOM     34  H   UNL     1      14.416   3.751  26.615  1.00  0.00     0.211 HD
ENDBRANCH  25  33
ENDBRANCH  11  20
BRANCH  10  35
ATOM     35  O   UNL     1      19.864   0.472  26.618  1.00  0.00    -0.507 OA
ATOM     36  H   UNL     1      19.518   1.212  27.220  1.00  0.00     0.293 HD
ENDBRANCH  10  35
TORSDOF 9
ENDMDL
MODEL 2
REMARK VINA RESULT:     7.201      6.283     12.339
REMARK INTER + INTRA:          12.043
REMARK INTER:                   9.279
REMARK INTRA:                   2.764
REMARK UNBOUND:                 2.317
REMARK SMILES O=c1c(-c2ccc(O)cc2)coc2c([C@@H]3O[C@H](CO)[C@@H](O)[C@@H](O)[C@@H]3O)c(O)ccc12
REMARK SMILES IDX 3 1 11 2 12 3 13 4 30 5 2 6 1 7 29 8 28 9 26 10 14 11 4 12
REMARK SMILES IDX 5 13 6 14 7 15 10 16 9 17 8 18 15 20 24 21 16 22 22 23 17 24
REMARK SMILES IDX 20 25 25 26 23 28 18 30 19 31 21 33 27 35
REMARK H PARENT 8 19 25 27 23 29 19 32 21 34 27 36
REMARK Flexibility Score: inf
ROOT
ATOM      1  C   UNL     1      14.198  -9.422  26.409  1.00  0.00     0.065 A 
ATOM      2  C   UNL     1      14.752 -10.707  26.515  1.00  0.00     0.208 A 
ATOM      3  O   UNL     1      14.306 -11.567  27.423  1.00  0.00    -0.463 OA
ATOM      4  C   UNL     1      13.328 -11.283  28.279  1.00  0.00     0.147 A 
ATOM      5  C   UNL     1      12.722 -10.005  28.250  1.00  0.00     0.066 A 
ATOM      6  C   UNL     1      13.170  -9.068  27.302  1.00  0.00     0.200 A 
ATOM      7  O   UNL     1      12.670  -7.910  27.266  1.00  0.00    -0.288 OA
ATOM      8  C   UNL     1      11.706  -9.699  29.167  1.00  0.00     0.020 A 
ATOM      9  C   UNL     1      11.305 -10.643  30.110  1.00  0.00     0.047 A 
ATOM     10  C   UNL     1      11.899 -11.910  30.151  1.00  0.00     0.125 A 
ATOM     11  C   UNL     1      12.904 -12.255  29.216  1.00  0.00     0.069 A 
ENDROOT
BRANCH   1  12
ATOM     12  C   UNL     1      14.707  -8.480  25.380  1.00  0.00    -0.011 A 
ATOM     13  C   UNL     1      15.264  -7.244  25.755  1.00  0.00     0.013 A 
ATOM     14  C   UNL     1      15.733  -6.357  24.782  1.00  0.00     0.047 A 
ATOM     15  C   UNL     1      15.647  -6.691  23.423  1.00  0.00     0.115 A 
ATOM     16  C   UNL     1      14.617  -8.804  24.015  1.00  0.00     0.013 A 
ATOM     17  C   UNL     1      15.088  -7.915  23.045  1.00  0.00     0.047 A 
BRANCH  15  18
ATOM     18  O   UNL     1      16.111  -5.814  22.445  1.00  0.00    -0.508 OA
ATOM     19  H   UNL     1      17.088  -5.549  22.392  1.00  0.00     0.293 HD
ENDBRANCH  15  18
ENDBRANCH   1  12
BRANCH  11  20
ATOM     20  C   UNL     1      13.587 -13.618  29.248  1.00  0.00     0.188 C 
ATOM     21  C   UNL     1      14.701 -13.694  28.175  1.00  0.00     0.179 C 
ATOM     22  O   UNL     1      14.115 -13.878  30.538  1.00  0.00    -0.362 OA
ATOM     23  C   UNL     1      15.412 -15.061  28.232  1.00  0.00     0.177 C 
ATOM     24  C   UNL     1      14.572 -15.217  30.638  1.00  0.00     0.176 C 
ATOM     25  C   UNL     1      15.772 -15.452  29.683  1.00  0.00     0.177 C 
BRANCH  21  26
ATOM     26  O   UNL     1      15.655 -12.682  28.388  1.00  0.00    -0.387 OA
ATOM     27  H   UNL     1      15.284 -11.844  28.005  1.00  0.00     0.211 HD
ENDBRANCH  21  26
BRANCH  23  28
ATOM     28  O   UNL     1      14.655 -16.060  27.587  1.00  0.00    -0.387 OA
ATOM     29  H   UNL     1      13.804 -15.659  27.278  1.00  0.00     0.211 HD
ENDBRANCH  23  28
BRANCH  24  30
ATOM     30  C   UNL     1      14.978 -15.476  32.094  1.00  0.00     0.191 C 
BRANCH  30  31
ATOM     31  O   UNL     1      15.361 -16.816  32.243  1.00  0.00    -0.394 OA
ATOM     32  H   UNL     1      14.993 -17.112  33.116  1.00  0.00     0.210 HD
ENDBRANCH  30  31
ENDBRANCH  24  30
BRANCH  25  33
ATOM     33  O   UNL     1      16.168 -16.800  29.715  1.00  0.00    -0.388 OA
ATOM     34  H   UNL     1      15.995 -17.180  28.814  1.00  0.00     0.211 HD
ENDBRANCH  25  33
ENDBRANCH  11  20
BRANCH  10  35
ATOM     35  O   UNL     1      11.497 -12.818  31.131  1.00  0.00    -0.507 OA
ATOM     36  H   UNL     1      12.141 -13.165  31.834  1.00  0.00     0.293 HD
ENDBRANCH  10  35
TORSDOF 9
ENDMDL
MODEL 3
REMARK VINA RESULT:     7.981      6.362     12.062
REMARK INTER + INTRA:          13.097
REMARK INTER:                  11.499
REMARK INTRA:                   1.599
REMARK UNBOUND:                 2.317
REMARK SMILES O=c1c(-c2ccc(O)cc2)coc2c([C@@H]3O[C@H](CO)[C@@H](O)[C@@H](O)[C@@H]3O)c(O)ccc12
REMARK SMILES IDX 3 1 11 2 12 3 13 4 30 5 2 6 1 7 29 8 28 9 26 10 14 11 4 12
REMARK SMILES IDX 5 13 6 14 7 15 10 16 9 17 8 18 15 20 24 21 16 22 22 23 17 24
REMARK SMILES IDX 20 25 25 26 23 28 18 30 19 31 21 33 27 35
REMARK H PARENT 8 19 25 27 23 29 19 32 21 34 27 36
REMARK Flexibility Score: inf
ROOT
ATOM      1  C   UNL     1      14.468  -9.057  26.286  1.00  0.00     0.065 A 
ATOM      2  C   UNL     1      15.194 -10.218  26.593  1.00  0.00     0.208 A 
ATOM      3  O   UNL     1      14.842 -10.992  27.612  1.00  0.00    -0.463 OA
ATOM      4  C   UNL     1      13.802 -10.732  28.400  1.00  0.00     0.147 A 
ATOM      5  C   UNL     1      13.022  -9.575  28.170  1.00  0.00     0.066 A 
ATOM      6  C   UNL     1      13.368  -8.730  27.099  1.00  0.00     0.200 A 
ATOM      7  O   UNL     1      12.710  -7.675  26.882  1.00  0.00    -0.288 OA
ATOM      8  C   UNL     1      11.939  -9.290  29.014  1.00  0.00     0.020 A 
ATOM      9  C   UNL     1      11.641 -10.133  30.082  1.00  0.00     0.047 A 
ATOM     10  C   UNL     1      12.407 -11.281  30.322  1.00  0.00     0.125 A 
ATOM     11  C   UNL     1      13.486 -11.609  29.465  1.00  0.00     0.069 A 
ENDROOT
BRANCH   1  12
ATOM     12  C   UNL     1      14.876  -8.212  25.136  1.00  0.00    -0.011 A 
ATOM     13  C   UNL     1      15.383  -6.917  25.344  1.00  0.00     0.013 A 
ATOM     14  C   UNL     1      15.757  -6.121  24.258  1.00  0.00     0.047 A 
ATOM     15  C   UNL     1      15.625  -6.607  22.950  1.00  0.00     0.115 A 
ATOM     16  C   UNL     1      14.740  -8.689  23.821  1.00  0.00     0.013 A 
ATOM     17  C   UNL     1      15.115  -7.891  22.736  1.00  0.00     0.047 A 
BRANCH  15  18
ATOM     18  O   UNL     1      15.995  -5.823  21.859  1.00  0.00    -0.508 OA
ATOM     19  H   UNL     1      16.959  -5.763  21.552  1.00  0.00     0.293 HD
ENDBRANCH  15  18
ENDBRANCH   1  12
BRANCH  11  20
ATOM     20  C   UNL     1      14.353 -12.837  29.712  1.00  0.00     0.188 C 
ATOM     21  C   UNL     1      13.707 -13.754  30.779  1.00  0.00     0.179 C 
ATOM     22  O   UNL     1      14.562 -13.548  28.502  1.00  0.00    -0.362 OA
ATOM     23  C   UNL     1      14.570 -15.013  31.003  1.00  0.00     0.177 C 
ATOM     24  C   UNL     1      15.526 -14.573  28.677  1.00  0.00     0.176 C 
ATOM     25  C   UNL     1      14.999 -15.649  29.662  1.00  0.00     0.177 C 
BRANCH  21  26
ATOM     26  O   UNL     1      12.424 -14.156  30.367  1.00  0.00    -0.387 OA
ATOM     27  H   UNL     1      12.497 -15.096  30.054  1.00  0.00     0.211 HD
ENDBRANCH  21  26
BRANCH  23  28
ATOM     28  O   UNL     1      15.672 -14.737  31.835  1.00  0.00    -0.387 OA
ATOM     29  H   UNL     1      15.819 -15.514  32.432  1.00  0.00     0.211 HD
ENDBRANCH  23  28
BRANCH  24  30
ATOM     30  C   UNL     1      15.822 -15.191  27.305  1.00  0.00     0.191 C 
BRANCH  30  31
ATOM     31  O   UNL     1      16.213 -14.185  26.411  1.00  0.00    -0.394 OA
ATOM     32  H   UNL     1      15.529 -13.470  26.485  1.00  0.00     0.210 HD
ENDBRANCH  30  31
ENDBRANCH  24  30
BRANCH  25  33
ATOM     33  O   UNL     1      15.987 -16.619  29.906  1.00  0.00    -0.388 OA
ATOM     34  H   UNL     1      16.032 -17.203  29.104  1.00  0.00     0.211 HD
ENDBRANCH  25  33
ENDBRANCH  11  20
BRANCH  10  35
ATOM     35  O   UNL     1      12.102 -12.085  31.420  1.00  0.00    -0.507 OA
ATOM     36  H   UNL     1      11.299 -11.898  32.012  1.00  0.00     0.293 HD
ENDBRANCH  10  35
TORSDOF 9
ENDMDL
