MODEL 1
REMARK VINA RESULT:    -4.768      0.000      0.000
REMARK INTER + INTRA:          -6.682
REMARK INTER:                  -6.300
REMARK INTRA:                  -0.381
REMARK UNBOUND:                -0.381
REMARK SMILES CCCCC=CC=CCO
REMARK SMILES IDX 5 1 6 2 4 3 3 4 2 5 1 6 7 7 8 8 9 9 10 10
REMARK H PARENT 10 11
REMARK Flexibility Score: inf
ROOT
ATOM      1  C   UNL     1     -70.681   5.396   7.442  1.00  0.00    -0.027 C 
ATOM      2  C   UNL     1     -70.696   6.561   8.094  1.00  0.00    -0.005 C 
ENDROOT
BRANCH   1   3
ATOM      3  C   UNL     1     -70.321   5.313   5.987  1.00  0.00     0.027 C 
BRANCH   3   4
ATOM      4  C   UNL     1     -70.062   6.706   5.399  1.00  0.00     0.004 C 
BRANCH   4   5
ATOM      5  C   UNL     1     -71.167   7.100   4.413  1.00  0.00    -0.003 C 
ATOM      6  C   UNL     1     -72.169   8.051   5.059  1.00  0.00     0.004 C 
ENDBRANCH   4   5
ENDBRANCH   3   4
ENDBRANCH   1   3
BRANCH   2   7
ATOM      7  C   UNL     1     -71.037   6.625   9.525  1.00  0.00    -0.002 C 
ATOM      8  C   UNL     1     -72.287   6.868   9.923  1.00  0.00     0.001 C 
BRANCH   8   9
ATOM      9  C   UNL     1     -72.641   6.941  11.379  1.00  0.00     0.183 C 
BRANCH   9  10
ATOM     10  O   UNL     1     -72.290   5.748  12.028  1.00  0.00    -0.392 OA
ATOM     11  H   UNL     1     -72.480   5.883  12.992  1.00  0.00     0.210 HD
ENDBRANCH   9  10
ENDBRANCH   8   9
ENDBRANCH   2   7
TORSDOF 6
ENDMDL
MODEL 2
REMARK VINA RESULT:    -4.710      0.905      1.736
REMARK INTER + INTRA:          -6.605
REMARK INTER:                  -6.271
REMARK INTRA:                  -0.334
REMARK UNBOUND:                -0.381
REMARK SMILES CCCCC=CC=CCO
REMARK SMILES IDX 5 1 6 2 4 3 3 4 2 5 1 6 7 7 8 8 9 9 10 10
REMARK H PARENT 10 11
REMARK Flexibility Score: inf
ROOT
ATOM      1  C   UNL     1     -70.909   5.392   7.341  1.00  0.00    -0.027 C 
ATOM      2  C   UNL     1     -70.720   6.517   8.036  1.00  0.00    -0.005 C 
ENDROOT
BRANCH   1   3
ATOM      3  C   UNL     1     -70.565   5.302   5.882  1.00  0.00     0.027 C 
BRANCH   3   4
ATOM      4  C   UNL     1     -70.202   6.679   5.311  1.00  0.00     0.004 C 
BRANCH   4   5
ATOM      5  C   UNL     1     -68.776   6.682   4.751  1.00  0.00    -0.003 C 
ATOM      6  C   UNL     1     -68.103   5.327   4.948  1.00  0.00     0.004 C 
ENDBRANCH   4   5
ENDBRANCH   3   4
ENDBRANCH   1   3
BRANCH   2   7
ATOM      7  C   UNL     1     -71.048   6.586   9.470  1.00  0.00    -0.002 C 
ATOM      8  C   UNL     1     -72.287   6.865   9.879  1.00  0.00     0.001 C 
BRANCH   8   9
ATOM      9  C   UNL     1     -72.626   6.944  11.338  1.00  0.00     0.183 C 
BRANCH   9  10
ATOM     10  O   UNL     1     -72.242   5.766  11.994  1.00  0.00    -0.392 OA
ATOM     11  H   UNL     1     -72.637   5.014  11.481  1.00  0.00     0.210 HD
ENDBRANCH   9  10
ENDBRANCH   8   9
ENDBRANCH   2   7
TORSDOF 6
ENDMDL
MODEL 3
REMARK VINA RESULT:    -4.603     16.240     17.470
REMARK INTER + INTRA:          -6.463
REMARK INTER:                  -6.284
REMARK INTRA:                  -0.180
REMARK UNBOUND:                -0.381
REMARK SMILES CCCCC=CC=CCO
REMARK SMILES IDX 5 1 6 2 4 3 3 4 2 5 1 6 7 7 8 8 9 9 10 10
REMARK H PARENT 10 11
REMARK Flexibility Score: inf
ROOT
ATOM      1  C   UNL     1     -63.128  15.291  20.027  1.00  0.00    -0.027 C 
ATOM      2  C   UNL     1     -63.172  16.589  19.718  1.00  0.00    -0.005 C 
ENDROOT
BRANCH   1   3
ATOM      3  C   UNL     1     -61.825  14.575  20.237  1.00  0.00     0.027 C 
BRANCH   3   4
ATOM      4  C   UNL     1     -62.026  13.055  20.268  1.00  0.00     0.004 C 
BRANCH   4   5
ATOM      5  C   UNL     1     -60.898  12.368  21.044  1.00  0.00    -0.003 C 
ATOM      6  C   UNL     1     -61.174  12.379  22.544  1.00  0.00     0.004 C 
ENDBRANCH   4   5
ENDBRANCH   3   4
ENDBRANCH   1   3
BRANCH   2   7
ATOM      7  C   UNL     1     -64.458  17.281  19.529  1.00  0.00    -0.002 C 
ATOM      8  C   UNL     1     -65.441  16.724  18.820  1.00  0.00     0.001 C 
BRANCH   8   9
ATOM      9  C   UNL     1     -66.751  17.426  18.619  1.00  0.00     0.183 C 
BRANCH   9  10
ATOM     10  O   UNL     1     -67.379  17.652  19.852  1.00  0.00    -0.392 OA
ATOM     11  H   UNL     1     -68.356  17.602  19.686  1.00  0.00     0.210 HD
ENDBRANCH   9  10
ENDBRANCH   8   9
ENDBRANCH   2   7
TORSDOF 6
ENDMDL
MODEL 4
REMARK VINA RESULT:    -4.602      3.247      5.507
REMARK INTER + INTRA:          -6.463
REMARK INTER:                  -6.207
REMARK INTRA:                  -0.256
REMARK UNBOUND:                -0.381
REMARK SMILES CCCCC=CC=CCO
REMARK SMILES IDX 5 1 6 2 4 3 3 4 2 5 1 6 7 7 8 8 9 9 10 10
REMARK H PARENT 10 11
REMARK Flexibility Score: inf
ROOT
ATOM      1  C   UNL     1     -70.732   7.241   7.153  1.00  0.00    -0.027 C 
ATOM      2  C   UNL     1     -71.555   7.440   6.121  1.00  0.00    -0.005 C 
ENDROOT
BRANCH   1   3
ATOM      3  C   UNL     1     -70.827   6.011   8.010  1.00  0.00     0.027 C 
BRANCH   3   4
ATOM      4  C   UNL     1     -70.970   6.378   9.493  1.00  0.00     0.004 C 
BRANCH   4   5
ATOM      5  C   UNL     1     -72.428   6.698   9.840  1.00  0.00    -0.003 C 
ATOM      6  C   UNL     1     -72.588   6.994  11.328  1.00  0.00     0.004 C 
ENDBRANCH   4   5
ENDBRANCH   3   4
ENDBRANCH   1   3
BRANCH   2   7
ATOM      7  C   UNL     1     -71.441   8.644   5.281  1.00  0.00    -0.002 C 
ATOM      8  C   UNL     1     -70.599   9.627   5.601  1.00  0.00     0.001 C 
BRANCH   8   9
ATOM      9  C   UNL     1     -70.482  10.859   4.753  1.00  0.00     0.183 C 
BRANCH   9  10
ATOM     10  O   UNL     1     -70.333  11.996   5.559  1.00  0.00    -0.392 OA
ATOM     11  H   UNL     1     -70.909  11.858   6.355  1.00  0.00     0.210 HD
ENDBRANCH   9  10
ENDBRANCH   8   9
ENDBRANCH   2   7
TORSDOF 6
ENDMDL
MODEL 5
REMARK VINA RESULT:    -4.456      1.747      2.532
REMARK INTER + INTRA:          -6.269
REMARK INTER:                  -5.970
REMARK INTRA:                  -0.299
REMARK UNBOUND:                -0.381
REMARK SMILES CCCCC=CC=CCO
REMARK SMILES IDX 5 1 6 2 4 3 3 4 2 5 1 6 7 7 8 8 9 9 10 10
REMARK H PARENT 10 11
REMARK Flexibility Score: inf
ROOT
ATOM      1  C   UNL     1     -70.404   5.267   6.364  1.00  0.00    -0.027 C 
ATOM      2  C   UNL     1     -70.605   6.374   7.083  1.00  0.00    -0.005 C 
ENDROOT
BRANCH   1   3
ATOM      3  C   UNL     1     -69.461   5.248   5.195  1.00  0.00     0.027 C 
BRANCH   3   4
ATOM      4  C   UNL     1     -68.959   6.659   4.865  1.00  0.00     0.004 C 
BRANCH   4   5
ATOM      5  C   UNL     1     -67.506   6.624   4.377  1.00  0.00    -0.003 C 
ATOM      6  C   UNL     1     -66.864   5.269   4.656  1.00  0.00     0.004 C 
ENDBRANCH   4   5
ENDBRANCH   3   4
ENDBRANCH   1   3
BRANCH   2   7
ATOM      7  C   UNL     1     -71.522   6.375   8.235  1.00  0.00    -0.002 C 
ATOM      8  C   UNL     1     -71.106   6.756   9.444  1.00  0.00     0.001 C 
BRANCH   8   9
ATOM      9  C   UNL     1     -72.032   6.753  10.624  1.00  0.00     0.183 C 
BRANCH   9  10
ATOM     10  O   UNL     1     -73.321   6.360  10.233  1.00  0.00    -0.392 OA
ATOM     11  H   UNL     1     -73.739   5.932  11.024  1.00  0.00     0.210 HD
ENDBRANCH   9  10
ENDBRANCH   8   9
ENDBRANCH   2   7
TORSDOF 6
ENDMDL
MODEL 6
REMARK VINA RESULT:    -4.378     16.514     18.085
REMARK INTER + INTRA:          -6.167
REMARK INTER:                  -5.943
REMARK INTRA:                  -0.225
REMARK UNBOUND:                -0.381
REMARK SMILES CCCCC=CC=CCO
REMARK SMILES IDX 5 1 6 2 4 3 3 4 2 5 1 6 7 7 8 8 9 9 10 10
REMARK H PARENT 10 11
REMARK Flexibility Score: inf
ROOT
ATOM      1  C   UNL     1     -62.487  18.361  19.889  1.00  0.00    -0.027 C 
ATOM      2  C   UNL     1     -63.305  17.321  19.714  1.00  0.00    -0.005 C 
ENDROOT
BRANCH   1   3
ATOM      3  C   UNL     1     -60.994  18.201  19.862  1.00  0.00     0.027 C 
BRANCH   3   4
ATOM      4  C   UNL     1     -60.568  17.140  18.839  1.00  0.00     0.004 C 
BRANCH   4   5
ATOM      5  C   UNL     1     -59.779  17.774  17.688  1.00  0.00    -0.003 C 
ATOM      6  C   UNL     1     -58.498  16.995  17.403  1.00  0.00     0.004 C 
ENDBRANCH   4   5
ENDBRANCH   3   4
ENDBRANCH   1   3
BRANCH   2   7
ATOM      7  C   UNL     1     -64.767  17.496  19.728  1.00  0.00    -0.002 C 
ATOM      8  C   UNL     1     -65.516  17.105  18.695  1.00  0.00     0.001 C 
BRANCH   8   9
ATOM      9  C   UNL     1     -67.005  17.285  18.700  1.00  0.00     0.183 C 
BRANCH   9  10
ATOM     10  O   UNL     1     -67.444  17.690  19.969  1.00  0.00    -0.392 OA
ATOM     11  H   UNL     1     -67.876  18.576  19.850  1.00  0.00     0.210 HD
ENDBRANCH   9  10
ENDBRANCH   8   9
ENDBRANCH   2   7
TORSDOF 6
ENDMDL
MODEL 7
REMARK VINA RESULT:    -4.301     16.837     18.204
REMARK INTER + INTRA:          -6.065
REMARK INTER:                  -5.745
REMARK INTRA:                  -0.319
REMARK UNBOUND:                -0.381
REMARK SMILES CCCCC=CC=CCO
REMARK SMILES IDX 5 1 6 2 4 3 3 4 2 5 1 6 7 7 8 8 9 9 10 10
REMARK H PARENT 10 11
REMARK Flexibility Score: inf
ROOT
ATOM      1  C   UNL     1     -63.200  15.724  19.974  1.00  0.00    -0.027 C 
ATOM      2  C   UNL     1     -62.935  14.469  19.604  1.00  0.00    -0.005 C 
ENDROOT
BRANCH   1   3
ATOM      3  C   UNL     1     -64.187  16.574  19.227  1.00  0.00     0.027 C 
BRANCH   3   4
ATOM      4  C   UNL     1     -63.893  18.067  19.421  1.00  0.00     0.004 C 
BRANCH   4   5
ATOM      5  C   UNL     1     -62.402  18.302  19.685  1.00  0.00    -0.003 C 
ATOM      6  C   UNL     1     -62.192  19.198  20.902  1.00  0.00     0.004 C 
ENDBRANCH   4   5
ENDBRANCH   3   4
ENDBRANCH   1   3
BRANCH   2   7
ATOM      7  C   UNL     1     -61.976  13.643  20.355  1.00  0.00    -0.002 C 
ATOM      8  C   UNL     1     -61.700  13.902  21.634  1.00  0.00     0.001 C 
BRANCH   8   9
ATOM      9  C   UNL     1     -60.719  13.068  22.404  1.00  0.00     0.183 C 
BRANCH   9  10
ATOM     10  O   UNL     1     -61.349  11.928  22.925  1.00  0.00    -0.392 OA
ATOM     11  H   UNL     1     -62.058  12.251  23.539  1.00  0.00     0.210 HD
ENDBRANCH   9  10
ENDBRANCH   8   9
ENDBRANCH   2   7
TORSDOF 6
ENDMDL
MODEL 8
REMARK VINA RESULT:    -4.248     16.164     17.425
REMARK INTER + INTRA:          -5.995
REMARK INTER:                  -5.825
REMARK INTRA:                  -0.170
REMARK UNBOUND:                -0.381
REMARK SMILES CCCCC=CC=CCO
REMARK SMILES IDX 5 1 6 2 4 3 3 4 2 5 1 6 7 7 8 8 9 9 10 10
REMARK H PARENT 10 11
REMARK Flexibility Score: inf
ROOT
ATOM      1  C   UNL     1     -63.366  15.867  19.446  1.00  0.00    -0.027 C 
ATOM      2  C   UNL     1     -62.627  15.480  20.488  1.00  0.00    -0.005 C 
ENDROOT
BRANCH   1   3
ATOM      3  C   UNL     1     -63.782  17.299  19.264  1.00  0.00     0.027 C 
BRANCH   3   4
ATOM      4  C   UNL     1     -65.261  17.496  19.620  1.00  0.00     0.004 C 
BRANCH   4   5
ATOM      5  C   UNL     1     -66.161  17.180  18.420  1.00  0.00    -0.003 C 
ATOM      6  C   UNL     1     -67.631  17.157  18.824  1.00  0.00     0.004 C 
ENDBRANCH   4   5
ENDBRANCH   3   4
ENDBRANCH   1   3
BRANCH   2   7
ATOM      7  C   UNL     1     -62.215  14.076  20.646  1.00  0.00    -0.002 C 
ATOM      8  C   UNL     1     -61.348  13.716  21.595  1.00  0.00     0.001 C 
BRANCH   8   9
ATOM      9  C   UNL     1     -60.919  12.288  21.757  1.00  0.00     0.183 C 
BRANCH   9  10
ATOM     10  O   UNL     1     -61.330  11.792  23.003  1.00  0.00    -0.392 OA
ATOM     11  H   UNL     1     -62.123  11.220  22.833  1.00  0.00     0.210 HD
ENDBRANCH   9  10
ENDBRANCH   8   9
ENDBRANCH   2   7
TORSDOF 6
ENDMDL
