MODEL 1
REMARK VINA RESULT:    -4.341      0.000      0.000
REMARK INTER + INTRA:          -6.020
REMARK INTER:                  -5.864
REMARK INTRA:                  -0.157
REMARK UNBOUND:                -0.157
REMARK SMILES [NH3+]CCCC[C@@H]([NH3+])C(=O)[O-]
REMARK SMILES IDX 4 1 3 2 2 3 1 4 5 8 6 9 7 10 8 14 9 15 10 16
REMARK H PARENT 1 5 1 6 1 7 7 11 7 12 7 13
REMARK Flexibility Score: inf
ROOT
ATOM      1  C   UNL     1      34.940  -2.151  22.945  1.00  0.00     0.012 C 
ENDROOT
BRANCH   1   2
ATOM      2  C   UNL     1      35.701  -1.880  21.635  1.00  0.00     0.061 C 
BRANCH   2   3
ATOM      3  C   UNL     1      36.151  -3.167  20.926  1.00  0.00     0.258 C 
BRANCH   3   4
ATOM      4  N   UNL     1      35.281  -4.288  21.279  1.00  0.00    -0.358 N 
ATOM      5  H   UNL     1      35.128  -4.314  22.314  1.00  0.00     0.344 HD
ATOM      6  H   UNL     1      34.361  -4.197  20.788  1.00  0.00     0.344 HD
ATOM      7  H   UNL     1      35.736  -5.181  20.983  1.00  0.00     0.344 HD
ENDBRANCH   3   4
ENDBRANCH   2   3
ENDBRANCH   1   2
BRANCH   1   8
ATOM      8  C   UNL     1      35.764  -1.958  24.234  1.00  0.00     0.072 C 
BRANCH   8   9
ATOM      9  C   UNL     1      34.928  -1.699  25.511  1.00  0.00     0.227 C 
BRANCH   9  10
ATOM     10  N   UNL     1      34.190  -0.431  25.432  1.00  0.00    -0.350 N 
ATOM     11  H   UNL     1      33.646  -0.387  24.540  1.00  0.00     0.345 HD
ATOM     12  H   UNL     1      34.861   0.372  25.432  1.00  0.00     0.345 HD
ATOM     13  H   UNL     1      33.537  -0.330  26.243  1.00  0.00     0.345 HD
ENDBRANCH   9  10
BRANCH   9  14
ATOM     14  C   UNL     1      33.971  -2.843  25.717  1.00  0.00     0.099 C 
ATOM     15  O   UNL     1      34.406  -3.990  25.997  1.00  0.00    -0.544 OA
ATOM     16  O   UNL     1      32.603  -2.649  25.566  1.00  0.00    -0.544 OA
ENDBRANCH   9  14
ENDBRANCH   8   9
ENDBRANCH   1   8
TORSDOF 7
ENDMDL
MODEL 2
REMARK VINA RESULT:    -4.234     24.016     25.004
REMARK INTER + INTRA:          -5.876
REMARK INTER:                  -5.775
REMARK INTRA:                  -0.101
REMARK UNBOUND:                -0.157
REMARK SMILES [NH3+]CCCC[C@@H]([NH3+])C(=O)[O-]
REMARK SMILES IDX 4 1 3 2 2 3 1 4 5 8 6 9 7 10 8 14 9 15 10 16
REMARK H PARENT 1 5 1 6 1 7 7 11 7 12 7 13
REMARK Flexibility Score: inf
ROOT
ATOM      1  C   UNL     1      19.918   8.636   6.910  1.00  0.00     0.012 C 
ENDROOT
BRANCH   1   2
ATOM      2  C   UNL     1      18.740   9.478   6.389  1.00  0.00     0.061 C 
BRANCH   2   3
ATOM      3  C   UNL     1      18.933  10.985   6.618  1.00  0.00     0.258 C 
BRANCH   3   4
ATOM      4  N   UNL     1      20.220  11.432   6.085  1.00  0.00    -0.358 N 
ATOM      5  H   UNL     1      20.420  12.410   6.398  1.00  0.00     0.344 HD
ATOM      6  H   UNL     1      20.984  10.794   6.409  1.00  0.00     0.344 HD
ATOM      7  H   UNL     1      20.183  11.412   5.040  1.00  0.00     0.344 HD
ENDBRANCH   3   4
ENDBRANCH   2   3
ENDBRANCH   1   2
BRANCH   1   8
ATOM      8  C   UNL     1      19.903   7.153   6.486  1.00  0.00     0.072 C 
BRANCH   8   9
ATOM      9  C   UNL     1      21.242   6.621   5.922  1.00  0.00     0.227 C 
BRANCH   9  10
ATOM     10  N   UNL     1      22.366   7.504   6.262  1.00  0.00    -0.350 N 
ATOM     11  H   UNL     1      22.243   8.436   5.805  1.00  0.00     0.345 HD
ATOM     12  H   UNL     1      23.261   7.095   5.907  1.00  0.00     0.345 HD
ATOM     13  H   UNL     1      22.437   7.633   7.299  1.00  0.00     0.345 HD
ENDBRANCH   9  10
BRANCH   9  14
ATOM     14  C   UNL     1      21.491   5.237   6.458  1.00  0.00     0.099 C 
ATOM     15  O   UNL     1      20.788   4.787   7.401  1.00  0.00    -0.544 OA
ATOM     16  O   UNL     1      22.518   4.457   5.940  1.00  0.00    -0.544 OA
ENDBRANCH   9  14
ENDBRANCH   8   9
ENDBRANCH   1   8
TORSDOF 7
ENDMDL
MODEL 3
REMARK VINA RESULT:    -4.170      1.985      2.311
REMARK INTER + INTRA:          -5.789
REMARK INTER:                  -5.643
REMARK INTRA:                  -0.146
REMARK UNBOUND:                -0.157
REMARK SMILES [NH3+]CCCC[C@@H]([NH3+])C(=O)[O-]
REMARK SMILES IDX 4 1 3 2 2 3 1 4 5 8 6 9 7 10 8 14 9 15 10 16
REMARK H PARENT 1 5 1 6 1 7 7 11 7 12 7 13
REMARK Flexibility Score: inf
ROOT
ATOM      1  C   UNL     1      34.656  -1.671  22.874  1.00  0.00     0.012 C 
ENDROOT
BRANCH   1   2
ATOM      2  C   UNL     1      35.624  -1.635  21.678  1.00  0.00     0.061 C 
BRANCH   2   3
ATOM      3  C   UNL     1      35.782  -3.002  20.994  1.00  0.00     0.258 C 
BRANCH   3   4
ATOM      4  N   UNL     1      37.121  -3.147  20.425  1.00  0.00    -0.358 N 
ATOM      5  H   UNL     1      37.138  -2.784  19.444  1.00  0.00     0.344 HD
ATOM      6  H   UNL     1      37.817  -2.626  21.007  1.00  0.00     0.344 HD
ATOM      7  H   UNL     1      37.380  -4.161  20.414  1.00  0.00     0.344 HD
ENDBRANCH   3   4
ENDBRANCH   2   3
ENDBRANCH   1   2
BRANCH   1   8
ATOM      8  C   UNL     1      34.789  -2.905  23.788  1.00  0.00     0.072 C 
BRANCH   8   9
ATOM      9  C   UNL     1      34.319  -2.691  25.248  1.00  0.00     0.227 C 
BRANCH   9  10
ATOM     10  N   UNL     1      34.510  -3.898  26.064  1.00  0.00    -0.350 N 
ATOM     11  H   UNL     1      35.419  -3.844  26.578  1.00  0.00     0.345 HD
ATOM     12  H   UNL     1      34.545  -4.743  25.449  1.00  0.00     0.345 HD
ATOM     13  H   UNL     1      33.728  -4.008  26.752  1.00  0.00     0.345 HD
ENDBRANCH   9  10
BRANCH   9  14
ATOM     14  C   UNL     1      35.075  -1.536  25.847  1.00  0.00     0.099 C 
ATOM     15  O   UNL     1      34.477  -0.463  26.125  1.00  0.00    -0.544 OA
ATOM     16  O   UNL     1      36.445  -1.632  26.068  1.00  0.00    -0.544 OA
ENDBRANCH   9  14
ENDBRANCH   8   9
ENDBRANCH   1   8
TORSDOF 7
ENDMDL
MODEL 4
REMARK VINA RESULT:    -3.708      2.859      4.556
REMARK INTER + INTRA:          -5.166
REMARK INTER:                  -5.052
REMARK INTRA:                  -0.114
REMARK UNBOUND:                -0.157
REMARK SMILES [NH3+]CCCC[C@@H]([NH3+])C(=O)[O-]
REMARK SMILES IDX 4 1 3 2 2 3 1 4 5 8 6 9 7 10 8 14 9 15 10 16
REMARK H PARENT 1 5 1 6 1 7 7 11 7 12 7 13
REMARK Flexibility Score: inf
ROOT
ATOM      1  C   UNL     1      34.997  -1.805  24.541  1.00  0.00     0.012 C 
ENDROOT
BRANCH   1   2
ATOM      2  C   UNL     1      34.456  -3.131  25.105  1.00  0.00     0.061 C 
BRANCH   2   3
ATOM      3  C   UNL     1      33.183  -2.950  25.947  1.00  0.00     0.258 C 
BRANCH   3   4
ATOM      4  N   UNL     1      32.224  -2.084  25.262  1.00  0.00    -0.358 N 
ATOM      5  H   UNL     1      31.465  -1.795  25.921  1.00  0.00     0.344 HD
ATOM      6  H   UNL     1      32.709  -1.236  24.887  1.00  0.00     0.344 HD
ATOM      7  H   UNL     1      31.797  -2.610  24.465  1.00  0.00     0.344 HD
ENDBRANCH   3   4
ENDBRANCH   2   3
ENDBRANCH   1   2
BRANCH   1   8
ATOM      8  C   UNL     1      36.020  -1.948  23.397  1.00  0.00     0.072 C 
BRANCH   8   9
ATOM      9  C   UNL     1      35.412  -1.960  21.974  1.00  0.00     0.227 C 
BRANCH   9  10
ATOM     10  N   UNL     1      35.817  -0.781  21.197  1.00  0.00    -0.350 N 
ATOM     11  H   UNL     1      36.634  -1.015  20.588  1.00  0.00     0.345 HD
ATOM     12  H   UNL     1      36.115  -0.014  21.843  1.00  0.00     0.345 HD
ATOM     13  H   UNL     1      35.028  -0.438  20.602  1.00  0.00     0.345 HD
ENDBRANCH   9  10
BRANCH   9  14
ATOM     14  C   UNL     1      35.836  -3.218  21.264  1.00  0.00     0.099 C 
ATOM     15  O   UNL     1      35.054  -4.202  21.196  1.00  0.00    -0.544 OA
ATOM     16  O   UNL     1      37.107  -3.315  20.708  1.00  0.00    -0.544 OA
ENDBRANCH   9  14
ENDBRANCH   8   9
ENDBRANCH   1   8
TORSDOF 7
ENDMDL
MODEL 5
REMARK VINA RESULT:    -3.673     22.259     23.256
REMARK INTER + INTRA:          -5.118
REMARK INTER:                  -5.015
REMARK INTRA:                  -0.103
REMARK UNBOUND:                -0.157
REMARK SMILES [NH3+]CCCC[C@@H]([NH3+])C(=O)[O-]
REMARK SMILES IDX 4 1 3 2 2 3 1 4 5 8 6 9 7 10 8 14 9 15 10 16
REMARK H PARENT 1 5 1 6 1 7 7 11 7 12 7 13
REMARK Flexibility Score: inf
ROOT
ATOM      1  C   UNL     1      21.967   4.136   7.077  1.00  0.00     0.012 C 
ENDROOT
BRANCH   1   2
ATOM      2  C   UNL     1      22.067   2.689   6.558  1.00  0.00     0.061 C 
BRANCH   2   3
ATOM      3  C   UNL     1      22.731   1.737   7.565  1.00  0.00     0.258 C 
BRANCH   3   4
ATOM      4  N   UNL     1      23.827   0.998   6.938  1.00  0.00    -0.358 N 
ATOM      5  H   UNL     1      24.742   1.291   7.353  1.00  0.00     0.344 HD
ATOM      6  H   UNL     1      23.690  -0.030   7.074  1.00  0.00     0.344 HD
ATOM      7  H   UNL     1      23.838   1.207   5.914  1.00  0.00     0.344 HD
ENDBRANCH   3   4
ENDBRANCH   2   3
ENDBRANCH   1   2
BRANCH   1   8
ATOM      8  C   UNL     1      21.396   5.155   6.071  1.00  0.00     0.072 C 
BRANCH   8   9
ATOM      9  C   UNL     1      20.337   6.123   6.653  1.00  0.00     0.227 C 
BRANCH   9  10
ATOM     10  N   UNL     1      20.203   5.973   8.108  1.00  0.00    -0.350 N 
ATOM     11  H   UNL     1      19.382   5.366   8.333  1.00  0.00     0.345 HD
ATOM     12  H   UNL     1      20.034   6.906   8.549  1.00  0.00     0.345 HD
ATOM     13  H   UNL     1      21.068   5.552   8.520  1.00  0.00     0.345 HD
ENDBRANCH   9  10
BRANCH   9  14
ATOM     14  C   UNL     1      20.719   7.538   6.312  1.00  0.00     0.099 C 
ATOM     15  O   UNL     1      21.882   7.800   5.907  1.00  0.00    -0.544 OA
ATOM     16  O   UNL     1      19.802   8.571   6.472  1.00  0.00    -0.544 OA
ENDBRANCH   9  14
ENDBRANCH   8   9
ENDBRANCH   1   8
TORSDOF 7
ENDMDL
MODEL 6
REMARK VINA RESULT:    -3.658      2.947      4.578
REMARK INTER + INTRA:          -5.098
REMARK INTER:                  -4.944
REMARK INTRA:                  -0.154
REMARK UNBOUND:                -0.157
REMARK SMILES [NH3+]CCCC[C@@H]([NH3+])C(=O)[O-]
REMARK SMILES IDX 4 1 3 2 2 3 1 4 5 8 6 9 7 10 8 14 9 15 10 16
REMARK H PARENT 1 5 1 6 1 7 7 11 7 12 7 13
REMARK Flexibility Score: inf
ROOT
ATOM      1  C   UNL     1      34.218  -1.915  25.796  1.00  0.00     0.012 C 
ENDROOT
BRANCH   1   2
ATOM      2  C   UNL     1      33.159  -3.025  25.921  1.00  0.00     0.061 C 
BRANCH   2   3
ATOM      3  C   UNL     1      31.728  -2.477  26.043  1.00  0.00     0.258 C 
BRANCH   3   4
ATOM      4  N   UNL     1      30.758  -3.568  26.125  1.00  0.00    -0.358 N 
ATOM      5  H   UNL     1      30.363  -3.770  25.178  1.00  0.00     0.344 HD
ATOM      6  H   UNL     1      31.215  -4.427  26.509  1.00  0.00     0.344 HD
ATOM      7  H   UNL     1      29.978  -3.285  26.763  1.00  0.00     0.344 HD
ENDBRANCH   3   4
ENDBRANCH   2   3
ENDBRANCH   1   2
BRANCH   1   8
ATOM      8  C   UNL     1      35.085  -1.976  24.523  1.00  0.00     0.072 C 
BRANCH   8   9
ATOM      9  C   UNL     1      34.293  -1.963  23.193  1.00  0.00     0.227 C 
BRANCH   9  10
ATOM     10  N   UNL     1      33.517  -0.726  23.032  1.00  0.00    -0.350 N 
ATOM     11  H   UNL     1      32.609  -0.801  23.546  1.00  0.00     0.345 HD
ATOM     12  H   UNL     1      33.295  -0.573  22.021  1.00  0.00     0.345 HD
ATOM     13  H   UNL     1      34.052   0.098  23.392  1.00  0.00     0.345 HD
ENDBRANCH   9  10
BRANCH   9  14
ATOM     14  C   UNL     1      35.251  -2.126  22.044  1.00  0.00     0.099 C 
ATOM     15  O   UNL     1      35.770  -1.114  21.504  1.00  0.00    -0.544 OA
ATOM     16  O   UNL     1      35.546  -3.391  21.549  1.00  0.00    -0.544 OA
ENDBRANCH   9  14
ENDBRANCH   8   9
ENDBRANCH   1   8
TORSDOF 7
ENDMDL
MODEL 7
REMARK VINA RESULT:    -3.592      2.700      4.155
REMARK INTER + INTRA:          -5.009
REMARK INTER:                  -4.681
REMARK INTRA:                  -0.328
REMARK UNBOUND:                -0.157
REMARK SMILES [NH3+]CCCC[C@@H]([NH3+])C(=O)[O-]
REMARK SMILES IDX 4 1 3 2 2 3 1 4 5 8 6 9 7 10 8 14 9 15 10 16
REMARK H PARENT 1 5 1 6 1 7 7 11 7 12 7 13
REMARK Flexibility Score: inf
ROOT
ATOM      1  C   UNL     1      33.474  -3.347  25.818  1.00  0.00     0.012 C 
ENDROOT
BRANCH   1   2
ATOM      2  C   UNL     1      31.981  -3.567  26.125  1.00  0.00     0.061 C 
BRANCH   2   3
ATOM      3  C   UNL     1      31.125  -2.318  25.861  1.00  0.00     0.258 C 
BRANCH   3   4
ATOM      4  N   UNL     1      31.110  -1.988  24.437  1.00  0.00    -0.358 N 
ATOM      5  H   UNL     1      32.086  -1.981  24.058  1.00  0.00     0.344 HD
ATOM      6  H   UNL     1      30.533  -2.686  23.913  1.00  0.00     0.344 HD
ATOM      7  H   UNL     1      30.692  -1.038  24.310  1.00  0.00     0.344 HD
ENDBRANCH   3   4
ENDBRANCH   2   3
ENDBRANCH   1   2
BRANCH   1   8
ATOM      8  C   UNL     1      34.003  -1.932  26.119  1.00  0.00     0.072 C 
BRANCH   8   9
ATOM      9  C   UNL     1      35.144  -1.450  25.191  1.00  0.00     0.227 C 
BRANCH   9  10
ATOM     10  N   UNL     1      36.432  -2.060  25.549  1.00  0.00    -0.350 N 
ATOM     11  H   UNL     1      36.408  -3.088  25.361  1.00  0.00     0.345 HD
ATOM     12  H   UNL     1      36.617  -1.930  26.570  1.00  0.00     0.345 HD
ATOM     13  H   UNL     1      37.213  -1.626  25.003  1.00  0.00     0.345 HD
ENDBRANCH   9  10
BRANCH   9  14
ATOM     14  C   UNL     1      34.795  -1.779  23.764  1.00  0.00     0.099 C 
ATOM     15  O   UNL     1      35.556  -2.510  23.078  1.00  0.00    -0.544 OA
ATOM     16  O   UNL     1      33.647  -1.252  23.183  1.00  0.00    -0.544 OA
ENDBRANCH   9  14
ENDBRANCH   8   9
ENDBRANCH   1   8
TORSDOF 7
ENDMDL
MODEL 8
REMARK VINA RESULT:    -3.585     23.183     24.215
REMARK INTER + INTRA:          -4.999
REMARK INTER:                  -4.929
REMARK INTRA:                  -0.071
REMARK UNBOUND:                -0.157
REMARK SMILES [NH3+]CCCC[C@@H]([NH3+])C(=O)[O-]
REMARK SMILES IDX 4 1 3 2 2 3 1 4 5 8 6 9 7 10 8 14 9 15 10 16
REMARK H PARENT 1 5 1 6 1 7 7 11 7 12 7 13
REMARK Flexibility Score: inf
ROOT
ATOM      1  C   UNL     1      20.485   7.395   6.232  1.00  0.00     0.012 C 
ENDROOT
BRANCH   1   2
ATOM      2  C   UNL     1      19.528   8.211   7.119  1.00  0.00     0.061 C 
BRANCH   2   3
ATOM      3  C   UNL     1      18.952   9.444   6.403  1.00  0.00     0.258 C 
BRANCH   3   4
ATOM      4  N   UNL     1      19.431  10.678   7.024  1.00  0.00    -0.358 N 
ATOM      5  H   UNL     1      19.770  11.343   6.291  1.00  0.00     0.344 HD
ATOM      6  H   UNL     1      18.662  11.123   7.578  1.00  0.00     0.344 HD
ATOM      7  H   UNL     1      20.224  10.452   7.667  1.00  0.00     0.344 HD
ENDBRANCH   3   4
ENDBRANCH   2   3
ENDBRANCH   1   2
BRANCH   1   8
ATOM      8  C   UNL     1      20.655   5.918   6.637  1.00  0.00     0.072 C 
BRANCH   8   9
ATOM      9  C   UNL     1      21.839   5.187   5.958  1.00  0.00     0.227 C 
BRANCH   9  10
ATOM     10  N   UNL     1      23.091   5.946   6.082  1.00  0.00    -0.350 N 
ATOM     11  H   UNL     1      23.584   5.685   6.967  1.00  0.00     0.345 HD
ATOM     12  H   UNL     1      22.884   6.970   6.126  1.00  0.00     0.345 HD
ATOM     13  H   UNL     1      23.721   5.759   5.266  1.00  0.00     0.345 HD
ENDBRANCH   9  10
BRANCH   9  14
ATOM     14  C   UNL     1      21.998   3.823   6.574  1.00  0.00     0.099 C 
ATOM     15  O   UNL     1      21.576   3.601   7.740  1.00  0.00    -0.544 OA
ATOM     16  O   UNL     1      22.640   2.807   5.875  1.00  0.00    -0.544 OA
ENDBRANCH   9  14
ENDBRANCH   8   9
ENDBRANCH   1   8
TORSDOF 7
ENDMDL
MODEL 9
REMARK VINA RESULT:    -3.367     22.562     23.532
REMARK INTER + INTRA:          -4.704
REMARK INTER:                  -4.546
REMARK INTRA:                  -0.158
REMARK UNBOUND:                -0.157
REMARK SMILES [NH3+]CCCC[C@@H]([NH3+])C(=O)[O-]
REMARK SMILES IDX 4 1 3 2 2 3 1 4 5 8 6 9 7 10 8 14 9 15 10 16
REMARK H PARENT 1 5 1 6 1 7 7 11 7 12 7 13
REMARK Flexibility Score: inf
ROOT
ATOM      1  C   UNL     1      21.794   5.286   6.155  1.00  0.00     0.012 C 
ENDROOT
BRANCH   1   2
ATOM      2  C   UNL     1      21.770   4.042   7.061  1.00  0.00     0.061 C 
BRANCH   2   3
ATOM      3  C   UNL     1      22.268   2.773   6.351  1.00  0.00     0.258 C 
BRANCH   3   4
ATOM      4  N   UNL     1      22.873   1.846   7.306  1.00  0.00    -0.358 N 
ATOM      5  H   UNL     1      23.660   1.325   6.853  1.00  0.00     0.344 HD
ATOM      6  H   UNL     1      23.228   2.369   8.139  1.00  0.00     0.344 HD
ATOM      7  H   UNL     1      22.150   1.158   7.620  1.00  0.00     0.344 HD
ENDBRANCH   3   4
ENDBRANCH   2   3
ENDBRANCH   1   2
BRANCH   1   8
ATOM      8  C   UNL     1      20.423   5.947   5.912  1.00  0.00     0.072 C 
BRANCH   8   9
ATOM      9  C   UNL     1      20.292   7.394   6.445  1.00  0.00     0.227 C 
BRANCH   9  10
ATOM     10  N   UNL     1      19.103   8.068   5.906  1.00  0.00    -0.350 N 
ATOM     11  H   UNL     1      18.406   7.361   5.578  1.00  0.00     0.345 HD
ATOM     12  H   UNL     1      19.368   8.655   5.082  1.00  0.00     0.345 HD
ATOM     13  H   UNL     1      18.661   8.679   6.632  1.00  0.00     0.345 HD
ENDBRANCH   9  10
BRANCH   9  14
ATOM     14  C   UNL     1      20.233   7.365   7.949  1.00  0.00     0.099 C 
ATOM     15  O   UNL     1      20.816   8.254   8.623  1.00  0.00    -0.544 OA
ATOM     16  O   UNL     1      19.564   6.338   8.605  1.00  0.00    -0.544 OA
ENDBRANCH   9  14
ENDBRANCH   8   9
ENDBRANCH   1   8
TORSDOF 7
ENDMDL
