MODEL 1
REMARK VINA RESULT:    -6.979      0.000      0.000
REMARK INTER + INTRA:         -11.887
REMARK INTER:                 -10.651
REMARK INTRA:                  -1.237
REMARK UNBOUND:                -1.237
REMARK SMILES CC(=O)CCC=C(C)CCC=C(C)CCC=C(C)C
REMARK SMILES IDX 10 1 11 2 12 3 13 4 14 5 15 6 16 7 18 8 17 9 19 10 9 11 7 12
REMARK SMILES IDX 6 13 8 14 5 15 4 16 2 17 3 18 1 19
REMARK H PARENT
REMARK Flexibility Score: inf
ROOT
ATOM      1  C   UNL     1      -5.141  29.973  29.473  1.00  0.00     0.032 C 
ENDROOT
BRANCH   1   2
ATOM      2  C   UNL     1      -5.271  28.473  29.549  1.00  0.00    -0.028 C 
ATOM      3  C   UNL     1      -4.242  27.619  29.745  1.00  0.00    -0.077 C 
ATOM      4  C   UNL     1      -4.534  26.140  29.742  1.00  0.00     0.039 C 
BRANCH   3   5
ATOM      5  C   UNL     1      -2.818  28.083  29.999  1.00  0.00     0.034 C 
BRANCH   5   6
ATOM      6  C   UNL     1      -1.991  28.138  28.707  1.00  0.00     0.032 C 
BRANCH   6   7
ATOM      7  C   UNL     1      -0.810  27.197  28.770  1.00  0.00    -0.028 C 
ATOM      8  C   UNL     1      -1.750  25.617  27.069  1.00  0.00     0.039 C 
ATOM      9  C   UNL     1      -0.680  26.075  28.027  1.00  0.00    -0.080 C 
ATOM     10  C   UNL     1       0.579  25.252  28.127  1.00  0.00     0.039 C 
ENDBRANCH   6   7
ENDBRANCH   5   6
ENDBRANCH   3   5
ENDBRANCH   1   2
BRANCH   1  11
ATOM     11  C   UNL     1      -5.905  30.524  28.264  1.00  0.00     0.034 C 
BRANCH  11  12
ATOM     12  C   UNL     1      -5.100  31.594  27.559  1.00  0.00    -0.077 C 
ATOM     13  C   UNL     1      -5.726  32.429  26.700  1.00  0.00    -0.028 C 
ATOM     14  C   UNL     1      -3.621  31.718  27.841  1.00  0.00     0.039 C 
BRANCH  13  15
ATOM     15  C   UNL     1      -5.012  33.529  25.950  1.00  0.00     0.035 C 
BRANCH  15  16
ATOM     16  C   UNL     1      -4.670  33.121  24.511  1.00  0.00     0.079 C 
BRANCH  16  17
ATOM     17  C   UNL     1      -5.486  33.888  23.503  1.00  0.00     0.130 C 
ATOM     18  O   UNL     1      -5.813  35.040  23.740  1.00  0.00    -0.300 OA
ATOM     19  C   UNL     1      -5.878  33.269  22.195  1.00  0.00     0.087 C 
ENDBRANCH  16  17
ENDBRANCH  15  16
ENDBRANCH  13  15
ENDBRANCH  11  12
ENDBRANCH   1  11
TORSDOF 9
ENDMDL
MODEL 2
REMARK VINA RESULT:    -6.951      0.981      1.260
REMARK INTER + INTRA:         -11.845
REMARK INTER:                 -10.966
REMARK INTRA:                  -0.878
REMARK UNBOUND:                -1.237
REMARK SMILES CC(=O)CCC=C(C)CCC=C(C)CCC=C(C)C
REMARK SMILES IDX 10 1 11 2 12 3 13 4 14 5 15 6 16 7 18 8 17 9 19 10 9 11 7 12
REMARK SMILES IDX 6 13 8 14 5 15 4 16 2 17 3 18 1 19
REMARK H PARENT
REMARK Flexibility Score: inf
ROOT
ATOM      1  C   UNL     1      -5.665  29.919  28.443  1.00  0.00     0.032 C 
ENDROOT
BRANCH   1   2
ATOM      2  C   UNL     1      -4.803  29.821  29.676  1.00  0.00    -0.028 C 
ATOM      3  C   UNL     1      -3.948  28.806  29.940  1.00  0.00    -0.077 C 
ATOM      4  C   UNL     1      -3.197  28.831  31.247  1.00  0.00     0.039 C 
BRANCH   3   5
ATOM      5  C   UNL     1      -3.690  27.667  28.969  1.00  0.00     0.034 C 
BRANCH   5   6
ATOM      6  C   UNL     1      -2.598  28.016  27.948  1.00  0.00     0.032 C 
BRANCH   6   7
ATOM      7  C   UNL     1      -1.288  27.346  28.294  1.00  0.00    -0.028 C 
ATOM      8  C   UNL     1      -1.883  25.194  27.158  1.00  0.00     0.039 C 
ATOM      9  C   UNL     1      -0.947  26.089  27.929  1.00  0.00    -0.080 C 
ATOM     10  C   UNL     1       0.419  25.554  28.275  1.00  0.00     0.039 C 
ENDBRANCH   6   7
ENDBRANCH   5   6
ENDBRANCH   3   5
ENDBRANCH   1   2
BRANCH   1  11
ATOM     11  C   UNL     1      -6.092  31.370  28.194  1.00  0.00     0.034 C 
BRANCH  11  12
ATOM     12  C   UNL     1      -5.197  32.027  27.166  1.00  0.00    -0.077 C 
ATOM     13  C   UNL     1      -5.688  32.282  25.933  1.00  0.00    -0.028 C 
ATOM     14  C   UNL     1      -3.781  32.397  27.541  1.00  0.00     0.039 C 
BRANCH  13  15
ATOM     15  C   UNL     1      -4.876  32.935  24.839  1.00  0.00     0.035 C 
BRANCH  15  16
ATOM     16  C   UNL     1      -5.610  34.123  24.205  1.00  0.00     0.079 C 
BRANCH  16  17
ATOM     17  C   UNL     1      -5.527  34.095  22.701  1.00  0.00     0.130 C 
ATOM     18  O   UNL     1      -5.006  35.026  22.106  1.00  0.00    -0.300 OA
ATOM     19  C   UNL     1      -6.045  32.925  21.921  1.00  0.00     0.087 C 
ENDBRANCH  16  17
ENDBRANCH  15  16
ENDBRANCH  13  15
ENDBRANCH  11  12
ENDBRANCH   1  11
TORSDOF 9
ENDMDL
MODEL 3
REMARK VINA RESULT:    -6.697      2.515      7.723
REMARK INTER + INTRA:         -11.457
REMARK INTER:                 -10.451
REMARK INTRA:                  -1.005
REMARK UNBOUND:                -1.237
REMARK SMILES CC(=O)CCC=C(C)CCC=C(C)CCC=C(C)C
REMARK SMILES IDX 10 1 11 2 12 3 13 4 14 5 15 6 16 7 18 8 17 9 19 10 9 11 7 12
REMARK SMILES IDX 6 13 8 14 5 15 4 16 2 17 3 18 1 19
REMARK H PARENT
REMARK Flexibility Score: inf
ROOT
ATOM      1  C   UNL     1      -5.310  29.838  28.320  1.00  0.00     0.032 C 
ENDROOT
BRANCH   1   2
ATOM      2  C   UNL     1      -4.254  30.897  28.127  1.00  0.00    -0.028 C 
ATOM      3  C   UNL     1      -4.401  32.001  27.359  1.00  0.00    -0.077 C 
ATOM      4  C   UNL     1      -3.226  32.937  27.227  1.00  0.00     0.039 C 
BRANCH   3   5
ATOM      5  C   UNL     1      -5.699  32.351  26.653  1.00  0.00     0.034 C 
BRANCH   5   6
ATOM      6  C   UNL     1      -5.606  33.687  25.904  1.00  0.00     0.032 C 
BRANCH   6   7
ATOM      7  C   UNL     1      -6.119  33.561  24.488  1.00  0.00    -0.028 C 
ATOM      8  C   UNL     1      -3.849  33.156  23.510  1.00  0.00     0.039 C 
ATOM      9  C   UNL     1      -5.345  33.303  23.409  1.00  0.00    -0.080 C 
ATOM     10  C   UNL     1      -5.983  33.130  22.055  1.00  0.00     0.039 C 
ENDBRANCH   6   7
ENDBRANCH   5   6
ENDBRANCH   3   5
ENDBRANCH   1   2
BRANCH   1  11
ATOM     11  C   UNL     1      -5.254  29.269  29.742  1.00  0.00     0.034 C 
BRANCH  11  12
ATOM     12  C   UNL     1      -4.209  28.178  29.845  1.00  0.00    -0.077 C 
ATOM     13  C   UNL     1      -2.923  28.520  30.074  1.00  0.00    -0.028 C 
ATOM     14  C   UNL     1      -4.628  26.733  29.705  1.00  0.00     0.039 C 
BRANCH  13  15
ATOM     15  C   UNL     1      -1.808  27.507  30.195  1.00  0.00     0.035 C 
BRANCH  15  16
ATOM     16  C   UNL     1      -0.821  27.590  29.023  1.00  0.00     0.079 C 
BRANCH  16  17
ATOM     17  C   UNL     1      -0.899  26.373  28.138  1.00  0.00     0.130 C 
ATOM     18  O   UNL     1      -1.912  26.161  27.489  1.00  0.00    -0.300 OA
ATOM     19  C   UNL     1       0.261  25.432  28.016  1.00  0.00     0.087 C 
ENDBRANCH  16  17
ENDBRANCH  15  16
ENDBRANCH  13  15
ENDBRANCH  11  12
ENDBRANCH   1  11
TORSDOF 9
ENDMDL
MODEL 4
REMARK VINA RESULT:    -6.504      1.114      1.685
REMARK INTER + INTRA:         -11.162
REMARK INTER:                 -10.293
REMARK INTRA:                  -0.869
REMARK UNBOUND:                -1.237
REMARK SMILES CC(=O)CCC=C(C)CCC=C(C)CCC=C(C)C
REMARK SMILES IDX 10 1 11 2 12 3 13 4 14 5 15 6 16 7 18 8 17 9 19 10 9 11 7 12
REMARK SMILES IDX 6 13 8 14 5 15 4 16 2 17 3 18 1 19
REMARK H PARENT
REMARK Flexibility Score: inf
ROOT
ATOM      1  C   UNL     1      -5.389  30.007  28.402  1.00  0.00     0.032 C 
ENDROOT
BRANCH   1   2
ATOM      2  C   UNL     1      -4.597  29.770  29.662  1.00  0.00    -0.028 C 
ATOM      3  C   UNL     1      -3.854  28.667  29.910  1.00  0.00    -0.077 C 
ATOM      4  C   UNL     1      -3.163  28.559  31.246  1.00  0.00     0.039 C 
BRANCH   3   5
ATOM      5  C   UNL     1      -3.661  27.554  28.895  1.00  0.00     0.034 C 
BRANCH   5   6
ATOM      6  C   UNL     1      -2.678  27.950  27.785  1.00  0.00     0.032 C 
BRANCH   6   7
ATOM      7  C   UNL     1      -1.698  26.836  27.495  1.00  0.00    -0.028 C 
ATOM      8  C   UNL     1      -0.362  27.229  29.578  1.00  0.00     0.039 C 
ATOM      9  C   UNL     1      -0.668  26.490  28.300  1.00  0.00    -0.080 C 
ATOM     10  C   UNL     1       0.202  25.314  27.938  1.00  0.00     0.039 C 
ENDBRANCH   6   7
ENDBRANCH   5   6
ENDBRANCH   3   5
ENDBRANCH   1   2
BRANCH   1  11
ATOM     11  C   UNL     1      -5.771  31.485  28.270  1.00  0.00     0.034 C 
BRANCH  11  12
ATOM     12  C   UNL     1      -4.958  32.157  27.184  1.00  0.00    -0.077 C 
ATOM     13  C   UNL     1      -5.383  32.081  25.904  1.00  0.00    -0.028 C 
ATOM     14  C   UNL     1      -3.701  32.908  27.554  1.00  0.00     0.039 C 
BRANCH  13  15
ATOM     15  C   UNL     1      -4.644  32.718  24.750  1.00  0.00     0.035 C 
BRANCH  15  16
ATOM     16  C   UNL     1      -5.600  33.218  23.658  1.00  0.00     0.079 C 
BRANCH  16  17
ATOM     17  C   UNL     1      -5.497  34.708  23.464  1.00  0.00     0.130 C 
ATOM     18  O   UNL     1      -5.132  35.155  22.388  1.00  0.00    -0.300 OA
ATOM     19  C   UNL     1      -5.868  35.657  24.564  1.00  0.00     0.087 C 
ENDBRANCH  16  17
ENDBRANCH  15  16
ENDBRANCH  13  15
ENDBRANCH  11  12
ENDBRANCH   1  11
TORSDOF 9
ENDMDL
MODEL 5
REMARK VINA RESULT:    -5.869      2.445      7.735
REMARK INTER + INTRA:         -10.193
REMARK INTER:                  -9.249
REMARK INTRA:                  -0.944
REMARK UNBOUND:                -1.237
REMARK SMILES CC(=O)CCC=C(C)CCC=C(C)CCC=C(C)C
REMARK SMILES IDX 10 1 11 2 12 3 13 4 14 5 15 6 16 7 18 8 17 9 19 10 9 11 7 12
REMARK SMILES IDX 6 13 8 14 5 15 4 16 2 17 3 18 1 19
REMARK H PARENT
REMARK Flexibility Score: inf
ROOT
ATOM      1  C   UNL     1      -5.635  30.123  28.238  1.00  0.00     0.032 C 
ENDROOT
BRANCH   1   2
ATOM      2  C   UNL     1      -4.535  31.135  28.041  1.00  0.00    -0.028 C 
ATOM      3  C   UNL     1      -4.596  32.185  27.191  1.00  0.00    -0.077 C 
ATOM      4  C   UNL     1      -3.385  33.076  27.071  1.00  0.00     0.039 C 
BRANCH   3   5
ATOM      5  C   UNL     1      -5.836  32.522  26.380  1.00  0.00     0.034 C 
BRANCH   5   6
ATOM      6  C   UNL     1      -5.637  32.250  24.883  1.00  0.00     0.032 C 
BRANCH   6   7
ATOM      7  C   UNL     1      -5.239  33.507  24.144  1.00  0.00    -0.028 C 
ATOM      8  C   UNL     1      -6.080  32.688  21.931  1.00  0.00     0.039 C 
ATOM      9  C   UNL     1      -5.449  33.724  22.826  1.00  0.00    -0.080 C 
ATOM     10  C   UNL     1      -5.069  35.049  22.215  1.00  0.00     0.039 C 
ENDBRANCH   6   7
ENDBRANCH   5   6
ENDBRANCH   3   5
ENDBRANCH   1   2
BRANCH   1  11
ATOM     11  C   UNL     1      -5.664  29.628  29.688  1.00  0.00     0.034 C 
BRANCH  11  12
ATOM     12  C   UNL     1      -4.523  28.669  29.953  1.00  0.00    -0.077 C 
ATOM     13  C   UNL     1      -4.522  27.465  29.340  1.00  0.00    -0.028 C 
ATOM     14  C   UNL     1      -3.406  29.082  30.882  1.00  0.00     0.039 C 
BRANCH  13  15
ATOM     15  C   UNL     1      -3.429  26.440  29.537  1.00  0.00     0.035 C 
BRANCH  15  16
ATOM     16  C   UNL     1      -2.662  26.156  28.239  1.00  0.00     0.079 C 
BRANCH  16  17
ATOM     17  C   UNL     1      -1.280  26.756  28.262  1.00  0.00     0.130 C 
ATOM     18  O   UNL     1      -1.144  27.955  28.447  1.00  0.00    -0.300 OA
ATOM     19  C   UNL     1      -0.063  25.897  28.094  1.00  0.00     0.087 C 
ENDBRANCH  16  17
ENDBRANCH  15  16
ENDBRANCH  13  15
ENDBRANCH  11  12
ENDBRANCH   1  11
TORSDOF 9
ENDMDL
MODEL 6
REMARK VINA RESULT:    -5.826      1.236      3.078
REMARK INTER + INTRA:         -10.128
REMARK INTER:                  -9.449
REMARK INTRA:                  -0.680
REMARK UNBOUND:                -1.237
REMARK SMILES CC(=O)CCC=C(C)CCC=C(C)CCC=C(C)C
REMARK SMILES IDX 10 1 11 2 12 3 13 4 14 5 15 6 16 7 18 8 17 9 19 10 9 11 7 12
REMARK SMILES IDX 6 13 8 14 5 15 4 16 2 17 3 18 1 19
REMARK H PARENT
REMARK Flexibility Score: inf
ROOT
ATOM      1  C   UNL     1      -2.860  29.490  27.511  1.00  0.00     0.032 C 
ENDROOT
BRANCH   1   2
ATOM      2  C   UNL     1      -2.445  28.066  27.238  1.00  0.00    -0.028 C 
ATOM      3  C   UNL     1      -1.627  27.337  28.031  1.00  0.00    -0.077 C 
ATOM      4  C   UNL     1      -1.265  25.942  27.587  1.00  0.00     0.039 C 
BRANCH   3   5
ATOM      5  C   UNL     1      -1.086  27.848  29.355  1.00  0.00     0.034 C 
BRANCH   5   6
ATOM      6  C   UNL     1      -1.975  27.438  30.537  1.00  0.00     0.032 C 
BRANCH   6   7
ATOM      7  C   UNL     1      -3.306  28.153  30.498  1.00  0.00    -0.028 C 
ATOM      8  C   UNL     1      -4.555  26.158  29.640  1.00  0.00     0.039 C 
ATOM      9  C   UNL     1      -4.473  27.586  30.117  1.00  0.00    -0.080 C 
ATOM     10  C   UNL     1      -5.751  28.383  30.187  1.00  0.00     0.039 C 
ENDBRANCH   6   7
ENDBRANCH   5   6
ENDBRANCH   3   5
ENDBRANCH   1   2
BRANCH   1  11
ATOM     11  C   UNL     1      -4.386  29.630  27.462  1.00  0.00     0.034 C 
BRANCH  11  12
ATOM     12  C   UNL     1      -4.793  31.087  27.447  1.00  0.00    -0.077 C 
ATOM     13  C   UNL     1      -4.165  31.937  26.606  1.00  0.00    -0.028 C 
ATOM     14  C   UNL     1      -5.901  31.558  28.360  1.00  0.00     0.039 C 
BRANCH  13  15
ATOM     15  C   UNL     1      -4.500  33.408  26.516  1.00  0.00     0.035 C 
BRANCH  15  16
ATOM     16  C   UNL     1      -5.529  33.700  25.416  1.00  0.00     0.079 C 
BRANCH  16  17
ATOM     17  C   UNL     1      -4.892  33.746  24.051  1.00  0.00     0.130 C 
ATOM     18  O   UNL     1      -3.802  33.223  23.874  1.00  0.00    -0.300 OA
ATOM     19  C   UNL     1      -5.590  34.396  22.895  1.00  0.00     0.087 C 
ENDBRANCH  16  17
ENDBRANCH  15  16
ENDBRANCH  13  15
ENDBRANCH  11  12
ENDBRANCH   1  11
TORSDOF 9
ENDMDL
MODEL 7
REMARK VINA RESULT:    -4.036      2.626      7.728
REMARK INTER + INTRA:          -7.396
REMARK INTER:                  -6.789
REMARK INTRA:                  -0.608
REMARK UNBOUND:                -1.237
REMARK SMILES CC(=O)CCC=C(C)CCC=C(C)CCC=C(C)C
REMARK SMILES IDX 10 1 11 2 12 3 13 4 14 5 15 6 16 7 18 8 17 9 19 10 9 11 7 12
REMARK SMILES IDX 6 13 8 14 5 15 4 16 2 17 3 18 1 19
REMARK H PARENT
REMARK Flexibility Score: inf
ROOT
ATOM      1  C   UNL     1      -2.764  29.451  27.107  1.00  0.00     0.032 C 
ENDROOT
BRANCH   1   2
ATOM      2  C   UNL     1      -4.090  29.480  27.822  1.00  0.00    -0.028 C 
ATOM      3  C   UNL     1      -4.846  30.587  28.002  1.00  0.00    -0.077 C 
ATOM      4  C   UNL     1      -6.125  30.457  28.789  1.00  0.00     0.039 C 
BRANCH   3   5
ATOM      5  C   UNL     1      -4.479  31.942  27.422  1.00  0.00     0.034 C 
BRANCH   5   6
ATOM      6  C   UNL     1      -5.164  32.196  26.072  1.00  0.00     0.032 C 
BRANCH   6   7
ATOM      7  C   UNL     1      -5.425  33.669  25.856  1.00  0.00    -0.028 C 
ATOM      8  C   UNL     1      -5.075  33.552  23.379  1.00  0.00     0.039 C 
ATOM      9  C   UNL     1      -5.408  34.285  24.653  1.00  0.00    -0.080 C 
ATOM     10  C   UNL     1      -5.752  35.749  24.556  1.00  0.00     0.039 C 
ENDBRANCH   6   7
ENDBRANCH   5   6
ENDBRANCH   3   5
ENDBRANCH   1   2
BRANCH   1  11
ATOM     11  C   UNL     1      -2.416  28.025  26.666  1.00  0.00     0.034 C 
BRANCH  11  12
ATOM     12  C   UNL     1      -1.869  27.221  27.825  1.00  0.00    -0.077 C 
ATOM     13  C   UNL     1      -1.510  27.863  28.959  1.00  0.00    -0.028 C 
ATOM     14  C   UNL     1      -1.750  25.720  27.699  1.00  0.00     0.039 C 
BRANCH  13  15
ATOM     15  C   UNL     1      -0.956  27.150  30.171  1.00  0.00     0.035 C 
BRANCH  15  16
ATOM     16  C   UNL     1      -1.987  27.050  31.303  1.00  0.00     0.079 C 
BRANCH  16  17
ATOM     17  C   UNL     1      -3.273  27.753  30.953  1.00  0.00     0.130 C 
ATOM     18  O   UNL     1      -3.393  28.946  31.187  1.00  0.00    -0.300 OA
ATOM     19  C   UNL     1      -4.399  27.018  30.292  1.00  0.00     0.087 C 
ENDBRANCH  16  17
ENDBRANCH  15  16
ENDBRANCH  13  15
ENDBRANCH  11  12
ENDBRANCH   1  11
TORSDOF 9
ENDMDL
