MODEL 1
REMARK VINA RESULT:    -2.681      0.000      0.000
REMARK INTER + INTRA:          -2.681
REMARK INTER:                  -2.681
REMARK INTRA:                   0.000
REMARK UNBOUND:                 0.000
REMARK SMILES CC(=O)[O-]
REMARK SMILES IDX 1 1 2 2 3 3 4 4
REMARK H PARENT
REMARK Flexibility Score: inf
ROOT
ATOM      1  C   UNL     1       5.964  14.086 -18.869  1.00  0.00     0.063 C 
ATOM      2  C   UNL     1       6.787  13.019 -19.509  1.00  0.00     0.038 C 
ATOM      3  O   UNL     1       7.781  12.538 -18.903  1.00  0.00    -0.550 OA
ATOM      4  O   UNL     1       6.493  12.590 -20.796  1.00  0.00    -0.550 OA
ENDROOT
TORSDOF 0
ENDMDL
MODEL 2
REMARK VINA RESULT:    -2.610     11.979     12.357
REMARK INTER + INTRA:          -2.610
REMARK INTER:                  -2.610
REMARK INTRA:                   0.000
REMARK UNBOUND:                 0.000
REMARK SMILES CC(=O)[O-]
REMARK SMILES IDX 1 1 2 2 3 3 4 4
REMARK H PARENT
REMARK Flexibility Score: inf
ROOT
ATOM      1  C   UNL     1       3.543   9.640  -9.616  1.00  0.00     0.063 C 
ATOM      2  C   UNL     1       2.676   9.993  -8.454  1.00  0.00     0.038 C 
ATOM      3  O   UNL     1       1.460   9.668  -8.451  1.00  0.00    -0.550 OA
ATOM      4  O   UNL     1       3.195  10.729  -7.397  1.00  0.00    -0.550 OA
ENDROOT
TORSDOF 0
ENDMDL
MODEL 3
REMARK VINA RESULT:    -2.569      1.362      1.799
REMARK INTER + INTRA:          -2.569
REMARK INTER:                  -2.569
REMARK INTRA:                   0.000
REMARK UNBOUND:                 0.000
REMARK SMILES CC(=O)[O-]
REMARK SMILES IDX 1 1 2 2 3 3 4 4
REMARK H PARENT
REMARK Flexibility Score: inf
ROOT
ATOM      1  C   UNL     1       6.678  12.320 -21.062  1.00  0.00     0.063 C 
ATOM      2  C   UNL     1       6.750  13.081 -19.781  1.00  0.00     0.038 C 
ATOM      3  O   UNL     1       7.522  12.701 -18.862  1.00  0.00    -0.550 OA
ATOM      4  O   UNL     1       5.926  14.180 -19.578  1.00  0.00    -0.550 OA
ENDROOT
TORSDOF 0
ENDMDL
MODEL 4
REMARK VINA RESULT:    -2.551     12.057     12.583
REMARK INTER + INTRA:          -2.551
REMARK INTER:                  -2.551
REMARK INTRA:                   0.000
REMARK UNBOUND:                 0.000
REMARK SMILES CC(=O)[O-]
REMARK SMILES IDX 1 1 2 2 3 3 4 4
REMARK H PARENT
REMARK Flexibility Score: inf
ROOT
ATOM      1  C   UNL     1       1.183  10.041  -8.072  1.00  0.00     0.063 C 
ATOM      2  C   UNL     1       2.663  10.207  -8.152  1.00  0.00     0.038 C 
ATOM      3  O   UNL     1       3.293   9.788  -9.158  1.00  0.00    -0.550 OA
ATOM      4  O   UNL     1       3.357  10.776  -7.092  1.00  0.00    -0.550 OA
ENDROOT
TORSDOF 0
ENDMDL
MODEL 5
REMARK VINA RESULT:    -2.523     11.935     12.378
REMARK INTER + INTRA:          -2.523
REMARK INTER:                  -2.523
REMARK INTRA:                   0.000
REMARK UNBOUND:                 0.000
REMARK SMILES CC(=O)[O-]
REMARK SMILES IDX 1 1 2 2 3 3 4 4
REMARK H PARENT
REMARK Flexibility Score: inf
ROOT
ATOM      1  C   UNL     1       3.076  10.771  -7.161  1.00  0.00     0.063 C 
ATOM      2  C   UNL     1       2.591  10.043  -8.369  1.00  0.00     0.038 C 
ATOM      3  O   UNL     1       1.388   9.682  -8.450  1.00  0.00    -0.550 OA
ATOM      4  O   UNL     1       3.478   9.713  -9.385  1.00  0.00    -0.550 OA
ENDROOT
TORSDOF 0
ENDMDL
MODEL 6
REMARK VINA RESULT:    -2.459     19.183     19.462
REMARK INTER + INTRA:          -2.459
REMARK INTER:                  -2.459
REMARK INTRA:                   0.000
REMARK UNBOUND:                 0.000
REMARK SMILES CC(=O)[O-]
REMARK SMILES IDX 1 1 2 2 3 3 4 4
REMARK H PARENT
REMARK Flexibility Score: inf
ROOT
ATOM      1  C   UNL     1       0.033   4.703  -4.007  1.00  0.00     0.063 C 
ATOM      2  C   UNL     1      -1.360   5.198  -3.809  1.00  0.00     0.038 C 
ATOM      3  O   UNL     1      -2.297   4.751  -4.520  1.00  0.00    -0.550 OA
ATOM      4  O   UNL     1      -1.618   6.194  -2.876  1.00  0.00    -0.550 OA
ENDROOT
TORSDOF 0
ENDMDL
MODEL 7
REMARK VINA RESULT:    -2.389      1.435      2.092
REMARK INTER + INTRA:          -2.389
REMARK INTER:                  -2.389
REMARK INTRA:                   0.000
REMARK UNBOUND:                 0.000
REMARK SMILES CC(=O)[O-]
REMARK SMILES IDX 1 1 2 2 3 3 4 4
REMARK H PARENT
REMARK Flexibility Score: inf
ROOT
ATOM      1  C   UNL     1       7.962  12.506 -19.109  1.00  0.00     0.063 C 
ATOM      2  C   UNL     1       6.755  13.049 -19.797  1.00  0.00     0.038 C 
ATOM      3  O   UNL     1       6.400  12.584 -20.912  1.00  0.00    -0.550 OA
ATOM      4  O   UNL     1       6.050  14.106 -19.236  1.00  0.00    -0.550 OA
ENDROOT
TORSDOF 0
ENDMDL
MODEL 8
REMARK VINA RESULT:    -2.249      2.077      2.204
REMARK INTER + INTRA:          -2.249
REMARK INTER:                  -2.249
REMARK INTRA:                   0.000
REMARK UNBOUND:                 0.000
REMARK SMILES CC(=O)[O-]
REMARK SMILES IDX 1 1 2 2 3 3 4 4
REMARK H PARENT
REMARK Flexibility Score: inf
ROOT
ATOM      1  C   UNL     1       6.752  12.294 -20.938  1.00  0.00     0.063 C 
ATOM      2  C   UNL     1       8.116  12.204 -20.340  1.00  0.00     0.038 C 
ATOM      3  O   UNL     1       8.259  12.187 -19.090  1.00  0.00    -0.550 OA
ATOM      4  O   UNL     1       9.235  12.192 -21.162  1.00  0.00    -0.550 OA
ENDROOT
TORSDOF 0
ENDMDL
MODEL 9
REMARK VINA RESULT:    -2.196     11.548     11.872
REMARK INTER + INTRA:          -2.196
REMARK INTER:                  -2.196
REMARK INTRA:                   0.000
REMARK UNBOUND:                 0.000
REMARK SMILES CC(=O)[O-]
REMARK SMILES IDX 1 1 2 2 3 3 4 4
REMARK H PARENT
REMARK Flexibility Score: inf
ROOT
ATOM      1  C   UNL     1      -2.103   6.268 -18.976  1.00  0.00     0.063 C 
ATOM      2  C   UNL     1      -2.970   6.510 -20.165  1.00  0.00     0.038 C 
ATOM      3  O   UNL     1      -2.673   7.411 -20.992  1.00  0.00    -0.550 OA
ATOM      4  O   UNL     1      -4.138   5.778 -20.335  1.00  0.00    -0.550 OA
ENDROOT
TORSDOF 0
ENDMDL
