MODEL 1
REMARK VINA RESULT:    -4.195      0.000      0.000
REMARK INTER + INTRA:          -5.949
REMARK INTER:                  -5.666
REMARK INTRA:                  -0.283
REMARK UNBOUND:                -0.283
REMARK SMILES CCCCCCC=CC(=O)[O-]
REMARK SMILES IDX 5 1 6 2 7 3 8 4 9 5 10 6 11 7 4 8 3 9 2 10 1 11
REMARK H PARENT
REMARK Flexibility Score: inf
ROOT
ATOM      1  C   UNL     1       6.368   7.385  19.877  1.00  0.00     0.004 C 
ENDROOT
BRANCH   1   2
ATOM      2  C   UNL     1       5.538   6.644  20.933  1.00  0.00     0.027 C 
BRANCH   2   3
ATOM      3  C   UNL     1       5.917   5.191  21.000  1.00  0.00    -0.025 C 
ATOM      4  C   UNL     1       4.993   4.233  21.133  1.00  0.00     0.020 C 
BRANCH   4   5
ATOM      5  C   UNL     1       5.339   2.805  21.186  1.00  0.00     0.064 C 
ATOM      6  O   UNL     1       5.186   2.135  22.242  1.00  0.00    -0.545 OA
ATOM      7  O   UNL     1       5.843   2.182  20.051  1.00  0.00    -0.545 OA
ENDBRANCH   4   5
ENDBRANCH   2   3
ENDBRANCH   1   2
BRANCH   1   8
ATOM      8  C   UNL     1       6.738   6.449  18.716  1.00  0.00     0.000 C 
BRANCH   8   9
ATOM      9  C   UNL     1       6.367   7.034  17.344  1.00  0.00    -0.000 C 
BRANCH   9  10
ATOM     10  C   UNL     1       6.673   6.072  16.187  1.00  0.00    -0.003 C 
ATOM     11  C   UNL     1       5.497   5.136  15.925  1.00  0.00     0.004 C 
ENDBRANCH   9  10
ENDBRANCH   8   9
ENDBRANCH   1   8
TORSDOF 6
ENDMDL
MODEL 2
REMARK VINA RESULT:    -4.159      1.593      2.618
REMARK INTER + INTRA:          -5.901
REMARK INTER:                  -5.485
REMARK INTRA:                  -0.416
REMARK UNBOUND:                -0.283
REMARK SMILES CCCCCCC=CC(=O)[O-]
REMARK SMILES IDX 5 1 6 2 7 3 8 4 9 5 10 6 11 7 4 8 3 9 2 10 1 11
REMARK H PARENT
REMARK Flexibility Score: inf
ROOT
ATOM      1  C   UNL     1       6.428   6.874  16.746  1.00  0.00     0.004 C 
ENDROOT
BRANCH   1   2
ATOM      2  C   UNL     1       6.450   6.704  18.271  1.00  0.00     0.027 C 
BRANCH   2   3
ATOM      3  C   UNL     1       6.074   5.305  18.667  1.00  0.00    -0.025 C 
ATOM      4  C   UNL     1       5.758   4.996  19.929  1.00  0.00     0.020 C 
BRANCH   4   5
ATOM      5  C   UNL     1       5.373   3.636  20.336  1.00  0.00     0.064 C 
ATOM      6  O   UNL     1       4.599   3.442  21.312  1.00  0.00    -0.545 OA
ATOM      7  O   UNL     1       5.870   2.546  19.634  1.00  0.00    -0.545 OA
ENDBRANCH   4   5
ENDBRANCH   2   3
ENDBRANCH   1   2
BRANCH   1   8
ATOM      8  C   UNL     1       6.435   5.508  16.043  1.00  0.00     0.000 C 
BRANCH   8   9
ATOM      9  C   UNL     1       7.708   5.274  15.216  1.00  0.00    -0.000 C 
BRANCH   9  10
ATOM     10  C   UNL     1       8.988   5.642  15.981  1.00  0.00    -0.003 C 
ATOM     11  C   UNL     1       9.823   6.653  15.201  1.00  0.00     0.004 C 
ENDBRANCH   9  10
ENDBRANCH   8   9
ENDBRANCH   1   8
TORSDOF 6
ENDMDL
MODEL 3
REMARK VINA RESULT:    -4.150      2.597      3.980
REMARK INTER + INTRA:          -5.889
REMARK INTER:                  -5.477
REMARK INTRA:                  -0.412
REMARK UNBOUND:                -0.283
REMARK SMILES CCCCCCC=CC(=O)[O-]
REMARK SMILES IDX 5 1 6 2 7 3 8 4 9 5 10 6 11 7 4 8 3 9 2 10 1 11
REMARK H PARENT
REMARK Flexibility Score: inf
ROOT
ATOM      1  C   UNL     1       7.221   5.222  15.437  1.00  0.00     0.004 C 
ENDROOT
BRANCH   1   2
ATOM      2  C   UNL     1       6.782   6.399  16.317  1.00  0.00     0.027 C 
BRANCH   2   3
ATOM      3  C   UNL     1       6.193   5.917  17.613  1.00  0.00    -0.025 C 
ATOM      4  C   UNL     1       6.550   4.746  18.151  1.00  0.00     0.020 C 
BRANCH   4   5
ATOM      5  C   UNL     1       5.997   4.261  19.425  1.00  0.00     0.064 C 
ATOM      6  O   UNL     1       5.787   5.049  20.385  1.00  0.00    -0.545 OA
ATOM      7  O   UNL     1       5.701   2.913  19.572  1.00  0.00    -0.545 OA
ENDBRANCH   4   5
ENDBRANCH   2   3
ENDBRANCH   1   2
BRANCH   1   8
ATOM      8  C   UNL     1       8.671   5.404  14.963  1.00  0.00     0.000 C 
BRANCH   8   9
ATOM      9  C   UNL     1       9.340   6.648  15.567  1.00  0.00    -0.000 C 
BRANCH   9  10
ATOM     10  C   UNL     1      10.616   7.058  14.817  1.00  0.00    -0.003 C 
ATOM     11  C   UNL     1      10.474   6.813  13.317  1.00  0.00     0.004 C 
ENDBRANCH   9  10
ENDBRANCH   8   9
ENDBRANCH   1   8
TORSDOF 6
ENDMDL
MODEL 4
REMARK VINA RESULT:    -4.135      1.997      2.574
REMARK INTER + INTRA:          -5.869
REMARK INTER:                  -5.650
REMARK INTRA:                  -0.219
REMARK UNBOUND:                -0.283
REMARK SMILES CCCCCCC=CC(=O)[O-]
REMARK SMILES IDX 5 1 6 2 7 3 8 4 9 5 10 6 11 7 4 8 3 9 2 10 1 11
REMARK H PARENT
REMARK Flexibility Score: inf
ROOT
ATOM      1  C   UNL     1       5.901   4.447  19.825  1.00  0.00     0.004 C 
ENDROOT
BRANCH   1   2
ATOM      2  C   UNL     1       5.628   2.947  19.991  1.00  0.00     0.027 C 
BRANCH   2   3
ATOM      3  C   UNL     1       5.487   2.578  21.440  1.00  0.00    -0.025 C 
ATOM      4  C   UNL     1       4.509   3.084  22.199  1.00  0.00     0.020 C 
BRANCH   4   5
ATOM      5  C   UNL     1       4.344   2.726  23.616  1.00  0.00     0.064 C 
ATOM      6  O   UNL     1       3.278   2.201  24.035  1.00  0.00    -0.545 OA
ATOM      7  O   UNL     1       5.380   2.968  24.507  1.00  0.00    -0.545 OA
ENDBRANCH   4   5
ENDBRANCH   2   3
ENDBRANCH   1   2
BRANCH   1   8
ATOM      8  C   UNL     1       6.467   4.750  18.429  1.00  0.00     0.000 C 
BRANCH   8   9
ATOM      9  C   UNL     1       6.494   6.254  18.114  1.00  0.00    -0.000 C 
BRANCH   9  10
ATOM     10  C   UNL     1       6.094   6.563  16.664  1.00  0.00    -0.003 C 
ATOM     11  C   UNL     1       5.646   5.299  15.937  1.00  0.00     0.004 C 
ENDBRANCH   9  10
ENDBRANCH   8   9
ENDBRANCH   1   8
TORSDOF 6
ENDMDL
MODEL 5
REMARK VINA RESULT:    -4.130      4.074      6.146
REMARK INTER + INTRA:          -5.862
REMARK INTER:                  -5.515
REMARK INTRA:                  -0.347
REMARK UNBOUND:                -0.283
REMARK SMILES CCCCCCC=CC(=O)[O-]
REMARK SMILES IDX 5 1 6 2 7 3 8 4 9 5 10 6 11 7 4 8 3 9 2 10 1 11
REMARK H PARENT
REMARK Flexibility Score: inf
ROOT
ATOM      1  C   UNL     1       6.334   6.580  17.354  1.00  0.00     0.004 C 
ENDROOT
BRANCH   1   2
ATOM      2  C   UNL     1       6.364   5.500  16.266  1.00  0.00     0.027 C 
BRANCH   2   3
ATOM      3  C   UNL     1       7.681   5.493  15.543  1.00  0.00    -0.025 C 
ATOM      4  C   UNL     1       8.578   6.470  15.716  1.00  0.00     0.020 C 
BRANCH   4   5
ATOM      5  C   UNL     1       9.880   6.477  15.031  1.00  0.00     0.064 C 
ATOM      6  O   UNL     1      10.198   5.559  14.228  1.00  0.00    -0.545 OA
ATOM      7  O   UNL     1      10.773   7.512  15.272  1.00  0.00    -0.545 OA
ENDBRANCH   4   5
ENDBRANCH   2   3
ENDBRANCH   1   2
BRANCH   1   8
ATOM      8  C   UNL     1       6.310   5.947  18.754  1.00  0.00     0.000 C 
BRANCH   8   9
ATOM      9  C   UNL     1       6.086   4.428  18.712  1.00  0.00    -0.000 C 
BRANCH   9  10
ATOM     10  C   UNL     1       5.604   3.863  20.057  1.00  0.00    -0.003 C 
ATOM     11  C   UNL     1       5.888   2.368  20.158  1.00  0.00     0.004 C 
ENDBRANCH   9  10
ENDBRANCH   8   9
ENDBRANCH   1   8
TORSDOF 6
ENDMDL
MODEL 6
REMARK VINA RESULT:    -4.121      4.354      6.635
REMARK INTER + INTRA:          -5.850
REMARK INTER:                  -5.443
REMARK INTRA:                  -0.407
REMARK UNBOUND:                -0.283
REMARK SMILES CCCCCCC=CC(=O)[O-]
REMARK SMILES IDX 5 1 6 2 7 3 8 4 9 5 10 6 11 7 4 8 3 9 2 10 1 11
REMARK H PARENT
REMARK Flexibility Score: inf
ROOT
ATOM      1  C   UNL     1       6.013   5.603  16.247  1.00  0.00     0.004 C 
ENDROOT
BRANCH   1   2
ATOM      2  C   UNL     1       7.162   4.947  15.472  1.00  0.00     0.027 C 
BRANCH   2   3
ATOM      3  C   UNL     1       8.358   5.855  15.404  1.00  0.00    -0.025 C 
ATOM      4  C   UNL     1       9.153   5.884  14.329  1.00  0.00     0.020 C 
BRANCH   4   5
ATOM      5  C   UNL     1      10.320   6.774  14.235  1.00  0.00     0.064 C 
ATOM      6  O   UNL     1      10.694   7.465  15.220  1.00  0.00    -0.545 OA
ATOM      7  O   UNL     1      11.023   6.855  13.040  1.00  0.00    -0.545 OA
ENDBRANCH   4   5
ENDBRANCH   2   3
ENDBRANCH   1   2
BRANCH   1   8
ATOM      8  C   UNL     1       6.384   7.031  16.674  1.00  0.00     0.000 C 
BRANCH   8   9
ATOM      9  C   UNL     1       6.381   7.213  18.200  1.00  0.00    -0.000 C 
BRANCH   9  10
ATOM     10  C   UNL     1       6.398   5.876  18.956  1.00  0.00    -0.003 C 
ATOM     11  C   UNL     1       5.797   6.026  20.350  1.00  0.00     0.004 C 
ENDBRANCH   9  10
ENDBRANCH   8   9
ENDBRANCH   1   8
TORSDOF 6
ENDMDL
MODEL 7
REMARK VINA RESULT:    -4.091      1.385      2.209
REMARK INTER + INTRA:          -5.809
REMARK INTER:                  -5.492
REMARK INTRA:                  -0.317
REMARK UNBOUND:                -0.283
REMARK SMILES CCCCCCC=CC(=O)[O-]
REMARK SMILES IDX 5 1 6 2 7 3 8 4 9 5 10 6 11 7 4 8 3 9 2 10 1 11
REMARK H PARENT
REMARK Flexibility Score: inf
ROOT
ATOM      1  C   UNL     1       6.350   6.335  18.219  1.00  0.00     0.004 C 
ENDROOT
BRANCH   1   2
ATOM      2  C   UNL     1       6.425   4.835  18.532  1.00  0.00     0.027 C 
BRANCH   2   3
ATOM      3  C   UNL     1       6.069   4.561  19.965  1.00  0.00    -0.025 C 
ATOM      4  C   UNL     1       5.263   3.549  20.305  1.00  0.00     0.020 C 
BRANCH   4   5
ATOM      5  C   UNL     1       4.913   3.253  21.702  1.00  0.00     0.064 C 
ATOM      6  O   UNL     1       5.173   2.133  22.216  1.00  0.00    -0.545 OA
ATOM      7  O   UNL     1       4.285   4.226  22.469  1.00  0.00    -0.545 OA
ENDBRANCH   4   5
ENDBRANCH   2   3
ENDBRANCH   1   2
BRANCH   1   8
ATOM      8  C   UNL     1       6.345   6.579  16.702  1.00  0.00     0.000 C 
BRANCH   8   9
ATOM      9  C   UNL     1       6.375   5.273  15.893  1.00  0.00    -0.000 C 
BRANCH   9  10
ATOM     10  C   UNL     1       7.655   5.123  15.058  1.00  0.00    -0.003 C 
ATOM     11  C   UNL     1       8.793   5.953  15.643  1.00  0.00     0.004 C 
ENDBRANCH   9  10
ENDBRANCH   8   9
ENDBRANCH   1   8
TORSDOF 6
ENDMDL
MODEL 8
REMARK VINA RESULT:    -4.047      1.834      2.841
REMARK INTER + INTRA:          -5.750
REMARK INTER:                  -5.038
REMARK INTRA:                  -0.712
REMARK UNBOUND:                -0.283
REMARK SMILES CCCCCCC=CC(=O)[O-]
REMARK SMILES IDX 5 1 6 2 7 3 8 4 9 5 10 6 11 7 4 8 3 9 2 10 1 11
REMARK H PARENT
REMARK Flexibility Score: inf
ROOT
ATOM      1  C   UNL     1       9.124   4.716  16.949  1.00  0.00     0.004 C 
ENDROOT
BRANCH   1   2
ATOM      2  C   UNL     1       8.818   4.999  18.426  1.00  0.00     0.027 C 
BRANCH   2   3
ATOM      3  C   UNL     1       7.842   4.000  18.979  1.00  0.00    -0.025 C 
ATOM      4  C   UNL     1       6.714   4.386  19.585  1.00  0.00     0.020 C 
BRANCH   4   5
ATOM      5  C   UNL     1       5.737   3.425  20.121  1.00  0.00     0.064 C 
ATOM      6  O   UNL     1       4.715   3.815  20.747  1.00  0.00    -0.545 OA
ATOM      7  O   UNL     1       5.943   2.065  19.933  1.00  0.00    -0.545 OA
ENDBRANCH   4   5
ENDBRANCH   2   3
ENDBRANCH   1   2
BRANCH   1   8
ATOM      8  C   UNL     1       8.398   5.718  16.038  1.00  0.00     0.000 C 
BRANCH   8   9
ATOM      9  C   UNL     1       7.022   5.212  15.579  1.00  0.00    -0.000 C 
BRANCH   9  10
ATOM     10  C   UNL     1       5.861   5.958  16.253  1.00  0.00    -0.003 C 
ATOM     11  C   UNL     1       6.326   7.295  16.824  1.00  0.00     0.004 C 
ENDBRANCH   9  10
ENDBRANCH   8   9
ENDBRANCH   1   8
TORSDOF 6
ENDMDL
MODEL 9
REMARK VINA RESULT:    -3.999      2.779      5.262
REMARK INTER + INTRA:          -5.684
REMARK INTER:                  -5.256
REMARK INTRA:                  -0.429
REMARK UNBOUND:                -0.283
REMARK SMILES CCCCCCC=CC(=O)[O-]
REMARK SMILES IDX 5 1 6 2 7 3 8 4 9 5 10 6 11 7 4 8 3 9 2 10 1 11
REMARK H PARENT
REMARK Flexibility Score: inf
ROOT
ATOM      1  C   UNL     1       5.170   5.872  21.254  1.00  0.00     0.004 C 
ENDROOT
BRANCH   1   2
ATOM      2  C   UNL     1       6.436   5.543  20.453  1.00  0.00     0.027 C 
BRANCH   2   3
ATOM      3  C   UNL     1       6.309   5.998  19.027  1.00  0.00    -0.025 C 
ATOM      4  C   UNL     1       6.097   5.129  18.032  1.00  0.00     0.020 C 
BRANCH   4   5
ATOM      5  C   UNL     1       5.955   5.554  16.631  1.00  0.00     0.064 C 
ATOM      6  O   UNL     1       5.249   4.897  15.819  1.00  0.00    -0.545 OA
ATOM      7  O   UNL     1       6.608   6.699  16.194  1.00  0.00    -0.545 OA
ENDBRANCH   4   5
ENDBRANCH   2   3
ENDBRANCH   1   2
BRANCH   1   8
ATOM      8  C   UNL     1       4.360   4.600  21.547  1.00  0.00     0.000 C 
BRANCH   8   9
ATOM      9  C   UNL     1       5.139   3.315  21.222  1.00  0.00    -0.000 C 
BRANCH   9  10
ATOM     10  C   UNL     1       5.141   2.314  22.386  1.00  0.00    -0.003 C 
ATOM     11  C   UNL     1       4.145   2.725  23.467  1.00  0.00     0.004 C 
ENDBRANCH   9  10
ENDBRANCH   8   9
ENDBRANCH   1   8
TORSDOF 6
ENDMDL
