MODEL 1
REMARK VINA RESULT:    -2.079      0.000      0.000
REMARK INTER + INTRA:          -5.580
REMARK INTER:                  -3.537
REMARK INTRA:                  -2.044
REMARK UNBOUND:                -2.044
REMARK SMILES CCCCCCCCCCCCCC(=O)[O-]
REMARK SMILES IDX 8 1 9 2 10 3 11 4 12 5 13 6 14 7 15 8 16 9 7 10 6 11 5 12
REMARK SMILES IDX 4 13 3 14 2 15 1 16
REMARK H PARENT
REMARK Flexibility Score: inf
ROOT
ATOM      1  C   UNL     1      82.027  88.568  73.611  1.00  0.00     0.000 C 
ENDROOT
BRANCH   1   2
ATOM      2  C   UNL     1      82.028  88.125  75.078  1.00  0.00     0.000 C 
BRANCH   2   3
ATOM      3  C   UNL     1      83.416  87.626  75.503  1.00  0.00     0.000 C 
BRANCH   3   4
ATOM      4  C   UNL     1      84.243  87.199  74.281  1.00  0.00     0.000 C 
BRANCH   4   5
ATOM      5  C   UNL     1      85.713  87.649  74.369  1.00  0.00     0.006 C 
BRANCH   5   6
ATOM      6  C   UNL     1      86.460  87.134  75.609  1.00  0.00     0.053 C 
BRANCH   6   7
ATOM      7  C   UNL     1      87.795  86.550  75.260  1.00  0.00     0.041 C 
ATOM      8  O   UNL     1      87.998  86.075  74.112  1.00  0.00    -0.550 OA
ATOM      9  O   UNL     1      88.803  86.500  76.215  1.00  0.00    -0.550 OA
ENDBRANCH   6   7
ENDBRANCH   5   6
ENDBRANCH   4   5
ENDBRANCH   3   4
ENDBRANCH   2   3
ENDBRANCH   1   2
BRANCH   1  10
ATOM     10  C   UNL     1      82.085  90.099  73.499  1.00  0.00     0.000 C 
BRANCH  10  11
ATOM     11  C   UNL     1      83.500  90.620  73.198  1.00  0.00    -0.000 C 
BRANCH  11  12
ATOM     12  C   UNL     1      84.134  91.334  74.403  1.00  0.00    -0.000 C 
BRANCH  12  13
ATOM     13  C   UNL     1      83.099  91.718  75.474  1.00  0.00    -0.000 C 
BRANCH  13  14
ATOM     14  C   UNL     1      83.424  91.119  76.855  1.00  0.00    -0.000 C 
BRANCH  14  15
ATOM     15  C   UNL     1      84.927  90.859  77.044  1.00  0.00    -0.003 C 
ATOM     16  C   UNL     1      85.210  89.729  78.031  1.00  0.00     0.004 C 
ENDBRANCH  14  15
ENDBRANCH  13  14
ENDBRANCH  12  13
ENDBRANCH  11  12
ENDBRANCH  10  11
ENDBRANCH   1  10
TORSDOF 12
ENDMDL
MODEL 2
REMARK VINA RESULT:    -2.063      2.558      4.594
REMARK INTER + INTRA:          -5.554
REMARK INTER:                  -3.748
REMARK INTRA:                  -1.806
REMARK UNBOUND:                -2.044
REMARK SMILES CCCCCCCCCCCCCC(=O)[O-]
REMARK SMILES IDX 8 1 9 2 10 3 11 4 12 5 13 6 14 7 15 8 16 9 7 10 6 11 5 12
REMARK SMILES IDX 4 13 3 14 2 15 1 16
REMARK H PARENT
REMARK Flexibility Score: inf
ROOT
ATOM      1  C   UNL     1      84.187  91.371  74.458  1.00  0.00     0.000 C 
ENDROOT
BRANCH   1   2
ATOM      2  C   UNL     1      83.131  91.720  75.513  1.00  0.00     0.000 C 
BRANCH   2   3
ATOM      3  C   UNL     1      83.412  90.994  76.836  1.00  0.00     0.000 C 
BRANCH   3   4
ATOM      4  C   UNL     1      84.923  90.858  77.077  1.00  0.00     0.000 C 
BRANCH   4   5
ATOM      5  C   UNL     1      85.345  91.311  78.488  1.00  0.00     0.006 C 
BRANCH   5   6
ATOM      6  C   UNL     1      86.648  92.125  78.528  1.00  0.00     0.053 C 
BRANCH   6   7
ATOM      7  C   UNL     1      87.821  91.287  78.934  1.00  0.00     0.041 C 
ATOM      8  O   UNL     1      88.994  91.685  78.706  1.00  0.00    -0.550 OA
ATOM      9  O   UNL     1      87.618  90.049  79.533  1.00  0.00    -0.550 OA
ENDBRANCH   6   7
ENDBRANCH   5   6
ENDBRANCH   4   5
ENDBRANCH   3   4
ENDBRANCH   2   3
ENDBRANCH   1   2
BRANCH   1  10
ATOM     10  C   UNL     1      83.532  90.785  73.199  1.00  0.00     0.000 C 
BRANCH  10  11
ATOM     11  C   UNL     1      83.677  89.257  73.109  1.00  0.00    -0.000 C 
BRANCH  11  12
ATOM     12  C   UNL     1      84.708  88.702  74.106  1.00  0.00    -0.000 C 
BRANCH  12  13
ATOM     13  C   UNL     1      84.081  87.741  75.129  1.00  0.00    -0.000 C 
BRANCH  13  14
ATOM     14  C   UNL     1      82.622  87.383  74.791  1.00  0.00    -0.000 C 
BRANCH  14  15
ATOM     15  C   UNL     1      81.642  87.812  75.894  1.00  0.00    -0.003 C 
ATOM     16  C   UNL     1      80.693  88.921  75.442  1.00  0.00     0.004 C 
ENDBRANCH  14  15
ENDBRANCH  13  14
ENDBRANCH  12  13
ENDBRANCH  11  12
ENDBRANCH  10  11
ENDBRANCH   1  10
TORSDOF 12
ENDMDL
MODEL 3
REMARK VINA RESULT:    -2.063      8.744     10.712
REMARK INTER + INTRA:          -5.554
REMARK INTER:                  -3.835
REMARK INTRA:                  -1.719
REMARK UNBOUND:                -2.044
REMARK SMILES CCCCCCCCCCCCCC(=O)[O-]
REMARK SMILES IDX 8 1 9 2 10 3 11 4 12 5 13 6 14 7 15 8 16 9 7 10 6 11 5 12
REMARK SMILES IDX 4 13 3 14 2 15 1 16
REMARK H PARENT
REMARK Flexibility Score: inf
ROOT
ATOM      1  C   UNL     1      76.988  87.630  76.629  1.00  0.00     0.000 C 
ENDROOT
BRANCH   1   2
ATOM      2  C   UNL     1      76.018  88.740  77.052  1.00  0.00     0.000 C 
BRANCH   2   3
ATOM      3  C   UNL     1      76.654  90.125  76.876  1.00  0.00     0.000 C 
BRANCH   3   4
ATOM      4  C   UNL     1      75.672  91.235  77.280  1.00  0.00     0.000 C 
BRANCH   4   5
ATOM      5  C   UNL     1      75.916  91.755  78.709  1.00  0.00     0.006 C 
BRANCH   5   6
ATOM      6  C   UNL     1      74.694  91.657  79.636  1.00  0.00     0.053 C 
BRANCH   6   7
ATOM      7  C   UNL     1      74.588  90.311  80.286  1.00  0.00     0.041 C 
ATOM      8  O   UNL     1      73.462  89.770  80.444  1.00  0.00    -0.550 OA
ATOM      9  O   UNL     1      75.731  89.671  80.749  1.00  0.00    -0.550 OA
ENDBRANCH   6   7
ENDBRANCH   5   6
ENDBRANCH   4   5
ENDBRANCH   3   4
ENDBRANCH   2   3
ENDBRANCH   1   2
BRANCH   1  10
ATOM     10  C   UNL     1      76.456  86.875  75.402  1.00  0.00     0.000 C 
BRANCH  10  11
ATOM     11  C   UNL     1      75.031  87.300  75.013  1.00  0.00    -0.000 C 
BRANCH  11  12
ATOM     12  C   UNL     1      74.781  87.208  73.498  1.00  0.00    -0.000 C 
BRANCH  12  13
ATOM     13  C   UNL     1      74.270  88.531  72.904  1.00  0.00    -0.000 C 
BRANCH  13  14
ATOM     14  C   UNL     1      74.428  89.717  73.874  1.00  0.00    -0.000 C 
BRANCH  14  15
ATOM     15  C   UNL     1      75.436  90.760  73.367  1.00  0.00    -0.003 C 
ATOM     16  C   UNL     1      76.846  90.192  73.215  1.00  0.00     0.004 C 
ENDBRANCH  14  15
ENDBRANCH  13  14
ENDBRANCH  12  13
ENDBRANCH  11  12
ENDBRANCH  10  11
ENDBRANCH   1  10
TORSDOF 12
ENDMDL
MODEL 4
REMARK VINA RESULT:    -2.059     10.116     11.374
REMARK INTER + INTRA:          -5.547
REMARK INTER:                  -4.382
REMARK INTRA:                  -1.165
REMARK UNBOUND:                -2.044
REMARK SMILES CCCCCCCCCCCCCC(=O)[O-]
REMARK SMILES IDX 8 1 9 2 10 3 11 4 12 5 13 6 14 7 15 8 16 9 7 10 6 11 5 12
REMARK SMILES IDX 4 13 3 14 2 15 1 16
REMARK H PARENT
REMARK Flexibility Score: inf
ROOT
ATOM      1  C   UNL     1      75.622  90.938  76.501  1.00  0.00     0.000 C 
ENDROOT
BRANCH   1   2
ATOM      2  C   UNL     1      75.915  92.003  77.565  1.00  0.00     0.000 C 
BRANCH   2   3
ATOM      3  C   UNL     1      76.305  91.357  78.901  1.00  0.00     0.000 C 
BRANCH   3   4
ATOM      4  C   UNL     1      76.309  89.825  78.788  1.00  0.00     0.000 C 
BRANCH   4   5
ATOM      5  C   UNL     1      75.245  89.159  79.681  1.00  0.00     0.006 C 
BRANCH   5   6
ATOM      6  C   UNL     1      74.968  89.902  80.997  1.00  0.00     0.053 C 
BRANCH   6   7
ATOM      7  C   UNL     1      73.502  89.995  81.292  1.00  0.00     0.041 C 
ATOM      8  O   UNL     1      72.709  90.452  80.428  1.00  0.00    -0.550 OA
ATOM      9  O   UNL     1      73.017  89.608  82.536  1.00  0.00    -0.550 OA
ENDBRANCH   6   7
ENDBRANCH   5   6
ENDBRANCH   4   5
ENDBRANCH   3   4
ENDBRANCH   2   3
ENDBRANCH   1   2
BRANCH   1  10
ATOM     10  C   UNL     1      75.903  91.478  75.091  1.00  0.00     0.000 C 
BRANCH  10  11
ATOM     11  C   UNL     1      74.660  92.099  74.434  1.00  0.00    -0.000 C 
BRANCH  11  12
ATOM     12  C   UNL     1      73.844  91.074  73.628  1.00  0.00    -0.000 C 
BRANCH  12  13
ATOM     13  C   UNL     1      74.735  90.072  72.876  1.00  0.00    -0.000 C 
BRANCH  13  14
ATOM     14  C   UNL     1      74.333  88.609  73.137  1.00  0.00    -0.000 C 
BRANCH  14  15
ATOM     15  C   UNL     1      75.444  87.810  73.837  1.00  0.00    -0.003 C 
ATOM     16  C   UNL     1      75.118  87.500  75.297  1.00  0.00     0.004 C 
ENDBRANCH  14  15
ENDBRANCH  13  14
ENDBRANCH  12  13
ENDBRANCH  11  12
ENDBRANCH  10  11
ENDBRANCH   1  10
TORSDOF 12
ENDMDL
MODEL 5
REMARK VINA RESULT:    -2.051      9.530     11.237
REMARK INTER + INTRA:          -5.533
REMARK INTER:                  -4.742
REMARK INTRA:                  -0.792
REMARK UNBOUND:                -2.044
REMARK SMILES CCCCCCCCCCCCCC(=O)[O-]
REMARK SMILES IDX 8 1 9 2 10 3 11 4 12 5 13 6 14 7 15 8 16 9 7 10 6 11 5 12
REMARK SMILES IDX 4 13 3 14 2 15 1 16
REMARK H PARENT
REMARK Flexibility Score: inf
ROOT
ATOM      1  C   UNL     1      75.894  90.300  77.383  1.00  0.00     0.000 C 
ENDROOT
BRANCH   1   2
ATOM      2  C   UNL     1      75.458  91.531  76.579  1.00  0.00     0.000 C 
BRANCH   2   3
ATOM      3  C   UNL     1      76.173  91.586  75.222  1.00  0.00     0.000 C 
BRANCH   3   4
ATOM      4  C   UNL     1      75.196  91.969  74.101  1.00  0.00     0.000 C 
BRANCH   4   5
ATOM      5  C   UNL     1      75.085  90.887  73.011  1.00  0.00     0.006 C 
BRANCH   5   6
ATOM      6  C   UNL     1      74.296  89.638  73.437  1.00  0.00     0.053 C 
BRANCH   6   7
ATOM      7  C   UNL     1      75.178  88.434  73.569  1.00  0.00     0.041 C 
ATOM      8  O   UNL     1      76.374  88.478  73.177  1.00  0.00    -0.550 OA
ATOM      9  O   UNL     1      74.668  87.252  74.092  1.00  0.00    -0.550 OA
ENDBRANCH   6   7
ENDBRANCH   5   6
ENDBRANCH   4   5
ENDBRANCH   3   4
ENDBRANCH   2   3
ENDBRANCH   1   2
BRANCH   1  10
ATOM     10  C   UNL     1      75.947  90.615  78.884  1.00  0.00     0.000 C 
BRANCH  10  11
ATOM     11  C   UNL     1      75.248  91.938  79.240  1.00  0.00    -0.000 C 
BRANCH  11  12
ATOM     12  C   UNL     1      73.955  91.724  80.046  1.00  0.00    -0.000 C 
BRANCH  12  13
ATOM     13  C   UNL     1      73.744  90.253  80.441  1.00  0.00    -0.000 C 
BRANCH  13  14
ATOM     14  C   UNL     1      72.673  90.080  81.534  1.00  0.00    -0.000 C 
BRANCH  14  15
ATOM     15  C   UNL     1      73.198  89.307  82.754  1.00  0.00    -0.003 C 
ATOM     16  C   UNL     1      72.159  89.186  83.868  1.00  0.00     0.004 C 
ENDBRANCH  14  15
ENDBRANCH  13  14
ENDBRANCH  12  13
ENDBRANCH  11  12
ENDBRANCH  10  11
ENDBRANCH   1  10
TORSDOF 12
ENDMDL
MODEL 6
REMARK VINA RESULT:    -2.041      9.927     11.898
REMARK INTER + INTRA:          -5.517
REMARK INTER:                  -4.619
REMARK INTRA:                  -0.898
REMARK UNBOUND:                -2.044
REMARK SMILES CCCCCCCCCCCCCC(=O)[O-]
REMARK SMILES IDX 8 1 9 2 10 3 11 4 12 5 13 6 14 7 15 8 16 9 7 10 6 11 5 12
REMARK SMILES IDX 4 13 3 14 2 15 1 16
REMARK H PARENT
REMARK Flexibility Score: inf
ROOT
ATOM      1  C   UNL     1      75.999  90.266  77.638  1.00  0.00     0.000 C 
ENDROOT
BRANCH   1   2
ATOM      2  C   UNL     1      76.778  90.642  78.904  1.00  0.00     0.000 C 
BRANCH   2   3
ATOM      3  C   UNL     1      75.825  90.996  80.054  1.00  0.00     0.000 C 
BRANCH   3   4
ATOM      4  C   UNL     1      74.432  91.360  79.519  1.00  0.00     0.000 C 
BRANCH   4   5
ATOM      5  C   UNL     1      73.435  91.706  80.641  1.00  0.00     0.006 C 
BRANCH   5   6
ATOM      6  C   UNL     1      72.281  90.702  80.795  1.00  0.00     0.053 C 
BRANCH   6   7
ATOM      7  C   UNL     1      72.613  89.611  81.766  1.00  0.00     0.041 C 
ATOM      8  O   UNL     1      72.283  89.718  82.977  1.00  0.00    -0.550 OA
ATOM      9  O   UNL     1      73.317  88.491  81.341  1.00  0.00    -0.550 OA
ENDBRANCH   6   7
ENDBRANCH   5   6
ENDBRANCH   4   5
ENDBRANCH   3   4
ENDBRANCH   2   3
ENDBRANCH   1   2
BRANCH   1  10
ATOM     10  C   UNL     1      76.498  91.068  76.427  1.00  0.00     0.000 C 
BRANCH  10  11
ATOM     11  C   UNL     1      75.373  91.843  75.721  1.00  0.00    -0.000 C 
BRANCH  11  12
ATOM     12  C   UNL     1      75.676  92.101  74.236  1.00  0.00    -0.000 C 
BRANCH  12  13
ATOM     13  C   UNL     1      75.619  90.818  73.391  1.00  0.00    -0.000 C 
BRANCH  13  14
ATOM     14  C   UNL     1      74.293  90.054  73.560  1.00  0.00    -0.000 C 
BRANCH  14  15
ATOM     15  C   UNL     1      74.366  88.621  73.011  1.00  0.00    -0.003 C 
ATOM     16  C   UNL     1      75.739  87.982  73.211  1.00  0.00     0.004 C 
ENDBRANCH  14  15
ENDBRANCH  13  14
ENDBRANCH  12  13
ENDBRANCH  11  12
ENDBRANCH  10  11
ENDBRANCH   1  10
TORSDOF 12
ENDMDL
MODEL 7
REMARK VINA RESULT:    -2.018     14.253     17.013
REMARK INTER + INTRA:          -5.478
REMARK INTER:                  -3.305
REMARK INTRA:                  -2.173
REMARK UNBOUND:                -2.044
REMARK SMILES CCCCCCCCCCCCCC(=O)[O-]
REMARK SMILES IDX 8 1 9 2 10 3 11 4 12 5 13 6 14 7 15 8 16 9 7 10 6 11 5 12
REMARK SMILES IDX 4 13 3 14 2 15 1 16
REMARK H PARENT
REMARK Flexibility Score: inf
ROOT
ATOM      1  C   UNL     1      87.619  86.235  91.318  1.00  0.00     0.000 C 
ENDROOT
BRANCH   1   2
ATOM      2  C   UNL     1      87.674  84.755  90.919  1.00  0.00     0.000 C 
BRANCH   2   3
ATOM      3  C   UNL     1      88.837  84.487  89.955  1.00  0.00     0.000 C 
BRANCH   3   4
ATOM      4  C   UNL     1      89.192  85.750  89.157  1.00  0.00     0.000 C 
BRANCH   4   5
ATOM      5  C   UNL     1      90.705  85.893  88.907  1.00  0.00     0.006 C 
BRANCH   5   6
ATOM      6  C   UNL     1      91.176  87.339  88.683  1.00  0.00     0.053 C 
BRANCH   6   7
ATOM      7  C   UNL     1      91.387  87.642  87.231  1.00  0.00     0.041 C 
ATOM      8  O   UNL     1      91.682  88.810  86.864  1.00  0.00    -0.550 OA
ATOM      9  O   UNL     1      91.224  86.642  86.280  1.00  0.00    -0.550 OA
ENDBRANCH   6   7
ENDBRANCH   5   6
ENDBRANCH   4   5
ENDBRANCH   3   4
ENDBRANCH   2   3
ENDBRANCH   1   2
BRANCH   1  10
ATOM     10  C   UNL     1      88.447  86.492  92.586  1.00  0.00     0.000 C 
BRANCH  10  11
ATOM     11  C   UNL     1      89.411  87.680  92.436  1.00  0.00    -0.000 C 
BRANCH  11  12
ATOM     12  C   UNL     1      90.885  87.242  92.396  1.00  0.00    -0.000 C 
BRANCH  12  13
ATOM     13  C   UNL     1      91.117  85.890  93.090  1.00  0.00    -0.000 C 
BRANCH  13  14
ATOM     14  C   UNL     1      91.883  84.891  92.203  1.00  0.00    -0.000 C 
BRANCH  14  15
ATOM     15  C   UNL     1      91.636  83.431  92.614  1.00  0.00    -0.003 C 
ATOM     16  C   UNL     1      90.214  83.192  93.119  1.00  0.00     0.004 C 
ENDBRANCH  14  15
ENDBRANCH  13  14
ENDBRANCH  12  13
ENDBRANCH  11  12
ENDBRANCH  10  11
ENDBRANCH   1  10
TORSDOF 12
ENDMDL
MODEL 8
REMARK VINA RESULT:    -1.995     16.889     18.441
REMARK INTER + INTRA:          -5.439
REMARK INTER:                  -3.591
REMARK INTRA:                  -1.848
REMARK UNBOUND:                -2.044
REMARK SMILES CCCCCCCCCCCCCC(=O)[O-]
REMARK SMILES IDX 8 1 9 2 10 3 11 4 12 5 13 6 14 7 15 8 16 9 7 10 6 11 5 12
REMARK SMILES IDX 4 13 3 14 2 15 1 16
REMARK H PARENT
REMARK Flexibility Score: inf
ROOT
ATOM      1  C   UNL     1      72.978  85.903  91.504  1.00  0.00     0.000 C 
ENDROOT
BRANCH   1   2
ATOM      2  C   UNL     1      74.355  85.344  91.880  1.00  0.00     0.000 C 
BRANCH   2   3
ATOM      3  C   UNL     1      75.262  85.235  90.647  1.00  0.00     0.000 C 
BRANCH   3   4
ATOM      4  C   UNL     1      74.444  85.357  89.352  1.00  0.00     0.000 C 
BRANCH   4   5
ATOM      5  C   UNL     1      75.026  86.395  88.375  1.00  0.00     0.006 C 
BRANCH   5   6
ATOM      6  C   UNL     1      74.118  87.611  88.128  1.00  0.00     0.053 C 
BRANCH   6   7
ATOM      7  C   UNL     1      73.340  87.482  86.854  1.00  0.00     0.041 C 
ATOM      8  O   UNL     1      73.476  86.462  86.128  1.00  0.00    -0.550 OA
ATOM      9  O   UNL     1      72.492  88.506  86.450  1.00  0.00    -0.550 OA
ENDBRANCH   6   7
ENDBRANCH   5   6
ENDBRANCH   4   5
ENDBRANCH   3   4
ENDBRANCH   2   3
ENDBRANCH   1   2
BRANCH   1  10
ATOM     10  C   UNL     1      72.716  87.242  92.209  1.00  0.00     0.000 C 
BRANCH  10  11
ATOM     11  C   UNL     1      73.485  88.411  91.571  1.00  0.00    -0.000 C 
BRANCH  11  12
ATOM     12  C   UNL     1      74.117  89.343  92.618  1.00  0.00    -0.000 C 
BRANCH  12  13
ATOM     13  C   UNL     1      75.586  89.672  92.303  1.00  0.00    -0.000 C 
BRANCH  13  14
ATOM     14  C   UNL     1      76.212  88.688  91.297  1.00  0.00    -0.000 C 
BRANCH  14  15
ATOM     15  C   UNL     1      77.165  89.384  90.312  1.00  0.00    -0.003 C 
ATOM     16  C   UNL     1      77.995  88.394  89.496  1.00  0.00     0.004 C 
ENDBRANCH  14  15
ENDBRANCH  13  14
ENDBRANCH  12  13
ENDBRANCH  11  12
ENDBRANCH  10  11
ENDBRANCH   1  10
TORSDOF 12
ENDMDL
