MODEL 1
REMARK VINA RESULT:    -3.671      0.000      0.000
REMARK INTER + INTRA:          -5.043
REMARK INTER:                  -4.744
REMARK INTRA:                  -0.299
REMARK UNBOUND:                -0.299
REMARK SMILES C=CC(=O)CCCCC
REMARK SMILES IDX 6 1 7 2 8 3 9 4 5 5 3 6 4 7 2 8 1 9
REMARK H PARENT
REMARK Flexibility Score: inf
ROOT
ATOM      1  C   UNL     1      14.623  61.305  21.793  1.00  0.00     0.008 C 
ENDROOT
BRANCH   1   2
ATOM      2  C   UNL     1      15.735  61.824  20.862  1.00  0.00     0.000 C 
BRANCH   2   3
ATOM      3  C   UNL     1      16.639  60.731  20.264  1.00  0.00    -0.003 C 
ATOM      4  C   UNL     1      17.627  60.152  21.278  1.00  0.00     0.004 C 
ENDBRANCH   2   3
ENDBRANCH   1   2
BRANCH   1   5
ATOM      5  C   UNL     1      13.229  61.804  21.394  1.00  0.00     0.080 C 
BRANCH   5   6
ATOM      6  C   UNL     1      12.695  61.005  20.241  1.00  0.00     0.155 C 
ATOM      7  O   UNL     1      12.348  59.807  20.428  1.00  0.00    -0.295 OA
BRANCH   6   8
ATOM      8  C   UNL     1      12.537  61.635  18.916  1.00  0.00     0.039 C 
ATOM      9  C   UNL     1      11.988  62.838  18.757  1.00  0.00     0.012 C 
ENDBRANCH   6   8
ENDBRANCH   5   6
ENDBRANCH   1   5
TORSDOF 5
ENDMDL
MODEL 2
REMARK VINA RESULT:    -3.632     16.600     17.892
REMARK INTER + INTRA:          -4.993
REMARK INTER:                  -4.555
REMARK INTRA:                  -0.438
REMARK UNBOUND:                -0.299
REMARK SMILES C=CC(=O)CCCCC
REMARK SMILES IDX 6 1 7 2 8 3 9 4 5 5 3 6 4 7 2 8 1 9
REMARK H PARENT
REMARK Flexibility Score: inf
ROOT
ATOM      1  C   UNL     1      16.542  52.350  34.111  1.00  0.00     0.008 C 
ENDROOT
BRANCH   1   2
ATOM      2  C   UNL     1      17.858  51.952  34.803  1.00  0.00     0.000 C 
BRANCH   2   3
ATOM      3  C   UNL     1      18.735  53.133  35.254  1.00  0.00    -0.003 C 
ATOM      4  C   UNL     1      18.149  54.493  34.869  1.00  0.00     0.004 C 
ENDBRANCH   2   3
ENDBRANCH   1   2
BRANCH   1   5
ATOM      5  C   UNL     1      15.299  51.855  34.862  1.00  0.00     0.080 C 
BRANCH   5   6
ATOM      6  C   UNL     1      15.060  52.687  36.088  1.00  0.00     0.155 C 
ATOM      7  O   UNL     1      14.607  53.858  35.961  1.00  0.00    -0.295 OA
BRANCH   6   8
ATOM      8  C   UNL     1      15.310  52.120  37.427  1.00  0.00     0.039 C 
ATOM      9  C   UNL     1      14.736  50.993  37.844  1.00  0.00     0.012 C 
ENDBRANCH   6   8
ENDBRANCH   5   6
ENDBRANCH   1   5
TORSDOF 5
ENDMDL
MODEL 3
REMARK VINA RESULT:    -3.606     16.545     18.201
REMARK INTER + INTRA:          -4.959
REMARK INTER:                  -4.829
REMARK INTRA:                  -0.130
REMARK UNBOUND:                -0.299
REMARK SMILES C=CC(=O)CCCCC
REMARK SMILES IDX 6 1 7 2 8 3 9 4 5 5 3 6 4 7 2 8 1 9
REMARK H PARENT
REMARK Flexibility Score: inf
ROOT
ATOM      1  C   UNL     1      16.789  52.771  35.610  1.00  0.00     0.008 C 
ENDROOT
BRANCH   1   2
ATOM      2  C   UNL     1      15.554  51.923  35.964  1.00  0.00     0.000 C 
BRANCH   2   3
ATOM      3  C   UNL     1      15.084  52.043  37.425  1.00  0.00    -0.003 C 
ATOM      4  C   UNL     1      14.599  50.716  38.008  1.00  0.00     0.004 C 
ENDBRANCH   2   3
ENDBRANCH   1   2
BRANCH   1   5
ATOM      5  C   UNL     1      17.750  52.057  34.651  1.00  0.00     0.080 C 
BRANCH   5   6
ATOM      6  C   UNL     1      19.124  52.652  34.744  1.00  0.00     0.155 C 
ATOM      7  O   UNL     1      19.570  53.002  35.871  1.00  0.00    -0.295 OA
BRANCH   6   8
ATOM      8  C   UNL     1      19.958  52.781  33.534  1.00  0.00     0.039 C 
ATOM      9  C   UNL     1      19.438  52.809  32.307  1.00  0.00     0.012 C 
ENDBRANCH   6   8
ENDBRANCH   5   6
ENDBRANCH   1   5
TORSDOF 5
ENDMDL
MODEL 4
REMARK VINA RESULT:    -3.529     16.348     17.861
REMARK INTER + INTRA:          -4.860
REMARK INTER:                  -4.664
REMARK INTRA:                  -0.196
REMARK UNBOUND:                -0.299
REMARK SMILES C=CC(=O)CCCCC
REMARK SMILES IDX 6 1 7 2 8 3 9 4 5 5 3 6 4 7 2 8 1 9
REMARK H PARENT
REMARK Flexibility Score: inf
ROOT
ATOM      1  C   UNL     1      16.763  52.143  35.117  1.00  0.00     0.008 C 
ENDROOT
BRANCH   1   2
ATOM      2  C   UNL     1      15.333  52.030  35.677  1.00  0.00     0.000 C 
BRANCH   2   3
ATOM      3  C   UNL     1      15.225  52.167  37.206  1.00  0.00    -0.003 C 
ATOM      4  C   UNL     1      14.711  50.897  37.885  1.00  0.00     0.004 C 
ENDBRANCH   2   3
ENDBRANCH   1   2
BRANCH   1   5
ATOM      5  C   UNL     1      17.580  53.255  35.787  1.00  0.00     0.080 C 
BRANCH   5   6
ATOM      6  C   UNL     1      18.710  53.685  34.897  1.00  0.00     0.155 C 
ATOM      7  O   UNL     1      19.725  52.943  34.788  1.00  0.00    -0.295 OA
BRANCH   6   8
ATOM      8  C   UNL     1      18.609  54.938  34.127  1.00  0.00     0.039 C 
ATOM      9  C   UNL     1      17.947  56.003  34.577  1.00  0.00     0.012 C 
ENDBRANCH   6   8
ENDBRANCH   5   6
ENDBRANCH   1   5
TORSDOF 5
ENDMDL
MODEL 5
REMARK VINA RESULT:    -3.510     16.612     17.948
REMARK INTER + INTRA:          -4.836
REMARK INTER:                  -4.739
REMARK INTRA:                  -0.096
REMARK UNBOUND:                -0.299
REMARK SMILES C=CC(=O)CCCCC
REMARK SMILES IDX 6 1 7 2 8 3 9 4 5 5 3 6 4 7 2 8 1 9
REMARK H PARENT
REMARK Flexibility Score: inf
ROOT
ATOM      1  C   UNL     1      17.139  52.816  35.623  1.00  0.00     0.008 C 
ENDROOT
BRANCH   1   2
ATOM      2  C   UNL     1      15.796  52.080  35.783  1.00  0.00     0.000 C 
BRANCH   2   3
ATOM      3  C   UNL     1      15.144  52.221  37.170  1.00  0.00    -0.003 C 
ATOM      4  C   UNL     1      14.759  50.876  37.789  1.00  0.00     0.004 C 
ENDBRANCH   2   3
ENDBRANCH   1   2
BRANCH   1   5
ATOM      5  C   UNL     1      18.124  52.071  34.714  1.00  0.00     0.080 C 
BRANCH   5   6
ATOM      6  C   UNL     1      19.076  53.035  34.068  1.00  0.00     0.155 C 
ATOM      7  O   UNL     1      18.970  54.267  34.319  1.00  0.00    -0.295 OA
BRANCH   6   8
ATOM      8  C   UNL     1      20.149  52.537  33.187  1.00  0.00     0.039 C 
ATOM      9  C   UNL     1      21.276  53.216  32.979  1.00  0.00     0.012 C 
ENDBRANCH   6   8
ENDBRANCH   5   6
ENDBRANCH   1   5
TORSDOF 5
ENDMDL
MODEL 6
REMARK VINA RESULT:    -3.448      1.536      4.162
REMARK INTER + INTRA:          -4.756
REMARK INTER:                  -4.339
REMARK INTRA:                  -0.416
REMARK UNBOUND:                -0.299
REMARK SMILES C=CC(=O)CCCCC
REMARK SMILES IDX 6 1 7 2 8 3 9 4 5 5 3 6 4 7 2 8 1 9
REMARK H PARENT
REMARK Flexibility Score: inf
ROOT
ATOM      1  C   UNL     1      12.688  60.530  21.254  1.00  0.00     0.008 C 
ENDROOT
BRANCH   1   2
ATOM      2  C   UNL     1      12.475  60.984  19.799  1.00  0.00     0.000 C 
BRANCH   2   3
ATOM      3  C   UNL     1      12.634  62.496  19.563  1.00  0.00    -0.003 C 
ATOM      4  C   UNL     1      11.593  63.064  18.598  1.00  0.00     0.004 C 
ENDBRANCH   2   3
ENDBRANCH   1   2
BRANCH   1   5
ATOM      5  C   UNL     1      13.527  61.520  22.072  1.00  0.00     0.080 C 
BRANCH   5   6
ATOM      6  C   UNL     1      14.968  61.101  22.086  1.00  0.00     0.155 C 
ATOM      7  O   UNL     1      15.357  60.257  22.939  1.00  0.00    -0.295 OA
BRANCH   6   8
ATOM      8  C   UNL     1      15.905  61.639  21.081  1.00  0.00     0.039 C 
ATOM      9  C   UNL     1      16.500  60.867  20.173  1.00  0.00     0.012 C 
ENDBRANCH   6   8
ENDBRANCH   5   6
ENDBRANCH   1   5
TORSDOF 5
ENDMDL
MODEL 7
REMARK VINA RESULT:    -3.331     16.392     17.931
REMARK INTER + INTRA:          -4.604
REMARK INTER:                  -4.467
REMARK INTRA:                  -0.137
REMARK UNBOUND:                -0.299
REMARK SMILES C=CC(=O)CCCCC
REMARK SMILES IDX 6 1 7 2 8 3 9 4 5 5 3 6 4 7 2 8 1 9
REMARK H PARENT
REMARK Flexibility Score: inf
ROOT
ATOM      1  C   UNL     1      15.161  53.364  35.283  1.00  0.00     0.008 C 
ENDROOT
BRANCH   1   2
ATOM      2  C   UNL     1      15.249  51.983  35.957  1.00  0.00     0.000 C 
BRANCH   2   3
ATOM      3  C   UNL     1      15.129  52.004  37.491  1.00  0.00    -0.003 C 
ATOM      4  C   UNL     1      14.610  50.686  38.068  1.00  0.00     0.004 C 
ENDBRANCH   2   3
ENDBRANCH   1   2
BRANCH   1   5
ATOM      5  C   UNL     1      16.477  53.790  34.619  1.00  0.00     0.080 C 
BRANCH   5   6
ATOM      6  C   UNL     1      17.185  52.597  34.045  1.00  0.00     0.155 C 
ATOM      7  O   UNL     1      16.688  52.004  33.050  1.00  0.00    -0.295 OA
BRANCH   6   8
ATOM      8  C   UNL     1      18.472  52.157  34.616  1.00  0.00     0.039 C 
ATOM      9  C   UNL     1      19.236  52.957  35.359  1.00  0.00     0.012 C 
ENDBRANCH   6   8
ENDBRANCH   5   6
ENDBRANCH   1   5
TORSDOF 5
ENDMDL
MODEL 8
REMARK VINA RESULT:    -3.324      1.647      4.768
REMARK INTER + INTRA:          -4.595
REMARK INTER:                  -4.412
REMARK INTRA:                  -0.183
REMARK UNBOUND:                -0.299
REMARK SMILES C=CC(=O)CCCCC
REMARK SMILES IDX 6 1 7 2 8 3 9 4 5 5 3 6 4 7 2 8 1 9
REMARK H PARENT
REMARK Flexibility Score: inf
ROOT
ATOM      1  C   UNL     1      14.825  61.614  20.804  1.00  0.00     0.008 C 
ENDROOT
BRANCH   1   2
ATOM      2  C   UNL     1      13.299  61.797  20.715  1.00  0.00     0.000 C 
BRANCH   2   3
ATOM      3  C   UNL     1      12.705  61.598  19.310  1.00  0.00    -0.003 C 
ATOM      4  C   UNL     1      12.002  62.846  18.776  1.00  0.00     0.004 C 
ENDBRANCH   2   3
ENDBRANCH   1   2
BRANCH   1   5
ATOM      5  C   UNL     1      15.324  60.377  20.047  1.00  0.00     0.080 C 
BRANCH   5   6
ATOM      6  C   UNL     1      16.388  59.671  20.837  1.00  0.00     0.155 C 
ATOM      7  O   UNL     1      16.284  58.431  21.040  1.00  0.00    -0.295 OA
BRANCH   6   8
ATOM      8  C   UNL     1      17.562  60.417  21.327  1.00  0.00     0.039 C 
ATOM      9  C   UNL     1      18.304  59.992  22.348  1.00  0.00     0.012 C 
ENDBRANCH   6   8
ENDBRANCH   5   6
ENDBRANCH   1   5
TORSDOF 5
ENDMDL
MODEL 9
REMARK VINA RESULT:    -3.310      1.527      2.930
REMARK INTER + INTRA:          -4.576
REMARK INTER:                  -4.240
REMARK INTRA:                  -0.336
REMARK UNBOUND:                -0.299
REMARK SMILES C=CC(=O)CCCCC
REMARK SMILES IDX 6 1 7 2 8 3 9 4 5 5 3 6 4 7 2 8 1 9
REMARK H PARENT
REMARK Flexibility Score: inf
ROOT
ATOM      1  C   UNL     1      14.822  61.483  21.397  1.00  0.00     0.008 C 
ENDROOT
BRANCH   1   2
ATOM      2  C   UNL     1      13.919  61.199  22.611  1.00  0.00     0.000 C 
BRANCH   2   3
ATOM      3  C   UNL     1      13.736  62.387  23.573  1.00  0.00    -0.003 C 
ATOM      4  C   UNL     1      12.281  62.842  23.692  1.00  0.00     0.004 C 
ENDBRANCH   2   3
ENDBRANCH   1   2
BRANCH   1   5
ATOM      5  C   UNL     1      14.353  60.768  20.124  1.00  0.00     0.080 C 
BRANCH   5   6
ATOM      6  C   UNL     1      12.959  61.192  19.766  1.00  0.00     0.155 C 
ATOM      7  O   UNL     1      12.032  60.337  19.775  1.00  0.00    -0.295 OA
BRANCH   6   8
ATOM      8  C   UNL     1      12.674  62.606  19.453  1.00  0.00     0.039 C 
ATOM      9  C   UNL     1      11.603  62.982  18.755  1.00  0.00     0.012 C 
ENDBRANCH   6   8
ENDBRANCH   5   6
ENDBRANCH   1   5
TORSDOF 5
ENDMDL
