MODEL 1
REMARK VINA RESULT:     0.671      0.000      0.000
REMARK INTER + INTRA:           1.211
REMARK INTER:                   0.808
REMARK INTRA:                   0.403
REMARK UNBOUND:                 0.403
REMARK SMILES Oc1cc(O)c2c(c1)O[C@H](c1ccc(O)c(O)c1)[C@@H](O)C2
REMARK SMILES IDX 21 1 19 2 10 3 9 4 7 5 8 6 2 7 3 8 4 9 6 10 20 11 11 13
REMARK SMILES IDX 18 14 12 15 16 16 13 17 14 18 17 19 15 21 5 23 1 25
REMARK H PARENT 20 12 17 20 15 22 5 24 1 26
REMARK Flexibility Score: inf
ROOT
ATOM      1  C   UNL     1       3.541   3.379 -17.598  1.00  0.00     0.079 C 
ATOM      2  C   UNL     1       3.576   2.837 -19.041  1.00  0.00     0.164 C 
ATOM      3  C   UNL     1       3.010   1.403 -19.086  1.00  0.00     0.232 C 
ATOM      4  O   UNL     1       3.741   0.571 -18.187  1.00  0.00    -0.482 OA
ATOM      5  C   UNL     1       4.184   1.022 -16.940  1.00  0.00     0.131 A 
ATOM      6  C   UNL     1       4.725   0.101 -16.039  1.00  0.00     0.093 A 
ATOM      7  C   UNL     1       5.162   0.520 -14.778  1.00  0.00     0.122 A 
ATOM      8  C   UNL     1       5.050   1.864 -14.416  1.00  0.00     0.092 A 
ATOM      9  C   UNL     1       4.511   2.802 -15.305  1.00  0.00     0.126 A 
ATOM     10  C   UNL     1       4.107   2.392 -16.598  1.00  0.00     0.039 A 
ENDROOT
BRANCH   2  11
ATOM     11  O   UNL     1       2.875   3.694 -19.908  1.00  0.00    -0.389 OA
ATOM     12  H   UNL     1       3.540   4.290 -20.344  1.00  0.00     0.211 HD
ENDBRANCH   2  11
BRANCH   3  13
ATOM     13  C   UNL     1       3.083   0.832 -20.483  1.00  0.00    -0.001 A 
ATOM     14  C   UNL     1       3.303  -0.541 -20.676  1.00  0.00     0.057 A 
ATOM     15  C   UNL     1       2.880   1.657 -21.602  1.00  0.00     0.012 A 
ATOM     16  C   UNL     1       3.344  -1.083 -21.969  1.00  0.00     0.157 A 
ATOM     17  C   UNL     1       2.920   1.120 -22.891  1.00  0.00     0.050 A 
ATOM     18  C   UNL     1       3.153  -0.245 -23.082  1.00  0.00     0.157 A 
BRANCH  16  19
ATOM     19  O   UNL     1       3.570  -2.445 -22.151  1.00  0.00    -0.504 OA
ATOM     20  H   UNL     1       2.817  -3.081 -22.388  1.00  0.00     0.293 HD
ENDBRANCH  16  19
BRANCH  18  21
ATOM     21  O   UNL     1       3.187  -0.752 -24.381  1.00  0.00    -0.504 OA
ATOM     22  H   UNL     1       3.180  -1.748 -24.569  1.00  0.00     0.293 HD
ENDBRANCH  18  21
ENDBRANCH   3  13
BRANCH   9  23
ATOM     23  O   UNL     1       4.383   4.123 -14.869  1.00  0.00    -0.507 OA
ATOM     24  H   UNL     1       3.493   4.556 -14.662  1.00  0.00     0.293 HD
ENDBRANCH   9  23
BRANCH   7  25
ATOM     25  O   UNL     1       5.703  -0.391 -13.875  1.00  0.00    -0.508 OA
ATOM     26  H   UNL     1       5.615  -1.391 -14.015  1.00  0.00     0.293 HD
ENDBRANCH   7  25
TORSDOF 6
ENDMDL
MODEL 2
REMARK VINA RESULT:     1.174      1.683      7.233
REMARK INTER + INTRA:           1.817
REMARK INTER:                   2.158
REMARK INTRA:                  -0.340
REMARK UNBOUND:                 0.403
REMARK SMILES Oc1cc(O)c2c(c1)O[C@H](c1ccc(O)c(O)c1)[C@@H](O)C2
REMARK SMILES IDX 21 1 19 2 10 3 9 4 7 5 8 6 2 7 3 8 4 9 6 10 20 11 11 13
REMARK SMILES IDX 18 14 12 15 16 16 13 17 14 18 17 19 15 21 5 23 1 25
REMARK H PARENT 20 12 17 20 15 22 5 24 1 26
REMARK Flexibility Score: inf
ROOT
ATOM      1  C   UNL     1       3.240  -1.216 -19.638  1.00  0.00     0.079 C 
ATOM      2  C   UNL     1       3.831  -0.388 -18.480  1.00  0.00     0.164 C 
ATOM      3  C   UNL     1       3.134   0.985 -18.396  1.00  0.00     0.232 C 
ATOM      4  O   UNL     1       3.252   1.660 -19.647  1.00  0.00    -0.482 OA
ATOM      5  C   UNL     1       3.157   0.990 -20.872  1.00  0.00     0.131 A 
ATOM      6  C   UNL     1       3.093   1.739 -22.049  1.00  0.00     0.093 A 
ATOM      7  C   UNL     1       2.981   1.099 -23.288  1.00  0.00     0.122 A 
ATOM      8  C   UNL     1       2.925  -0.295 -23.345  1.00  0.00     0.092 A 
ATOM      9  C   UNL     1       2.988  -1.063 -22.177  1.00  0.00     0.126 A 
ATOM     10  C   UNL     1       3.144  -0.422 -20.924  1.00  0.00     0.039 A 
ENDROOT
BRANCH   2  11
ATOM     11  O   UNL     1       3.729  -1.092 -17.266  1.00  0.00    -0.389 OA
ATOM     12  H   UNL     1       3.694  -0.423 -16.533  1.00  0.00     0.211 HD
ENDBRANCH   2  11
BRANCH   3  13
ATOM     13  C   UNL     1       3.733   1.834 -17.299  1.00  0.00    -0.001 A 
ATOM     14  C   UNL     1       3.033   2.038 -16.100  1.00  0.00     0.057 A 
ATOM     15  C   UNL     1       5.016   2.386 -17.445  1.00  0.00     0.012 A 
ATOM     16  C   UNL     1       3.594   2.802 -15.066  1.00  0.00     0.157 A 
ATOM     17  C   UNL     1       5.579   3.147 -16.417  1.00  0.00     0.050 A 
ATOM     18  C   UNL     1       4.874   3.360 -15.228  1.00  0.00     0.157 A 
BRANCH  16  19
ATOM     19  O   UNL     1       2.890   3.005 -13.882  1.00  0.00    -0.504 OA
ATOM     20  H   UNL     1       3.025   2.408 -13.074  1.00  0.00     0.293 HD
ENDBRANCH  16  19
BRANCH  18  21
ATOM     21  O   UNL     1       5.461   4.125 -14.221  1.00  0.00    -0.504 OA
ATOM     22  H   UNL     1       5.870   5.033 -14.405  1.00  0.00     0.293 HD
ENDBRANCH  18  21
ENDBRANCH   3  13
BRANCH   9  23
ATOM     23  O   UNL     1       2.882  -2.450 -22.295  1.00  0.00    -0.507 OA
ATOM     24  H   UNL     1       3.110  -2.955 -23.142  1.00  0.00     0.293 HD
ENDBRANCH   9  23
BRANCH   7  25
ATOM     25  O   UNL     1       2.918   1.838 -24.466  1.00  0.00    -0.508 OA
ATOM     26  H   UNL     1       3.229   2.802 -24.504  1.00  0.00     0.293 HD
ENDBRANCH   7  25
TORSDOF 6
ENDMDL
