MODEL 1
REMARK VINA RESULT:    -5.530      0.000      0.000
REMARK INTER + INTRA:          -6.657
REMARK INTER:                  -6.339
REMARK INTRA:                  -0.318
REMARK UNBOUND:                -0.318
REMARK SMILES O=C1C[C@@H](c2ccc(O)cc2)Oc2cc(O)cc(O)c21
REMARK SMILES IDX 3 1 4 2 12 3 13 4 14 5 15 6 17 7 18 8 20 9 2 10 1 11 5 12
REMARK SMILES IDX 6 13 11 14 7 15 10 16 8 17 9 18 19 20 16 22
REMARK H PARENT 9 19 19 21 16 23
REMARK Flexibility Score: inf
ROOT
ATOM      1  C   UNL     1      -5.947  10.020  18.075  1.00  0.00     0.131 C 
ATOM      2  C   UNL     1      -6.179  10.582  16.666  1.00  0.00     0.211 C 
ATOM      3  O   UNL     1      -7.058   9.731  15.924  1.00  0.00    -0.484 OA
ATOM      4  C   UNL     1      -8.172   9.107  16.501  1.00  0.00     0.138 A 
ATOM      5  C   UNL     1      -9.131   8.526  15.668  1.00  0.00     0.093 A 
ATOM      6  C   UNL     1     -10.260   7.909  16.214  1.00  0.00     0.123 A 
ATOM      7  C   UNL     1     -10.414   7.848  17.600  1.00  0.00     0.093 A 
ATOM      8  C   UNL     1      -9.446   8.389  18.456  1.00  0.00     0.133 A 
ATOM      9  C   UNL     1      -8.322   9.059  17.904  1.00  0.00     0.102 A 
ATOM     10  C   UNL     1      -7.273   9.728  18.713  1.00  0.00     0.174 C 
ATOM     11  O   UNL     1      -7.485  10.103  19.896  1.00  0.00    -0.294 OA
ENDROOT
BRANCH   2  12
ATOM     12  C   UNL     1      -4.869  10.739  15.932  1.00  0.00    -0.007 A 
ATOM     13  C   UNL     1      -4.806  10.563  14.538  1.00  0.00     0.011 A 
ATOM     14  C   UNL     1      -3.688  11.009  16.643  1.00  0.00     0.011 A 
ATOM     15  C   UNL     1      -3.584  10.680  13.868  1.00  0.00     0.046 A 
ATOM     16  C   UNL     1      -2.469  11.125  15.969  1.00  0.00     0.046 A 
ATOM     17  C   UNL     1      -2.415  10.963  14.579  1.00  0.00     0.115 A 
BRANCH  17  18
ATOM     18  O   UNL     1      -1.205  11.076  13.897  1.00  0.00    -0.508 OA
ATOM     19  H   UNL     1      -0.357  10.645  14.248  1.00  0.00     0.293 HD
ENDBRANCH  17  18
ENDBRANCH   2  12
BRANCH   8  20
ATOM     20  O   UNL     1      -9.628   8.204  19.828  1.00  0.00    -0.507 OA
ATOM     21  H   UNL     1      -8.888   8.282  20.511  1.00  0.00     0.293 HD
ENDBRANCH   8  20
BRANCH   6  22
ATOM     22  O   UNL     1     -11.231   7.346  15.388  1.00  0.00    -0.508 OA
ATOM     23  H   UNL     1     -12.151   7.108  15.739  1.00  0.00     0.293 HD
ENDBRANCH   6  22
TORSDOF 4
ENDMDL
MODEL 2
REMARK VINA RESULT:    -5.433      4.729      7.529
REMARK INTER + INTRA:          -6.545
REMARK INTER:                  -6.226
REMARK INTRA:                  -0.319
REMARK UNBOUND:                -0.318
REMARK SMILES O=C1C[C@@H](c2ccc(O)cc2)Oc2cc(O)cc(O)c21
REMARK SMILES IDX 3 1 4 2 12 3 13 4 14 5 15 6 17 7 18 8 20 9 2 10 1 11 5 12
REMARK SMILES IDX 6 13 11 14 7 15 10 16 8 17 9 18 19 20 16 22
REMARK H PARENT 9 19 19 21 16 23
REMARK Flexibility Score: inf
ROOT
ATOM      1  C   UNL     1      -8.608   6.708  14.520  1.00  0.00     0.131 C 
ATOM      2  C   UNL     1     -10.109   6.651  14.837  1.00  0.00     0.211 C 
ATOM      3  O   UNL     1     -10.873   7.186  13.752  1.00  0.00    -0.484 OA
ATOM      4  C   UNL     1     -10.544   6.954  12.409  1.00  0.00     0.138 A 
ATOM      5  C   UNL     1     -11.479   7.267  11.419  1.00  0.00     0.093 A 
ATOM      6  C   UNL     1     -11.185   7.033  10.073  1.00  0.00     0.123 A 
ATOM      7  C   UNL     1      -9.940   6.513   9.715  1.00  0.00     0.093 A 
ATOM      8  C   UNL     1      -8.973   6.229  10.688  1.00  0.00     0.133 A 
ATOM      9  C   UNL     1      -9.285   6.419  12.060  1.00  0.00     0.102 A 
ATOM     10  C   UNL     1      -8.366   6.087  13.176  1.00  0.00     0.174 C 
ATOM     11  O   UNL     1      -7.426   5.261  13.038  1.00  0.00    -0.294 OA
ENDROOT
BRANCH   2  12
ATOM     12  C   UNL     1     -10.415   7.408  16.107  1.00  0.00    -0.007 A 
ATOM     13  C   UNL     1     -11.599   8.157  16.225  1.00  0.00     0.011 A 
ATOM     14  C   UNL     1      -9.490   7.415  17.165  1.00  0.00     0.011 A 
ATOM     15  C   UNL     1     -11.862   8.880  17.393  1.00  0.00     0.046 A 
ATOM     16  C   UNL     1      -9.757   8.140  18.331  1.00  0.00     0.046 A 
ATOM     17  C   UNL     1     -10.946   8.873  18.448  1.00  0.00     0.115 A 
BRANCH  17  18
ATOM     18  O   UNL     1     -11.222   9.598  19.604  1.00  0.00    -0.508 OA
ATOM     19  H   UNL     1     -11.388   9.137  20.492  1.00  0.00     0.293 HD
ENDBRANCH  17  18
ENDBRANCH   2  12
BRANCH   8  20
ATOM     20  O   UNL     1      -7.721   5.799  10.241  1.00  0.00    -0.507 OA
ATOM     21  H   UNL     1      -6.858   5.967  10.736  1.00  0.00     0.293 HD
ENDBRANCH   8  20
BRANCH   6  22
ATOM     22  O   UNL     1     -12.120   7.323   9.082  1.00  0.00    -0.508 OA
ATOM     23  H   UNL     1     -12.662   6.592   8.634  1.00  0.00     0.293 HD
ENDBRANCH   6  22
TORSDOF 4
ENDMDL
MODEL 3
REMARK VINA RESULT:    -5.311      4.114      5.843
REMARK INTER + INTRA:          -6.405
REMARK INTER:                  -6.117
REMARK INTRA:                  -0.288
REMARK UNBOUND:                -0.318
REMARK SMILES O=C1C[C@@H](c2ccc(O)cc2)Oc2cc(O)cc(O)c21
REMARK SMILES IDX 3 1 4 2 12 3 13 4 14 5 15 6 17 7 18 8 20 9 2 10 1 11 5 12
REMARK SMILES IDX 6 13 11 14 7 15 10 16 8 17 9 18 19 20 16 22
REMARK H PARENT 9 19 19 21 16 23
REMARK Flexibility Score: inf
ROOT
ATOM      1  C   UNL     1      -9.421   7.175  17.151  1.00  0.00     0.131 C 
ATOM      2  C   UNL     1     -10.052   8.433  17.765  1.00  0.00     0.211 C 
ATOM      3  O   UNL     1     -10.274   9.426  16.759  1.00  0.00    -0.484 OA
ATOM      4  C   UNL     1     -10.723   9.109  15.470  1.00  0.00     0.138 A 
ATOM      5  C   UNL     1     -11.180  10.136  14.640  1.00  0.00     0.093 A 
ATOM      6  C   UNL     1     -11.648   9.849  13.355  1.00  0.00     0.123 A 
ATOM      7  C   UNL     1     -11.629   8.533  12.887  1.00  0.00     0.093 A 
ATOM      8  C   UNL     1     -11.138   7.493  13.688  1.00  0.00     0.133 A 
ATOM      9  C   UNL     1     -10.708   7.774  15.011  1.00  0.00     0.102 A 
ATOM     10  C   UNL     1     -10.236   6.743  15.969  1.00  0.00     0.174 C 
ATOM     11  O   UNL     1     -10.546   5.529  15.843  1.00  0.00    -0.294 OA
ENDROOT
BRANCH   2  12
ATOM     12  C   UNL     1      -9.175   8.991  18.859  1.00  0.00    -0.007 A 
ATOM     13  C   UNL     1      -9.696   9.225  20.144  1.00  0.00     0.011 A 
ATOM     14  C   UNL     1      -7.840   9.336  18.587  1.00  0.00     0.011 A 
ATOM     15  C   UNL     1      -8.885   9.771  21.144  1.00  0.00     0.046 A 
ATOM     16  C   UNL     1      -7.034   9.882  19.590  1.00  0.00     0.046 A 
ATOM     17  C   UNL     1      -7.555  10.099  20.872  1.00  0.00     0.115 A 
BRANCH  17  18
ATOM     18  O   UNL     1      -6.760  10.642  21.879  1.00  0.00    -0.508 OA
ATOM     19  H   UNL     1      -6.965  10.485  22.859  1.00  0.00     0.293 HD
ENDBRANCH  17  18
ENDBRANCH   2  12
BRANCH   8  20
ATOM     20  O   UNL     1     -11.067   6.222  13.114  1.00  0.00    -0.507 OA
ATOM     21  H   UNL     1     -11.549   5.957  12.268  1.00  0.00     0.293 HD
ENDBRANCH   8  20
BRANCH   6  22
ATOM     22  O   UNL     1     -12.125  10.865  12.530  1.00  0.00    -0.508 OA
ATOM     23  H   UNL     1     -12.784  11.557  12.868  1.00  0.00     0.293 HD
ENDBRANCH   6  22
TORSDOF 4
ENDMDL
MODEL 4
REMARK VINA RESULT:    -5.273      3.711      5.927
REMARK INTER + INTRA:          -6.362
REMARK INTER:                  -6.065
REMARK INTRA:                  -0.297
REMARK UNBOUND:                -0.318
REMARK SMILES O=C1C[C@@H](c2ccc(O)cc2)Oc2cc(O)cc(O)c21
REMARK SMILES IDX 3 1 4 2 12 3 13 4 14 5 15 6 17 7 18 8 20 9 2 10 1 11 5 12
REMARK SMILES IDX 6 13 11 14 7 15 10 16 8 17 9 18 19 20 16 22
REMARK H PARENT 9 19 19 21 16 23
REMARK Flexibility Score: inf
ROOT
ATOM      1  C   UNL     1      -7.877   8.936  17.788  1.00  0.00     0.131 C 
ATOM      2  C   UNL     1      -9.233   9.381  17.221  1.00  0.00     0.211 C 
ATOM      3  O   UNL     1     -10.221   9.421  18.256  1.00  0.00    -0.484 OA
ATOM      4  C   UNL     1      -9.943   9.880  19.550  1.00  0.00     0.138 A 
ATOM      5  C   UNL     1     -11.005  10.151  20.416  1.00  0.00     0.093 A 
ATOM      6  C   UNL     1     -10.759  10.624  21.708  1.00  0.00     0.123 A 
ATOM      7  C   UNL     1      -9.444  10.798  22.144  1.00  0.00     0.093 A 
ATOM      8  C   UNL     1      -8.363  10.495  21.307  1.00  0.00     0.133 A 
ATOM      9  C   UNL     1      -8.609  10.060  19.978  1.00  0.00     0.102 A 
ATOM     10  C   UNL     1      -7.544   9.778  18.983  1.00  0.00     0.174 C 
ATOM     11  O   UNL     1      -6.390  10.269  19.091  1.00  0.00    -0.294 OA
ENDROOT
BRANCH   2  12
ATOM     12  C   UNL     1      -9.679   8.456  16.115  1.00  0.00    -0.007 A 
ATOM     13  C   UNL     1     -10.153   7.166  16.411  1.00  0.00     0.011 A 
ATOM     14  C   UNL     1      -9.572   8.856  14.773  1.00  0.00     0.011 A 
ATOM     15  C   UNL     1     -10.536   6.302  15.379  1.00  0.00     0.046 A 
ATOM     16  C   UNL     1      -9.955   7.990  13.745  1.00  0.00     0.046 A 
ATOM     17  C   UNL     1     -10.441   6.710  14.047  1.00  0.00     0.115 A 
BRANCH  17  18
ATOM     18  O   UNL     1     -10.826   5.839  13.030  1.00  0.00    -0.508 OA
ATOM     19  H   UNL     1     -10.952   4.848  13.201  1.00  0.00     0.293 HD
ENDBRANCH  17  18
ENDBRANCH   2  12
BRANCH   8  20
ATOM     20  O   UNL     1      -7.081  10.606  21.849  1.00  0.00    -0.507 OA
ATOM     21  H   UNL     1      -6.554   9.828  22.216  1.00  0.00     0.293 HD
ENDBRANCH   8  20
BRANCH   6  22
ATOM     22  O   UNL     1     -11.814  10.917  22.569  1.00  0.00    -0.508 OA
ATOM     23  H   UNL     1     -12.243  11.835  22.589  1.00  0.00     0.293 HD
ENDBRANCH   6  22
TORSDOF 4
ENDMDL
MODEL 5
REMARK VINA RESULT:    -5.217      3.413      5.041
REMARK INTER + INTRA:          -6.297
REMARK INTER:                  -5.982
REMARK INTRA:                  -0.315
REMARK UNBOUND:                -0.318
REMARK SMILES O=C1C[C@@H](c2ccc(O)cc2)Oc2cc(O)cc(O)c21
REMARK SMILES IDX 3 1 4 2 12 3 13 4 14 5 15 6 17 7 18 8 20 9 2 10 1 11 5 12
REMARK SMILES IDX 6 13 11 14 7 15 10 16 8 17 9 18 19 20 16 22
REMARK H PARENT 9 19 19 21 16 23
REMARK Flexibility Score: inf
ROOT
ATOM      1  C   UNL     1      -8.584   8.901  15.080  1.00  0.00     0.131 C 
ATOM      2  C   UNL     1      -7.350   9.581  14.469  1.00  0.00     0.211 C 
ATOM      3  O   UNL     1      -6.760   8.745  13.469  1.00  0.00    -0.484 OA
ATOM      4  C   UNL     1      -7.523   7.987  12.570  1.00  0.00     0.138 A 
ATOM      5  C   UNL     1      -6.894   7.422  11.457  1.00  0.00     0.093 A 
ATOM      6  C   UNL     1      -7.632   6.673  10.536  1.00  0.00     0.123 A 
ATOM      7  C   UNL     1      -8.996   6.465  10.744  1.00  0.00     0.093 A 
ATOM      8  C   UNL     1      -9.638   6.989  11.874  1.00  0.00     0.133 A 
ATOM      9  C   UNL     1      -8.904   7.790  12.787  1.00  0.00     0.102 A 
ATOM     10  C   UNL     1      -9.495   8.452  13.976  1.00  0.00     0.174 C 
ATOM     11  O   UNL     1     -10.728   8.692  14.057  1.00  0.00    -0.294 OA
ENDROOT
BRANCH   2  12
ATOM     12  C   UNL     1      -6.335   9.905  15.538  1.00  0.00    -0.007 A 
ATOM     13  C   UNL     1      -4.968   9.991  15.222  1.00  0.00     0.011 A 
ATOM     14  C   UNL     1      -6.742  10.069  16.873  1.00  0.00     0.011 A 
ATOM     15  C   UNL     1      -4.029  10.262  16.223  1.00  0.00     0.046 A 
ATOM     16  C   UNL     1      -5.801  10.339  17.869  1.00  0.00     0.046 A 
ATOM     17  C   UNL     1      -4.441  10.438  17.546  1.00  0.00     0.115 A 
BRANCH  17  18
ATOM     18  O   UNL     1      -3.494  10.707  18.532  1.00  0.00    -0.508 OA
ATOM     19  H   UNL     1      -2.944  11.558  18.520  1.00  0.00     0.293 HD
ENDBRANCH  17  18
ENDBRANCH   2  12
BRANCH   8  20
ATOM     20  O   UNL     1     -10.982   6.657  12.059  1.00  0.00    -0.507 OA
ATOM     21  H   UNL     1     -11.738   7.326  12.030  1.00  0.00     0.293 HD
ENDBRANCH   8  20
BRANCH   6  22
ATOM     22  O   UNL     1      -7.016   6.125   9.412  1.00  0.00    -0.508 OA
ATOM     23  H   UNL     1      -7.540   5.913   8.571  1.00  0.00     0.293 HD
ENDBRANCH   6  22
TORSDOF 4
ENDMDL
MODEL 6
REMARK VINA RESULT:    -5.214      1.690      2.187
REMARK INTER + INTRA:          -6.294
REMARK INTER:                  -5.983
REMARK INTRA:                  -0.311
REMARK UNBOUND:                -0.318
REMARK SMILES O=C1C[C@@H](c2ccc(O)cc2)Oc2cc(O)cc(O)c21
REMARK SMILES IDX 3 1 4 2 12 3 13 4 14 5 15 6 17 7 18 8 20 9 2 10 1 11 5 12
REMARK SMILES IDX 6 13 11 14 7 15 10 16 8 17 9 18 19 20 16 22
REMARK H PARENT 9 19 19 21 16 23
REMARK Flexibility Score: inf
ROOT
ATOM      1  C   UNL     1      -5.737   9.994  19.166  1.00  0.00     0.131 C 
ATOM      2  C   UNL     1      -6.205  10.753  17.916  1.00  0.00     0.211 C 
ATOM      3  O   UNL     1      -7.476  10.263  17.478  1.00  0.00    -0.484 OA
ATOM      4  C   UNL     1      -8.497   9.906  18.369  1.00  0.00     0.138 A 
ATOM      5  C   UNL     1      -9.788   9.705  17.874  1.00  0.00     0.093 A 
ATOM      6  C   UNL     1     -10.830   9.363  18.740  1.00  0.00     0.123 A 
ATOM      7  C   UNL     1     -10.573   9.190  20.101  1.00  0.00     0.093 A 
ATOM      8  C   UNL     1      -9.278   9.347  20.613  1.00  0.00     0.133 A 
ATOM      9  C   UNL     1      -8.226   9.743  19.745  1.00  0.00     0.102 A 
ATOM     10  C   UNL     1      -6.835  10.005  20.188  1.00  0.00     0.174 C 
ATOM     11  O   UNL     1      -6.562  10.289  21.384  1.00  0.00    -0.294 OA
ENDROOT
BRANCH   2  12
ATOM     12  C   UNL     1      -5.191  10.629  16.805  1.00  0.00    -0.007 A 
ATOM     13  C   UNL     1      -3.827  10.455  17.099  1.00  0.00     0.011 A 
ATOM     14  C   UNL     1      -5.595  10.742  15.464  1.00  0.00     0.011 A 
ATOM     15  C   UNL     1      -2.889  10.371  16.065  1.00  0.00     0.046 A 
ATOM     16  C   UNL     1      -4.654  10.658  14.434  1.00  0.00     0.046 A 
ATOM     17  C   UNL     1      -3.297  10.470  14.733  1.00  0.00     0.115 A 
BRANCH  17  18
ATOM     18  O   UNL     1      -2.352  10.385  13.714  1.00  0.00    -0.508 OA
ATOM     19  H   UNL     1      -2.385  10.997  12.907  1.00  0.00     0.293 HD
ENDBRANCH  17  18
ENDBRANCH   2  12
BRANCH   8  20
ATOM     20  O   UNL     1      -9.085   9.066  21.967  1.00  0.00    -0.507 OA
ATOM     21  H   UNL     1      -8.989   8.134  22.342  1.00  0.00     0.293 HD
ENDBRANCH   8  20
BRANCH   6  22
ATOM     22  O   UNL     1     -12.125   9.182  18.257  1.00  0.00    -0.508 OA
ATOM     23  H   UNL     1     -12.914   9.670  18.664  1.00  0.00     0.293 HD
ENDBRANCH   6  22
TORSDOF 4
ENDMDL
MODEL 7
REMARK VINA RESULT:    -5.194      3.216      5.553
REMARK INTER + INTRA:          -6.272
REMARK INTER:                  -5.960
REMARK INTRA:                  -0.312
REMARK UNBOUND:                -0.318
REMARK SMILES O=C1C[C@@H](c2ccc(O)cc2)Oc2cc(O)cc(O)c21
REMARK SMILES IDX 3 1 4 2 12 3 13 4 14 5 15 6 17 7 18 8 20 9 2 10 1 11 5 12
REMARK SMILES IDX 6 13 11 14 7 15 10 16 8 17 9 18 19 20 16 22
REMARK H PARENT 9 19 19 21 16 23
REMARK Flexibility Score: inf
ROOT
ATOM      1  C   UNL     1      -9.785   7.721  17.109  1.00  0.00     0.131 C 
ATOM      2  C   UNL     1      -9.065   9.069  16.971  1.00  0.00     0.211 C 
ATOM      3  O   UNL     1      -8.138   9.034  15.882  1.00  0.00    -0.484 OA
ATOM      4  C   UNL     1      -8.418   8.386  14.671  1.00  0.00     0.138 A 
ATOM      5  C   UNL     1      -7.595   8.627  13.568  1.00  0.00     0.093 A 
ATOM      6  C   UNL     1      -7.858   8.007  12.343  1.00  0.00     0.123 A 
ATOM      7  C   UNL     1      -8.930   7.120  12.230  1.00  0.00     0.093 A 
ATOM      8  C   UNL     1      -9.744   6.834  13.333  1.00  0.00     0.133 A 
ATOM      9  C   UNL     1      -9.510   7.498  14.566  1.00  0.00     0.102 A 
ATOM     10  C   UNL     1     -10.350   7.325  15.778  1.00  0.00     0.174 C 
ATOM     11  O   UNL     1     -11.535   6.907  15.708  1.00  0.00    -0.294 OA
ENDROOT
BRANCH   2  12
ATOM     12  C   UNL     1      -8.348   9.426  18.250  1.00  0.00    -0.007 A 
ATOM     13  C   UNL     1      -9.069   9.643  19.437  1.00  0.00     0.011 A 
ATOM     14  C   UNL     1      -6.954   9.599  18.253  1.00  0.00     0.011 A 
ATOM     15  C   UNL     1      -8.401  10.004  20.612  1.00  0.00     0.046 A 
ATOM     16  C   UNL     1      -6.290   9.959  19.430  1.00  0.00     0.046 A 
ATOM     17  C   UNL     1      -7.013  10.160  20.613  1.00  0.00     0.115 A 
BRANCH  17  18
ATOM     18  O   UNL     1      -6.362  10.519  21.791  1.00  0.00    -0.508 OA
ATOM     19  H   UNL     1      -5.863   9.837  22.350  1.00  0.00     0.293 HD
ENDBRANCH  17  18
ENDBRANCH   2  12
BRANCH   8  20
ATOM     20  O   UNL     1     -10.737   5.866  13.163  1.00  0.00    -0.507 OA
ATOM     21  H   UNL     1     -10.565   4.938  12.806  1.00  0.00     0.293 HD
ENDBRANCH   8  20
BRANCH   6  22
ATOM     22  O   UNL     1      -7.054   8.259  11.233  1.00  0.00    -0.508 OA
ATOM     23  H   UNL     1      -7.429   8.241  10.292  1.00  0.00     0.293 HD
ENDBRANCH   6  22
TORSDOF 4
ENDMDL
MODEL 8
REMARK VINA RESULT:    -4.989      5.117      6.944
REMARK INTER + INTRA:          -6.036
REMARK INTER:                  -5.736
REMARK INTRA:                  -0.300
REMARK UNBOUND:                -0.318
REMARK SMILES O=C1C[C@@H](c2ccc(O)cc2)Oc2cc(O)cc(O)c21
REMARK SMILES IDX 3 1 4 2 12 3 13 4 14 5 15 6 17 7 18 8 20 9 2 10 1 11 5 12
REMARK SMILES IDX 6 13 11 14 7 15 10 16 8 17 9 18 19 20 16 22
REMARK H PARENT 9 19 19 21 16 23
REMARK Flexibility Score: inf
ROOT
ATOM      1  C   UNL     1     -10.878   8.643  12.578  1.00  0.00     0.131 C 
ATOM      2  C   UNL     1     -10.878   7.110  12.648  1.00  0.00     0.211 C 
ATOM      3  O   UNL     1     -10.105   6.658  13.764  1.00  0.00    -0.484 OA
ATOM      4  C   UNL     1     -10.120   7.306  15.006  1.00  0.00     0.138 A 
ATOM      5  C   UNL     1      -9.568   6.659  16.115  1.00  0.00     0.093 A 
ATOM      6  C   UNL     1      -9.582   7.274  17.370  1.00  0.00     0.123 A 
ATOM      7  C   UNL     1     -10.122   8.553  17.510  1.00  0.00     0.093 A 
ATOM      8  C   UNL     1     -10.645   9.237  16.404  1.00  0.00     0.133 A 
ATOM      9  C   UNL     1     -10.677   8.597  15.137  1.00  0.00     0.102 A 
ATOM     10  C   UNL     1     -11.268   9.197  13.916  1.00  0.00     0.174 C 
ATOM     11  O   UNL     1     -12.125  10.118  13.977  1.00  0.00    -0.294 OA
ENDROOT
BRANCH   2  12
ATOM     12  C   UNL     1     -10.338   6.517  11.370  1.00  0.00    -0.007 A 
ATOM     13  C   UNL     1     -11.211   6.024  10.385  1.00  0.00     0.011 A 
ATOM     14  C   UNL     1      -8.951   6.400  11.176  1.00  0.00     0.011 A 
ATOM     15  C   UNL     1     -10.704   5.448   9.216  1.00  0.00     0.046 A 
ATOM     16  C   UNL     1      -8.448   5.824  10.006  1.00  0.00     0.046 A 
ATOM     17  C   UNL     1      -9.324   5.347   9.022  1.00  0.00     0.115 A 
BRANCH  17  18
ATOM     18  O   UNL     1      -8.833   4.771   7.853  1.00  0.00    -0.508 OA
ATOM     19  H   UNL     1      -7.851   4.827   7.606  1.00  0.00     0.293 HD
ENDBRANCH  17  18
ENDBRANCH   2  12
BRANCH   8  20
ATOM     20  O   UNL     1     -11.080  10.548  16.608  1.00  0.00    -0.507 OA
ATOM     21  H   UNL     1     -10.945  11.298  15.946  1.00  0.00     0.293 HD
ENDBRANCH   8  20
BRANCH   6  22
ATOM     22  O   UNL     1      -9.053   6.625  18.484  1.00  0.00    -0.508 OA
ATOM     23  H   UNL     1      -9.590   5.941  19.003  1.00  0.00     0.293 HD
ENDBRANCH   6  22
TORSDOF 4
ENDMDL
