MODEL 1
REMARK VINA RESULT:    -4.300      0.000      0.000
REMARK INTER + INTRA:          -7.346
REMARK INTER:                  -6.814
REMARK INTRA:                  -0.532
REMARK UNBOUND:                -0.532
REMARK SMILES CCCCCCCCCCCC(=O)[O-]
REMARK SMILES IDX 7 1 8 2 9 3 10 4 11 5 12 6 13 7 14 8 6 9 5 10 4 11 3 12 2 13
REMARK SMILES IDX 1 14
REMARK H PARENT
REMARK Flexibility Score: inf
ROOT
ATOM      1  C   UNL     1       3.968 -36.804  19.786  1.00  0.00     0.000 C 
ENDROOT
BRANCH   1   2
ATOM      2  C   UNL     1       5.390 -36.485  20.277  1.00  0.00     0.000 C 
BRANCH   2   3
ATOM      3  C   UNL     1       5.612 -34.981  20.515  1.00  0.00     0.000 C 
BRANCH   3   4
ATOM      4  C   UNL     1       5.915 -34.655  21.986  1.00  0.00     0.006 C 
BRANCH   4   5
ATOM      5  C   UNL     1       5.800 -35.885  22.898  1.00  0.00     0.053 C 
BRANCH   5   6
ATOM      6  C   UNL     1       5.907 -35.481  24.334  1.00  0.00     0.041 C 
ATOM      7  O   UNL     1       6.125 -34.279  24.640  1.00  0.00    -0.550 OA
ATOM      8  O   UNL     1       5.717 -36.423  25.337  1.00  0.00    -0.550 OA
ENDBRANCH   5   6
ENDBRANCH   4   5
ENDBRANCH   3   4
ENDBRANCH   2   3
ENDBRANCH   1   2
BRANCH   1   9
ATOM      9  C   UNL     1       3.823 -36.660  18.261  1.00  0.00     0.000 C 
BRANCH   9  10
ATOM     10  C   UNL     1       2.377 -36.868  17.784  1.00  0.00    -0.000 C 
BRANCH  10  11
ATOM     11  C   UNL     1       2.087 -36.168  16.447  1.00  0.00    -0.000 C 
BRANCH  11  12
ATOM     12  C   UNL     1       3.360 -35.534  15.872  1.00  0.00    -0.000 C 
BRANCH  12  13
ATOM     13  C   UNL     1       3.525 -35.881  14.388  1.00  0.00    -0.003 C 
ATOM     14  C   UNL     1       4.267 -37.202  14.211  1.00  0.00     0.004 C 
ENDBRANCH  12  13
ENDBRANCH  11  12
ENDBRANCH  10  11
ENDBRANCH   9  10
ENDBRANCH   1   9
TORSDOF 10
ENDMDL
MODEL 2
REMARK VINA RESULT:    -4.179      4.096      7.729
REMARK INTER + INTRA:          -7.154
REMARK INTER:                  -6.744
REMARK INTRA:                  -0.411
REMARK UNBOUND:                -0.532
REMARK SMILES CCCCCCCCCCCC(=O)[O-]
REMARK SMILES IDX 7 1 8 2 9 3 10 4 11 5 12 6 13 7 14 8 6 9 5 10 4 11 3 12 2 13
REMARK SMILES IDX 1 14
REMARK H PARENT
REMARK Flexibility Score: inf
ROOT
ATOM      1  C   UNL     1       5.167 -36.844  20.284  1.00  0.00     0.000 C 
ENDROOT
BRANCH   1   2
ATOM      2  C   UNL     1       3.802 -36.885  19.577  1.00  0.00     0.000 C 
BRANCH   2   3
ATOM      3  C   UNL     1       3.876 -36.404  18.117  1.00  0.00     0.000 C 
BRANCH   3   4
ATOM      4  C   UNL     1       2.622 -36.776  17.309  1.00  0.00     0.006 C 
BRANCH   4   5
ATOM      5  C   UNL     1       2.440 -35.896  16.065  1.00  0.00     0.053 C 
BRANCH   5   6
ATOM      6  C   UNL     1       3.427 -36.276  15.008  1.00  0.00     0.041 C 
ATOM      7  O   UNL     1       3.855 -35.410  14.200  1.00  0.00    -0.550 OA
ATOM      8  O   UNL     1       3.914 -37.576  14.946  1.00  0.00    -0.550 OA
ENDBRANCH   5   6
ENDBRANCH   4   5
ENDBRANCH   3   4
ENDBRANCH   2   3
ENDBRANCH   1   2
BRANCH   1   9
ATOM      9  C   UNL     1       5.623 -35.411  20.607  1.00  0.00     0.000 C 
BRANCH   9  10
ATOM     10  C   UNL     1       4.657 -34.685  21.557  1.00  0.00    -0.000 C 
BRANCH  10  11
ATOM     11  C   UNL     1       5.319 -34.284  22.885  1.00  0.00    -0.000 C 
BRANCH  11  12
ATOM     12  C   UNL     1       5.999 -35.490  23.544  1.00  0.00    -0.000 C 
BRANCH  12  13
ATOM     13  C   UNL     1       5.708 -35.531  25.049  1.00  0.00    -0.003 C 
ATOM     14  C   UNL     1       5.453 -36.958  25.521  1.00  0.00     0.004 C 
ENDBRANCH  12  13
ENDBRANCH  11  12
ENDBRANCH  10  11
ENDBRANCH   9  10
ENDBRANCH   1   9
TORSDOF 10
ENDMDL
MODEL 3
REMARK VINA RESULT:    -4.065      4.118      7.904
REMARK INTER + INTRA:          -6.973
REMARK INTER:                  -6.514
REMARK INTRA:                  -0.459
REMARK UNBOUND:                -0.532
REMARK SMILES CCCCCCCCCCCC(=O)[O-]
REMARK SMILES IDX 7 1 8 2 9 3 10 4 11 5 12 6 13 7 14 8 6 9 5 10 4 11 3 12 2 13
REMARK SMILES IDX 1 14
REMARK H PARENT
REMARK Flexibility Score: inf
ROOT
ATOM      1  C   UNL     1       5.383 -35.271  19.646  1.00  0.00     0.000 C 
ENDROOT
BRANCH   1   2
ATOM      2  C   UNL     1       4.502 -36.489  19.969  1.00  0.00     0.000 C 
BRANCH   2   3
ATOM      3  C   UNL     1       3.546 -36.852  18.820  1.00  0.00     0.000 C 
BRANCH   3   4
ATOM      4  C   UNL     1       3.872 -36.099  17.521  1.00  0.00     0.006 C 
BRANCH   4   5
ATOM      5  C   UNL     1       3.323 -36.807  16.275  1.00  0.00     0.053 C 
BRANCH   5   6
ATOM      6  C   UNL     1       2.676 -35.821  15.356  1.00  0.00     0.041 C 
ATOM      7  O   UNL     1       1.605 -35.250  15.691  1.00  0.00    -0.550 OA
ATOM      8  O   UNL     1       3.282 -35.493  14.149  1.00  0.00    -0.550 OA
ENDBRANCH   5   6
ENDBRANCH   4   5
ENDBRANCH   3   4
ENDBRANCH   2   3
ENDBRANCH   1   2
BRANCH   1   9
ATOM      9  C   UNL     1       6.040 -34.667  20.899  1.00  0.00     0.000 C 
BRANCH   9  10
ATOM     10  C   UNL     1       5.716 -35.460  22.175  1.00  0.00    -0.000 C 
BRANCH  10  11
ATOM     11  C   UNL     1       5.478 -34.553  23.393  1.00  0.00    -0.000 C 
BRANCH  11  12
ATOM     12  C   UNL     1       6.124 -35.145  24.652  1.00  0.00    -0.000 C 
BRANCH  12  13
ATOM     13  C   UNL     1       5.081 -35.843  25.531  1.00  0.00    -0.003 C 
ATOM     14  C   UNL     1       5.449 -37.303  25.769  1.00  0.00     0.004 C 
ENDBRANCH  12  13
ENDBRANCH  11  12
ENDBRANCH  10  11
ENDBRANCH   9  10
ENDBRANCH   1   9
TORSDOF 10
ENDMDL
MODEL 4
REMARK VINA RESULT:    -4.043      4.028      7.770
REMARK INTER + INTRA:          -6.937
REMARK INTER:                  -6.354
REMARK INTRA:                  -0.583
REMARK UNBOUND:                -0.532
REMARK SMILES CCCCCCCCCCCC(=O)[O-]
REMARK SMILES IDX 7 1 8 2 9 3 10 4 11 5 12 6 13 7 14 8 6 9 5 10 4 11 3 12 2 13
REMARK SMILES IDX 1 14
REMARK H PARENT
REMARK Flexibility Score: inf
ROOT
ATOM      1  C   UNL     1       5.570 -35.828  20.623  1.00  0.00     0.000 C 
ENDROOT
BRANCH   1   2
ATOM      2  C   UNL     1       4.968 -36.829  19.623  1.00  0.00     0.000 C 
BRANCH   2   3
ATOM      3  C   UNL     1       3.430 -36.854  19.661  1.00  0.00     0.000 C 
BRANCH   3   4
ATOM      4  C   UNL     1       2.805 -36.895  18.258  1.00  0.00     0.006 C 
BRANCH   4   5
ATOM      5  C   UNL     1       3.554 -36.009  17.253  1.00  0.00     0.053 C 
BRANCH   5   6
ATOM      6  C   UNL     1       3.089 -36.292  15.860  1.00  0.00     0.041 C 
ATOM      7  O   UNL     1       3.570 -37.261  15.216  1.00  0.00    -0.550 OA
ATOM      8  O   UNL     1       2.089 -35.515  15.289  1.00  0.00    -0.550 OA
ENDBRANCH   5   6
ENDBRANCH   4   5
ENDBRANCH   3   4
ENDBRANCH   2   3
ENDBRANCH   1   2
BRANCH   1   9
ATOM      9  C   UNL     1       4.499 -34.960  21.307  1.00  0.00     0.000 C 
BRANCH   9  10
ATOM     10  C   UNL     1       5.024 -34.263  22.573  1.00  0.00    -0.000 C 
BRANCH  10  11
ATOM     11  C   UNL     1       6.064 -35.107  23.327  1.00  0.00    -0.000 C 
BRANCH  11  12
ATOM     12  C   UNL     1       5.842 -35.023  24.843  1.00  0.00    -0.000 C 
BRANCH  12  13
ATOM     13  C   UNL     1       6.125 -36.370  25.516  1.00  0.00    -0.003 C 
ATOM     14  C   UNL     1       4.831 -37.121  25.811  1.00  0.00     0.004 C 
ENDBRANCH  12  13
ENDBRANCH  11  12
ENDBRANCH  10  11
ENDBRANCH   9  10
ENDBRANCH   1   9
TORSDOF 10
ENDMDL
MODEL 5
REMARK VINA RESULT:    -3.955      1.003      1.351
REMARK INTER + INTRA:          -6.799
REMARK INTER:                  -6.405
REMARK INTRA:                  -0.394
REMARK UNBOUND:                -0.532
REMARK SMILES CCCCCCCCCCCC(=O)[O-]
REMARK SMILES IDX 7 1 8 2 9 3 10 4 11 5 12 6 13 7 14 8 6 9 5 10 4 11 3 12 2 13
REMARK SMILES IDX 1 14
REMARK H PARENT
REMARK Flexibility Score: inf
ROOT
ATOM      1  C   UNL     1       5.198 -36.424  20.062  1.00  0.00     0.000 C 
ENDROOT
BRANCH   1   2
ATOM      2  C   UNL     1       5.332 -34.912  20.309  1.00  0.00     0.000 C 
BRANCH   2   3
ATOM      3  C   UNL     1       5.112 -34.529  21.783  1.00  0.00     0.000 C 
BRANCH   3   4
ATOM      4  C   UNL     1       6.125 -35.200  22.724  1.00  0.00     0.006 C 
BRANCH   4   5
ATOM      5  C   UNL     1       5.853 -34.888  24.202  1.00  0.00     0.053 C 
BRANCH   5   6
ATOM      6  C   UNL     1       5.381 -36.114  24.916  1.00  0.00     0.041 C 
ATOM      7  O   UNL     1       4.707 -36.010  25.975  1.00  0.00    -0.550 OA
ATOM      8  O   UNL     1       5.643 -37.371  24.388  1.00  0.00    -0.550 OA
ENDBRANCH   5   6
ENDBRANCH   4   5
ENDBRANCH   3   4
ENDBRANCH   2   3
ENDBRANCH   1   2
BRANCH   1   9
ATOM      9  C   UNL     1       3.957 -36.779  19.225  1.00  0.00     0.000 C 
BRANCH   9  10
ATOM     10  C   UNL     1       3.912 -36.024  17.887  1.00  0.00    -0.000 C 
BRANCH  10  11
ATOM     11  C   UNL     1       2.989 -36.695  16.858  1.00  0.00    -0.000 C 
BRANCH  11  12
ATOM     12  C   UNL     1       2.571 -35.701  15.767  1.00  0.00    -0.000 C 
BRANCH  12  13
ATOM     13  C   UNL     1       3.500 -35.795  14.551  1.00  0.00    -0.003 C 
ATOM     14  C   UNL     1       4.069 -37.202  14.400  1.00  0.00     0.004 C 
ENDBRANCH  12  13
ENDBRANCH  11  12
ENDBRANCH  10  11
ENDBRANCH   9  10
ENDBRANCH   1   9
TORSDOF 10
ENDMDL
MODEL 6
REMARK VINA RESULT:    -3.009      1.345      2.295
REMARK INTER + INTRA:          -5.299
REMARK INTER:                  -4.965
REMARK INTRA:                  -0.334
REMARK UNBOUND:                -0.532
REMARK SMILES CCCCCCCCCCCC(=O)[O-]
REMARK SMILES IDX 7 1 8 2 9 3 10 4 11 5 12 6 13 7 14 8 6 9 5 10 4 11 3 12 2 13
REMARK SMILES IDX 1 14
REMARK H PARENT
REMARK Flexibility Score: inf
ROOT
ATOM      1  C   UNL     1       4.677 -35.095  21.055  1.00  0.00     0.000 C 
ENDROOT
BRANCH   1   2
ATOM      2  C   UNL     1       5.816 -34.933  22.075  1.00  0.00     0.000 C 
BRANCH   2   3
ATOM      3  C   UNL     1       5.344 -34.296  23.394  1.00  0.00     0.000 C 
BRANCH   3   4
ATOM      4  C   UNL     1       6.057 -34.885  24.622  1.00  0.00     0.006 C 
BRANCH   4   5
ATOM      5  C   UNL     1       6.061 -36.420  24.621  1.00  0.00     0.053 C 
BRANCH   5   6
ATOM      6  C   UNL     1       5.417 -36.944  25.865  1.00  0.00     0.041 C 
ATOM      7  O   UNL     1       6.125 -37.408  26.797  1.00  0.00    -0.550 OA
ATOM      8  O   UNL     1       4.038 -36.875  26.016  1.00  0.00    -0.550 OA
ENDBRANCH   5   6
ENDBRANCH   4   5
ENDBRANCH   3   4
ENDBRANCH   2   3
ENDBRANCH   1   2
BRANCH   1   9
ATOM      9  C   UNL     1       5.028 -36.084  19.930  1.00  0.00     0.000 C 
BRANCH   9  10
ATOM     10  C   UNL     1       3.784 -36.609  19.196  1.00  0.00    -0.000 C 
BRANCH  10  11
ATOM     11  C   UNL     1       3.813 -36.310  17.689  1.00  0.00    -0.000 C 
BRANCH  11  12
ATOM     12  C   UNL     1       2.423 -36.494  17.067  1.00  0.00    -0.000 C 
BRANCH  12  13
ATOM     13  C   UNL     1       2.354 -35.857  15.674  1.00  0.00    -0.003 C 
ATOM     14  C   UNL     1       3.503 -36.335  14.792  1.00  0.00     0.004 C 
ENDBRANCH  12  13
ENDBRANCH  11  12
ENDBRANCH  10  11
ENDBRANCH   9  10
ENDBRANCH   1   9
TORSDOF 10
ENDMDL
MODEL 7
REMARK VINA RESULT:    -2.889      3.389      6.622
REMARK INTER + INTRA:          -5.109
REMARK INTER:                  -4.430
REMARK INTRA:                  -0.680
REMARK UNBOUND:                -0.532
REMARK SMILES CCCCCCCCCCCC(=O)[O-]
REMARK SMILES IDX 7 1 8 2 9 3 10 4 11 5 12 6 13 7 14 8 6 9 5 10 4 11 3 12 2 13
REMARK SMILES IDX 1 14
REMARK H PARENT
REMARK Flexibility Score: inf
ROOT
ATOM      1  C   UNL     1       6.026 -34.929  24.117  1.00  0.00     0.000 C 
ENDROOT
BRANCH   1   2
ATOM      2  C   UNL     1       5.322 -34.519  22.813  1.00  0.00     0.000 C 
BRANCH   2   3
ATOM      3  C   UNL     1       6.059 -35.017  21.558  1.00  0.00     0.000 C 
BRANCH   3   4
ATOM      4  C   UNL     1       5.155 -35.048  20.316  1.00  0.00     0.006 C 
BRANCH   4   5
ATOM      5  C   UNL     1       5.091 -36.438  19.668  1.00  0.00     0.053 C 
BRANCH   5   6
ATOM      6  C   UNL     1       3.811 -36.602  18.911  1.00  0.00     0.041 C 
ATOM      7  O   UNL     1       3.757 -36.311  17.687  1.00  0.00    -0.550 OA
ATOM      8  O   UNL     1       2.690 -37.124  19.544  1.00  0.00    -0.550 OA
ENDBRANCH   5   6
ENDBRANCH   4   5
ENDBRANCH   3   4
ENDBRANCH   2   3
ENDBRANCH   1   2
BRANCH   1   9
ATOM      9  C   UNL     1       5.105 -35.718  25.063  1.00  0.00     0.000 C 
BRANCH   9  10
ATOM     10  C   UNL     1       5.489 -37.203  25.159  1.00  0.00    -0.000 C 
BRANCH  10  11
ATOM     11  C   UNL     1       5.407 -37.926  23.805  1.00  0.00    -0.000 C 
BRANCH  11  12
ATOM     12  C   UNL     1       5.171 -39.429  24.000  1.00  0.00    -0.000 C 
BRANCH  12  13
ATOM     13  C   UNL     1       5.770 -40.235  22.842  1.00  0.00    -0.003 C 
ATOM     14  C   UNL     1       6.124 -39.330  21.666  1.00  0.00     0.004 C 
ENDBRANCH  12  13
ENDBRANCH  11  12
ENDBRANCH  10  11
ENDBRANCH   9  10
ENDBRANCH   1   9
TORSDOF 10
ENDMDL
MODEL 8
REMARK VINA RESULT:    -2.807      3.560      7.248
REMARK INTER + INTRA:          -4.979
REMARK INTER:                  -4.237
REMARK INTRA:                  -0.742
REMARK UNBOUND:                -0.532
REMARK SMILES CCCCCCCCCCCC(=O)[O-]
REMARK SMILES IDX 7 1 8 2 9 3 10 4 11 5 12 6 13 7 14 8 6 9 5 10 4 11 3 12 2 13
REMARK SMILES IDX 1 14
REMARK H PARENT
REMARK Flexibility Score: inf
ROOT
ATOM      1  C   UNL     1       6.013 -34.537  22.409  1.00  0.00     0.000 C 
ENDROOT
BRANCH   1   2
ATOM      2  C   UNL     1       5.046 -35.088  21.348  1.00  0.00     0.000 C 
BRANCH   2   3
ATOM      3  C   UNL     1       5.609 -36.317  20.613  1.00  0.00     0.000 C 
BRANCH   3   4
ATOM      4  C   UNL     1       4.566 -36.992  19.709  1.00  0.00     0.006 C 
BRANCH   4   5
ATOM      5  C   UNL     1       4.195 -36.132  18.494  1.00  0.00     0.053 C 
BRANCH   5   6
ATOM      6  C   UNL     1       2.989 -36.692  17.807  1.00  0.00     0.041 C 
ATOM      7  O   UNL     1       2.062 -37.215  18.480  1.00  0.00    -0.550 OA
ATOM      8  O   UNL     1       2.866 -36.592  16.427  1.00  0.00    -0.550 OA
ENDBRANCH   5   6
ENDBRANCH   4   5
ENDBRANCH   3   4
ENDBRANCH   2   3
ENDBRANCH   1   2
BRANCH   1   9
ATOM      9  C   UNL     1       5.394 -34.512  23.817  1.00  0.00     0.000 C 
BRANCH   9  10
ATOM     10  C   UNL     1       6.105 -35.463  24.792  1.00  0.00    -0.000 C 
BRANCH  10  11
ATOM     11  C   UNL     1       5.127 -36.358  25.569  1.00  0.00    -0.000 C 
BRANCH  11  12
ATOM     12  C   UNL     1       5.335 -37.836  25.214  1.00  0.00    -0.000 C 
BRANCH  12  13
ATOM     13  C   UNL     1       5.370 -38.037  23.695  1.00  0.00    -0.003 C 
ATOM     14  C   UNL     1       5.398 -39.519  23.336  1.00  0.00     0.004 C 
ENDBRANCH  12  13
ENDBRANCH  11  12
ENDBRANCH  10  11
ENDBRANCH   9  10
ENDBRANCH   1   9
TORSDOF 10
ENDMDL
MODEL 9
REMARK VINA RESULT:    -2.491      1.692      2.178
REMARK INTER + INTRA:          -4.478
REMARK INTER:                  -4.112
REMARK INTRA:                  -0.367
REMARK UNBOUND:                -0.532
REMARK SMILES CCCCCCCCCCCC(=O)[O-]
REMARK SMILES IDX 7 1 8 2 9 3 10 4 11 5 12 6 13 7 14 8 6 9 5 10 4 11 3 12 2 13
REMARK SMILES IDX 1 14
REMARK H PARENT
REMARK Flexibility Score: inf
ROOT
ATOM      1  C   UNL     1       5.116 -36.952  20.584  1.00  0.00     0.000 C 
ENDROOT
BRANCH   1   2
ATOM      2  C   UNL     1       5.701 -38.371  20.657  1.00  0.00     0.000 C 
BRANCH   2   3
ATOM      3  C   UNL     1       5.736 -38.926  22.093  1.00  0.00     0.000 C 
BRANCH   3   4
ATOM      4  C   UNL     1       5.552 -37.829  23.153  1.00  0.00     0.006 C 
BRANCH   4   5
ATOM      5  C   UNL     1       5.296 -38.401  24.554  1.00  0.00     0.053 C 
BRANCH   5   6
ATOM      6  C   UNL     1       5.485 -37.341  25.593  1.00  0.00     0.041 C 
ATOM      7  O   UNL     1       5.338 -36.127  25.293  1.00  0.00    -0.550 OA
ATOM      8  O   UNL     1       5.774 -37.696  26.904  1.00  0.00    -0.550 OA
ENDBRANCH   5   6
ENDBRANCH   4   5
ENDBRANCH   3   4
ENDBRANCH   2   3
ENDBRANCH   1   2
BRANCH   1   9
ATOM      9  C   UNL     1       4.973 -36.445  19.139  1.00  0.00     0.000 C 
BRANCH   9  10
ATOM     10  C   UNL     1       3.515 -36.455  18.651  1.00  0.00    -0.000 C 
BRANCH  10  11
ATOM     11  C   UNL     1       3.392 -36.779  17.154  1.00  0.00    -0.000 C 
BRANCH  11  12
ATOM     12  C   UNL     1       3.360 -35.495  16.316  1.00  0.00    -0.000 C 
BRANCH  12  13
ATOM     13  C   UNL     1       3.039 -35.802  14.849  1.00  0.00    -0.003 C 
ATOM     14  C   UNL     1       4.114 -36.684  14.223  1.00  0.00     0.004 C 
ENDBRANCH  12  13
ENDBRANCH  11  12
ENDBRANCH  10  11
ENDBRANCH   9  10
ENDBRANCH   1   9
TORSDOF 10
ENDMDL
