MODEL 1
REMARK VINA RESULT:    -5.252      0.000      0.000
REMARK INTER + INTRA:         -13.925
REMARK INTER:                 -11.393
REMARK INTRA:                  -2.532
REMARK UNBOUND:                -2.532
REMARK SMILES CCCCCCCCCCCCCCCCCCCCCC(=O)[O-]
REMARK SMILES IDX 12 1 11 2 10 3 9 4 8 5 7 6 6 7 5 8 4 9 3 10 2 11 1 12 13 13
REMARK SMILES IDX 14 14 15 15 16 16 17 17 18 18 19 19 20 20 21 21 22 22 23 23
REMARK SMILES IDX 24 24
REMARK H PARENT
REMARK Flexibility Score: inf
ROOT
ATOM      1  C   UNL     1     -21.279  41.528  86.962  1.00  0.00     0.000 C 
ENDROOT
BRANCH   1   2
ATOM      2  C   UNL     1     -20.117  42.328  86.357  1.00  0.00     0.000 C 
BRANCH   2   3
ATOM      3  C   UNL     1     -20.583  43.622  85.668  1.00  0.00     0.000 C 
BRANCH   3   4
ATOM      4  C   UNL     1     -20.528  44.840  86.602  1.00  0.00    -0.000 C 
BRANCH   4   5
ATOM      5  C   UNL     1     -21.589  45.879  86.210  1.00  0.00    -0.000 C 
BRANCH   5   6
ATOM      6  C   UNL     1     -21.137  46.779  85.048  1.00  0.00    -0.000 C 
BRANCH   6   7
ATOM      7  C   UNL     1     -21.869  46.461  83.732  1.00  0.00    -0.000 C 
BRANCH   7   8
ATOM      8  C   UNL     1     -20.904  46.322  82.535  1.00  0.00    -0.000 C 
BRANCH   8   9
ATOM      9  C   UNL     1     -19.461  46.765  82.843  1.00  0.00    -0.000 C 
BRANCH   9  10
ATOM     10  C   UNL     1     -18.489  45.626  83.203  1.00  0.00    -0.000 C 
BRANCH  10  11
ATOM     11  C   UNL     1     -17.412  45.997  84.237  1.00  0.00    -0.003 C 
ATOM     12  C   UNL     1     -17.268  44.957  85.348  1.00  0.00     0.004 C 
ENDBRANCH  10  11
ENDBRANCH   9  10
ENDBRANCH   8   9
ENDBRANCH   7   8
ENDBRANCH   6   7
ENDBRANCH   5   6
ENDBRANCH   4   5
ENDBRANCH   3   4
ENDBRANCH   2   3
ENDBRANCH   1   2
BRANCH   1  13
ATOM     13  C   UNL     1     -21.206  41.530  88.496  1.00  0.00     0.000 C 
BRANCH  13  14
ATOM     14  C   UNL     1     -21.947  42.721  89.126  1.00  0.00     0.000 C 
BRANCH  14  15
ATOM     15  C   UNL     1     -23.199  43.126  88.331  1.00  0.00     0.000 C 
BRANCH  15  16
ATOM     16  C   UNL     1     -23.897  44.373  88.906  1.00  0.00     0.000 C 
BRANCH  16  17
ATOM     17  C   UNL     1     -24.652  45.234  87.875  1.00  0.00     0.000 C 
BRANCH  17  18
ATOM     18  C   UNL     1     -26.077  45.593  88.322  1.00  0.00     0.000 C 
BRANCH  18  19
ATOM     19  C   UNL     1     -26.098  46.025  89.796  1.00  0.00     0.000 C 
BRANCH  19  20
ATOM     20  C   UNL     1     -27.202  45.322  90.607  1.00  0.00     0.006 C 
BRANCH  20  21
ATOM     21  C   UNL     1     -26.979  43.814  90.804  1.00  0.00     0.053 C 
BRANCH  21  22
ATOM     22  C   UNL     1     -28.141  43.007  90.313  1.00  0.00     0.041 C 
ATOM     23  O   UNL     1     -28.154  42.566  89.134  1.00  0.00    -0.550 OA
ATOM     24  O   UNL     1     -29.226  42.773  91.148  1.00  0.00    -0.550 OA
ENDBRANCH  21  22
ENDBRANCH  20  21
ENDBRANCH  19  20
ENDBRANCH  18  19
ENDBRANCH  17  18
ENDBRANCH  16  17
ENDBRANCH  15  16
ENDBRANCH  14  15
ENDBRANCH  13  14
ENDBRANCH   1  13
TORSDOF 20
ENDMDL
MODEL 2
REMARK VINA RESULT:    -5.066      2.132      5.367
REMARK INTER + INTRA:         -13.521
REMARK INTER:                 -11.195
REMARK INTRA:                  -2.326
REMARK UNBOUND:                -2.532
REMARK SMILES CCCCCCCCCCCCCCCCCCCCCC(=O)[O-]
REMARK SMILES IDX 12 1 11 2 10 3 9 4 8 5 7 6 6 7 5 8 4 9 3 10 2 11 1 12 13 13
REMARK SMILES IDX 14 14 15 15 16 16 17 17 18 18 19 19 20 20 21 21 22 22 23 23
REMARK SMILES IDX 24 24
REMARK H PARENT
REMARK Flexibility Score: inf
ROOT
ATOM      1  C   UNL     1     -20.134  43.148  85.881  1.00  0.00     0.000 C 
ENDROOT
BRANCH   1   2
ATOM      2  C   UNL     1     -20.597  42.033  86.830  1.00  0.00     0.000 C 
BRANCH   2   3
ATOM      3  C   UNL     1     -21.818  42.441  87.672  1.00  0.00     0.000 C 
BRANCH   3   4
ATOM      4  C   UNL     1     -21.543  42.372  89.182  1.00  0.00    -0.000 C 
BRANCH   4   5
ATOM      5  C   UNL     1     -20.409  41.383  89.488  1.00  0.00    -0.000 C 
BRANCH   5   6
ATOM      6  C   UNL     1     -20.809  40.326  90.531  1.00  0.00    -0.000 C 
BRANCH   6   7
ATOM      7  C   UNL     1     -20.772  38.894  89.968  1.00  0.00    -0.000 C 
BRANCH   7   8
ATOM      8  C   UNL     1     -20.092  38.819  88.584  1.00  0.00    -0.000 C 
BRANCH   8   9
ATOM      9  C   UNL     1     -21.004  38.268  87.471  1.00  0.00    -0.000 C 
BRANCH   9  10
ATOM     10  C   UNL     1     -20.555  38.597  86.035  1.00  0.00    -0.000 C 
BRANCH  10  11
ATOM     11  C   UNL     1     -19.362  37.769  85.524  1.00  0.00    -0.003 C 
ATOM     12  C   UNL     1     -19.362  37.599  84.005  1.00  0.00     0.004 C 
ENDBRANCH  10  11
ENDBRANCH   9  10
ENDBRANCH   8   9
ENDBRANCH   7   8
ENDBRANCH   6   7
ENDBRANCH   5   6
ENDBRANCH   4   5
ENDBRANCH   3   4
ENDBRANCH   2   3
ENDBRANCH   1   2
BRANCH   1  13
ATOM     13  C   UNL     1     -20.459  44.532  86.460  1.00  0.00     0.000 C 
BRANCH  13  14
ATOM     14  C   UNL     1     -21.355  45.371  85.533  1.00  0.00     0.000 C 
BRANCH  14  15
ATOM     15  C   UNL     1     -22.572  45.962  86.264  1.00  0.00     0.000 C 
BRANCH  15  16
ATOM     16  C   UNL     1     -22.252  46.398  87.707  1.00  0.00     0.000 C 
BRANCH  16  17
ATOM     17  C   UNL     1     -23.411  46.240  88.710  1.00  0.00     0.000 C 
BRANCH  17  18
ATOM     18  C   UNL     1     -24.254  44.981  88.459  1.00  0.00     0.000 C 
BRANCH  18  19
ATOM     19  C   UNL     1     -25.559  45.024  89.267  1.00  0.00     0.000 C 
BRANCH  19  20
ATOM     20  C   UNL     1     -25.738  43.794  90.176  1.00  0.00     0.006 C 
BRANCH  20  21
ATOM     21  C   UNL     1     -26.987  43.847  91.072  1.00  0.00     0.053 C 
BRANCH  21  22
ATOM     22  C   UNL     1     -28.111  43.030  90.514  1.00  0.00     0.041 C 
ATOM     23  O   UNL     1     -29.118  42.770  91.224  1.00  0.00    -0.550 OA
ATOM     24  O   UNL     1     -28.029  42.525  89.224  1.00  0.00    -0.550 OA
ENDBRANCH  21  22
ENDBRANCH  20  21
ENDBRANCH  19  20
ENDBRANCH  18  19
ENDBRANCH  17  18
ENDBRANCH  16  17
ENDBRANCH  15  16
ENDBRANCH  14  15
ENDBRANCH  13  14
ENDBRANCH   1  13
TORSDOF 20
ENDMDL
MODEL 3
REMARK VINA RESULT:    -5.048      1.574      5.130
REMARK INTER + INTRA:         -13.481
REMARK INTER:                 -11.235
REMARK INTRA:                  -2.246
REMARK UNBOUND:                -2.532
REMARK SMILES CCCCCCCCCCCCCCCCCCCCCC(=O)[O-]
REMARK SMILES IDX 12 1 11 2 10 3 9 4 8 5 7 6 6 7 5 8 4 9 3 10 2 11 1 12 13 13
REMARK SMILES IDX 14 14 15 15 16 16 17 17 18 18 19 19 20 20 21 21 22 22 23 23
REMARK SMILES IDX 24 24
REMARK H PARENT
REMARK Flexibility Score: inf
ROOT
ATOM      1  C   UNL     1     -19.508  46.589  82.579  1.00  0.00     0.000 C 
ENDROOT
BRANCH   1   2
ATOM      2  C   UNL     1     -18.703  47.073  83.794  1.00  0.00     0.000 C 
BRANCH   2   3
ATOM      3  C   UNL     1     -17.669  46.038  84.270  1.00  0.00     0.000 C 
BRANCH   3   4
ATOM      4  C   UNL     1     -18.244  44.614  84.331  1.00  0.00    -0.000 C 
BRANCH   4   5
ATOM      5  C   UNL     1     -18.838  44.323  85.717  1.00  0.00    -0.000 C 
BRANCH   5   6
ATOM      6  C   UNL     1     -19.758  43.091  85.721  1.00  0.00    -0.000 C 
BRANCH   6   7
ATOM      7  C   UNL     1     -20.934  43.233  86.704  1.00  0.00    -0.000 C 
BRANCH   7   8
ATOM      8  C   UNL     1     -21.450  41.868  87.212  1.00  0.00    -0.000 C 
BRANCH   8   9
ATOM      9  C   UNL     1     -20.502  40.692  86.909  1.00  0.00    -0.000 C 
BRANCH   9  10
ATOM     10  C   UNL     1     -20.893  39.353  87.562  1.00  0.00    -0.000 C 
BRANCH  10  11
ATOM     11  C   UNL     1     -20.638  39.273  89.077  1.00  0.00    -0.003 C 
ATOM     12  C   UNL     1     -19.400  40.055  89.516  1.00  0.00     0.004 C 
ENDBRANCH  10  11
ENDBRANCH   9  10
ENDBRANCH   8   9
ENDBRANCH   7   8
ENDBRANCH   6   7
ENDBRANCH   5   6
ENDBRANCH   4   5
ENDBRANCH   3   4
ENDBRANCH   2   3
ENDBRANCH   1   2
BRANCH   1  13
ATOM     13  C   UNL     1     -21.015  46.777  82.810  1.00  0.00     0.000 C 
BRANCH  13  14
ATOM     14  C   UNL     1     -21.553  45.918  83.965  1.00  0.00     0.000 C 
BRANCH  14  15
ATOM     15  C   UNL     1     -22.387  46.732  84.969  1.00  0.00     0.000 C 
BRANCH  15  16
ATOM     16  C   UNL     1     -21.786  46.731  86.388  1.00  0.00     0.000 C 
BRANCH  16  17
ATOM     17  C   UNL     1     -22.808  46.588  87.531  1.00  0.00     0.000 C 
BRANCH  17  18
ATOM     18  C   UNL     1     -23.779  45.417  87.324  1.00  0.00     0.000 C 
BRANCH  18  19
ATOM     19  C   UNL     1     -25.221  45.919  87.164  1.00  0.00     0.000 C 
BRANCH  19  20
ATOM     20  C   UNL     1     -26.008  45.906  88.488  1.00  0.00     0.006 C 
BRANCH  20  21
ATOM     21  C   UNL     1     -25.550  44.828  89.484  1.00  0.00     0.053 C 
BRANCH  21  22
ATOM     22  C   UNL     1     -26.537  44.634  90.593  1.00  0.00     0.041 C 
ATOM     23  O   UNL     1     -27.548  45.380  90.679  1.00  0.00    -0.550 OA
ATOM     24  O   UNL     1     -26.322  43.654  91.552  1.00  0.00    -0.550 OA
ENDBRANCH  21  22
ENDBRANCH  20  21
ENDBRANCH  19  20
ENDBRANCH  18  19
ENDBRANCH  17  18
ENDBRANCH  16  17
ENDBRANCH  15  16
ENDBRANCH  14  15
ENDBRANCH  13  14
ENDBRANCH   1  13
TORSDOF 20
ENDMDL
MODEL 4
REMARK VINA RESULT:    -5.043      2.180      5.651
REMARK INTER + INTRA:         -13.470
REMARK INTER:                 -11.396
REMARK INTRA:                  -2.074
REMARK UNBOUND:                -2.532
REMARK SMILES CCCCCCCCCCCCCCCCCCCCCC(=O)[O-]
REMARK SMILES IDX 12 1 11 2 10 3 9 4 8 5 7 6 6 7 5 8 4 9 3 10 2 11 1 12 13 13
REMARK SMILES IDX 14 14 15 15 16 16 17 17 18 18 19 19 20 20 21 21 22 22 23 23
REMARK SMILES IDX 24 24
REMARK H PARENT
REMARK Flexibility Score: inf
ROOT
ATOM      1  C   UNL     1     -20.171  44.929  85.855  1.00  0.00     0.000 C 
ENDROOT
BRANCH   1   2
ATOM      2  C   UNL     1     -20.095  43.451  85.443  1.00  0.00     0.000 C 
BRANCH   2   3
ATOM      3  C   UNL     1     -21.072  42.565  86.233  1.00  0.00     0.000 C 
BRANCH   3   4
ATOM      4  C   UNL     1     -20.387  41.815  87.386  1.00  0.00    -0.000 C 
BRANCH   4   5
ATOM      5  C   UNL     1     -19.906  40.430  86.930  1.00  0.00    -0.000 C 
BRANCH   5   6
ATOM      6  C   UNL     1     -21.056  39.419  86.789  1.00  0.00    -0.000 C 
BRANCH   6   7
ATOM      7  C   UNL     1     -20.825  38.139  87.613  1.00  0.00    -0.000 C 
BRANCH   7   8
ATOM      8  C   UNL     1     -20.484  38.439  89.089  1.00  0.00    -0.000 C 
BRANCH   8   9
ATOM      9  C   UNL     1     -19.276  37.646  89.623  1.00  0.00    -0.000 C 
BRANCH   9  10
ATOM     10  C   UNL     1     -18.400  38.397  90.643  1.00  0.00    -0.000 C 
BRANCH  10  11
ATOM     11  C   UNL     1     -19.104  39.552  91.375  1.00  0.00    -0.003 C 
ATOM     12  C   UNL     1     -18.739  40.925  90.812  1.00  0.00     0.004 C 
ENDBRANCH  10  11
ENDBRANCH   9  10
ENDBRANCH   8   9
ENDBRANCH   7   8
ENDBRANCH   6   7
ENDBRANCH   5   6
ENDBRANCH   4   5
ENDBRANCH   3   4
ENDBRANCH   2   3
ENDBRANCH   1   2
BRANCH   1  13
ATOM     13  C   UNL     1     -21.443  45.588  85.303  1.00  0.00     0.000 C 
BRANCH  13  14
ATOM     14  C   UNL     1     -22.447  45.961  86.406  1.00  0.00     0.000 C 
BRANCH  14  15
ATOM     15  C   UNL     1     -21.802  46.007  87.802  1.00  0.00     0.000 C 
BRANCH  15  16
ATOM     16  C   UNL     1     -22.601  45.219  88.858  1.00  0.00     0.000 C 
BRANCH  16  17
ATOM     17  C   UNL     1     -23.576  44.169  88.292  1.00  0.00     0.000 C 
BRANCH  17  18
ATOM     18  C   UNL     1     -24.783  43.917  89.208  1.00  0.00     0.000 C 
BRANCH  18  19
ATOM     19  C   UNL     1     -25.680  45.160  89.291  1.00  0.00     0.000 C 
BRANCH  19  20
ATOM     20  C   UNL     1     -26.725  45.067  90.417  1.00  0.00     0.006 C 
BRANCH  20  21
ATOM     21  C   UNL     1     -26.922  43.651  90.981  1.00  0.00     0.053 C 
BRANCH  21  22
ATOM     22  C   UNL     1     -28.179  43.015  90.472  1.00  0.00     0.041 C 
ATOM     23  O   UNL     1     -29.109  42.723  91.269  1.00  0.00    -0.550 OA
ATOM     24  O   UNL     1     -28.307  42.712  89.123  1.00  0.00    -0.550 OA
ENDBRANCH  21  22
ENDBRANCH  20  21
ENDBRANCH  19  20
ENDBRANCH  18  19
ENDBRANCH  17  18
ENDBRANCH  16  17
ENDBRANCH  15  16
ENDBRANCH  14  15
ENDBRANCH  13  14
ENDBRANCH   1  13
TORSDOF 20
ENDMDL
MODEL 5
REMARK VINA RESULT:    -5.016      3.520      7.594
REMARK INTER + INTRA:         -13.411
REMARK INTER:                 -10.920
REMARK INTRA:                  -2.491
REMARK UNBOUND:                -2.532
REMARK SMILES CCCCCCCCCCCCCCCCCCCCCC(=O)[O-]
REMARK SMILES IDX 12 1 11 2 10 3 9 4 8 5 7 6 6 7 5 8 4 9 3 10 2 11 1 12 13 13
REMARK SMILES IDX 14 14 15 15 16 16 17 17 18 18 19 19 20 20 21 21 22 22 23 23
REMARK SMILES IDX 24 24
REMARK H PARENT
REMARK Flexibility Score: inf
ROOT
ATOM      1  C   UNL     1     -20.581  42.237  86.530  1.00  0.00     0.000 C 
ENDROOT
BRANCH   1   2
ATOM      2  C   UNL     1     -21.227  42.140  87.920  1.00  0.00     0.000 C 
BRANCH   2   3
ATOM      3  C   UNL     1     -20.240  41.669  89.001  1.00  0.00     0.000 C 
BRANCH   3   4
ATOM      4  C   UNL     1     -20.921  41.425  90.356  1.00  0.00    -0.000 C 
BRANCH   4   5
ATOM      5  C   UNL     1     -20.202  40.317  91.140  1.00  0.00    -0.000 C 
BRANCH   5   6
ATOM      6  C   UNL     1     -18.835  39.955  90.536  1.00  0.00    -0.000 C 
BRANCH   6   7
ATOM      7  C   UNL     1     -18.625  38.435  90.411  1.00  0.00    -0.000 C 
BRANCH   7   8
ATOM      8  C   UNL     1     -19.850  37.717  89.804  1.00  0.00    -0.000 C 
BRANCH   8   9
ATOM      9  C   UNL     1     -19.882  37.731  88.265  1.00  0.00    -0.000 C 
BRANCH   9  10
ATOM     10  C   UNL     1     -21.027  38.552  87.642  1.00  0.00    -0.000 C 
BRANCH  10  11
ATOM     11  C   UNL     1     -21.047  38.570  86.103  1.00  0.00    -0.003 C 
ATOM     12  C   UNL     1     -19.717  38.140  85.484  1.00  0.00     0.004 C 
ENDBRANCH  10  11
ENDBRANCH   9  10
ENDBRANCH   8   9
ENDBRANCH   7   8
ENDBRANCH   6   7
ENDBRANCH   5   6
ENDBRANCH   4   5
ENDBRANCH   3   4
ENDBRANCH   2   3
ENDBRANCH   1   2
BRANCH   1  13
ATOM     13  C   UNL     1     -20.149  43.679  86.225  1.00  0.00     0.000 C 
BRANCH  13  14
ATOM     14  C   UNL     1     -19.093  43.761  85.111  1.00  0.00     0.000 C 
BRANCH  14  15
ATOM     15  C   UNL     1     -18.024  44.832  85.388  1.00  0.00     0.000 C 
BRANCH  15  16
ATOM     16  C   UNL     1     -17.669  45.662  84.140  1.00  0.00     0.000 C 
BRANCH  16  17
ATOM     17  C   UNL     1     -18.642  46.812  83.820  1.00  0.00     0.000 C 
BRANCH  17  18
ATOM     18  C   UNL     1     -19.622  46.471  82.687  1.00  0.00     0.000 C 
BRANCH  18  19
ATOM     19  C   UNL     1     -21.059  46.363  83.217  1.00  0.00     0.000 C 
BRANCH  19  20
ATOM     20  C   UNL     1     -21.197  46.851  84.670  1.00  0.00     0.006 C 
BRANCH  20  21
ATOM     21  C   UNL     1     -22.613  46.706  85.253  1.00  0.00     0.053 C 
BRANCH  21  22
ATOM     22  C   UNL     1     -22.587  46.249  86.679  1.00  0.00     0.041 C 
ATOM     23  O   UNL     1     -21.904  46.874  87.533  1.00  0.00    -0.550 OA
ATOM     24  O   UNL     1     -23.288  45.112  87.057  1.00  0.00    -0.550 OA
ENDBRANCH  21  22
ENDBRANCH  20  21
ENDBRANCH  19  20
ENDBRANCH  18  19
ENDBRANCH  17  18
ENDBRANCH  16  17
ENDBRANCH  15  16
ENDBRANCH  14  15
ENDBRANCH  13  14
ENDBRANCH   1  13
TORSDOF 20
ENDMDL
MODEL 6
REMARK VINA RESULT:    -5.015      1.837      6.119
REMARK INTER + INTRA:         -13.411
REMARK INTER:                 -10.935
REMARK INTRA:                  -2.475
REMARK UNBOUND:                -2.532
REMARK SMILES CCCCCCCCCCCCCCCCCCCCCC(=O)[O-]
REMARK SMILES IDX 12 1 11 2 10 3 9 4 8 5 7 6 6 7 5 8 4 9 3 10 2 11 1 12 13 13
REMARK SMILES IDX 14 14 15 15 16 16 17 17 18 18 19 19 20 20 21 21 22 22 23 23
REMARK SMILES IDX 24 24
REMARK H PARENT
REMARK Flexibility Score: inf
ROOT
ATOM      1  C   UNL     1     -17.667  45.547  84.245  1.00  0.00     0.000 C 
ENDROOT
BRANCH   1   2
ATOM      2  C   UNL     1     -18.068  44.779  85.513  1.00  0.00     0.000 C 
BRANCH   2   3
ATOM      3  C   UNL     1     -19.115  43.687  85.237  1.00  0.00     0.000 C 
BRANCH   3   4
ATOM      4  C   UNL     1     -20.065  43.466  86.425  1.00  0.00    -0.000 C 
BRANCH   4   5
ATOM      5  C   UNL     1     -20.419  41.979  86.574  1.00  0.00    -0.000 C 
BRANCH   5   6
ATOM      6  C   UNL     1     -21.493  41.730  87.646  1.00  0.00    -0.000 C 
BRANCH   6   7
ATOM      7  C   UNL     1     -21.015  42.100  89.062  1.00  0.00    -0.000 C 
BRANCH   7   8
ATOM      8  C   UNL     1     -20.140  40.998  89.698  1.00  0.00    -0.000 C 
BRANCH   8   9
ATOM      9  C   UNL     1     -20.947  39.847  90.328  1.00  0.00    -0.000 C 
BRANCH   9  10
ATOM     10  C   UNL     1     -20.334  38.445  90.153  1.00  0.00    -0.000 C 
BRANCH  10  11
ATOM     11  C   UNL     1     -19.822  38.135  88.735  1.00  0.00    -0.003 C 
ATOM     12  C   UNL     1     -20.941  38.090  87.695  1.00  0.00     0.004 C 
ENDBRANCH  10  11
ENDBRANCH   9  10
ENDBRANCH   8   9
ENDBRANCH   7   8
ENDBRANCH   6   7
ENDBRANCH   5   6
ENDBRANCH   4   5
ENDBRANCH   3   4
ENDBRANCH   2   3
ENDBRANCH   1   2
BRANCH   1  13
ATOM     13  C   UNL     1     -18.809  45.546  83.218  1.00  0.00     0.000 C 
BRANCH  13  14
ATOM     14  C   UNL     1     -19.357  46.955  82.936  1.00  0.00     0.000 C 
BRANCH  14  15
ATOM     15  C   UNL     1     -20.895  47.000  82.927  1.00  0.00     0.000 C 
BRANCH  15  16
ATOM     16  C   UNL     1     -21.527  46.119  84.021  1.00  0.00     0.000 C 
BRANCH  16  17
ATOM     17  C   UNL     1     -21.519  46.726  85.436  1.00  0.00     0.000 C 
BRANCH  17  18
ATOM     18  C   UNL     1     -22.847  46.527  86.182  1.00  0.00     0.000 C 
BRANCH  18  19
ATOM     19  C   UNL     1     -22.744  45.370  87.187  1.00  0.00     0.000 C 
BRANCH  19  20
ATOM     20  C   UNL     1     -24.119  44.895  87.692  1.00  0.00     0.006 C 
BRANCH  20  21
ATOM     21  C   UNL     1     -24.104  44.320  89.118  1.00  0.00     0.053 C 
BRANCH  21  22
ATOM     22  C   UNL     1     -25.485  44.188  89.683  1.00  0.00     0.041 C 
ATOM     23  O   UNL     1     -26.480  44.596  89.027  1.00  0.00    -0.550 OA
ATOM     24  O   UNL     1     -25.669  43.647  90.948  1.00  0.00    -0.550 OA
ENDBRANCH  21  22
ENDBRANCH  20  21
ENDBRANCH  19  20
ENDBRANCH  18  19
ENDBRANCH  17  18
ENDBRANCH  16  17
ENDBRANCH  15  16
ENDBRANCH  14  15
ENDBRANCH  13  14
ENDBRANCH   1  13
TORSDOF 20
ENDMDL
MODEL 7
REMARK VINA RESULT:    -5.009      2.448      6.026
REMARK INTER + INTRA:         -13.397
REMARK INTER:                 -10.731
REMARK INTRA:                  -2.667
REMARK UNBOUND:                -2.532
REMARK SMILES CCCCCCCCCCCCCCCCCCCCCC(=O)[O-]
REMARK SMILES IDX 12 1 11 2 10 3 9 4 8 5 7 6 6 7 5 8 4 9 3 10 2 11 1 12 13 13
REMARK SMILES IDX 14 14 15 15 16 16 17 17 18 18 19 19 20 20 21 21 22 22 23 23
REMARK SMILES IDX 24 24
REMARK H PARENT
REMARK Flexibility Score: inf
ROOT
ATOM      1  C   UNL     1     -19.668  43.750  85.449  1.00  0.00     0.000 C 
ENDROOT
BRANCH   1   2
ATOM      2  C   UNL     1     -19.918  43.082  86.809  1.00  0.00     0.000 C 
BRANCH   2   3
ATOM      3  C   UNL     1     -20.951  41.945  86.730  1.00  0.00     0.000 C 
BRANCH   3   4
ATOM      4  C   UNL     1     -20.867  40.987  87.928  1.00  0.00    -0.000 C 
BRANCH   4   5
ATOM      5  C   UNL     1     -20.435  41.734  89.198  1.00  0.00    -0.000 C 
BRANCH   5   6
ATOM      6  C   UNL     1     -21.472  41.631  90.329  1.00  0.00    -0.000 C 
BRANCH   6   7
ATOM      7  C   UNL     1     -20.861  41.128  91.650  1.00  0.00    -0.000 C 
BRANCH   7   8
ATOM      8  C   UNL     1     -20.599  39.606  91.639  1.00  0.00    -0.000 C 
BRANCH   8   9
ATOM      9  C   UNL     1     -19.121  39.226  91.850  1.00  0.00    -0.000 C 
BRANCH   9  10
ATOM     10  C   UNL     1     -18.445  38.535  90.652  1.00  0.00    -0.000 C 
BRANCH  10  11
ATOM     11  C   UNL     1     -19.399  37.752  89.733  1.00  0.00    -0.003 C 
ATOM     12  C   UNL     1     -18.801  36.436  89.237  1.00  0.00     0.004 C 
ENDBRANCH  10  11
ENDBRANCH   9  10
ENDBRANCH   8   9
ENDBRANCH   7   8
ENDBRANCH   6   7
ENDBRANCH   5   6
ENDBRANCH   4   5
ENDBRANCH   3   4
ENDBRANCH   2   3
ENDBRANCH   1   2
BRANCH   1  13
ATOM     13  C   UNL     1     -20.940  44.443  84.937  1.00  0.00     0.000 C 
BRANCH  13  14
ATOM     14  C   UNL     1     -21.143  45.841  85.545  1.00  0.00     0.000 C 
BRANCH  14  15
ATOM     15  C   UNL     1     -22.447  45.950  86.353  1.00  0.00     0.000 C 
BRANCH  15  16
ATOM     16  C   UNL     1     -22.203  46.171  87.858  1.00  0.00     0.000 C 
BRANCH  16  17
ATOM     17  C   UNL     1     -22.430  44.932  88.746  1.00  0.00     0.000 C 
BRANCH  17  18
ATOM     18  C   UNL     1     -23.632  44.086  88.299  1.00  0.00     0.000 C 
BRANCH  18  19
ATOM     19  C   UNL     1     -24.541  43.750  89.490  1.00  0.00     0.000 C 
BRANCH  19  20
ATOM     20  C   UNL     1     -25.924  44.419  89.392  1.00  0.00     0.006 C 
BRANCH  20  21
ATOM     21  C   UNL     1     -26.635  44.601  90.743  1.00  0.00     0.053 C 
BRANCH  21  22
ATOM     22  C   UNL     1     -27.583  43.478  91.032  1.00  0.00     0.041 C 
ATOM     23  O   UNL     1     -27.379  42.713  92.011  1.00  0.00    -0.550 OA
ATOM     24  O   UNL     1     -28.671  43.255  90.199  1.00  0.00    -0.550 OA
ENDBRANCH  21  22
ENDBRANCH  20  21
ENDBRANCH  19  20
ENDBRANCH  18  19
ENDBRANCH  17  18
ENDBRANCH  16  17
ENDBRANCH  15  16
ENDBRANCH  14  15
ENDBRANCH  13  14
ENDBRANCH   1  13
TORSDOF 20
ENDMDL
MODEL 8
REMARK VINA RESULT:    -5.002      2.914      7.973
REMARK INTER + INTRA:         -13.382
REMARK INTER:                 -11.774
REMARK INTRA:                  -1.609
REMARK UNBOUND:                -2.532
REMARK SMILES CCCCCCCCCCCCCCCCCCCCCC(=O)[O-]
REMARK SMILES IDX 12 1 11 2 10 3 9 4 8 5 7 6 6 7 5 8 4 9 3 10 2 11 1 12 13 13
REMARK SMILES IDX 14 14 15 15 16 16 17 17 18 18 19 19 20 20 21 21 22 22 23 23
REMARK SMILES IDX 24 24
REMARK H PARENT
REMARK Flexibility Score: inf
ROOT
ATOM      1  C   UNL     1     -20.990  47.084  82.846  1.00  0.00     0.000 C 
ENDROOT
BRANCH   1   2
ATOM      2  C   UNL     1     -21.662  46.184  83.893  1.00  0.00     0.000 C 
BRANCH   2   3
ATOM      3  C   UNL     1     -22.248  46.982  85.071  1.00  0.00     0.000 C 
BRANCH   3   4
ATOM      4  C   UNL     1     -22.480  46.112  86.316  1.00  0.00    -0.000 C 
BRANCH   4   5
ATOM      5  C   UNL     1     -23.787  46.501  87.021  1.00  0.00    -0.000 C 
BRANCH   5   6
ATOM      6  C   UNL     1     -24.532  45.288  87.602  1.00  0.00    -0.000 C 
BRANCH   6   7
ATOM      7  C   UNL     1     -26.006  45.594  87.921  1.00  0.00    -0.000 C 
BRANCH   7   8
ATOM      8  C   UNL     1     -26.179  46.342  89.260  1.00  0.00    -0.000 C 
BRANCH   8   9
ATOM      9  C   UNL     1     -27.082  45.611  90.271  1.00  0.00    -0.000 C 
BRANCH   9  10
ATOM     10  C   UNL     1     -26.449  44.377  90.941  1.00  0.00    -0.000 C 
BRANCH  10  11
ATOM     11  C   UNL     1     -27.423  43.218  91.215  1.00  0.00    -0.003 C 
ATOM     12  C   UNL     1     -28.501  43.079  90.140  1.00  0.00     0.004 C 
ENDBRANCH  10  11
ENDBRANCH   9  10
ENDBRANCH   8   9
ENDBRANCH   7   8
ENDBRANCH   6   7
ENDBRANCH   5   6
ENDBRANCH   4   5
ENDBRANCH   3   4
ENDBRANCH   2   3
ENDBRANCH   1   2
BRANCH   1  13
ATOM     13  C   UNL     1     -19.521  46.684  82.641  1.00  0.00     0.000 C 
BRANCH  13  14
ATOM     14  C   UNL     1     -18.742  46.580  83.962  1.00  0.00     0.000 C 
BRANCH  14  15
ATOM     15  C   UNL     1     -17.980  45.251  84.096  1.00  0.00     0.000 C 
BRANCH  15  16
ATOM     16  C   UNL     1     -18.345  44.476  85.376  1.00  0.00     0.000 C 
BRANCH  16  17
ATOM     17  C   UNL     1     -19.622  43.619  85.281  1.00  0.00     0.000 C 
BRANCH  17  18
ATOM     18  C   UNL     1     -20.270  43.355  86.648  1.00  0.00     0.000 C 
BRANCH  18  19
ATOM     19  C   UNL     1     -20.752  41.902  86.756  1.00  0.00     0.000 C 
BRANCH  19  20
ATOM     20  C   UNL     1     -19.873  41.050  87.692  1.00  0.00     0.006 C 
BRANCH  20  21
ATOM     21  C   UNL     1     -20.663  40.115  88.622  1.00  0.00     0.053 C 
BRANCH  21  22
ATOM     22  C   UNL     1     -20.554  38.682  88.200  1.00  0.00     0.041 C 
ATOM     23  O   UNL     1     -19.801  37.892  88.827  1.00  0.00    -0.550 OA
ATOM     24  O   UNL     1     -21.257  38.230  87.091  1.00  0.00    -0.550 OA
ENDBRANCH  21  22
ENDBRANCH  20  21
ENDBRANCH  19  20
ENDBRANCH  18  19
ENDBRANCH  17  18
ENDBRANCH  16  17
ENDBRANCH  15  16
ENDBRANCH  14  15
ENDBRANCH  13  14
ENDBRANCH   1  13
TORSDOF 20
ENDMDL
MODEL 9
REMARK VINA RESULT:    -4.943      2.998      6.995
REMARK INTER + INTRA:         -13.254
REMARK INTER:                 -10.989
REMARK INTRA:                  -2.265
REMARK UNBOUND:                -2.532
REMARK SMILES CCCCCCCCCCCCCCCCCCCCCC(=O)[O-]
REMARK SMILES IDX 12 1 11 2 10 3 9 4 8 5 7 6 6 7 5 8 4 9 3 10 2 11 1 12 13 13
REMARK SMILES IDX 14 14 15 15 16 16 17 17 18 18 19 19 20 20 21 21 22 22 23 23
REMARK SMILES IDX 24 24
REMARK H PARENT
REMARK Flexibility Score: inf
ROOT
ATOM      1  C   UNL     1     -17.832  46.398  84.190  1.00  0.00     0.000 C 
ENDROOT
BRANCH   1   2
ATOM      2  C   UNL     1     -18.978  47.124  83.470  1.00  0.00     0.000 C 
BRANCH   2   3
ATOM      3  C   UNL     1     -19.945  46.155  82.768  1.00  0.00     0.000 C 
BRANCH   3   4
ATOM      4  C   UNL     1     -21.360  46.199  83.364  1.00  0.00    -0.000 C 
BRANCH   4   5
ATOM      5  C   UNL     1     -21.358  46.894  84.733  1.00  0.00    -0.000 C 
BRANCH   5   6
ATOM      6  C   UNL     1     -22.445  46.351  85.676  1.00  0.00    -0.000 C 
BRANCH   6   7
ATOM      7  C   UNL     1     -21.868  45.808  86.996  1.00  0.00    -0.000 C 
BRANCH   7   8
ATOM      8  C   UNL     1     -22.470  46.504  88.236  1.00  0.00    -0.000 C 
BRANCH   8   9
ATOM      9  C   UNL     1     -23.854  45.965  88.642  1.00  0.00    -0.000 C 
BRANCH   9  10
ATOM     10  C   UNL     1     -23.929  44.441  88.850  1.00  0.00    -0.000 C 
BRANCH  10  11
ATOM     11  C   UNL     1     -25.266  43.930  89.415  1.00  0.00    -0.003 C 
ATOM     12  C   UNL     1     -26.013  44.987  90.227  1.00  0.00     0.004 C 
ENDBRANCH  10  11
ENDBRANCH   9  10
ENDBRANCH   8   9
ENDBRANCH   7   8
ENDBRANCH   6   7
ENDBRANCH   5   6
ENDBRANCH   4   5
ENDBRANCH   3   4
ENDBRANCH   2   3
ENDBRANCH   1   2
BRANCH   1  13
ATOM     13  C   UNL     1     -18.057  44.879  84.187  1.00  0.00     0.000 C 
BRANCH  13  14
ATOM     14  C   UNL     1     -18.630  44.359  85.515  1.00  0.00     0.000 C 
BRANCH  14  15
ATOM     15  C   UNL     1     -19.792  43.372  85.311  1.00  0.00     0.000 C 
BRANCH  15  16
ATOM     16  C   UNL     1     -19.861  42.292  86.407  1.00  0.00     0.000 C 
BRANCH  16  17
ATOM     17  C   UNL     1     -21.040  42.429  87.389  1.00  0.00     0.000 C 
BRANCH  17  18
ATOM     18  C   UNL     1     -20.816  41.672  88.706  1.00  0.00     0.000 C 
BRANCH  18  19
ATOM     19  C   UNL     1     -19.843  40.501  88.508  1.00  0.00     0.000 C 
BRANCH  19  20
ATOM     20  C   UNL     1     -20.441  39.150  88.942  1.00  0.00     0.006 C 
BRANCH  20  21
ATOM     21  C   UNL     1     -20.244  38.015  87.923  1.00  0.00     0.053 C 
BRANCH  21  22
ATOM     22  C   UNL     1     -20.601  38.443  86.533  1.00  0.00     0.041 C 
ATOM     23  O   UNL     1     -19.855  38.141  85.565  1.00  0.00    -0.550 OA
ATOM     24  O   UNL     1     -21.739  39.207  86.312  1.00  0.00    -0.550 OA
ENDBRANCH  21  22
ENDBRANCH  20  21
ENDBRANCH  19  20
ENDBRANCH  18  19
ENDBRANCH  17  18
ENDBRANCH  16  17
ENDBRANCH  15  16
ENDBRANCH  14  15
ENDBRANCH  13  14
ENDBRANCH   1  13
TORSDOF 20
ENDMDL
