MODEL 1
REMARK VINA RESULT:    -3.649      0.000      0.000
REMARK INTER + INTRA:          -4.439
REMARK INTER:                  -4.289
REMARK INTRA:                  -0.151
REMARK UNBOUND:                -0.151
REMARK SMILES O=C([O-])CCC(=O)[O-]
REMARK SMILES IDX 4 1 2 2 1 3 3 4 5 5 6 6 7 7 8 8
REMARK H PARENT
REMARK Flexibility Score: inf
ROOT
ATOM      1  C   UNL     1      37.791  23.498 225.613  1.00  0.00     0.059 C 
ENDROOT
BRANCH   1   2
ATOM      2  C   UNL     1      36.886  22.321 225.409  1.00  0.00     0.042 C 
ATOM      3  O   UNL     1      36.510  22.005 224.250  1.00  0.00    -0.550 OA
ATOM      4  O   UNL     1      36.425  21.600 226.503  1.00  0.00    -0.550 OA
ENDBRANCH   1   2
BRANCH   1   5
ATOM      5  C   UNL     1      37.059  24.665 226.285  1.00  0.00     0.059 C 
BRANCH   5   6
ATOM      6  C   UNL     1      36.193  25.406 225.313  1.00  0.00     0.042 C 
ATOM      7  O   UNL     1      35.005  25.695 225.617  1.00  0.00    -0.550 OA
ATOM      8  O   UNL     1      36.683  25.743 224.058  1.00  0.00    -0.550 OA
ENDBRANCH   5   6
ENDBRANCH   1   5
TORSDOF 3
ENDMDL
MODEL 2
REMARK VINA RESULT:    -3.606      0.177      1.626
REMARK INTER + INTRA:          -4.389
REMARK INTER:                  -4.228
REMARK INTRA:                  -0.160
REMARK UNBOUND:                -0.151
REMARK SMILES O=C([O-])CCC(=O)[O-]
REMARK SMILES IDX 4 1 2 2 1 3 3 4 5 5 6 6 7 7 8 8
REMARK H PARENT
REMARK Flexibility Score: inf
ROOT
ATOM      1  C   UNL     1      37.919  23.516 225.675  1.00  0.00     0.059 C 
ENDROOT
BRANCH   1   2
ATOM      2  C   UNL     1      36.910  22.426 225.481  1.00  0.00     0.042 C 
ATOM      3  O   UNL     1      36.484  21.775 226.470  1.00  0.00    -0.550 OA
ATOM      4  O   UNL     1      36.471  22.103 224.204  1.00  0.00    -0.550 OA
ENDBRANCH   1   2
BRANCH   1   5
ATOM      5  C   UNL     1      37.283  24.777 226.271  1.00  0.00     0.059 C 
BRANCH   5   6
ATOM      6  C   UNL     1      36.377  25.456 225.290  1.00  0.00     0.042 C 
ATOM      7  O   UNL     1      36.834  25.884 224.198  1.00  0.00    -0.550 OA
ATOM      8  O   UNL     1      35.037  25.652 225.598  1.00  0.00    -0.550 OA
ENDBRANCH   5   6
ENDBRANCH   1   5
TORSDOF 3
ENDMDL
MODEL 3
REMARK VINA RESULT:    -3.602      0.154      3.599
REMARK INTER + INTRA:          -4.385
REMARK INTER:                  -4.238
REMARK INTRA:                  -0.147
REMARK UNBOUND:                -0.151
REMARK SMILES O=C([O-])CCC(=O)[O-]
REMARK SMILES IDX 4 1 2 2 1 3 3 4 5 5 6 6 7 7 8 8
REMARK H PARENT
REMARK Flexibility Score: inf
ROOT
ATOM      1  C   UNL     1      37.216  24.811 226.208  1.00  0.00     0.059 C 
ENDROOT
BRANCH   1   2
ATOM      2  C   UNL     1      36.252  25.403 225.225  1.00  0.00     0.042 C 
ATOM      3  O   UNL     1      35.066  25.646 225.570  1.00  0.00    -0.550 OA
ATOM      4  O   UNL     1      36.652  25.647 223.918  1.00  0.00    -0.550 OA
ENDBRANCH   1   2
BRANCH   1   5
ATOM      5  C   UNL     1      37.909  23.567 225.641  1.00  0.00     0.059 C 
BRANCH   5   6
ATOM      6  C   UNL     1      36.950  22.428 225.475  1.00  0.00     0.042 C 
ATOM      7  O   UNL     1      36.532  22.114 224.330  1.00  0.00    -0.550 OA
ATOM      8  O   UNL     1      36.486  21.740 226.589  1.00  0.00    -0.550 OA
ENDBRANCH   5   6
ENDBRANCH   1   5
TORSDOF 3
ENDMDL
MODEL 4
REMARK VINA RESULT:    -3.535      0.828      3.545
REMARK INTER + INTRA:          -4.306
REMARK INTER:                  -4.136
REMARK INTRA:                  -0.170
REMARK UNBOUND:                -0.151
REMARK SMILES O=C([O-])CCC(=O)[O-]
REMARK SMILES IDX 4 1 2 2 1 3 3 4 5 5 6 6 7 7 8 8
REMARK H PARENT
REMARK Flexibility Score: inf
ROOT
ATOM      1  C   UNL     1      37.991  24.808 225.646  1.00  0.00     0.059 C 
ENDROOT
BRANCH   1   2
ATOM      2  C   UNL     1      36.998  25.673 224.933  1.00  0.00     0.042 C 
ATOM      3  O   UNL     1      35.892  25.942 225.469  1.00  0.00    -0.550 OA
ATOM      4  O   UNL     1      37.278  26.148 223.658  1.00  0.00    -0.550 OA
ENDBRANCH   1   2
BRANCH   1   5
ATOM      5  C   UNL     1      38.202  23.473 224.922  1.00  0.00     0.059 C 
BRANCH   5   6
ATOM      6  C   UNL     1      36.974  22.617 224.974  1.00  0.00     0.042 C 
ATOM      7  O   UNL     1      36.580  22.140 226.072  1.00  0.00    -0.550 OA
ATOM      8  O   UNL     1      36.287  22.310 223.806  1.00  0.00    -0.550 OA
ENDBRANCH   5   6
ENDBRANCH   1   5
TORSDOF 3
ENDMDL
MODEL 5
REMARK VINA RESULT:    -3.458      1.697      3.392
REMARK INTER + INTRA:          -4.215
REMARK INTER:                  -4.095
REMARK INTRA:                  -0.120
REMARK UNBOUND:                -0.151
REMARK SMILES O=C([O-])CCC(=O)[O-]
REMARK SMILES IDX 4 1 2 2 1 3 3 4 5 5 6 6 7 7 8 8
REMARK H PARENT
REMARK Flexibility Score: inf
ROOT
ATOM      1  C   UNL     1      37.076  25.487 224.304  1.00  0.00     0.059 C 
ENDROOT
BRANCH   1   2
ATOM      2  C   UNL     1      36.246  25.256 225.529  1.00  0.00     0.042 C 
ATOM      3  O   UNL     1      36.649  24.473 226.428  1.00  0.00    -0.550 OA
ATOM      4  O   UNL     1      35.009  25.874 225.659  1.00  0.00    -0.550 OA
ENDBRANCH   1   2
BRANCH   1   5
ATOM      5  C   UNL     1      37.612  24.172 223.728  1.00  0.00     0.059 C 
BRANCH   5   6
ATOM      6  C   UNL     1      36.501  23.253 223.322  1.00  0.00     0.042 C 
ATOM      7  O   UNL     1      35.725  23.573 222.383  1.00  0.00    -0.550 OA
ATOM      8  O   UNL     1      36.296  22.062 224.007  1.00  0.00    -0.550 OA
ENDBRANCH   5   6
ENDBRANCH   1   5
TORSDOF 3
ENDMDL
MODEL 6
REMARK VINA RESULT:    -3.452      3.326      4.011
REMARK INTER + INTRA:          -4.207
REMARK INTER:                  -4.178
REMARK INTRA:                  -0.029
REMARK UNBOUND:                -0.151
REMARK SMILES O=C([O-])CCC(=O)[O-]
REMARK SMILES IDX 4 1 2 2 1 3 3 4 5 5 6 6 7 7 8 8
REMARK H PARENT
REMARK Flexibility Score: inf
ROOT
ATOM      1  C   UNL     1      36.101  23.695 222.204  1.00  0.00     0.059 C 
ENDROOT
BRANCH   1   2
ATOM      2  C   UNL     1      36.442  23.727 220.745  1.00  0.00     0.042 C 
ATOM      3  O   UNL     1      37.597  23.410 220.358  1.00  0.00    -0.550 OA
ATOM      4  O   UNL     1      35.497  24.148 219.819  1.00  0.00    -0.550 OA
ENDBRANCH   1   2
BRANCH   1   5
ATOM      5  C   UNL     1      36.731  24.870 222.958  1.00  0.00     0.059 C 
BRANCH   5   6
ATOM      6  C   UNL     1      36.365  24.855 224.411  1.00  0.00     0.042 C 
ATOM      7  O   UNL     1      36.245  25.936 225.045  1.00  0.00    -0.550 OA
ATOM      8  O   UNL     1      36.198  23.646 225.075  1.00  0.00    -0.550 OA
ENDBRANCH   5   6
ENDBRANCH   1   5
TORSDOF 3
ENDMDL
MODEL 7
REMARK VINA RESULT:    -3.445      2.692      3.843
REMARK INTER + INTRA:          -4.199
REMARK INTER:                  -4.102
REMARK INTRA:                  -0.097
REMARK UNBOUND:                -0.151
REMARK SMILES O=C([O-])CCC(=O)[O-]
REMARK SMILES IDX 4 1 2 2 1 3 3 4 5 5 6 6 7 7 8 8
REMARK H PARENT
REMARK Flexibility Score: inf
ROOT
ATOM      1  C   UNL     1      37.528  25.440 223.761  1.00  0.00     0.059 C 
ENDROOT
BRANCH   1   2
ATOM      2  C   UNL     1      36.505  25.066 224.790  1.00  0.00     0.042 C 
ATOM      3  O   UNL     1      35.893  25.961 225.429  1.00  0.00    -0.550 OA
ATOM      4  O   UNL     1      36.259  23.729 225.071  1.00  0.00    -0.550 OA
ENDBRANCH   1   2
BRANCH   1   5
ATOM      5  C   UNL     1      38.921  24.920 224.133  1.00  0.00     0.059 C 
BRANCH   5   6
ATOM      6  C   UNL     1      39.518  24.102 223.029  1.00  0.00     0.042 C 
ATOM      7  O   UNL     1      38.774  23.438 222.260  1.00  0.00    -0.550 OA
ATOM      8  O   UNL     1      40.897  24.040 222.874  1.00  0.00    -0.550 OA
ENDBRANCH   5   6
ENDBRANCH   1   5
TORSDOF 3
ENDMDL
MODEL 8
REMARK VINA RESULT:    -3.440      2.699      3.299
REMARK INTER + INTRA:          -4.194
REMARK INTER:                  -4.111
REMARK INTRA:                  -0.083
REMARK UNBOUND:                -0.151
REMARK SMILES O=C([O-])CCC(=O)[O-]
REMARK SMILES IDX 4 1 2 2 1 3 3 4 5 5 6 6 7 7 8 8
REMARK H PARENT
REMARK Flexibility Score: inf
ROOT
ATOM      1  C   UNL     1      38.906  24.707 224.167  1.00  0.00     0.059 C 
ENDROOT
BRANCH   1   2
ATOM      2  C   UNL     1      39.543  24.008 223.004  1.00  0.00     0.042 C 
ATOM      3  O   UNL     1      38.830  23.406 222.160  1.00  0.00    -0.550 OA
ATOM      4  O   UNL     1      40.926  23.988 222.877  1.00  0.00    -0.550 OA
ENDBRANCH   1   2
BRANCH   1   5
ATOM      5  C   UNL     1      37.537  25.287 223.797  1.00  0.00     0.059 C 
BRANCH   5   6
ATOM      6  C   UNL     1      36.498  24.945 224.821  1.00  0.00     0.042 C 
ATOM      7  O   UNL     1      36.256  23.741 225.101  1.00  0.00    -0.550 OA
ATOM      8  O   UNL     1      35.767  25.954 225.436  1.00  0.00    -0.550 OA
ENDBRANCH   5   6
ENDBRANCH   1   5
TORSDOF 3
ENDMDL
MODEL 9
REMARK VINA RESULT:    -3.396      4.470      6.370
REMARK INTER + INTRA:          -4.142
REMARK INTER:                  -3.986
REMARK INTRA:                  -0.156
REMARK UNBOUND:                -0.151
REMARK SMILES O=C([O-])CCC(=O)[O-]
REMARK SMILES IDX 4 1 2 2 1 3 3 4 5 5 6 6 7 7 8 8
REMARK H PARENT
REMARK Flexibility Score: inf
ROOT
ATOM      1  C   UNL     1      37.680  19.362 226.244  1.00  0.00     0.059 C 
ENDROOT
BRANCH   1   2
ATOM      2  C   UNL     1      36.215  19.630 226.086  1.00  0.00     0.042 C 
ATOM      3  O   UNL     1      35.666  20.552 226.743  1.00  0.00    -0.550 OA
ATOM      4  O   UNL     1      35.449  18.835 225.244  1.00  0.00    -0.550 OA
ENDBRANCH   1   2
BRANCH   1   5
ATOM      5  C   UNL     1      37.942  17.953 226.787  1.00  0.00     0.059 C 
BRANCH   5   6
ATOM      6  C   UNL     1      37.295  17.747 228.122  1.00  0.00     0.042 C 
ATOM      7  O   UNL     1      36.287  17.000 228.228  1.00  0.00    -0.550 OA
ATOM      8  O   UNL     1      37.779  18.411 229.242  1.00  0.00    -0.550 OA
ENDBRANCH   5   6
ENDBRANCH   1   5
TORSDOF 3
ENDMDL
