MODEL 1
REMARK VINA RESULT:    -1.081      0.000      0.000
REMARK INTER + INTRA:          -1.668
REMARK INTER:                  -1.333
REMARK INTRA:                  -0.335
REMARK UNBOUND:                -0.335
REMARK SMILES O=c1c(O)c(-c2cc(O)c(O)c(O)c2)oc2cc(O)cc(O)c12
REMARK SMILES IDX 5 1 3 2 2 3 1 4 23 5 21 6 20 7 18 8 17 9 16 10 15 11 6 12
REMARK SMILES IDX 7 13 8 14 14 15 10 16 12 17 9 18 11 20 13 22 4 24 22 26
REMARK SMILES IDX 19 28
REMARK H PARENT 9 19 11 21 13 23 4 25 22 27 19 29
REMARK Flexibility Score: inf
ROOT
ATOM      1  C   UNL     1     -14.387   9.234  -8.289  1.00  0.00     0.180 A 
ATOM      2  C   UNL     1     -15.599   9.834  -7.897  1.00  0.00     0.208 A 
ATOM      3  C   UNL     1     -15.723  11.230  -7.979  1.00  0.00     0.238 A 
ATOM      4  O   UNL     1     -16.800  11.780  -7.620  1.00  0.00    -0.285 OA
ATOM      5  C   UNL     1     -14.646  11.997  -8.469  1.00  0.00     0.111 A 
ATOM      6  C   UNL     1     -14.691  13.408  -8.587  1.00  0.00     0.134 A 
ATOM      7  C   UNL     1     -13.580  14.099  -9.093  1.00  0.00     0.093 A 
ATOM      8  C   UNL     1     -12.429  13.410  -9.483  1.00  0.00     0.123 A 
ATOM      9  C   UNL     1     -12.378  12.018  -9.367  1.00  0.00     0.094 A 
ATOM     10  C   UNL     1     -13.474  11.310  -8.864  1.00  0.00     0.146 A 
ATOM     11  O   UNL     1     -13.398   9.989  -8.760  1.00  0.00    -0.452 OA
ENDROOT
BRANCH   1  12
ATOM     12  C   UNL     1     -14.174   7.771  -8.215  1.00  0.00     0.029 A 
ATOM     13  C   UNL     1     -14.663   6.908  -9.211  1.00  0.00     0.062 A 
ATOM     14  C   UNL     1     -14.473   5.526  -9.112  1.00  0.00     0.162 A 
ATOM     15  C   UNL     1     -13.521   7.225  -7.099  1.00  0.00     0.062 A 
ATOM     16  C   UNL     1     -13.798   4.987  -8.005  1.00  0.00     0.200 A 
ATOM     17  C   UNL     1     -13.325   5.841  -6.994  1.00  0.00     0.162 A 
BRANCH  14  18
ATOM     18  O   UNL     1     -14.968   4.704 -10.125  1.00  0.00    -0.504 OA
ATOM     19  H   UNL     1     -14.996   3.696 -10.035  1.00  0.00     0.293 HD
ENDBRANCH  14  18
BRANCH  16  20
ATOM     20  O   UNL     1     -13.610   3.607  -7.917  1.00  0.00    -0.502 OA
ATOM     21  H   UNL     1     -13.129   3.081  -8.639  1.00  0.00     0.293 HD
ENDBRANCH  16  20
BRANCH  17  22
ATOM     22  O   UNL     1     -12.663   5.311  -5.887  1.00  0.00    -0.504 OA
ATOM     23  H   UNL     1     -12.613   5.813  -5.008  1.00  0.00     0.293 HD
ENDBRANCH  17  22
ENDBRANCH   1  12
BRANCH   2  24
ATOM     24  O   UNL     1     -16.669   9.047  -7.462  1.00  0.00    -0.502 OA
ATOM     25  H   UNL     1     -16.826   8.107  -7.807  1.00  0.00     0.293 HD
ENDBRANCH   2  24
BRANCH   6  26
ATOM     26  O   UNL     1     -15.826  14.124  -8.208  1.00  0.00    -0.507 OA
ATOM     27  H   UNL     1     -16.719  13.993  -8.669  1.00  0.00     0.293 HD
ENDBRANCH   6  26
BRANCH   8  28
ATOM     28  O   UNL     1     -11.340  14.121  -9.982  1.00  0.00    -0.508 OA
ATOM     29  H   UNL     1     -10.533  14.328  -9.405  1.00  0.00     0.293 HD
ENDBRANCH   8  28
TORSDOF 7
ENDMDL
MODEL 2
REMARK VINA RESULT:    -0.623      1.164      2.771
REMARK INTER + INTRA:          -1.104
REMARK INTER:                  -0.759
REMARK INTRA:                  -0.345
REMARK UNBOUND:                -0.335
REMARK SMILES O=c1c(O)c(-c2cc(O)c(O)c(O)c2)oc2cc(O)cc(O)c12
REMARK SMILES IDX 5 1 3 2 2 3 1 4 23 5 21 6 20 7 18 8 17 9 16 10 15 11 6 12
REMARK SMILES IDX 7 13 8 14 14 15 10 16 12 17 9 18 11 20 13 22 4 24 22 26
REMARK SMILES IDX 19 28
REMARK H PARENT 9 19 11 21 13 23 4 25 22 27 19 29
REMARK Flexibility Score: inf
ROOT
ATOM      1  C   UNL     1     -13.744   9.178  -8.475  1.00  0.00     0.180 A 
ATOM      2  C   UNL     1     -12.755   9.852  -9.218  1.00  0.00     0.208 A 
ATOM      3  C   UNL     1     -12.846  11.245  -9.362  1.00  0.00     0.238 A 
ATOM      4  O   UNL     1     -11.971  11.857 -10.035  1.00  0.00    -0.285 OA
ATOM      5  C   UNL     1     -13.906  11.942  -8.748  1.00  0.00     0.111 A 
ATOM      6  C   UNL     1     -14.068  13.346  -8.842  1.00  0.00     0.134 A 
ATOM      7  C   UNL     1     -15.146  13.966  -8.194  1.00  0.00     0.093 A 
ATOM      8  C   UNL     1     -16.063  13.214  -7.456  1.00  0.00     0.123 A 
ATOM      9  C   UNL     1     -15.909  11.827  -7.360  1.00  0.00     0.094 A 
ATOM     10  C   UNL     1     -14.842  11.189  -8.000  1.00  0.00     0.146 A 
ATOM     11  O   UNL     1     -14.722   9.871  -7.898  1.00  0.00    -0.452 OA
ENDROOT
BRANCH   1  12
ATOM     12  C   UNL     1     -13.727   7.710  -8.293  1.00  0.00     0.029 A 
ATOM     13  C   UNL     1     -14.190   6.843  -9.298  1.00  0.00     0.062 A 
ATOM     14  C   UNL     1     -14.190   5.458  -9.101  1.00  0.00     0.162 A 
ATOM     15  C   UNL     1     -13.296   7.170  -7.072  1.00  0.00     0.062 A 
ATOM     16  C   UNL     1     -13.735   4.922  -7.885  1.00  0.00     0.200 A 
ATOM     17  C   UNL     1     -13.290   5.784  -6.867  1.00  0.00     0.162 A 
BRANCH  14  18
ATOM     18  O   UNL     1     -14.651   4.631 -10.125  1.00  0.00    -0.504 OA
ATOM     19  H   UNL     1     -15.604   4.290 -10.154  1.00  0.00     0.293 HD
ENDBRANCH  14  18
BRANCH  16  20
ATOM     20  O   UNL     1     -13.734   3.539  -7.698  1.00  0.00    -0.502 OA
ATOM     21  H   UNL     1     -12.972   3.058  -7.234  1.00  0.00     0.293 HD
ENDBRANCH  16  20
BRANCH  17  22
ATOM     22  O   UNL     1     -12.846   5.259  -5.653  1.00  0.00    -0.504 OA
ATOM     23  H   UNL     1     -12.152   4.521  -5.617  1.00  0.00     0.293 HD
ENDBRANCH  17  22
ENDBRANCH   1  12
BRANCH   2  24
ATOM     24  O   UNL     1     -11.686   9.144  -9.775  1.00  0.00    -0.502 OA
ATOM     25  H   UNL     1     -10.899   8.825  -9.221  1.00  0.00     0.293 HD
ENDBRANCH   2  24
BRANCH   6  26
ATOM     26  O   UNL     1     -13.169  14.125  -9.570  1.00  0.00    -0.507 OA
ATOM     27  H   UNL     1     -12.183  13.895  -9.622  1.00  0.00     0.293 HD
ENDBRANCH   6  26
BRANCH   8  28
ATOM     28  O   UNL     1     -17.124  13.855  -6.821  1.00  0.00    -0.508 OA
ATOM     29  H   UNL     1     -17.325  14.835  -6.986  1.00  0.00     0.293 HD
ENDBRANCH   8  28
TORSDOF 7
ENDMDL
MODEL 3
REMARK VINA RESULT:    -0.122     20.534     24.112
REMARK INTER + INTRA:          -0.486
REMARK INTER:                  -0.771
REMARK INTRA:                   0.285
REMARK UNBOUND:                -0.335
REMARK SMILES O=c1c(O)c(-c2cc(O)c(O)c(O)c2)oc2cc(O)cc(O)c12
REMARK SMILES IDX 5 1 3 2 2 3 1 4 23 5 21 6 20 7 18 8 17 9 16 10 15 11 6 12
REMARK SMILES IDX 7 13 8 14 14 15 10 16 12 17 9 18 11 20 13 22 4 24 22 26
REMARK SMILES IDX 19 28
REMARK H PARENT 9 19 11 21 13 23 4 25 22 27 19 29
REMARK Flexibility Score: inf
ROOT
ATOM      1  C   UNL     1      -1.621  -0.426   8.480  1.00  0.00     0.180 A 
ATOM      2  C   UNL     1      -1.025   0.737   9.007  1.00  0.00     0.208 A 
ATOM      3  C   UNL     1       0.326   0.695   9.387  1.00  0.00     0.238 A 
ATOM      4  O   UNL     1       0.867   1.727   9.869  1.00  0.00    -0.285 OA
ATOM      5  C   UNL     1       1.061  -0.496   9.216  1.00  0.00     0.111 A 
ATOM      6  C   UNL     1       2.426  -0.620   9.570  1.00  0.00     0.134 A 
ATOM      7  C   UNL     1       3.091  -1.838   9.361  1.00  0.00     0.093 A 
ATOM      8  C   UNL     1       2.419  -2.930   8.806  1.00  0.00     0.123 A 
ATOM      9  C   UNL     1       1.071  -2.814   8.455  1.00  0.00     0.094 A 
ATOM     10  C   UNL     1       0.390  -1.609   8.657  1.00  0.00     0.146 A 
ATOM     11  O   UNL     1      -0.892  -1.526   8.321  1.00  0.00    -0.452 OA
ENDROOT
BRANCH   1  12
ATOM     12  C   UNL     1      -3.043  -0.466   8.074  1.00  0.00     0.029 A 
ATOM     13  C   UNL     1      -3.985   0.423   8.620  1.00  0.00     0.062 A 
ATOM     14  C   UNL     1      -5.331   0.356   8.243  1.00  0.00     0.162 A 
ATOM     15  C   UNL     1      -3.476  -1.447   7.169  1.00  0.00     0.062 A 
ATOM     16  C   UNL     1      -5.754  -0.614   7.319  1.00  0.00     0.200 A 
ATOM     17  C   UNL     1      -4.821  -1.520   6.784  1.00  0.00     0.162 A 
BRANCH  14  18
ATOM     18  O   UNL     1      -6.233   1.259   8.804  1.00  0.00    -0.504 OA
ATOM     19  H   UNL     1      -7.236   1.136   8.729  1.00  0.00     0.293 HD
ENDBRANCH  14  18
BRANCH  16  20
ATOM     20  O   UNL     1      -7.097  -0.670   6.946  1.00  0.00    -0.502 OA
ATOM     21  H   UNL     1      -7.793  -1.148   7.506  1.00  0.00     0.293 HD
ENDBRANCH  16  20
BRANCH  17  22
ATOM     22  O   UNL     1      -5.236  -2.491   5.874  1.00  0.00    -0.504 OA
ATOM     23  H   UNL     1      -4.589  -2.918   5.221  1.00  0.00     0.293 HD
ENDBRANCH  17  22
ENDBRANCH   1  12
BRANCH   2  24
ATOM     24  O   UNL     1      -1.762   1.920   9.119  1.00  0.00    -0.502 OA
ATOM     25  H   UNL     1      -2.399   2.091   9.888  1.00  0.00     0.293 HD
ENDBRANCH   2  24
BRANCH   6  26
ATOM     26  O   UNL     1       3.125   0.452  10.125  1.00  0.00    -0.507 OA
ATOM     27  H   UNL     1       4.008   0.322  10.606  1.00  0.00     0.293 HD
ENDBRANCH   6  26
BRANCH   8  28
ATOM     28  O   UNL     1       3.103  -4.128   8.608  1.00  0.00    -0.508 OA
ATOM     29  H   UNL     1       4.095  -4.142   8.399  1.00  0.00     0.293 HD
ENDBRANCH   8  28
TORSDOF 7
ENDMDL
MODEL 4
REMARK VINA RESULT:     1.266      2.759      6.959
REMARK INTER + INTRA:           1.226
REMARK INTER:                   0.735
REMARK INTRA:                   0.492
REMARK UNBOUND:                -0.335
REMARK SMILES O=c1c(O)c(-c2cc(O)c(O)c(O)c2)oc2cc(O)cc(O)c12
REMARK SMILES IDX 5 1 3 2 2 3 1 4 23 5 21 6 20 7 18 8 17 9 16 10 15 11 6 12
REMARK SMILES IDX 7 13 8 14 14 15 10 16 12 17 9 18 11 20 13 22 4 24 22 26
REMARK SMILES IDX 19 28
REMARK H PARENT 9 19 11 21 13 23 4 25 22 27 19 29
REMARK Flexibility Score: inf
ROOT
ATOM      1  C   UNL     1     -11.789   9.720  -9.766  1.00  0.00     0.180 A 
ATOM      2  C   UNL     1     -13.040  10.307  -9.494  1.00  0.00     0.208 A 
ATOM      3  C   UNL     1     -14.174   9.482  -9.419  1.00  0.00     0.238 A 
ATOM      4  O   UNL     1     -15.301   9.998  -9.187  1.00  0.00    -0.285 OA
ATOM      5  C   UNL     1     -14.036   8.091  -9.594  1.00  0.00     0.111 A 
ATOM      6  C   UNL     1     -15.128   7.190  -9.530  1.00  0.00     0.134 A 
ATOM      7  C   UNL     1     -14.907   5.816  -9.707  1.00  0.00     0.093 A 
ATOM      8  C   UNL     1     -13.621   5.326  -9.946  1.00  0.00     0.123 A 
ATOM      9  C   UNL     1     -12.540   6.210 -10.012  1.00  0.00     0.094 A 
ATOM     10  C   UNL     1     -12.738   7.583  -9.840  1.00  0.00     0.146 A 
ATOM     11  O   UNL     1     -11.695   8.402  -9.912  1.00  0.00    -0.452 OA
ENDROOT
BRANCH   1  12
ATOM     12  C   UNL     1     -10.551  10.524  -9.879  1.00  0.00     0.029 A 
ATOM     13  C   UNL     1      -9.285   9.916  -9.921  1.00  0.00     0.062 A 
ATOM     14  C   UNL     1      -8.124  10.692 -10.004  1.00  0.00     0.162 A 
ATOM     15  C   UNL     1     -10.636  11.924  -9.886  1.00  0.00     0.062 A 
ATOM     16  C   UNL     1      -8.216  12.093 -10.035  1.00  0.00     0.200 A 
ATOM     17  C   UNL     1      -9.478  12.710  -9.972  1.00  0.00     0.162 A 
BRANCH  14  18
ATOM     18  O   UNL     1      -6.886  10.050 -10.050  1.00  0.00    -0.504 OA
ATOM     19  H   UNL     1      -6.293  10.081 -10.870  1.00  0.00     0.293 HD
ENDBRANCH  14  18
BRANCH  16  20
ATOM     20  O   UNL     1      -7.053  12.859 -10.122  1.00  0.00    -0.502 OA
ATOM     21  H   UNL     1      -7.052  13.860  -9.962  1.00  0.00     0.293 HD
ENDBRANCH  16  20
BRANCH  17  22
ATOM     22  O   UNL     1      -9.576  14.100  -9.992  1.00  0.00    -0.504 OA
ATOM     23  H   UNL     1     -10.440  14.575  -9.755  1.00  0.00     0.293 HD
ENDBRANCH  17  22
ENDBRANCH   1  12
BRANCH   2  24
ATOM     24  O   UNL     1     -13.142  11.684  -9.274  1.00  0.00    -0.502 OA
ATOM     25  H   UNL     1     -13.199  12.081  -8.344  1.00  0.00     0.293 HD
ENDBRANCH   2  24
BRANCH   6  26
ATOM     26  O   UNL     1     -16.423   7.648  -9.292  1.00  0.00    -0.507 OA
ATOM     27  H   UNL     1     -16.941   7.379  -8.463  1.00  0.00     0.293 HD
ENDBRANCH   6  26
BRANCH   8  28
ATOM     28  O   UNL     1     -13.430   3.956 -10.117  1.00  0.00    -0.508 OA
ATOM     29  H   UNL     1     -12.626   3.593 -10.617  1.00  0.00     0.293 HD
ENDBRANCH   8  28
TORSDOF 7
ENDMDL
MODEL 5
REMARK VINA RESULT:     1.445      2.443      3.125
REMARK INTER + INTRA:           1.448
REMARK INTER:                   1.778
REMARK INTRA:                  -0.330
REMARK UNBOUND:                -0.335
REMARK SMILES O=c1c(O)c(-c2cc(O)c(O)c(O)c2)oc2cc(O)cc(O)c12
REMARK SMILES IDX 5 1 3 2 2 3 1 4 23 5 21 6 20 7 18 8 17 9 16 10 15 11 6 12
REMARK SMILES IDX 7 13 8 14 14 15 10 16 12 17 9 18 11 20 13 22 4 24 22 26
REMARK SMILES IDX 19 28
REMARK H PARENT 9 19 11 21 13 23 4 25 22 27 19 29
REMARK Flexibility Score: inf
ROOT
ATOM      1  C   UNL     1     -13.704   9.544  -8.018  1.00  0.00     0.180 A 
ATOM      2  C   UNL     1     -13.747   9.806  -6.634  1.00  0.00     0.208 A 
ATOM      3  C   UNL     1     -14.465  10.923  -6.177  1.00  0.00     0.238 A 
ATOM      4  O   UNL     1     -14.500  11.173  -4.941  1.00  0.00    -0.285 OA
ATOM      5  C   UNL     1     -15.142  11.743  -7.102  1.00  0.00     0.111 A 
ATOM      6  C   UNL     1     -15.890  12.884  -6.723  1.00  0.00     0.134 A 
ATOM      7  C   UNL     1     -16.544  13.644  -7.704  1.00  0.00     0.093 A 
ATOM      8  C   UNL     1     -16.465  13.287  -9.052  1.00  0.00     0.123 A 
ATOM      9  C   UNL     1     -15.726  12.163  -9.433  1.00  0.00     0.094 A 
ATOM     10  C   UNL     1     -15.066  11.392  -8.471  1.00  0.00     0.146 A 
ATOM     11  O   UNL     1     -14.368  10.332  -8.859  1.00  0.00    -0.452 OA
ENDROOT
BRANCH   1  12
ATOM     12  C   UNL     1     -12.954   8.398  -8.579  1.00  0.00     0.029 A 
ATOM     13  C   UNL     1     -13.486   7.098  -8.563  1.00  0.00     0.062 A 
ATOM     14  C   UNL     1     -12.754   6.022  -9.076  1.00  0.00     0.162 A 
ATOM     15  C   UNL     1     -11.661   8.601  -9.084  1.00  0.00     0.062 A 
ATOM     16  C   UNL     1     -11.469   6.234  -9.602  1.00  0.00     0.200 A 
ATOM     17  C   UNL     1     -10.921   7.529  -9.602  1.00  0.00     0.162 A 
BRANCH  14  18
ATOM     18  O   UNL     1     -13.319   4.747  -9.048  1.00  0.00    -0.504 OA
ATOM     19  H   UNL     1     -12.781   3.924  -8.807  1.00  0.00     0.293 HD
ENDBRANCH  14  18
BRANCH  16  20
ATOM     20  O   UNL     1     -10.747   5.156 -10.115  1.00  0.00    -0.502 OA
ATOM     21  H   UNL     1     -10.458   4.375  -9.536  1.00  0.00     0.293 HD
ENDBRANCH  16  20
BRANCH  17  22
ATOM     22  O   UNL     1      -9.642   7.745 -10.114  1.00  0.00    -0.504 OA
ATOM     23  H   UNL     1      -9.297   7.229 -10.915  1.00  0.00     0.293 HD
ENDBRANCH  17  22
ENDBRANCH   1  12
BRANCH   2  24
ATOM     24  O   UNL     1     -13.108   8.949  -5.733  1.00  0.00    -0.502 OA
ATOM     25  H   UNL     1     -13.614   8.444  -5.015  1.00  0.00     0.293 HD
ENDBRANCH   2  24
BRANCH   6  26
ATOM     26  O   UNL     1     -15.990  13.265  -5.385  1.00  0.00    -0.507 OA
ATOM     27  H   UNL     1     -16.697  12.878  -4.771  1.00  0.00     0.293 HD
ENDBRANCH   6  26
BRANCH   8  28
ATOM     28  O   UNL     1     -17.124  14.060 -10.006  1.00  0.00    -0.508 OA
ATOM     29  H   UNL     1     -18.064  13.835 -10.312  1.00  0.00     0.293 HD
ENDBRANCH   8  28
TORSDOF 7
ENDMDL
