MODEL 1
REMARK VINA RESULT:    -7.207      0.000      0.000
REMARK INTER + INTRA:          -8.958
REMARK INTER:                  -8.471
REMARK INTRA:                  -0.488
REMARK UNBOUND:                -0.488
REMARK SMILES C=C(C)[C@@H]1CC[C@@]2(CO)CC[C@]3(C)[C@@H](CC[C@@H]4[C@]5(C)CC[C@H](O)C(C)(C)[C@@H]5CC[C@@]43C)[C@@H]12
REMARK SMILES IDX 4 1 5 2 6 3 7 4 32 5 14 6 15 7 16 8 17 9 18 10 20 11 21 12
REMARK SMILES IDX 22 13 24 14 27 15 28 16 29 17 30 18 12 19 11 20 10 21 13 22
REMARK SMILES IDX 31 23 25 24 26 25 19 26 2 27 3 28 1 29 8 30 9 31 23 33
REMARK H PARENT 9 32 23 34
REMARK Flexibility Score: inf
ROOT
ATOM      1  C   UNL     1      33.250  17.712 -19.684  1.00  0.00     0.018 C 
ATOM      2  C   UNL     1      33.161  17.805 -18.158  1.00  0.00     0.009 C 
ATOM      3  C   UNL     1      32.973  16.371 -17.694  1.00  0.00     0.010 C 
ATOM      4  C   UNL     1      33.792  15.501 -18.666  1.00  0.00    -0.003 C 
ATOM      5  C   UNL     1      33.767  16.275 -20.023  1.00  0.00     0.008 C 
ATOM      6  C   UNL     1      33.049  15.536 -21.239  1.00  0.00    -0.000 C 
ATOM      7  C   UNL     1      31.534  15.762 -21.332  1.00  0.00     0.005 C 
ATOM      8  C   UNL     1      30.853  15.102 -22.541  1.00  0.00     0.005 C 
ATOM      9  C   UNL     1      31.683  14.034 -23.325  1.00  0.00     0.002 C 
ATOM     10  C   UNL     1      30.791  13.246 -24.421  1.00  0.00    -0.026 C 
ATOM     11  C   UNL     1      29.747  14.208 -25.123  1.00  0.00     0.010 C 
ATOM     12  C   UNL     1      28.340  14.205 -24.504  1.00  0.00     0.033 C 
ATOM     13  C   UNL     1      27.672  12.809 -24.532  1.00  0.00     0.120 C 
ATOM     14  C   UNL     1      28.670  11.588 -24.462  1.00  0.00    -0.006 C 
ATOM     15  C   UNL     1      30.062  11.967 -23.787  1.00  0.00     0.003 C 
ATOM     16  C   UNL     1      29.983  12.020 -22.228  1.00  0.00     0.005 C 
ATOM     17  C   UNL     1      31.283  12.404 -21.449  1.00  0.00     0.008 C 
ATOM     18  C   UNL     1      32.418  13.113 -22.281  1.00  0.00    -0.024 C 
ATOM     19  C   UNL     1      33.472  14.006 -21.395  1.00  0.00    -0.024 C 
ATOM     20  C   UNL     1      33.735  13.321 -19.997  1.00  0.00     0.008 C 
ATOM     21  C   UNL     1      33.163  14.090 -18.797  1.00  0.00     0.010 C 
ATOM     22  C   UNL     1      34.871  14.086 -22.118  1.00  0.00     0.012 C 
ATOM     23  C   UNL     1      33.234  11.953 -22.943  1.00  0.00     0.012 C 
ATOM     24  C   UNL     1      28.004  10.380 -23.725  1.00  0.00     0.014 C 
ATOM     25  C   UNL     1      28.918  11.071 -25.910  1.00  0.00     0.014 C 
ATOM     26  C   UNL     1      31.758  12.778 -25.577  1.00  0.00     0.012 C 
ENDROOT
BRANCH   1  27
ATOM     27  C   UNL     1      34.068  18.821 -20.344  1.00  0.00    -0.077 C 
ATOM     28  C   UNL     1      33.405  20.050 -20.929  1.00  0.00     0.039 C 
ATOM     29  C   UNL     1      35.415  18.768 -20.298  1.00  0.00     0.008 C 
ENDBRANCH   1  27
BRANCH   4  30
ATOM     30  C   UNL     1      35.252  15.341 -18.108  1.00  0.00     0.163 C 
BRANCH  30  31
ATOM     31  O   UNL     1      35.292  15.233 -16.712  1.00  0.00    -0.396 OA
ATOM     32  H   UNL     1      36.226  15.034 -16.452  1.00  0.00     0.210 HD
ENDBRANCH  30  31
ENDBRANCH   4  30
BRANCH  13  33
ATOM     33  O   UNL     1      26.650  12.728 -23.561  1.00  0.00    -0.393 OA
ATOM     34  H   UNL     1      26.663  11.833 -23.143  1.00  0.00     0.210 HD
ENDBRANCH  13  33
TORSDOF 4
ENDMDL
MODEL 2
REMARK VINA RESULT:    -6.978      3.520      6.712
REMARK INTER + INTRA:          -8.690
REMARK INTER:                  -8.053
REMARK INTRA:                  -0.637
REMARK UNBOUND:                -0.488
REMARK SMILES C=C(C)[C@@H]1CC[C@@]2(CO)CC[C@]3(C)[C@@H](CC[C@@H]4[C@]5(C)CC[C@H](O)C(C)(C)[C@@H]5CC[C@@]43C)[C@@H]12
REMARK SMILES IDX 4 1 5 2 6 3 7 4 32 5 14 6 15 7 16 8 17 9 18 10 20 11 21 12
REMARK SMILES IDX 22 13 24 14 27 15 28 16 29 17 30 18 12 19 11 20 10 21 13 22
REMARK SMILES IDX 31 23 25 24 26 25 19 26 2 27 3 28 1 29 8 30 9 31 23 33
REMARK H PARENT 9 32 23 34
REMARK Flexibility Score: inf
ROOT
ATOM      1  C   UNL     1      37.722  12.216 -19.947  1.00  0.00     0.018 C 
ATOM      2  C   UNL     1      38.173  11.323 -18.788  1.00  0.00     0.009 C 
ATOM      3  C   UNL     1      36.925  11.125 -17.945  1.00  0.00     0.010 C 
ATOM      4  C   UNL     1      35.747  11.076 -18.937  1.00  0.00    -0.003 C 
ATOM      5  C   UNL     1      36.187  11.980 -20.133  1.00  0.00     0.008 C 
ATOM      6  C   UNL     1      35.301  13.279 -20.393  1.00  0.00    -0.000 C 
ATOM      7  C   UNL     1      35.715  14.518 -19.588  1.00  0.00     0.005 C 
ATOM      8  C   UNL     1      34.901  15.787 -19.885  1.00  0.00     0.005 C 
ATOM      9  C   UNL     1      33.574  15.604 -20.692  1.00  0.00     0.002 C 
ATOM     10  C   UNL     1      32.693  16.960 -20.742  1.00  0.00    -0.026 C 
ATOM     11  C   UNL     1      33.609  18.245 -20.875  1.00  0.00     0.010 C 
ATOM     12  C   UNL     1      33.949  18.942 -19.548  1.00  0.00     0.033 C 
ATOM     13  C   UNL     1      32.695  19.429 -18.783  1.00  0.00     0.120 C 
ATOM     14  C   UNL     1      31.392  18.570 -19.021  1.00  0.00    -0.006 C 
ATOM     15  C   UNL     1      31.711  17.079 -19.481  1.00  0.00     0.003 C 
ATOM     16  C   UNL     1      32.129  16.156 -18.293  1.00  0.00     0.005 C 
ATOM     17  C   UNL     1      32.490  14.671 -18.620  1.00  0.00     0.008 C 
ATOM     18  C   UNL     1      32.820  14.343 -20.126  1.00  0.00    -0.024 C 
ATOM     19  C   UNL     1      33.731  12.998 -20.359  1.00  0.00    -0.024 C 
ATOM     20  C   UNL     1      33.352  11.887 -19.304  1.00  0.00     0.008 C 
ATOM     21  C   UNL     1      34.449  11.597 -18.268  1.00  0.00     0.010 C 
ATOM     22  C   UNL     1      33.442  12.375 -21.779  1.00  0.00     0.012 C 
ATOM     23  C   UNL     1      31.435  14.090 -20.809  1.00  0.00     0.012 C 
ATOM     24  C   UNL     1      30.493  18.578 -17.741  1.00  0.00     0.014 C 
ATOM     25  C   UNL     1      30.528  19.276 -20.107  1.00  0.00     0.014 C 
ATOM     26  C   UNL     1      31.840  16.927 -22.069  1.00  0.00     0.012 C 
ENDROOT
BRANCH   1  27
ATOM     27  C   UNL     1      38.521  12.037 -21.237  1.00  0.00    -0.077 C 
ATOM     28  C   UNL     1      39.638  12.990 -21.611  1.00  0.00     0.039 C 
ATOM     29  C   UNL     1      38.315  10.944 -22.000  1.00  0.00     0.008 C 
ENDBRANCH   1  27
BRANCH   4  30
ATOM     30  C   UNL     1      35.510   9.587 -19.382  1.00  0.00     0.163 C 
BRANCH  30  31
ATOM     31  O   UNL     1      35.418   9.444 -20.772  1.00  0.00    -0.396 OA
ATOM     32  H   UNL     1      36.302   9.668 -21.157  1.00  0.00     0.210 HD
ENDBRANCH  30  31
ENDBRANCH   4  30
BRANCH  13  33
ATOM     33  O   UNL     1      32.985  19.603 -17.413  1.00  0.00    -0.393 OA
ATOM     34  H   UNL     1      32.242  20.085 -16.977  1.00  0.00     0.210 HD
ENDBRANCH  13  33
TORSDOF 4
ENDMDL
MODEL 3
REMARK VINA RESULT:    -6.689      1.828      7.804
REMARK INTER + INTRA:          -8.350
REMARK INTER:                  -7.676
REMARK INTRA:                  -0.673
REMARK UNBOUND:                -0.488
REMARK SMILES C=C(C)[C@@H]1CC[C@@]2(CO)CC[C@]3(C)[C@@H](CC[C@@H]4[C@]5(C)CC[C@H](O)C(C)(C)[C@@H]5CC[C@@]43C)[C@@H]12
REMARK SMILES IDX 4 1 5 2 6 3 7 4 32 5 14 6 15 7 16 8 17 9 18 10 20 11 21 12
REMARK SMILES IDX 22 13 24 14 27 15 28 16 29 17 30 18 12 19 11 20 10 21 13 22
REMARK SMILES IDX 31 23 25 24 26 25 19 26 2 27 3 28 1 29 8 30 9 31 23 33
REMARK H PARENT 9 32 23 34
REMARK Flexibility Score: inf
ROOT
ATOM      1  C   UNL     1      27.859  11.474 -21.716  1.00  0.00     0.018 C 
ATOM      2  C   UNL     1      26.457  11.708 -22.288  1.00  0.00     0.009 C 
ATOM      3  C   UNL     1      26.621  12.874 -23.247  1.00  0.00     0.010 C 
ATOM      4  C   UNL     1      28.018  12.712 -23.876  1.00  0.00    -0.003 C 
ATOM      5  C   UNL     1      28.878  12.006 -22.778  1.00  0.00     0.008 C 
ATOM      6  C   UNL     1      30.114  12.839 -22.212  1.00  0.00    -0.000 C 
ATOM      7  C   UNL     1      29.784  13.777 -21.043  1.00  0.00     0.005 C 
ATOM      8  C   UNL     1      30.988  14.531 -20.457  1.00  0.00     0.005 C 
ATOM      9  C   UNL     1      32.306  14.522 -21.297  1.00  0.00     0.002 C 
ATOM     10  C   UNL     1      33.421  15.532 -20.703  1.00  0.00    -0.026 C 
ATOM     11  C   UNL     1      33.412  15.543 -19.119  1.00  0.00     0.010 C 
ATOM     12  C   UNL     1      32.576  16.663 -18.481  1.00  0.00     0.033 C 
ATOM     13  C   UNL     1      33.056  18.078 -18.882  1.00  0.00     0.120 C 
ATOM     14  C   UNL     1      33.722  18.178 -20.310  1.00  0.00    -0.006 C 
ATOM     15  C   UNL     1      33.256  17.014 -21.291  1.00  0.00     0.003 C 
ATOM     16  C   UNL     1      31.846  17.272 -21.908  1.00  0.00     0.005 C 
ATOM     17  C   UNL     1      31.267  16.187 -22.873  1.00  0.00     0.008 C 
ATOM     18  C   UNL     1      31.933  14.760 -22.809  1.00  0.00    -0.024 C 
ATOM     19  C   UNL     1      30.991  13.530 -23.351  1.00  0.00    -0.024 C 
ATOM     20  C   UNL     1      30.108  14.009 -24.569  1.00  0.00     0.008 C 
ATOM     21  C   UNL     1      28.604  14.093 -24.266  1.00  0.00     0.010 C 
ATOM     22  C   UNL     1      31.885  12.348 -23.891  1.00  0.00     0.012 C 
ATOM     23  C   UNL     1      33.180  14.841 -23.751  1.00  0.00     0.012 C 
ATOM     24  C   UNL     1      33.450  19.582 -20.942  1.00  0.00     0.014 C 
ATOM     25  C   UNL     1      35.269  18.123 -20.136  1.00  0.00     0.014 C 
ATOM     26  C   UNL     1      34.840  14.965 -21.099  1.00  0.00     0.012 C 
ENDROOT
BRANCH   1  27
ATOM     27  C   UNL     1      28.137  10.037 -21.279  1.00  0.00    -0.077 C 
ATOM     28  C   UNL     1      27.692   8.857 -22.118  1.00  0.00     0.039 C 
ATOM     29  C   UNL     1      28.899   9.810 -20.189  1.00  0.00     0.008 C 
ENDBRANCH   1  27
BRANCH   4  30
ATOM     30  C   UNL     1      27.900  11.840 -25.178  1.00  0.00     0.163 C 
BRANCH  30  31
ATOM     31  O   UNL     1      28.736  10.717 -25.158  1.00  0.00    -0.396 OA
ATOM     32  H   UNL     1      29.492  10.914 -24.550  1.00  0.00     0.210 HD
ENDBRANCH  30  31
ENDBRANCH   4  30
BRANCH  13  33
ATOM     33  O   UNL     1      32.023  19.024 -18.701  1.00  0.00    -0.393 OA
ATOM     34  H   UNL     1      31.937  19.238 -17.741  1.00  0.00     0.210 HD
ENDBRANCH  13  33
TORSDOF 4
ENDMDL
MODEL 4
REMARK VINA RESULT:    -6.396      3.476      6.670
REMARK INTER + INTRA:          -8.005
REMARK INTER:                  -7.423
REMARK INTRA:                  -0.582
REMARK UNBOUND:                -0.488
REMARK SMILES C=C(C)[C@@H]1CC[C@@]2(CO)CC[C@]3(C)[C@@H](CC[C@@H]4[C@]5(C)CC[C@H](O)C(C)(C)[C@@H]5CC[C@@]43C)[C@@H]12
REMARK SMILES IDX 4 1 5 2 6 3 7 4 32 5 14 6 15 7 16 8 17 9 18 10 20 11 21 12
REMARK SMILES IDX 22 13 24 14 27 15 28 16 29 17 30 18 12 19 11 20 10 21 13 22
REMARK SMILES IDX 31 23 25 24 26 25 19 26 2 27 3 28 1 29 8 30 9 31 23 33
REMARK H PARENT 9 32 23 34
REMARK Flexibility Score: inf
ROOT
ATOM      1  C   UNL     1      36.782  11.895 -19.323  1.00  0.00     0.018 C 
ATOM      2  C   UNL     1      36.510  10.447 -18.904  1.00  0.00     0.009 C 
ATOM      3  C   UNL     1      35.053  10.210 -19.257  1.00  0.00     0.010 C 
ATOM      4  C   UNL     1      34.792  11.018 -20.543  1.00  0.00    -0.003 C 
ATOM      5  C   UNL     1      35.763  12.239 -20.459  1.00  0.00     0.008 C 
ATOM      6  C   UNL     1      35.078  13.676 -20.379  1.00  0.00    -0.000 C 
ATOM      7  C   UNL     1      34.715  14.144 -18.964  1.00  0.00     0.005 C 
ATOM      8  C   UNL     1      34.113  15.556 -18.882  1.00  0.00     0.005 C 
ATOM      9  C   UNL     1      33.640  16.202 -20.224  1.00  0.00     0.002 C 
ATOM     10  C   UNL     1      32.817  17.575 -19.989  1.00  0.00    -0.026 C 
ATOM     11  C   UNL     1      33.426  18.421 -18.796  1.00  0.00     0.010 C 
ATOM     12  C   UNL     1      32.749  18.204 -17.433  1.00  0.00     0.033 C 
ATOM     13  C   UNL     1      31.243  18.561 -17.443  1.00  0.00     0.120 C 
ATOM     14  C   UNL     1      30.518  18.362 -18.830  1.00  0.00    -0.006 C 
ATOM     15  C   UNL     1      31.254  17.303 -19.764  1.00  0.00     0.003 C 
ATOM     16  C   UNL     1      30.943  15.826 -19.365  1.00  0.00     0.005 C 
ATOM     17  C   UNL     1      31.626  14.691 -20.196  1.00  0.00     0.008 C 
ATOM     18  C   UNL     1      32.877  15.107 -21.060  1.00  0.00    -0.024 C 
ATOM     19  C   UNL     1      33.900  13.880 -21.435  1.00  0.00    -0.024 C 
ATOM     20  C   UNL     1      33.092  12.546 -21.684  1.00  0.00     0.008 C 
ATOM     21  C   UNL     1      33.310  11.465 -20.614  1.00  0.00     0.010 C 
ATOM     22  C   UNL     1      34.664  14.190 -22.779  1.00  0.00     0.012 C 
ATOM     23  C   UNL     1      32.289  15.650 -22.405  1.00  0.00     0.012 C 
ATOM     24  C   UNL     1      29.021  17.966 -18.611  1.00  0.00     0.014 C 
ATOM     25  C   UNL     1      30.454  19.739 -19.555  1.00  0.00     0.014 C 
ATOM     26  C   UNL     1      33.014  18.476 -21.270  1.00  0.00     0.012 C 
ENDROOT
BRANCH   1  27
ATOM     27  C   UNL     1      38.233  12.187 -19.703  1.00  0.00    -0.077 C 
ATOM     28  C   UNL     1      39.386  11.504 -18.997  1.00  0.00     0.039 C 
ATOM     29  C   UNL     1      38.495  12.972 -20.768  1.00  0.00     0.008 C 
ENDBRANCH   1  27
BRANCH   4  30
ATOM     30  C   UNL     1      35.095  10.112 -21.790  1.00  0.00     0.163 C 
BRANCH  30  31
ATOM     31  O   UNL     1      36.105  10.634 -22.609  1.00  0.00    -0.396 OA
ATOM     32  H   UNL     1      35.668  11.120 -23.352  1.00  0.00     0.210 HD
ENDBRANCH  30  31
ENDBRANCH   4  30
BRANCH  13  33
ATOM     33  O   UNL     1      30.572  17.913 -16.384  1.00  0.00    -0.393 OA
ATOM     34  H   UNL     1      29.852  17.344 -16.749  1.00  0.00     0.210 HD
ENDBRANCH  13  33
TORSDOF 4
ENDMDL
MODEL 5
REMARK VINA RESULT:    -6.280      4.090      6.024
REMARK INTER + INTRA:          -7.869
REMARK INTER:                  -7.271
REMARK INTRA:                  -0.598
REMARK UNBOUND:                -0.488
REMARK SMILES C=C(C)[C@@H]1CC[C@@]2(CO)CC[C@]3(C)[C@@H](CC[C@@H]4[C@]5(C)CC[C@H](O)C(C)(C)[C@@H]5CC[C@@]43C)[C@@H]12
REMARK SMILES IDX 4 1 5 2 6 3 7 4 32 5 14 6 15 7 16 8 17 9 18 10 20 11 21 12
REMARK SMILES IDX 22 13 24 14 27 15 28 16 29 17 30 18 12 19 11 20 10 21 13 22
REMARK SMILES IDX 31 23 25 24 26 25 19 26 2 27 3 28 1 29 8 30 9 31 23 33
REMARK H PARENT 9 32 23 34
REMARK Flexibility Score: inf
ROOT
ATOM      1  C   UNL     1      33.244  17.446 -20.851  1.00  0.00     0.018 C 
ATOM      2  C   UNL     1      31.789  17.745 -21.224  1.00  0.00     0.009 C 
ATOM      3  C   UNL     1      31.004  16.555 -20.700  1.00  0.00     0.010 C 
ATOM      4  C   UNL     1      31.707  16.125 -19.398  1.00  0.00    -0.003 C 
ATOM      5  C   UNL     1      33.209  16.500 -19.605  1.00  0.00     0.008 C 
ATOM      6  C   UNL     1      34.241  15.285 -19.614  1.00  0.00    -0.000 C 
ATOM      7  C   UNL     1      34.445  14.617 -20.980  1.00  0.00     0.005 C 
ATOM      8  C   UNL     1      35.487  13.488 -21.001  1.00  0.00     0.005 C 
ATOM      9  C   UNL     1      35.960  12.936 -19.617  1.00  0.00     0.002 C 
ATOM     10  C   UNL     1      36.869  11.606 -19.764  1.00  0.00    -0.026 C 
ATOM     11  C   UNL     1      37.822  11.689 -21.027  1.00  0.00     0.010 C 
ATOM     12  C   UNL     1      37.276  11.021 -22.299  1.00  0.00     0.033 C 
ATOM     13  C   UNL     1      36.996   9.510 -22.114  1.00  0.00     0.120 C 
ATOM     14  C   UNL     1      36.597   9.078 -20.649  1.00  0.00    -0.006 C 
ATOM     15  C   UNL     1      35.978  10.275 -19.801  1.00  0.00     0.003 C 
ATOM     16  C   UNL     1      34.481  10.552 -20.150  1.00  0.00     0.005 C 
ATOM     17  C   UNL     1      33.766  11.721 -19.397  1.00  0.00     0.008 C 
ATOM     18  C   UNL     1      34.698  12.777 -18.689  1.00  0.00    -0.024 C 
ATOM     19  C   UNL     1      34.010  14.244 -18.428  1.00  0.00    -0.024 C 
ATOM     20  C   UNL     1      32.480  14.079 -18.076  1.00  0.00     0.008 C 
ATOM     21  C   UNL     1      31.521  14.605 -19.155  1.00  0.00     0.010 C 
ATOM     22  C   UNL     1      34.675  14.952 -17.186  1.00  0.00     0.012 C 
ATOM     23  C   UNL     1      35.030  12.163 -17.288  1.00  0.00     0.012 C 
ATOM     24  C   UNL     1      35.619   7.858 -20.687  1.00  0.00     0.014 C 
ATOM     25  C   UNL     1      37.869   8.536 -19.932  1.00  0.00     0.014 C 
ATOM     26  C   UNL     1      37.842  11.552 -18.522  1.00  0.00     0.012 C 
ENDROOT
BRANCH   1  27
ATOM     27  C   UNL     1      34.117  18.684 -20.646  1.00  0.00    -0.077 C 
ATOM     28  C   UNL     1      35.580  18.564 -20.276  1.00  0.00     0.039 C 
ATOM     29  C   UNL     1      33.611  19.904 -20.917  1.00  0.00     0.008 C 
ENDBRANCH   1  27
BRANCH   4  30
ATOM     30  C   UNL     1      31.070  16.899 -18.188  1.00  0.00     0.163 C 
BRANCH  30  31
ATOM     31  O   UNL     1      32.003  17.670 -17.484  1.00  0.00    -0.396 OA
ATOM     32  H   UNL     1      31.652  18.594 -17.432  1.00  0.00     0.210 HD
ENDBRANCH  30  31
ENDBRANCH   4  30
BRANCH  13  33
ATOM     33  O   UNL     1      36.075   9.053 -23.082  1.00  0.00    -0.393 OA
ATOM     34  H   UNL     1      35.617   9.826 -23.492  1.00  0.00     0.210 HD
ENDBRANCH  13  33
TORSDOF 4
ENDMDL
MODEL 6
REMARK VINA RESULT:    -6.216      3.583      6.584
REMARK INTER + INTRA:          -7.794
REMARK INTER:                  -7.446
REMARK INTRA:                  -0.348
REMARK UNBOUND:                -0.488
REMARK SMILES C=C(C)[C@@H]1CC[C@@]2(CO)CC[C@]3(C)[C@@H](CC[C@@H]4[C@]5(C)CC[C@H](O)C(C)(C)[C@@H]5CC[C@@]43C)[C@@H]12
REMARK SMILES IDX 4 1 5 2 6 3 7 4 32 5 14 6 15 7 16 8 17 9 18 10 20 11 21 12
REMARK SMILES IDX 22 13 24 14 27 15 28 16 29 17 30 18 12 19 11 20 10 21 13 22
REMARK SMILES IDX 31 23 25 24 26 25 19 26 2 27 3 28 1 29 8 30 9 31 23 33
REMARK H PARENT 9 32 23 34
REMARK Flexibility Score: inf
ROOT
ATOM      1  C   UNL     1      33.443  17.681 -18.380  1.00  0.00     0.018 C 
ATOM      2  C   UNL     1      33.245  18.921 -19.257  1.00  0.00     0.009 C 
ATOM      3  C   UNL     1      33.080  18.376 -20.665  1.00  0.00     0.010 C 
ATOM      4  C   UNL     1      32.326  17.041 -20.517  1.00  0.00    -0.003 C 
ATOM      5  C   UNL     1      32.755  16.487 -19.120  1.00  0.00     0.008 C 
ATOM      6  C   UNL     1      33.555  15.108 -19.128  1.00  0.00    -0.000 C 
ATOM      7  C   UNL     1      35.074  15.241 -19.299  1.00  0.00     0.005 C 
ATOM      8  C   UNL     1      35.852  13.916 -19.243  1.00  0.00     0.005 C 
ATOM      9  C   UNL     1      35.016  12.600 -19.354  1.00  0.00     0.002 C 
ATOM     10  C   UNL     1      35.951  11.290 -19.518  1.00  0.00    -0.026 C 
ATOM     11  C   UNL     1      37.267  11.401 -18.643  1.00  0.00     0.010 C 
ATOM     12  C   UNL     1      38.501  11.933 -19.389  1.00  0.00     0.033 C 
ATOM     13  C   UNL     1      38.902  11.053 -20.596  1.00  0.00     0.120 C 
ATOM     14  C   UNL     1      37.709  10.292 -21.295  1.00  0.00    -0.006 C 
ATOM     15  C   UNL     1      36.302  10.997 -21.054  1.00  0.00     0.003 C 
ATOM     16  C   UNL     1      36.081  12.236 -21.977  1.00  0.00     0.005 C 
ATOM     17  C   UNL     1      34.742  13.028 -21.819  1.00  0.00     0.008 C 
ATOM     18  C   UNL     1      33.937  12.791 -20.485  1.00  0.00    -0.024 C 
ATOM     19  C   UNL     1      32.906  13.999 -20.074  1.00  0.00    -0.024 C 
ATOM     20  C   UNL     1      32.255  14.632 -21.365  1.00  0.00     0.008 C 
ATOM     21  C   UNL     1      32.707  16.070 -21.663  1.00  0.00     0.010 C 
ATOM     22  C   UNL     1      31.713  13.436 -19.209  1.00  0.00     0.012 C 
ATOM     23  C   UNL     1      33.075  11.511 -20.743  1.00  0.00     0.012 C 
ATOM     24  C   UNL     1      37.992  10.120 -22.824  1.00  0.00     0.014 C 
ATOM     25  C   UNL     1      37.663   8.836 -20.742  1.00  0.00     0.014 C 
ATOM     26  C   UNL     1      35.163  10.062 -18.916  1.00  0.00     0.012 C 
ENDROOT
BRANCH   1  27
ATOM     27  C   UNL     1      32.980  17.843 -16.933  1.00  0.00    -0.077 C 
ATOM     28  C   UNL     1      31.977  18.908 -16.541  1.00  0.00     0.039 C 
ATOM     29  C   UNL     1      33.375  16.947 -16.005  1.00  0.00     0.008 C 
ENDBRANCH   1  27
BRANCH   4  30
ATOM     30  C   UNL     1      30.780  17.311 -20.592  1.00  0.00     0.163 C 
BRANCH  30  31
ATOM     31  O   UNL     1      30.474  18.648 -20.876  1.00  0.00    -0.396 OA
ATOM     32  H   UNL     1      30.479  18.756 -21.860  1.00  0.00     0.210 HD
ENDBRANCH  30  31
ENDBRANCH   4  30
BRANCH  13  33
ATOM     33  O   UNL     1      39.682  11.791 -21.513  1.00  0.00    -0.393 OA
ATOM     34  H   UNL     1      40.627  11.514 -21.440  1.00  0.00     0.210 HD
ENDBRANCH  13  33
TORSDOF 4
ENDMDL
MODEL 7
REMARK VINA RESULT:    -6.134      3.937      7.430
REMARK INTER + INTRA:          -7.698
REMARK INTER:                  -7.083
REMARK INTRA:                  -0.615
REMARK UNBOUND:                -0.488
REMARK SMILES C=C(C)[C@@H]1CC[C@@]2(CO)CC[C@]3(C)[C@@H](CC[C@@H]4[C@]5(C)CC[C@H](O)C(C)(C)[C@@H]5CC[C@@]43C)[C@@H]12
REMARK SMILES IDX 4 1 5 2 6 3 7 4 32 5 14 6 15 7 16 8 17 9 18 10 20 11 21 12
REMARK SMILES IDX 22 13 24 14 27 15 28 16 29 17 30 18 12 19 11 20 10 21 13 22
REMARK SMILES IDX 31 23 25 24 26 25 19 26 2 27 3 28 1 29 8 30 9 31 23 33
REMARK H PARENT 9 32 23 34
REMARK Flexibility Score: inf
ROOT
ATOM      1  C   UNL     1      32.393  18.914 -18.242  1.00  0.00     0.018 C 
ATOM      2  C   UNL     1      33.257  19.908 -19.022  1.00  0.00     0.009 C 
ATOM      3  C   UNL     1      34.177  19.043 -19.865  1.00  0.00     0.010 C 
ATOM      4  C   UNL     1      33.349  17.806 -20.262  1.00  0.00    -0.003 C 
ATOM      5  C   UNL     1      32.345  17.596 -19.083  1.00  0.00     0.008 C 
ATOM      6  C   UNL     1      32.494  16.234 -18.269  1.00  0.00    -0.000 C 
ATOM      7  C   UNL     1      33.504  16.276 -17.114  1.00  0.00     0.005 C 
ATOM      8  C   UNL     1      33.601  14.983 -16.289  1.00  0.00     0.005 C 
ATOM      9  C   UNL     1      32.939  13.704 -16.898  1.00  0.00     0.002 C 
ATOM     10  C   UNL     1      33.304  12.367 -16.064  1.00  0.00    -0.026 C 
ATOM     11  C   UNL     1      33.356  12.649 -14.506  1.00  0.00     0.010 C 
ATOM     12  C   UNL     1      34.756  12.948 -13.945  1.00  0.00     0.033 C 
ATOM     13  C   UNL     1      35.756  11.789 -14.170  1.00  0.00     0.120 C 
ATOM     14  C   UNL     1      35.489  10.916 -15.458  1.00  0.00    -0.006 C 
ATOM     15  C   UNL     1      34.668  11.700 -16.575  1.00  0.00     0.003 C 
ATOM     16  C   UNL     1      35.557  12.683 -17.400  1.00  0.00     0.005 C 
ATOM     17  C   UNL     1      34.861  13.528 -18.515  1.00  0.00     0.008 C 
ATOM     18  C   UNL     1      33.291  13.646 -18.432  1.00  0.00    -0.024 C 
ATOM     19  C   UNL     1      32.652  14.948 -19.200  1.00  0.00    -0.024 C 
ATOM     20  C   UNL     1      33.466  15.266 -20.514  1.00  0.00     0.008 C 
ATOM     21  C   UNL     1      34.269  16.575 -20.461  1.00  0.00     0.010 C 
ATOM     22  C   UNL     1      31.173  14.647 -19.658  1.00  0.00     0.012 C 
ATOM     23  C   UNL     1      32.741  12.368 -19.147  1.00  0.00     0.012 C 
ATOM     24  C   UNL     1      36.836  10.370 -16.036  1.00  0.00     0.014 C 
ATOM     25  C   UNL     1      34.702   9.640 -15.034  1.00  0.00     0.014 C 
ATOM     26  C   UNL     1      32.116  11.346 -16.254  1.00  0.00     0.012 C 
ENDROOT
BRANCH   1  27
ATOM     27  C   UNL     1      31.010  19.436 -17.857  1.00  0.00    -0.077 C 
ATOM     28  C   UNL     1      30.768  20.125 -16.530  1.00  0.00     0.039 C 
ATOM     29  C   UNL     1      30.009  19.395 -18.761  1.00  0.00     0.008 C 
ENDBRANCH   1  27
BRANCH   4  30
ATOM     30  C   UNL     1      32.610  18.095 -21.618  1.00  0.00     0.163 C 
BRANCH  30  31
ATOM     31  O   UNL     1      31.228  17.882 -21.540  1.00  0.00    -0.396 OA
ATOM     32  H   UNL     1      30.940  17.458 -22.387  1.00  0.00     0.210 HD
ENDBRANCH  30  31
ENDBRANCH   4  30
BRANCH  13  33
ATOM     33  O   UNL     1      37.085  12.259 -14.103  1.00  0.00    -0.393 OA
ATOM     34  H   UNL     1      37.122  13.062 -13.529  1.00  0.00     0.210 HD
ENDBRANCH  13  33
TORSDOF 4
ENDMDL
MODEL 8
REMARK VINA RESULT:    -6.091      3.520      6.373
REMARK INTER + INTRA:          -7.647
REMARK INTER:                  -6.991
REMARK INTRA:                  -0.657
REMARK UNBOUND:                -0.488
REMARK SMILES C=C(C)[C@@H]1CC[C@@]2(CO)CC[C@]3(C)[C@@H](CC[C@@H]4[C@]5(C)CC[C@H](O)C(C)(C)[C@@H]5CC[C@@]43C)[C@@H]12
REMARK SMILES IDX 4 1 5 2 6 3 7 4 32 5 14 6 15 7 16 8 17 9 18 10 20 11 21 12
REMARK SMILES IDX 22 13 24 14 27 15 28 16 29 17 30 18 12 19 11 20 10 21 13 22
REMARK SMILES IDX 31 23 25 24 26 25 19 26 2 27 3 28 1 29 8 30 9 31 23 33
REMARK H PARENT 9 32 23 34
REMARK Flexibility Score: inf
ROOT
ATOM      1  C   UNL     1      30.142  17.796 -17.490  1.00  0.00     0.018 C 
ATOM      2  C   UNL     1      30.508  19.120 -16.813  1.00  0.00     0.009 C 
ATOM      3  C   UNL     1      31.895  19.450 -17.336  1.00  0.00     0.010 C 
ATOM      4  C   UNL     1      31.929  18.949 -18.792  1.00  0.00    -0.003 C 
ATOM      5  C   UNL     1      30.959  17.725 -18.822  1.00  0.00     0.008 C 
ATOM      6  C   UNL     1      31.617  16.316 -19.170  1.00  0.00    -0.000 C 
ATOM      7  C   UNL     1      32.192  15.553 -17.969  1.00  0.00     0.005 C 
ATOM      8  C   UNL     1      32.769  14.167 -18.295  1.00  0.00     0.005 C 
ATOM      9  C   UNL     1      33.008  13.838 -19.805  1.00  0.00     0.002 C 
ATOM     10  C   UNL     1      33.828  12.459 -20.011  1.00  0.00    -0.026 C 
ATOM     11  C   UNL     1      33.400  11.363 -18.950  1.00  0.00     0.010 C 
ATOM     12  C   UNL     1      34.291  11.286 -17.700  1.00  0.00     0.033 C 
ATOM     13  C   UNL     1      35.767  10.961 -18.029  1.00  0.00     0.120 C 
ATOM     14  C   UNL     1      36.265  11.471 -19.438  1.00  0.00    -0.006 C 
ATOM     15  C   UNL     1      35.412  12.698 -19.986  1.00  0.00     0.003 C 
ATOM     16  C   UNL     1      35.814  14.056 -19.329  1.00  0.00     0.005 C 
ATOM     17  C   UNL     1      35.031  15.335 -19.770  1.00  0.00     0.008 C 
ATOM     18  C   UNL     1      33.650  15.101 -20.493  1.00  0.00    -0.024 C 
ATOM     19  C   UNL     1      32.607  16.366 -20.420  1.00  0.00    -0.024 C 
ATOM     20  C   UNL     1      33.392  17.733 -20.497  1.00  0.00     0.008 C 
ATOM     21  C   UNL     1      33.371  18.550 -19.197  1.00  0.00     0.010 C 
ATOM     22  C   UNL     1      31.631  16.347 -21.659  1.00  0.00     0.012 C 
ATOM     23  C   UNL     1      34.003  14.875 -22.000  1.00  0.00     0.012 C 
ATOM     24  C   UNL     1      37.787  11.831 -19.381  1.00  0.00     0.014 C 
ATOM     25  C   UNL     1      36.183  10.288 -20.447  1.00  0.00     0.014 C 
ATOM     26  C   UNL     1      33.410  11.858 -21.410  1.00  0.00     0.012 C 
ENDROOT
BRANCH   1  27
ATOM     27  C   UNL     1      28.643  17.574 -17.687  1.00  0.00    -0.077 C 
ATOM     28  C   UNL     1      27.691  18.737 -17.875  1.00  0.00     0.039 C 
ATOM     29  C   UNL     1      28.169  16.318 -17.819  1.00  0.00     0.008 C 
ENDBRANCH   1  27
BRANCH   4  30
ATOM     30  C   UNL     1      31.450  20.102 -19.746  1.00  0.00     0.163 C 
BRANCH  30  31
ATOM     31  O   UNL     1      30.323  19.751 -20.500  1.00  0.00    -0.396 OA
ATOM     32  H   UNL     1      29.927  20.585 -20.856  1.00  0.00     0.210 HD
ENDBRANCH  30  31
ENDBRANCH   4  30
BRANCH  13  33
ATOM     33  O   UNL     1      36.613  11.371 -16.976  1.00  0.00    -0.393 OA
ATOM     34  H   UNL     1      36.998  10.576 -16.534  1.00  0.00     0.210 HD
ENDBRANCH  13  33
TORSDOF 4
ENDMDL
MODEL 9
REMARK VINA RESULT:    -6.026      3.487      6.923
REMARK INTER + INTRA:          -7.570
REMARK INTER:                  -6.937
REMARK INTRA:                  -0.633
REMARK UNBOUND:                -0.488
REMARK SMILES C=C(C)[C@@H]1CC[C@@]2(CO)CC[C@]3(C)[C@@H](CC[C@@H]4[C@]5(C)CC[C@H](O)C(C)(C)[C@@H]5CC[C@@]43C)[C@@H]12
REMARK SMILES IDX 4 1 5 2 6 3 7 4 32 5 14 6 15 7 16 8 17 9 18 10 20 11 21 12
REMARK SMILES IDX 22 13 24 14 27 15 28 16 29 17 30 18 12 19 11 20 10 21 13 22
REMARK SMILES IDX 31 23 25 24 26 25 19 26 2 27 3 28 1 29 8 30 9 31 23 33
REMARK H PARENT 9 32 23 34
REMARK Flexibility Score: inf
ROOT
ATOM      1  C   UNL     1      31.355  16.515 -18.480  1.00  0.00     0.018 C 
ATOM      2  C   UNL     1      31.655  17.972 -18.117  1.00  0.00     0.009 C 
ATOM      3  C   UNL     1      33.065  18.214 -18.627  1.00  0.00     0.010 C 
ATOM      4  C   UNL     1      33.197  17.385 -19.919  1.00  0.00    -0.003 C 
ATOM      5  C   UNL     1      32.252  16.158 -19.711  1.00  0.00     0.008 C 
ATOM      6  C   UNL     1      32.955  14.729 -19.680  1.00  0.00    -0.000 C 
ATOM      7  C   UNL     1      33.470  14.289 -18.303  1.00  0.00     0.005 C 
ATOM      8  C   UNL     1      34.091  12.884 -18.260  1.00  0.00     0.005 C 
ATOM      9  C   UNL     1      34.426  12.217 -19.634  1.00  0.00     0.002 C 
ATOM     10  C   UNL     1      35.282  10.855 -19.463  1.00  0.00    -0.026 C 
ATOM     11  C   UNL     1      34.812  10.026 -18.198  1.00  0.00     0.010 C 
ATOM     12  C   UNL     1      35.626  10.273 -16.918  1.00  0.00     0.033 C 
ATOM     13  C   UNL     1      37.126   9.928 -17.081  1.00  0.00     0.120 C 
ATOM     14  C   UNL     1      37.698  10.108 -18.541  1.00  0.00    -0.006 C 
ATOM     15  C   UNL     1      36.858  11.144 -19.410  1.00  0.00     0.003 C 
ATOM     16  C   UNL     1      37.195  12.630 -19.071  1.00  0.00     0.005 C 
ATOM     17  C   UNL     1      36.417  13.744 -19.845  1.00  0.00     0.008 C 
ATOM     18  C   UNL     1      35.086  13.302 -20.565  1.00  0.00    -0.024 C 
ATOM     19  C   UNL     1      34.017  14.515 -20.851  1.00  0.00    -0.024 C 
ATOM     20  C   UNL     1      34.781  15.850 -21.206  1.00  0.00     0.008 C 
ATOM     21  C   UNL     1      34.667  16.948 -20.139  1.00  0.00     0.010 C 
ATOM     22  C   UNL     1      33.118  14.174 -22.101  1.00  0.00     0.012 C 
ATOM     23  C   UNL     1      35.534  12.740 -21.955  1.00  0.00     0.012 C 
ATOM     24  C   UNL     1      39.207  10.519 -18.488  1.00  0.00     0.014 C 
ATOM     25  C   UNL     1      37.699   8.718 -19.244  1.00  0.00     0.014 C 
ATOM     26  C   UNL     1      34.960   9.929 -20.700  1.00  0.00     0.012 C 
ENDROOT
BRANCH   1  27
ATOM     27  C   UNL     1      29.875  16.205 -18.700  1.00  0.00    -0.077 C 
ATOM     28  C   UNL     1      29.364  15.705 -20.035  1.00  0.00     0.039 C 
ATOM     29  C   UNL     1      29.023  16.260 -17.656  1.00  0.00     0.008 C 
ENDBRANCH   1  27
BRANCH   4  30
ATOM     30  C   UNL     1      32.755  18.266 -21.143  1.00  0.00     0.163 C 
BRANCH  30  31
ATOM     31  O   UNL     1      31.590  17.793 -21.761  1.00  0.00    -0.396 OA
ATOM     32  H   UNL     1      31.856  17.091 -22.406  1.00  0.00     0.210 HD
ENDBRANCH  30  31
ENDBRANCH   4  30
BRANCH  13  33
ATOM     33  O   UNL     1      37.899  10.600 -16.110  1.00  0.00    -0.393 OA
ATOM     34  H   UNL     1      37.379  11.352 -15.736  1.00  0.00     0.210 HD
ENDBRANCH  13  33
TORSDOF 4
ENDMDL
