MODEL 1
REMARK VINA RESULT:    -6.444      0.000      0.000
REMARK INTER + INTRA:          -6.444
REMARK INTER:                  -6.444
REMARK INTRA:                   0.000
REMARK UNBOUND:                 0.000
REMARK SMILES C[C@@H]1CCC=C2CC[C@H]3[C@@H](C3(C)C)[C@]21C
REMARK SMILES IDX 1 1 2 2 3 3 4 4 5 5 6 6 14 7 10 8 9 9 11 10 12 11 13 12 8 13
REMARK SMILES IDX 7 14 15 15
REMARK H PARENT
REMARK Flexibility Score: inf
ROOT
ATOM      1  C   UNL     1     146.094 142.431 160.278  1.00  0.00     0.008 C 
ATOM      2  C   UNL     1     146.576 142.025 161.685  1.00  0.00    -0.004 C 
ATOM      3  C   UNL     1     145.709 140.850 162.238  1.00  0.00     0.008 C 
ATOM      4  C   UNL     1     144.839 141.226 163.441  1.00  0.00     0.027 C 
ATOM      5  C   UNL     1     145.679 141.887 164.493  1.00  0.00    -0.027 C 
ATOM      6  C   UNL     1     146.608 142.798 164.154  1.00  0.00    -0.068 C 
ATOM      7  C   UNL     1     146.745 143.251 162.679  1.00  0.00    -0.005 C 
ATOM      8  C   UNL     1     148.119 144.000 162.527  1.00  0.00     0.009 C 
ATOM      9  C   UNL     1     149.142 143.084 163.287  1.00  0.00    -0.000 C 
ATOM     10  C   UNL     1     149.557 143.796 162.024  1.00  0.00    -0.028 C 
ATOM     11  C   UNL     1     149.756 142.934 160.767  1.00  0.00     0.012 C 
ATOM     12  C   UNL     1     150.526 144.973 162.205  1.00  0.00     0.012 C 
ATOM     13  C   UNL     1     149.019 143.546 164.742  1.00  0.00     0.009 C 
ATOM     14  C   UNL     1     147.551 143.359 165.231  1.00  0.00     0.031 C 
ATOM     15  C   UNL     1     145.643 144.322 162.444  1.00  0.00     0.017 C 
ENDROOT
TORSDOF 0
ENDMDL
MODEL 2
REMARK VINA RESULT:    -6.434      3.967      5.359
REMARK INTER + INTRA:          -6.434
REMARK INTER:                  -6.434
REMARK INTRA:                   0.000
REMARK UNBOUND:                 0.000
REMARK SMILES C[C@@H]1CCC=C2CC[C@H]3[C@@H](C3(C)C)[C@]21C
REMARK SMILES IDX 1 1 2 2 3 3 4 4 5 5 6 6 14 7 10 8 9 9 11 10 12 11 13 12 8 13
REMARK SMILES IDX 7 14 15 15
REMARK H PARENT
REMARK Flexibility Score: inf
ROOT
ATOM      1  C   UNL     1     148.321 146.119 160.283  1.00  0.00     0.008 C 
ATOM      2  C   UNL     1     148.721 146.598 161.692  1.00  0.00    -0.004 C 
ATOM      3  C   UNL     1     149.888 145.723 162.252  1.00  0.00     0.008 C 
ATOM      4  C   UNL     1     149.500 144.855 163.452  1.00  0.00     0.027 C 
ATOM      5  C   UNL     1     148.838 145.698 164.500  1.00  0.00    -0.027 C 
ATOM      6  C   UNL     1     147.935 146.633 164.157  1.00  0.00    -0.068 C 
ATOM      7  C   UNL     1     147.492 146.773 162.680  1.00  0.00    -0.005 C 
ATOM      8  C   UNL     1     146.752 148.152 162.524  1.00  0.00     0.009 C 
ATOM      9  C   UNL     1     147.670 149.169 163.290  1.00  0.00    -0.000 C 
ATOM     10  C   UNL     1     146.968 149.589 162.023  1.00  0.00    -0.028 C 
ATOM     11  C   UNL     1     147.838 149.784 160.771  1.00  0.00     0.012 C 
ATOM     12  C   UNL     1     145.796 150.566 162.198  1.00  0.00     0.012 C 
ATOM     13  C   UNL     1     147.199 149.048 164.743  1.00  0.00     0.009 C 
ATOM     14  C   UNL     1     147.374 147.579 165.232  1.00  0.00     0.031 C 
ATOM     15  C   UNL     1     146.415 145.679 162.438  1.00  0.00     0.017 C 
ENDROOT
TORSDOF 0
ENDMDL
MODEL 3
REMARK VINA RESULT:    -6.433      3.959      5.355
REMARK INTER + INTRA:          -6.433
REMARK INTER:                  -6.433
REMARK INTRA:                   0.000
REMARK UNBOUND:                 0.000
REMARK SMILES C[C@@H]1CCC=C2CC[C@H]3[C@@H](C3(C)C)[C@]21C
REMARK SMILES IDX 1 1 2 2 3 3 4 4 5 5 6 6 14 7 10 8 9 9 11 10 12 11 13 12 8 13
REMARK SMILES IDX 7 14 15 15
REMARK H PARENT
REMARK Flexibility Score: inf
ROOT
ATOM      1  C   UNL     1     142.428 144.635 160.284  1.00  0.00     0.008 C 
ATOM      2  C   UNL     1     142.019 144.147 161.688  1.00  0.00    -0.004 C 
ATOM      3  C   UNL     1     140.848 145.019 162.246  1.00  0.00     0.008 C 
ATOM      4  C   UNL     1     141.229 145.879 163.454  1.00  0.00     0.027 C 
ATOM      5  C   UNL     1     141.885 145.030 164.501  1.00  0.00    -0.027 C 
ATOM      6  C   UNL     1     142.791 144.097 164.157  1.00  0.00    -0.068 C 
ATOM      7  C   UNL     1     143.243 143.966 162.682  1.00  0.00    -0.005 C 
ATOM      8  C   UNL     1     143.984 142.588 162.522  1.00  0.00     0.009 C 
ATOM      9  C   UNL     1     143.061 141.566 163.276  1.00  0.00    -0.000 C 
ATOM     10  C   UNL     1     143.771 141.154 162.011  1.00  0.00    -0.028 C 
ATOM     11  C   UNL     1     142.909 140.968 160.752  1.00  0.00     0.012 C 
ATOM     12  C   UNL     1     144.942 140.177 162.186  1.00  0.00     0.012 C 
ATOM     13  C   UNL     1     143.523 141.678 164.732  1.00  0.00     0.009 C 
ATOM     14  C   UNL     1     143.345 143.144 165.229  1.00  0.00     0.031 C 
ATOM     15  C   UNL     1     144.321 145.062 162.453  1.00  0.00     0.017 C 
ENDROOT
TORSDOF 0
ENDMDL
MODEL 4
REMARK VINA RESULT:    -6.423      4.872      7.566
REMARK INTER + INTRA:          -6.423
REMARK INTER:                  -6.423
REMARK INTRA:                   0.000
REMARK UNBOUND:                 0.000
REMARK SMILES C[C@@H]1CCC=C2CC[C@H]3[C@@H](C3(C)C)[C@]21C
REMARK SMILES IDX 1 1 2 2 3 3 4 4 5 5 6 6 14 7 10 8 9 9 11 10 12 11 13 12 8 13
REMARK SMILES IDX 7 14 15 15
REMARK H PARENT
REMARK Flexibility Score: inf
ROOT
ATOM      1  C   UNL     1     144.626 148.306 160.281  1.00  0.00     0.008 C 
ATOM      2  C   UNL     1     144.139 148.714 161.686  1.00  0.00    -0.004 C 
ATOM      3  C   UNL     1     145.001 149.895 162.237  1.00  0.00     0.008 C 
ATOM      4  C   UNL     1     145.869 149.526 163.443  1.00  0.00     0.027 C 
ATOM      5  C   UNL     1     145.031 148.865 164.495  1.00  0.00    -0.027 C 
ATOM      6  C   UNL     1     144.106 147.949 164.157  1.00  0.00    -0.068 C 
ATOM      7  C   UNL     1     143.974 147.491 162.683  1.00  0.00    -0.005 C 
ATOM      8  C   UNL     1     142.604 146.735 162.531  1.00  0.00     0.009 C 
ATOM      9  C   UNL     1     141.575 147.650 163.286  1.00  0.00    -0.000 C 
ATOM     10  C   UNL     1     141.166 146.932 162.024  1.00  0.00    -0.028 C 
ATOM     11  C   UNL     1     140.966 147.788 160.764  1.00  0.00     0.012 C 
ATOM     12  C   UNL     1     140.201 145.751 162.206  1.00  0.00     0.012 C 
ATOM     13  C   UNL     1     141.697 147.192 164.743  1.00  0.00     0.009 C 
ATOM     14  C   UNL     1     143.163 147.387 165.234  1.00  0.00     0.031 C 
ATOM     15  C   UNL     1     145.081 146.424 162.453  1.00  0.00     0.017 C 
ENDROOT
TORSDOF 0
ENDMDL
MODEL 5
REMARK VINA RESULT:    -6.291      5.547      7.385
REMARK INTER + INTRA:          -6.291
REMARK INTER:                  -6.291
REMARK INTRA:                   0.000
REMARK UNBOUND:                 0.000
REMARK SMILES C[C@@H]1CCC=C2CC[C@H]3[C@@H](C3(C)C)[C@]21C
REMARK SMILES IDX 1 1 2 2 3 3 4 4 5 5 6 6 14 7 10 8 9 9 11 10 12 11 13 12 8 13
REMARK SMILES IDX 7 14 15 15
REMARK H PARENT
REMARK Flexibility Score: inf
ROOT
ATOM      1  C   UNL     1     143.572 147.200 165.236  1.00  0.00     0.008 C 
ATOM      2  C   UNL     1     142.315 147.356 164.356  1.00  0.00    -0.004 C 
ATOM      3  C   UNL     1     141.037 147.462 165.248  1.00  0.00     0.008 C 
ATOM      4  C   UNL     1     140.085 146.270 165.122  1.00  0.00     0.027 C 
ATOM      5  C   UNL     1     139.778 146.010 163.678  1.00  0.00    -0.027 C 
ATOM      6  C   UNL     1     140.751 146.062 162.751  1.00  0.00    -0.068 C 
ATOM      7  C   UNL     1     142.220 146.288 163.186  1.00  0.00    -0.005 C 
ATOM      8  C   UNL     1     143.049 146.680 161.908  1.00  0.00     0.009 C 
ATOM      9  C   UNL     1     142.151 147.742 161.179  1.00  0.00    -0.000 C 
ATOM     10  C   UNL     1     143.652 147.896 161.185  1.00  0.00    -0.028 C 
ATOM     11  C   UNL     1     144.237 149.021 162.051  1.00  0.00     0.012 C 
ATOM     12  C   UNL     1     144.359 147.624 159.849  1.00  0.00     0.012 C 
ATOM     13  C   UNL     1     141.203 146.885 160.335  1.00  0.00     0.009 C 
ATOM     14  C   UNL     1     140.390 145.932 161.262  1.00  0.00     0.031 C 
ATOM     15  C   UNL     1     142.762 144.904 163.640  1.00  0.00     0.017 C 
ENDROOT
TORSDOF 0
ENDMDL
MODEL 6
REMARK VINA RESULT:    -6.290      1.369      4.352
REMARK INTER + INTRA:          -6.290
REMARK INTER:                  -6.290
REMARK INTRA:                   0.000
REMARK UNBOUND:                 0.000
REMARK SMILES C[C@@H]1CCC=C2CC[C@H]3[C@@H](C3(C)C)[C@]21C
REMARK SMILES IDX 1 1 2 2 3 3 4 4 5 5 6 6 14 7 10 8 9 9 11 10 12 11 13 12 8 13
REMARK SMILES IDX 7 14 15 15
REMARK H PARENT
REMARK Flexibility Score: inf
ROOT
ATOM      1  C   UNL     1     147.137 143.617 165.237  1.00  0.00     0.008 C 
ATOM      2  C   UNL     1     148.388 143.436 164.355  1.00  0.00    -0.004 C 
ATOM      3  C   UNL     1     149.666 143.312 165.244  1.00  0.00     0.008 C 
ATOM      4  C   UNL     1     150.638 144.488 165.110  1.00  0.00     0.027 C 
ATOM      5  C   UNL     1     150.945 144.736 163.664  1.00  0.00    -0.027 C 
ATOM      6  C   UNL     1     149.969 144.695 162.740  1.00  0.00    -0.068 C 
ATOM      7  C   UNL     1     148.497 144.496 163.179  1.00  0.00    -0.005 C 
ATOM      8  C   UNL     1     147.659 144.111 161.906  1.00  0.00     0.009 C 
ATOM      9  C   UNL     1     148.537 143.031 161.179  1.00  0.00    -0.000 C 
ATOM     10  C   UNL     1     147.034 142.902 161.190  1.00  0.00    -0.028 C 
ATOM     11  C   UNL     1     146.432 141.791 162.064  1.00  0.00     0.012 C 
ATOM     12  C   UNL     1     146.327 143.179 159.855  1.00  0.00     0.012 C 
ATOM     13  C   UNL     1     149.497 143.868 160.329  1.00  0.00     0.009 C 
ATOM     14  C   UNL     1     150.328 144.812 161.249  1.00  0.00     0.031 C 
ATOM     15  C   UNL     1     147.980 145.891 163.628  1.00  0.00     0.017 C 
ENDROOT
TORSDOF 0
ENDMDL
MODEL 7
REMARK VINA RESULT:    -6.204      4.898      6.638
REMARK INTER + INTRA:          -6.204
REMARK INTER:                  -6.204
REMARK INTRA:                   0.000
REMARK UNBOUND:                 0.000
REMARK SMILES C[C@@H]1CCC=C2CC[C@H]3[C@@H](C3(C)C)[C@]21C
REMARK SMILES IDX 1 1 2 2 3 3 4 4 5 5 6 6 14 7 10 8 9 9 11 10 12 11 13 12 8 13
REMARK SMILES IDX 7 14 15 15
REMARK H PARENT
REMARK Flexibility Score: inf
ROOT
ATOM      1  C   UNL     1     146.993 146.941 165.122  1.00  0.00     0.008 C 
ATOM      2  C   UNL     1     147.286 148.232 164.332  1.00  0.00    -0.004 C 
ATOM      3  C   UNL     1     147.350 149.458 165.298  1.00  0.00     0.008 C 
ATOM      4  C   UNL     1     146.214 150.466 165.105  1.00  0.00     0.027 C 
ATOM      5  C   UNL     1     146.115 150.856 163.662  1.00  0.00    -0.027 C 
ATOM      6  C   UNL     1     146.225 149.929 162.693  1.00  0.00    -0.068 C 
ATOM      7  C   UNL     1     146.348 148.432 163.067  1.00  0.00    -0.005 C 
ATOM      8  C   UNL     1     146.837 147.652 161.792  1.00  0.00     0.009 C 
ATOM      9  C   UNL     1     148.001 148.538 161.223  1.00  0.00    -0.000 C 
ATOM     10  C   UNL     1     148.096 147.033 161.163  1.00  0.00    -0.028 C 
ATOM     11  C   UNL     1     149.104 146.356 162.105  1.00  0.00     0.012 C 
ATOM     12  C   UNL     1     147.935 146.406 159.771  1.00  0.00     0.012 C 
ATOM     13  C   UNL     1     147.272 149.563 160.351  1.00  0.00     0.009 C 
ATOM     14  C   UNL     1     146.261 150.369 161.220  1.00  0.00     0.031 C 
ATOM     15  C   UNL     1     144.905 147.929 163.352  1.00  0.00     0.017 C 
ENDROOT
TORSDOF 0
ENDMDL
MODEL 8
REMARK VINA RESULT:    -6.191      2.885      5.039
REMARK INTER + INTRA:          -6.191
REMARK INTER:                  -6.191
REMARK INTRA:                   0.000
REMARK UNBOUND:                 0.000
REMARK SMILES C[C@@H]1CCC=C2CC[C@H]3[C@@H](C3(C)C)[C@]21C
REMARK SMILES IDX 1 1 2 2 3 3 4 4 5 5 6 6 14 7 10 8 9 9 11 10 12 11 13 12 8 13
REMARK SMILES IDX 7 14 15 15
REMARK H PARENT
REMARK Flexibility Score: inf
ROOT
ATOM      1  C   UNL     1     143.369 143.537 165.257  1.00  0.00     0.008 C 
ATOM      2  C   UNL     1     143.358 142.328 164.301  1.00  0.00    -0.004 C 
ATOM      3  C   UNL     1     143.173 141.001 165.105  1.00  0.00     0.008 C 
ATOM      4  C   UNL     1     144.397 140.081 165.083  1.00  0.00     0.027 C 
ATOM      5  C   UNL     1     144.844 139.858 163.670  1.00  0.00    -0.027 C 
ATOM      6  C   UNL     1     144.883 140.878 162.795  1.00  0.00    -0.068 C 
ATOM      7  C   UNL     1     144.566 142.317 163.272  1.00  0.00    -0.005 C 
ATOM      8  C   UNL     1     144.317 143.206 162.000  1.00  0.00     0.009 C 
ATOM      9  C   UNL     1     143.378 142.329 161.096  1.00  0.00    -0.000 C 
ATOM     10  C   UNL     1     143.186 143.824 161.160  1.00  0.00    -0.028 C 
ATOM     11  C   UNL     1     141.946 144.340 161.906  1.00  0.00     0.012 C 
ATOM     12  C   UNL     1     143.605 144.609 159.908  1.00  0.00     0.012 C 
ATOM     13  C   UNL     1     144.359 141.445 160.321  1.00  0.00     0.009 C 
ATOM     14  C   UNL     1     145.209 140.602 161.318  1.00  0.00     0.031 C 
ATOM     15  C   UNL     1     145.867 142.860 163.926  1.00  0.00     0.017 C 
ENDROOT
TORSDOF 0
ENDMDL
MODEL 9
REMARK VINA RESULT:    -5.983      4.630      6.878
REMARK INTER + INTRA:          -5.983
REMARK INTER:                  -5.983
REMARK INTRA:                   0.000
REMARK UNBOUND:                 0.000
REMARK SMILES C[C@@H]1CCC=C2CC[C@H]3[C@@H](C3(C)C)[C@]21C
REMARK SMILES IDX 1 1 2 2 3 3 4 4 5 5 6 6 14 7 10 8 9 9 11 10 12 11 13 12 8 13
REMARK SMILES IDX 7 14 15 15
REMARK H PARENT
REMARK Flexibility Score: inf
ROOT
ATOM      1  C   UNL     1     145.328 150.282 161.841  1.00  0.00     0.008 C 
ATOM      2  C   UNL     1     145.508 149.713 163.263  1.00  0.00    -0.004 C 
ATOM      3  C   UNL     1     146.153 150.784 164.200  1.00  0.00     0.008 C 
ATOM      4  C   UNL     1     147.567 150.434 164.669  1.00  0.00     0.027 C 
ATOM      5  C   UNL     1     147.587 149.052 165.250  1.00  0.00    -0.027 C 
ATOM      6  C   UNL     1     146.921 148.049 164.652  1.00  0.00    -0.068 C 
ATOM      7  C   UNL     1     146.213 148.291 163.296  1.00  0.00    -0.005 C 
ATOM      8  C   UNL     1     145.227 147.093 163.042  1.00  0.00     0.009 C 
ATOM      9  C   UNL     1     144.496 146.900 164.418  1.00  0.00    -0.000 C 
ATOM     10  C   UNL     1     143.739 146.715 163.127  1.00  0.00    -0.028 C 
ATOM     11  C   UNL     1     142.708 147.793 162.758  1.00  0.00     0.012 C 
ATOM     12  C   UNL     1     143.372 145.268 162.765  1.00  0.00     0.012 C 
ATOM     13  C   UNL     1     145.447 145.988 165.199  1.00  0.00     0.009 C 
ATOM     14  C   UNL     1     146.838 146.675 165.338  1.00  0.00     0.031 C 
ATOM     15  C   UNL     1     147.311 148.182 162.201  1.00  0.00     0.017 C 
ENDROOT
TORSDOF 0
ENDMDL
