MODEL 1
REMARK VINA RESULT:    -4.495      0.000      0.000
REMARK INTER + INTRA:         -13.140
REMARK INTER:                 -10.275
REMARK INTRA:                  -2.865
REMARK UNBOUND:                -2.865
REMARK SMILES CCCCCCCCCCCCCCCCCCCCCCCC(=O)[O-]
REMARK SMILES IDX 13 1 14 2 15 3 16 4 17 5 18 6 19 7 20 8 21 9 22 10 23 11
REMARK SMILES IDX 24 12 25 13 26 14 12 15 11 16 10 17 9 18 8 19 7 20 6 21 5 22
REMARK SMILES IDX 4 23 3 24 2 25 1 26
REMARK H PARENT
REMARK Flexibility Score: inf
ROOT
ATOM      1  C   UNL     1       5.033  20.251  29.110  1.00  0.00     0.000 C 
ENDROOT
BRANCH   1   2
ATOM      2  C   UNL     1       3.641  19.864  28.592  1.00  0.00     0.000 C 
BRANCH   2   3
ATOM      3  C   UNL     1       2.540  20.365  29.534  1.00  0.00     0.000 C 
BRANCH   3   4
ATOM      4  C   UNL     1       2.394  19.436  30.748  1.00  0.00     0.000 C 
BRANCH   4   5
ATOM      5  C   UNL     1       1.054  18.682  30.764  1.00  0.00     0.000 C 
BRANCH   5   6
ATOM      6  C   UNL     1      -0.057  19.437  30.011  1.00  0.00     0.000 C 
BRANCH   6   7
ATOM      7  C   UNL     1      -0.913  18.504  29.139  1.00  0.00     0.000 C 
BRANCH   7   8
ATOM      8  C   UNL     1      -0.168  17.213  28.758  1.00  0.00     0.000 C 
BRANCH   8   9
ATOM      9  C   UNL     1       0.648  17.352  27.458  1.00  0.00     0.000 C 
BRANCH   9  10
ATOM     10  C   UNL     1       1.764  16.303  27.268  1.00  0.00     0.006 C 
BRANCH  10  11
ATOM     11  C   UNL     1       3.028  16.554  28.107  1.00  0.00     0.053 C 
BRANCH  11  12
ATOM     12  C   UNL     1       4.278  16.234  27.346  1.00  0.00     0.041 C 
ATOM     13  O   UNL     1       4.210  15.874  26.142  1.00  0.00    -0.550 OA
ATOM     14  O   UNL     1       5.514  16.300  27.976  1.00  0.00    -0.550 OA
ENDBRANCH  11  12
ENDBRANCH  10  11
ENDBRANCH   9  10
ENDBRANCH   8   9
ENDBRANCH   7   8
ENDBRANCH   6   7
ENDBRANCH   5   6
ENDBRANCH   4   5
ENDBRANCH   3   4
ENDBRANCH   2   3
ENDBRANCH   1   2
BRANCH   1  15
ATOM     15  C   UNL     1       5.902  20.936  28.042  1.00  0.00     0.000 C 
BRANCH  15  16
ATOM     16  C   UNL     1       6.591  22.226  28.535  1.00  0.00     0.000 C 
BRANCH  16  17
ATOM     17  C   UNL     1       7.510  21.969  29.743  1.00  0.00     0.000 C 
BRANCH  17  18
ATOM     18  C   UNL     1       9.000  22.002  29.369  1.00  0.00    -0.000 C 
BRANCH  18  19
ATOM     19  C   UNL     1       9.241  22.568  27.961  1.00  0.00    -0.000 C 
BRANCH  19  20
ATOM     20  C   UNL     1      10.089  21.607  27.120  1.00  0.00    -0.000 C 
BRANCH  20  21
ATOM     21  C   UNL     1       9.352  20.276  26.900  1.00  0.00    -0.000 C 
BRANCH  21  22
ATOM     22  C   UNL     1      10.132  19.065  27.441  1.00  0.00    -0.000 C 
BRANCH  22  23
ATOM     23  C   UNL     1      11.666  19.193  27.360  1.00  0.00    -0.000 C 
BRANCH  23  24
ATOM     24  C   UNL     1      12.374  19.100  28.728  1.00  0.00    -0.000 C 
BRANCH  24  25
ATOM     25  C   UNL     1      11.382  19.110  29.902  1.00  0.00    -0.003 C 
ATOM     26  C   UNL     1      11.767  20.161  30.939  1.00  0.00     0.004 C 
ENDBRANCH  24  25
ENDBRANCH  23  24
ENDBRANCH  22  23
ENDBRANCH  21  22
ENDBRANCH  20  21
ENDBRANCH  19  20
ENDBRANCH  18  19
ENDBRANCH  17  18
ENDBRANCH  16  17
ENDBRANCH  15  16
ENDBRANCH   1  15
TORSDOF 22
ENDMDL
MODEL 2
REMARK VINA RESULT:    -4.444      3.035      7.534
REMARK INTER + INTRA:         -13.025
REMARK INTER:                  -9.398
REMARK INTRA:                  -3.627
REMARK UNBOUND:                -2.865
REMARK SMILES CCCCCCCCCCCCCCCCCCCCCCCC(=O)[O-]
REMARK SMILES IDX 13 1 14 2 15 3 16 4 17 5 18 6 19 7 20 8 21 9 22 10 23 11
REMARK SMILES IDX 24 12 25 13 26 14 12 15 11 16 10 17 9 18 8 19 7 20 6 21 5 22
REMARK SMILES IDX 4 23 3 24 2 25 1 26
REMARK H PARENT
REMARK Flexibility Score: inf
ROOT
ATOM      1  C   UNL     1      -1.584  18.748  29.150  1.00  0.00     0.000 C 
ENDROOT
BRANCH   1   2
ATOM      2  C   UNL     1      -1.106  20.015  29.872  1.00  0.00     0.000 C 
BRANCH   2   3
ATOM      3  C   UNL     1       0.238  19.783  30.571  1.00  0.00     0.000 C 
BRANCH   3   4
ATOM      4  C   UNL     1       1.267  20.840  30.144  1.00  0.00     0.000 C 
BRANCH   4   5
ATOM      5  C   UNL     1       2.705  20.298  30.121  1.00  0.00     0.000 C 
BRANCH   5   6
ATOM      6  C   UNL     1       2.999  19.458  28.865  1.00  0.00     0.000 C 
BRANCH   6   7
ATOM      7  C   UNL     1       4.302  19.881  28.167  1.00  0.00     0.000 C 
BRANCH   7   8
ATOM      8  C   UNL     1       5.440  20.151  29.168  1.00  0.00     0.000 C 
BRANCH   8   9
ATOM      9  C   UNL     1       6.731  20.648  28.490  1.00  0.00     0.000 C 
BRANCH   9  10
ATOM     10  C   UNL     1       6.688  22.106  27.986  1.00  0.00     0.006 C 
BRANCH  10  11
ATOM     11  C   UNL     1       7.804  23.008  28.538  1.00  0.00     0.053 C 
BRANCH  11  12
ATOM     12  C   UNL     1       9.157  22.386  28.378  1.00  0.00     0.041 C 
ATOM     13  O   UNL     1       9.728  22.393  27.256  1.00  0.00    -0.550 OA
ATOM     14  O   UNL     1       9.773  21.770  29.460  1.00  0.00    -0.550 OA
ENDBRANCH  11  12
ENDBRANCH  10  11
ENDBRANCH   9  10
ENDBRANCH   8   9
ENDBRANCH   7   8
ENDBRANCH   6   7
ENDBRANCH   5   6
ENDBRANCH   4   5
ENDBRANCH   3   4
ENDBRANCH   2   3
ENDBRANCH   1   2
BRANCH   1  15
ATOM     15  C   UNL     1      -0.425  17.862  28.663  1.00  0.00     0.000 C 
BRANCH  15  16
ATOM     16  C   UNL     1      -0.660  16.353  28.886  1.00  0.00     0.000 C 
BRANCH  16  17
ATOM     17  C   UNL     1       0.274  15.772  29.963  1.00  0.00     0.000 C 
BRANCH  17  18
ATOM     18  C   UNL     1       1.556  16.600  30.142  1.00  0.00    -0.000 C 
BRANCH  18  19
ATOM     19  C   UNL     1       1.993  16.698  31.611  1.00  0.00    -0.000 C 
BRANCH  19  20
ATOM     20  C   UNL     1       3.521  16.661  31.733  1.00  0.00    -0.000 C 
BRANCH  20  21
ATOM     21  C   UNL     1       4.120  15.610  30.783  1.00  0.00    -0.000 C 
BRANCH  21  22
ATOM     22  C   UNL     1       5.102  16.216  29.766  1.00  0.00    -0.000 C 
BRANCH  22  23
ATOM     23  C   UNL     1       5.113  15.528  28.387  1.00  0.00    -0.000 C 
BRANCH  23  24
ATOM     24  C   UNL     1       4.478  16.373  27.262  1.00  0.00    -0.000 C 
BRANCH  24  25
ATOM     25  C   UNL     1       3.010  16.000  27.007  1.00  0.00    -0.003 C 
ATOM     26  C   UNL     1       2.763  14.518  27.273  1.00  0.00     0.004 C 
ENDBRANCH  24  25
ENDBRANCH  23  24
ENDBRANCH  22  23
ENDBRANCH  21  22
ENDBRANCH  20  21
ENDBRANCH  19  20
ENDBRANCH  18  19
ENDBRANCH  17  18
ENDBRANCH  16  17
ENDBRANCH  15  16
ENDBRANCH   1  15
TORSDOF 22
ENDMDL
MODEL 3
REMARK VINA RESULT:    -4.439      1.787      2.588
REMARK INTER + INTRA:         -13.014
REMARK INTER:                 -10.038
REMARK INTRA:                  -2.976
REMARK UNBOUND:                -2.865
REMARK SMILES CCCCCCCCCCCCCCCCCCCCCCCC(=O)[O-]
REMARK SMILES IDX 13 1 14 2 15 3 16 4 17 5 18 6 19 7 20 8 21 9 22 10 23 11
REMARK SMILES IDX 24 12 25 13 26 14 12 15 11 16 10 17 9 18 8 19 7 20 6 21 5 22
REMARK SMILES IDX 4 23 3 24 2 25 1 26
REMARK H PARENT
REMARK Flexibility Score: inf
ROOT
ATOM      1  C   UNL     1       3.596  19.664  28.395  1.00  0.00     0.000 C 
ENDROOT
BRANCH   1   2
ATOM      2  C   UNL     1       2.512  20.151  29.366  1.00  0.00     0.000 C 
BRANCH   2   3
ATOM      3  C   UNL     1       2.445  19.262  30.613  1.00  0.00     0.000 C 
BRANCH   3   4
ATOM      4  C   UNL     1       1.020  18.732  30.831  1.00  0.00     0.000 C 
BRANCH   4   5
ATOM      5  C   UNL     1      -0.016  19.418  29.926  1.00  0.00     0.000 C 
BRANCH   5   6
ATOM      6  C   UNL     1      -0.864  18.410  29.130  1.00  0.00     0.000 C 
BRANCH   6   7
ATOM      7  C   UNL     1      -0.084  17.132  28.779  1.00  0.00     0.000 C 
BRANCH   7   8
ATOM      8  C   UNL     1       0.641  17.243  27.426  1.00  0.00     0.000 C 
BRANCH   8   9
ATOM      9  C   UNL     1       1.966  16.459  27.388  1.00  0.00     0.000 C 
BRANCH   9  10
ATOM     10  C   UNL     1       2.523  16.043  28.766  1.00  0.00     0.006 C 
BRANCH  10  11
ATOM     11  C   UNL     1       2.879  14.553  28.890  1.00  0.00     0.053 C 
BRANCH  11  12
ATOM     12  C   UNL     1       1.658  13.690  28.970  1.00  0.00     0.041 C 
ATOM     13  O   UNL     1       0.780  13.915  29.844  1.00  0.00    -0.550 OA
ATOM     14  O   UNL     1       1.505  12.616  28.102  1.00  0.00    -0.550 OA
ENDBRANCH  11  12
ENDBRANCH  10  11
ENDBRANCH   9  10
ENDBRANCH   8   9
ENDBRANCH   7   8
ENDBRANCH   6   7
ENDBRANCH   5   6
ENDBRANCH   4   5
ENDBRANCH   3   4
ENDBRANCH   2   3
ENDBRANCH   1   2
BRANCH   1  15
ATOM     15  C   UNL     1       4.794  19.013  29.108  1.00  0.00     0.000 C 
BRANCH  15  16
ATOM     16  C   UNL     1       6.135  19.732  28.853  1.00  0.00     0.000 C 
BRANCH  16  17
ATOM     17  C   UNL     1       6.044  21.246  29.116  1.00  0.00     0.000 C 
BRANCH  17  18
ATOM     18  C   UNL     1       6.716  22.078  28.013  1.00  0.00    -0.000 C 
BRANCH  18  19
ATOM     19  C   UNL     1       7.768  23.050  28.568  1.00  0.00    -0.000 C 
BRANCH  19  20
ATOM     20  C   UNL     1       9.135  22.367  28.692  1.00  0.00    -0.000 C 
BRANCH  20  21
ATOM     21  C   UNL     1       9.614  21.848  27.327  1.00  0.00    -0.000 C 
BRANCH  21  22
ATOM     22  C   UNL     1      10.625  20.695  27.448  1.00  0.00    -0.000 C 
BRANCH  22  23
ATOM     23  C   UNL     1      10.233  19.592  28.451  1.00  0.00    -0.000 C 
BRANCH  23  24
ATOM     24  C   UNL     1      11.421  18.726  28.923  1.00  0.00    -0.000 C 
BRANCH  24  25
ATOM     25  C   UNL     1      12.477  18.533  27.824  1.00  0.00    -0.003 C 
ATOM     26  C   UNL     1      12.141  17.336  26.941  1.00  0.00     0.004 C 
ENDBRANCH  24  25
ENDBRANCH  23  24
ENDBRANCH  22  23
ENDBRANCH  21  22
ENDBRANCH  20  21
ENDBRANCH  19  20
ENDBRANCH  18  19
ENDBRANCH  17  18
ENDBRANCH  16  17
ENDBRANCH  15  16
ENDBRANCH   1  15
TORSDOF 22
ENDMDL
MODEL 4
REMARK VINA RESULT:    -4.411      3.015      8.964
REMARK INTER + INTRA:         -12.950
REMARK INTER:                 -10.084
REMARK INTRA:                  -2.867
REMARK UNBOUND:                -2.865
REMARK SMILES CCCCCCCCCCCCCCCCCCCCCCCC(=O)[O-]
REMARK SMILES IDX 13 1 14 2 15 3 16 4 17 5 18 6 19 7 20 8 21 9 22 10 23 11
REMARK SMILES IDX 24 12 25 13 26 14 12 15 11 16 10 17 9 18 8 19 7 20 6 21 5 22
REMARK SMILES IDX 4 23 3 24 2 25 1 26
REMARK H PARENT
REMARK Flexibility Score: inf
ROOT
ATOM      1  C   UNL     1       0.870  19.027  30.985  1.00  0.00     0.000 C 
ENDROOT
BRANCH   1   2
ATOM      2  C   UNL     1       2.350  19.259  30.648  1.00  0.00     0.000 C 
BRANCH   2   3
ATOM      3  C   UNL     1       2.505  20.189  29.439  1.00  0.00     0.000 C 
BRANCH   3   4
ATOM      4  C   UNL     1       3.343  19.520  28.339  1.00  0.00     0.000 C 
BRANCH   4   5
ATOM      5  C   UNL     1       4.442  18.604  28.901  1.00  0.00     0.000 C 
BRANCH   5   6
ATOM      6  C   UNL     1       5.851  19.204  28.739  1.00  0.00     0.000 C 
BRANCH   6   7
ATOM      7  C   UNL     1       5.819  20.725  28.515  1.00  0.00     0.000 C 
BRANCH   7   8
ATOM      8  C   UNL     1       6.519  21.497  29.647  1.00  0.00     0.000 C 
BRANCH   8   9
ATOM      9  C   UNL     1       6.835  22.958  29.272  1.00  0.00     0.000 C 
BRANCH   9  10
ATOM     10  C   UNL     1       7.982  23.141  28.256  1.00  0.00     0.006 C 
BRANCH  10  11
ATOM     11  C   UNL     1       9.225  22.281  28.531  1.00  0.00     0.053 C 
BRANCH  11  12
ATOM     12  C   UNL     1       9.641  21.495  27.326  1.00  0.00     0.041 C 
ATOM     13  O   UNL     1       8.960  20.505  26.950  1.00  0.00    -0.550 OA
ATOM     14  O   UNL     1      10.798  21.835  26.637  1.00  0.00    -0.550 OA
ENDBRANCH  11  12
ENDBRANCH  10  11
ENDBRANCH   9  10
ENDBRANCH   8   9
ENDBRANCH   7   8
ENDBRANCH   6   7
ENDBRANCH   5   6
ENDBRANCH   4   5
ENDBRANCH   3   4
ENDBRANCH   2   3
ENDBRANCH   1   2
BRANCH   1  15
ATOM     15  C   UNL     1      -0.083  19.564  29.903  1.00  0.00     0.000 C 
BRANCH  15  16
ATOM     16  C   UNL     1      -0.915  18.466  29.208  1.00  0.00     0.000 C 
BRANCH  16  17
ATOM     17  C   UNL     1      -0.041  17.522  28.361  1.00  0.00     0.000 C 
BRANCH  17  18
ATOM     18  C   UNL     1       0.159  16.150  29.025  1.00  0.00    -0.000 C 
BRANCH  18  19
ATOM     19  C   UNL     1       1.642  15.803  29.224  1.00  0.00    -0.000 C 
BRANCH  19  20
ATOM     20  C   UNL     1       2.067  14.660  28.294  1.00  0.00    -0.000 C 
BRANCH  20  21
ATOM     21  C   UNL     1       2.158  13.333  29.063  1.00  0.00    -0.000 C 
BRANCH  21  22
ATOM     22  C   UNL     1       2.459  13.529  30.559  1.00  0.00    -0.000 C 
BRANCH  22  23
ATOM     23  C   UNL     1       1.483  12.816  31.516  1.00  0.00    -0.000 C 
BRANCH  23  24
ATOM     24  C   UNL     1       0.241  13.656  31.882  1.00  0.00    -0.000 C 
BRANCH  24  25
ATOM     25  C   UNL     1      -1.073  12.934  31.545  1.00  0.00    -0.003 C 
ATOM     26  C   UNL     1      -1.346  12.958  30.045  1.00  0.00     0.004 C 
ENDBRANCH  24  25
ENDBRANCH  23  24
ENDBRANCH  22  23
ENDBRANCH  21  22
ENDBRANCH  20  21
ENDBRANCH  19  20
ENDBRANCH  18  19
ENDBRANCH  17  18
ENDBRANCH  16  17
ENDBRANCH  15  16
ENDBRANCH   1  15
TORSDOF 22
ENDMDL
MODEL 5
REMARK VINA RESULT:    -4.410      2.445      8.940
REMARK INTER + INTRA:         -12.947
REMARK INTER:                 -10.243
REMARK INTRA:                  -2.705
REMARK UNBOUND:                -2.865
REMARK SMILES CCCCCCCCCCCCCCCCCCCCCCCC(=O)[O-]
REMARK SMILES IDX 13 1 14 2 15 3 16 4 17 5 18 6 19 7 20 8 21 9 22 10 23 11
REMARK SMILES IDX 24 12 25 13 26 14 12 15 11 16 10 17 9 18 8 19 7 20 6 21 5 22
REMARK SMILES IDX 4 23 3 24 2 25 1 26
REMARK H PARENT
REMARK Flexibility Score: inf
ROOT
ATOM      1  C   UNL     1       3.409  16.941  27.329  1.00  0.00     0.000 C 
ENDROOT
BRANCH   1   2
ATOM      2  C   UNL     1       2.966  18.375  27.651  1.00  0.00     0.000 C 
BRANCH   2   3
ATOM      3  C   UNL     1       3.029  18.650  29.158  1.00  0.00     0.000 C 
BRANCH   3   4
ATOM      4  C   UNL     1       3.881  19.894  29.452  1.00  0.00     0.000 C 
BRANCH   4   5
ATOM      5  C   UNL     1       5.328  19.757  28.952  1.00  0.00     0.000 C 
BRANCH   5   6
ATOM      6  C   UNL     1       6.313  20.633  29.747  1.00  0.00     0.000 C 
BRANCH   6   7
ATOM      7  C   UNL     1       5.732  22.017  30.081  1.00  0.00     0.000 C 
BRANCH   7   8
ATOM      8  C   UNL     1       6.567  23.162  29.480  1.00  0.00     0.000 C 
BRANCH   8   9
ATOM      9  C   UNL     1       7.414  22.718  28.273  1.00  0.00     0.000 C 
BRANCH   9  10
ATOM     10  C   UNL     1       8.941  22.830  28.465  1.00  0.00     0.006 C 
BRANCH  10  11
ATOM     11  C   UNL     1       9.698  21.494  28.377  1.00  0.00     0.053 C 
BRANCH  11  12
ATOM     12  C   UNL     1      10.058  21.147  26.966  1.00  0.00     0.041 C 
ATOM     13  O   UNL     1      11.014  21.735  26.394  1.00  0.00    -0.550 OA
ATOM     14  O   UNL     1       9.320  20.199  26.270  1.00  0.00    -0.550 OA
ENDBRANCH  11  12
ENDBRANCH  10  11
ENDBRANCH   9  10
ENDBRANCH   8   9
ENDBRANCH   7   8
ENDBRANCH   6   7
ENDBRANCH   5   6
ENDBRANCH   4   5
ENDBRANCH   3   4
ENDBRANCH   2   3
ENDBRANCH   1   2
BRANCH   1  15
ATOM     15  C   UNL     1       3.980  16.200  28.550  1.00  0.00     0.000 C 
BRANCH  15  16
ATOM     16  C   UNL     1       3.573  14.714  28.622  1.00  0.00     0.000 C 
BRANCH  16  17
ATOM     17  C   UNL     1       2.106  14.491  28.212  1.00  0.00     0.000 C 
BRANCH  17  18
ATOM     18  C   UNL     1       1.166  14.381  29.422  1.00  0.00    -0.000 C 
BRANCH  18  19
ATOM     19  C   UNL     1       0.658  15.750  29.900  1.00  0.00    -0.000 C 
BRANCH  19  20
ATOM     20  C   UNL     1      -0.589  16.176  29.115  1.00  0.00    -0.000 C 
BRANCH  20  21
ATOM     21  C   UNL     1      -0.391  17.565  28.486  1.00  0.00    -0.000 C 
BRANCH  21  22
ATOM     22  C   UNL     1      -1.303  18.636  29.107  1.00  0.00    -0.000 C 
BRANCH  22  23
ATOM     23  C   UNL     1      -0.571  19.711  29.934  1.00  0.00    -0.000 C 
BRANCH  23  24
ATOM     24  C   UNL     1      -1.426  20.961  30.232  1.00  0.00    -0.000 C 
BRANCH  24  25
ATOM     25  C   UNL     1      -0.579  22.239  30.333  1.00  0.00    -0.003 C 
ATOM     26  C   UNL     1       0.909  21.924  30.213  1.00  0.00     0.004 C 
ENDBRANCH  24  25
ENDBRANCH  23  24
ENDBRANCH  22  23
ENDBRANCH  21  22
ENDBRANCH  20  21
ENDBRANCH  19  20
ENDBRANCH  18  19
ENDBRANCH  17  18
ENDBRANCH  16  17
ENDBRANCH  15  16
ENDBRANCH   1  15
TORSDOF 22
ENDMDL
MODEL 6
REMARK VINA RESULT:    -4.370      3.259      6.223
REMARK INTER + INTRA:         -12.855
REMARK INTER:                  -9.595
REMARK INTRA:                  -3.260
REMARK UNBOUND:                -2.865
REMARK SMILES CCCCCCCCCCCCCCCCCCCCCCCC(=O)[O-]
REMARK SMILES IDX 13 1 14 2 15 3 16 4 17 5 18 6 19 7 20 8 21 9 22 10 23 11
REMARK SMILES IDX 24 12 25 13 26 14 12 15 11 16 10 17 9 18 8 19 7 20 6 21 5 22
REMARK SMILES IDX 4 23 3 24 2 25 1 26
REMARK H PARENT
REMARK Flexibility Score: inf
ROOT
ATOM      1  C   UNL     1      -0.410  17.736  29.142  1.00  0.00     0.000 C 
ENDROOT
BRANCH   1   2
ATOM      2  C   UNL     1       0.041  17.325  27.734  1.00  0.00     0.000 C 
BRANCH   2   3
ATOM      3  C   UNL     1       1.539  17.003  27.702  1.00  0.00     0.000 C 
BRANCH   3   4
ATOM      4  C   UNL     1       2.334  18.014  28.542  1.00  0.00     0.000 C 
BRANCH   4   5
ATOM      5  C   UNL     1       3.273  17.339  29.555  1.00  0.00     0.000 C 
BRANCH   5   6
ATOM      6  C   UNL     1       2.967  17.748  31.007  1.00  0.00     0.000 C 
BRANCH   6   7
ATOM      7  C   UNL     1       1.923  16.833  31.668  1.00  0.00     0.000 C 
BRANCH   7   8
ATOM      8  C   UNL     1       1.942  15.409  31.086  1.00  0.00     0.000 C 
BRANCH   8   9
ATOM      9  C   UNL     1       0.560  14.730  31.113  1.00  0.00     0.000 C 
BRANCH   9  10
ATOM     10  C   UNL     1       0.114  14.094  29.779  1.00  0.00     0.006 C 
BRANCH  10  11
ATOM     11  C   UNL     1      -1.264  13.414  29.822  1.00  0.00     0.053 C 
BRANCH  11  12
ATOM     12  C   UNL     1      -1.359  12.412  30.930  1.00  0.00     0.041 C 
ATOM     13  O   UNL     1      -2.084  12.645  31.933  1.00  0.00    -0.550 OA
ATOM     14  O   UNL     1      -0.624  11.235  30.872  1.00  0.00    -0.550 OA
ENDBRANCH  11  12
ENDBRANCH  10  11
ENDBRANCH   9  10
ENDBRANCH   8   9
ENDBRANCH   7   8
ENDBRANCH   6   7
ENDBRANCH   5   6
ENDBRANCH   4   5
ENDBRANCH   3   4
ENDBRANCH   2   3
ENDBRANCH   1   2
BRANCH   1  15
ATOM     15  C   UNL     1      -1.562  18.755  29.131  1.00  0.00     0.000 C 
BRANCH  15  16
ATOM     16  C   UNL     1      -1.260  20.044  29.923  1.00  0.00     0.000 C 
BRANCH  16  17
ATOM     17  C   UNL     1       0.177  20.066  30.474  1.00  0.00     0.000 C 
BRANCH  17  18
ATOM     18  C   UNL     1       0.846  21.441  30.322  1.00  0.00    -0.000 C 
BRANCH  18  19
ATOM     19  C   UNL     1       1.535  21.906  31.614  1.00  0.00    -0.000 C 
BRANCH  19  20
ATOM     20  C   UNL     1       3.061  21.827  31.481  1.00  0.00    -0.000 C 
BRANCH  20  21
ATOM     21  C   UNL     1       3.462  21.233  30.121  1.00  0.00    -0.000 C 
BRANCH  21  22
ATOM     22  C   UNL     1       4.934  20.791  30.073  1.00  0.00    -0.000 C 
BRANCH  22  23
ATOM     23  C   UNL     1       5.830  21.623  29.134  1.00  0.00    -0.000 C 
BRANCH  23  24
ATOM     24  C   UNL     1       7.113  20.893  28.685  1.00  0.00    -0.000 C 
BRANCH  24  25
ATOM     25  C   UNL     1       8.387  21.676  29.038  1.00  0.00    -0.003 C 
ATOM     26  C   UNL     1       8.408  23.035  28.345  1.00  0.00     0.004 C 
ENDBRANCH  24  25
ENDBRANCH  23  24
ENDBRANCH  22  23
ENDBRANCH  21  22
ENDBRANCH  20  21
ENDBRANCH  19  20
ENDBRANCH  18  19
ENDBRANCH  17  18
ENDBRANCH  16  17
ENDBRANCH  15  16
ENDBRANCH   1  15
TORSDOF 22
ENDMDL
MODEL 7
REMARK VINA RESULT:    -4.369      1.381      2.461
REMARK INTER + INTRA:         -12.853
REMARK INTER:                  -9.672
REMARK INTRA:                  -3.181
REMARK UNBOUND:                -2.865
REMARK SMILES CCCCCCCCCCCCCCCCCCCCCCCC(=O)[O-]
REMARK SMILES IDX 13 1 14 2 15 3 16 4 17 5 18 6 19 7 20 8 21 9 22 10 23 11
REMARK SMILES IDX 24 12 25 13 26 14 12 15 11 16 10 17 9 18 8 19 7 20 6 21 5 22
REMARK SMILES IDX 4 23 3 24 2 25 1 26
REMARK H PARENT
REMARK Flexibility Score: inf
ROOT
ATOM      1  C   UNL     1       5.197  19.140  29.729  1.00  0.00     0.000 C 
ENDROOT
BRANCH   1   2
ATOM      2  C   UNL     1       4.351  19.026  28.453  1.00  0.00     0.000 C 
BRANCH   2   3
ATOM      3  C   UNL     1       3.107  19.919  28.529  1.00  0.00     0.000 C 
BRANCH   3   4
ATOM      4  C   UNL     1       2.899  20.445  29.957  1.00  0.00     0.000 C 
BRANCH   4   5
ATOM      5  C   UNL     1       1.458  20.914  30.215  1.00  0.00     0.000 C 
BRANCH   5   6
ATOM      6  C   UNL     1       0.454  19.747  30.249  1.00  0.00     0.000 C 
BRANCH   6   7
ATOM      7  C   UNL     1       1.011  18.513  30.979  1.00  0.00     0.000 C 
BRANCH   7   8
ATOM      8  C   UNL     1       0.837  17.222  30.160  1.00  0.00     0.000 C 
BRANCH   8   9
ATOM      9  C   UNL     1       0.295  17.479  28.741  1.00  0.00     0.000 C 
BRANCH   9  10
ATOM     10  C   UNL     1       1.151  16.899  27.595  1.00  0.00     0.006 C 
BRANCH  10  11
ATOM     11  C   UNL     1       2.413  16.151  28.054  1.00  0.00     0.053 C 
BRANCH  11  12
ATOM     12  C   UNL     1       3.064  15.408  26.929  1.00  0.00     0.041 C 
ATOM     13  O   UNL     1       4.047  15.911  26.324  1.00  0.00    -0.550 OA
ATOM     14  O   UNL     1       2.567  14.175  26.527  1.00  0.00    -0.550 OA
ENDBRANCH  11  12
ENDBRANCH  10  11
ENDBRANCH   9  10
ENDBRANCH   8   9
ENDBRANCH   7   8
ENDBRANCH   6   7
ENDBRANCH   5   6
ENDBRANCH   4   5
ENDBRANCH   3   4
ENDBRANCH   2   3
ENDBRANCH   1   2
BRANCH   1  15
ATOM     15  C   UNL     1       6.498  19.933  29.518  1.00  0.00     0.000 C 
BRANCH  15  16
ATOM     16  C   UNL     1       6.557  20.684  28.172  1.00  0.00     0.000 C 
BRANCH  16  17
ATOM     17  C   UNL     1       6.315  22.196  28.337  1.00  0.00     0.000 C 
BRANCH  17  18
ATOM     18  C   UNL     1       7.521  22.922  28.954  1.00  0.00    -0.000 C 
BRANCH  18  19
ATOM     19  C   UNL     1       8.832  22.621  28.212  1.00  0.00    -0.000 C 
BRANCH  19  20
ATOM     20  C   UNL     1       9.756  21.743  29.065  1.00  0.00    -0.000 C 
BRANCH  20  21
ATOM     21  C   UNL     1      10.473  20.698  28.195  1.00  0.00    -0.000 C 
BRANCH  21  22
ATOM     22  C   UNL     1      10.075  20.780  26.712  1.00  0.00    -0.000 C 
BRANCH  22  23
ATOM     23  C   UNL     1       9.320  19.549  26.174  1.00  0.00    -0.000 C 
BRANCH  23  24
ATOM     24  C   UNL     1       9.244  18.376  27.174  1.00  0.00    -0.000 C 
BRANCH  24  25
ATOM     25  C   UNL     1       9.030  17.024  26.476  1.00  0.00    -0.003 C 
ATOM     26  C   UNL     1       9.515  17.069  25.030  1.00  0.00     0.004 C 
ENDBRANCH  24  25
ENDBRANCH  23  24
ENDBRANCH  22  23
ENDBRANCH  21  22
ENDBRANCH  20  21
ENDBRANCH  19  20
ENDBRANCH  18  19
ENDBRANCH  17  18
ENDBRANCH  16  17
ENDBRANCH  15  16
ENDBRANCH   1  15
TORSDOF 22
ENDMDL
MODEL 8
REMARK VINA RESULT:    -4.269      2.616      7.586
REMARK INTER + INTRA:         -12.624
REMARK INTER:                  -8.447
REMARK INTRA:                  -4.177
REMARK UNBOUND:                -2.865
REMARK SMILES CCCCCCCCCCCCCCCCCCCCCCCC(=O)[O-]
REMARK SMILES IDX 13 1 14 2 15 3 16 4 17 5 18 6 19 7 20 8 21 9 22 10 23 11
REMARK SMILES IDX 24 12 25 13 26 14 12 15 11 16 10 17 9 18 8 19 7 20 6 21 5 22
REMARK SMILES IDX 4 23 3 24 2 25 1 26
REMARK H PARENT
REMARK Flexibility Score: inf
ROOT
ATOM      1  C   UNL     1       4.568  19.082  29.149  1.00  0.00     0.000 C 
ENDROOT
BRANCH   1   2
ATOM      2  C   UNL     1       4.954  19.099  30.634  1.00  0.00     0.000 C 
BRANCH   2   3
ATOM      3  C   UNL     1       6.465  19.293  30.812  1.00  0.00     0.000 C 
BRANCH   3   4
ATOM      4  C   UNL     1       6.761  20.218  32.002  1.00  0.00     0.000 C 
BRANCH   4   5
ATOM      5  C   UNL     1       7.154  21.639  31.569  1.00  0.00     0.000 C 
BRANCH   5   6
ATOM      6  C   UNL     1       5.944  22.588  31.489  1.00  0.00     0.000 C 
BRANCH   6   7
ATOM      7  C   UNL     1       5.668  23.068  30.055  1.00  0.00     0.000 C 
BRANCH   7   8
ATOM      8  C   UNL     1       6.883  22.878  29.131  1.00  0.00     0.000 C 
BRANCH   8   9
ATOM      9  C   UNL     1       6.625  21.866  27.999  1.00  0.00     0.000 C 
BRANCH   9  10
ATOM     10  C   UNL     1       7.768  20.862  27.742  1.00  0.00     0.006 C 
BRANCH  10  11
ATOM     11  C   UNL     1       9.164  21.495  27.633  1.00  0.00     0.053 C 
BRANCH  11  12
ATOM     12  C   UNL     1      10.148  20.844  28.555  1.00  0.00     0.041 C 
ATOM     13  O   UNL     1      10.866  19.894  28.146  1.00  0.00    -0.550 OA
ATOM     14  O   UNL     1      10.250  21.265  29.875  1.00  0.00    -0.550 OA
ENDBRANCH  11  12
ENDBRANCH  10  11
ENDBRANCH   9  10
ENDBRANCH   8   9
ENDBRANCH   7   8
ENDBRANCH   6   7
ENDBRANCH   5   6
ENDBRANCH   4   5
ENDBRANCH   3   4
ENDBRANCH   2   3
ENDBRANCH   1   2
BRANCH   1  15
ATOM     15  C   UNL     1       3.187  19.704  28.881  1.00  0.00     0.000 C 
BRANCH  15  16
ATOM     16  C   UNL     1       2.804  20.820  29.875  1.00  0.00     0.000 C 
BRANCH  16  17
ATOM     17  C   UNL     1       1.329  20.734  30.308  1.00  0.00     0.000 C 
BRANCH  17  18
ATOM     18  C   UNL     1       0.875  19.289  30.569  1.00  0.00    -0.000 C 
BRANCH  18  19
ATOM     19  C   UNL     1       1.380  18.747  31.915  1.00  0.00    -0.000 C 
BRANCH  19  20
ATOM     20  C   UNL     1       1.767  17.267  31.799  1.00  0.00    -0.000 C 
BRANCH  20  21
ATOM     21  C   UNL     1       1.419  16.717  30.407  1.00  0.00    -0.000 C 
BRANCH  21  22
ATOM     22  C   UNL     1       2.563  15.900  29.785  1.00  0.00    -0.000 C 
BRANCH  22  23
ATOM     23  C   UNL     1       2.305  15.414  28.345  1.00  0.00    -0.000 C 
BRANCH  23  24
ATOM     24  C   UNL     1       2.871  16.351  27.258  1.00  0.00    -0.000 C 
BRANCH  24  25
ATOM     25  C   UNL     1       4.047  15.721  26.496  1.00  0.00    -0.003 C 
ATOM     26  C   UNL     1       5.323  15.750  27.331  1.00  0.00     0.004 C 
ENDBRANCH  24  25
ENDBRANCH  23  24
ENDBRANCH  22  23
ENDBRANCH  21  22
ENDBRANCH  20  21
ENDBRANCH  19  20
ENDBRANCH  18  19
ENDBRANCH  17  18
ENDBRANCH  16  17
ENDBRANCH  15  16
ENDBRANCH   1  15
TORSDOF 22
ENDMDL
MODEL 9
REMARK VINA RESULT:    -4.258      2.059      8.001
REMARK INTER + INTRA:         -12.599
REMARK INTER:                  -8.526
REMARK INTRA:                  -4.072
REMARK UNBOUND:                -2.865
REMARK SMILES CCCCCCCCCCCCCCCCCCCCCCCC(=O)[O-]
REMARK SMILES IDX 13 1 14 2 15 3 16 4 17 5 18 6 19 7 20 8 21 9 22 10 23 11
REMARK SMILES IDX 24 12 25 13 26 14 12 15 11 16 10 17 9 18 8 19 7 20 6 21 5 22
REMARK SMILES IDX 4 23 3 24 2 25 1 26
REMARK H PARENT
REMARK Flexibility Score: inf
ROOT
ATOM      1  C   UNL     1       3.118  19.098  27.659  1.00  0.00     0.000 C 
ENDROOT
BRANCH   1   2
ATOM      2  C   UNL     1       4.398  19.869  28.011  1.00  0.00     0.000 C 
BRANCH   2   3
ATOM      3  C   UNL     1       5.228  19.119  29.058  1.00  0.00     0.000 C 
BRANCH   3   4
ATOM      4  C   UNL     1       5.614  20.048  30.218  1.00  0.00     0.000 C 
BRANCH   4   5
ATOM      5  C   UNL     1       4.780  21.338  30.252  1.00  0.00     0.000 C 
BRANCH   5   6
ATOM      6  C   UNL     1       5.653  22.606  30.242  1.00  0.00     0.000 C 
BRANCH   6   7
ATOM      7  C   UNL     1       7.107  22.316  29.834  1.00  0.00     0.000 C 
BRANCH   7   8
ATOM      8  C   UNL     1       7.420  22.794  28.405  1.00  0.00     0.000 C 
BRANCH   8   9
ATOM      9  C   UNL     1       8.929  22.803  28.092  1.00  0.00     0.000 C 
BRANCH   9  10
ATOM     10  C   UNL     1       9.613  21.420  28.115  1.00  0.00     0.006 C 
BRANCH  10  11
ATOM     11  C   UNL     1       8.909  20.343  27.275  1.00  0.00     0.053 C 
BRANCH  11  12
ATOM     12  C   UNL     1       8.758  19.056  28.025  1.00  0.00     0.041 C 
ATOM     13  O   UNL     1       8.871  19.039  29.279  1.00  0.00    -0.550 OA
ATOM     14  O   UNL     1       8.527  17.871  27.339  1.00  0.00    -0.550 OA
ENDBRANCH  11  12
ENDBRANCH  10  11
ENDBRANCH   9  10
ENDBRANCH   8   9
ENDBRANCH   7   8
ENDBRANCH   6   7
ENDBRANCH   5   6
ENDBRANCH   4   5
ENDBRANCH   3   4
ENDBRANCH   2   3
ENDBRANCH   1   2
BRANCH   1  15
ATOM     15  C   UNL     1       3.315  17.573  27.668  1.00  0.00     0.000 C 
BRANCH  15  16
ATOM     16  C   UNL     1       2.016  16.780  27.922  1.00  0.00     0.000 C 
BRANCH  16  17
ATOM     17  C   UNL     1       0.762  17.666  27.813  1.00  0.00     0.000 C 
BRANCH  17  18
ATOM     18  C   UNL     1       0.058  17.860  29.166  1.00  0.00    -0.000 C 
BRANCH  18  19
ATOM     19  C   UNL     1       0.454  19.175  29.853  1.00  0.00    -0.000 C 
BRANCH  19  20
ATOM     20  C   UNL     1       0.956  18.920  31.279  1.00  0.00    -0.000 C 
BRANCH  20  21
ATOM     21  C   UNL     1       2.442  18.527  31.274  1.00  0.00    -0.000 C 
BRANCH  21  22
ATOM     22  C   UNL     1       2.713  17.209  32.019  1.00  0.00    -0.000 C 
BRANCH  22  23
ATOM     23  C   UNL     1       3.440  16.133  31.189  1.00  0.00    -0.000 C 
BRANCH  23  24
ATOM     24  C   UNL     1       2.594  14.868  30.929  1.00  0.00    -0.000 C 
BRANCH  24  25
ATOM     25  C   UNL     1       1.114  15.070  31.289  1.00  0.00    -0.003 C 
ATOM     26  C   UNL     1       0.202  14.369  30.286  1.00  0.00     0.004 C 
ENDBRANCH  24  25
ENDBRANCH  23  24
ENDBRANCH  22  23
ENDBRANCH  21  22
ENDBRANCH  20  21
ENDBRANCH  19  20
ENDBRANCH  18  19
ENDBRANCH  17  18
ENDBRANCH  16  17
ENDBRANCH  15  16
ENDBRANCH   1  15
TORSDOF 22
ENDMDL
