MODEL 1
REMARK VINA RESULT:    -7.618      0.000      0.000
REMARK INTER + INTRA:         -12.771
REMARK INTER:                 -11.404
REMARK INTRA:                  -1.367
REMARK UNBOUND:                -1.367
REMARK SMILES O=c1c(O[C@@H]2O[C@H](CO)[C@@H](O)[C@@H](O)[C@H]2O)c(-c2cc(O)c(O)c(O)c2)oc2cc(O)cc(O)c12
REMARK SMILES IDX 4 1 3 2 16 3 26 4 2 5 27 6 1 7 34 8 28 9 32 10 29 11 31 12
REMARK SMILES IDX 17 13 18 14 19 15 25 16 21 17 23 18 20 19 22 21 24 23 33 25
REMARK SMILES IDX 30 27 5 29 14 30 6 31 12 32 7 33 10 34 15 35 13 37 8 39 9 40
REMARK SMILES IDX 11 42
REMARK H PARENT 20 20 22 22 24 24 33 26 30 28 15 36 13 38 9 41 11 43
REMARK Flexibility Score: inf
ROOT
ATOM      1  O   UNL     1     -37.785   5.190  82.100  1.00  0.00    -0.454 OA
ENDROOT
BRANCH   1   2
ATOM      2  C   UNL     1     -38.498   4.837  80.932  1.00  0.00     0.214 A 
ATOM      3  C   UNL     1     -37.981   4.865  79.611  1.00  0.00     0.181 A 
ATOM      4  O   UNL     1     -38.697   4.367  78.613  1.00  0.00    -0.452 OA
ATOM      5  C   UNL     1     -39.818   4.395  81.111  1.00  0.00     0.239 A 
ATOM      6  C   UNL     1     -39.930   3.900  78.756  1.00  0.00     0.146 A 
ATOM      7  O   UNL     1     -40.276   4.343  82.284  1.00  0.00    -0.285 OA
ATOM      8  C   UNL     1     -40.584   3.957  80.010  1.00  0.00     0.111 A 
ATOM      9  C   UNL     1     -40.575   3.346  77.646  1.00  0.00     0.094 A 
ATOM     10  C   UNL     1     -41.941   3.524  80.094  1.00  0.00     0.134 A 
ATOM     11  C   UNL     1     -41.871   2.844  77.756  1.00  0.00     0.123 A 
ATOM     12  C   UNL     1     -42.549   2.936  78.977  1.00  0.00     0.093 A 
BRANCH   3  13
ATOM     13  C   UNL     1     -36.681   5.448  79.258  1.00  0.00     0.029 A 
ATOM     14  C   UNL     1     -35.503   4.733  79.501  1.00  0.00     0.062 A 
ATOM     15  C   UNL     1     -34.261   5.282  79.166  1.00  0.00     0.162 A 
ATOM     16  C   UNL     1     -36.618   6.687  78.604  1.00  0.00     0.062 A 
ATOM     17  C   UNL     1     -34.190   6.556  78.580  1.00  0.00     0.200 A 
ATOM     18  C   UNL     1     -35.374   7.258  78.296  1.00  0.00     0.162 A 
BRANCH  15  19
ATOM     19  O   UNL     1     -33.107   4.545  79.431  1.00  0.00    -0.504 OA
ATOM     20  H   UNL     1     -32.689   4.509  80.350  1.00  0.00     0.293 HD
ENDBRANCH  15  19
BRANCH  17  21
ATOM     21  O   UNL     1     -32.944   7.111  78.291  1.00  0.00    -0.502 OA
ATOM     22  H   UNL     1     -32.096   6.790  78.740  1.00  0.00     0.293 HD
ENDBRANCH  17  21
BRANCH  18  23
ATOM     23  O   UNL     1     -35.316   8.525  77.722  1.00  0.00    -0.504 OA
ATOM     24  H   UNL     1     -36.145   9.104  77.638  1.00  0.00     0.293 HD
ENDBRANCH  18  23
ENDBRANCH   3  13
BRANCH  10  25
ATOM     25  O   UNL     1     -42.738   3.683  81.233  1.00  0.00    -0.507 OA
ATOM     26  H   UNL     1     -43.088   4.568  81.568  1.00  0.00     0.293 HD
ENDBRANCH  10  25
BRANCH  11  27
ATOM     27  O   UNL     1     -42.485   2.272  76.644  1.00  0.00    -0.508 OA
ATOM     28  H   UNL     1     -43.491   2.187  76.579  1.00  0.00     0.293 HD
ENDBRANCH  11  27
ENDBRANCH   1   2
BRANCH   1  29
ATOM     29  C   UNL     1     -37.395   4.356  83.195  1.00  0.00     0.339 C 
ATOM     30  C   UNL     1     -36.144   3.548  82.810  1.00  0.00     0.214 C 
ATOM     31  O   UNL     1     -37.259   5.090  84.411  1.00  0.00    -0.332 OA
ATOM     32  C   UNL     1     -34.912   4.454  82.776  1.00  0.00     0.180 C 
ATOM     33  C   UNL     1     -36.096   5.912  84.507  1.00  0.00     0.179 C 
ATOM     34  C   UNL     1     -34.771   5.201  84.110  1.00  0.00     0.177 C 
BRANCH  30  35
ATOM     35  O   UNL     1     -35.974   2.486  83.720  1.00  0.00    -0.384 OA
ATOM     36  H   UNL     1     -35.986   2.879  84.634  1.00  0.00     0.211 HD
ENDBRANCH  30  35
BRANCH  32  37
ATOM     37  O   UNL     1     -33.768   3.692  82.487  1.00  0.00    -0.387 OA
ATOM     38  H   UNL     1     -33.330   3.477  83.352  1.00  0.00     0.211 HD
ENDBRANCH  32  37
BRANCH  33  39
ATOM     39  C   UNL     1     -36.275   7.281  83.826  1.00  0.00     0.191 C 
BRANCH  39  40
ATOM     40  O   UNL     1     -37.601   7.718  83.952  1.00  0.00    -0.394 OA
ATOM     41  H   UNL     1     -38.089   7.011  84.443  1.00  0.00     0.210 HD
ENDBRANCH  39  40
ENDBRANCH  33  39
BRANCH  34  42
ATOM     42  O   UNL     1     -34.313   4.332  85.125  1.00  0.00    -0.387 OA
ATOM     43  H   UNL     1     -33.738   3.634  84.715  1.00  0.00     0.211 HD
ENDBRANCH  34  42
ENDBRANCH   1  29
TORSDOF 13
ENDMDL
MODEL 2
REMARK VINA RESULT:    -7.236      2.078      6.207
REMARK INTER + INTRA:         -12.199
REMARK INTER:                 -10.558
REMARK INTRA:                  -1.641
REMARK UNBOUND:                -1.367
REMARK SMILES O=c1c(O[C@@H]2O[C@H](CO)[C@@H](O)[C@@H](O)[C@H]2O)c(-c2cc(O)c(O)c(O)c2)oc2cc(O)cc(O)c12
REMARK SMILES IDX 4 1 3 2 16 3 26 4 2 5 27 6 1 7 34 8 28 9 32 10 29 11 31 12
REMARK SMILES IDX 17 13 18 14 19 15 25 16 21 17 23 18 20 19 22 21 24 23 33 25
REMARK SMILES IDX 30 27 5 29 14 30 6 31 12 32 7 33 10 34 15 35 13 37 8 39 9 40
REMARK SMILES IDX 11 42
REMARK H PARENT 20 20 22 22 24 24 33 26 30 28 15 36 13 38 9 41 11 43
REMARK Flexibility Score: inf
ROOT
ATOM      1  O   UNL     1     -36.639   4.849  82.053  1.00  0.00    -0.454 OA
ENDROOT
BRANCH   1   2
ATOM      2  C   UNL     1     -36.154   5.580  80.946  1.00  0.00     0.214 A 
ATOM      3  C   UNL     1     -36.704   5.558  79.639  1.00  0.00     0.181 A 
ATOM      4  O   UNL     1     -36.256   6.403  78.721  1.00  0.00    -0.452 OA
ATOM      5  C   UNL     1     -35.053   6.419  81.181  1.00  0.00     0.239 A 
ATOM      6  C   UNL     1     -35.247   7.239  78.924  1.00  0.00     0.146 A 
ATOM      7  O   UNL     1     -34.574   6.464  82.345  1.00  0.00    -0.285 OA
ATOM      8  C   UNL     1     -34.543   7.239  80.151  1.00  0.00     0.111 A 
ATOM      9  C   UNL     1     -34.891   8.127  77.904  1.00  0.00     0.094 A 
ATOM     10  C   UNL     1     -33.410   8.094  80.290  1.00  0.00     0.134 A 
ATOM     11  C   UNL     1     -33.837   9.022  78.078  1.00  0.00     0.123 A 
ATOM     12  C   UNL     1     -33.100   9.002  79.268  1.00  0.00     0.093 A 
BRANCH   3  13
ATOM     13  C   UNL     1     -37.749   4.619  79.211  1.00  0.00     0.029 A 
ATOM     14  C   UNL     1     -39.089   5.023  79.190  1.00  0.00     0.062 A 
ATOM     15  C   UNL     1     -40.089   4.135  78.783  1.00  0.00     0.162 A 
ATOM     16  C   UNL     1     -37.402   3.342  78.746  1.00  0.00     0.062 A 
ATOM     17  C   UNL     1     -39.752   2.830  78.389  1.00  0.00     0.200 A 
ATOM     18  C   UNL     1     -38.403   2.435  78.369  1.00  0.00     0.162 A 
BRANCH  15  19
ATOM     19  O   UNL     1     -41.414   4.568  78.783  1.00  0.00    -0.504 OA
ATOM     20  H   UNL     1     -42.062   4.325  78.047  1.00  0.00     0.293 HD
ENDBRANCH  15  19
BRANCH  17  21
ATOM     21  O   UNL     1     -40.762   1.939  78.027  1.00  0.00    -0.502 OA
ATOM     22  H   UNL     1     -40.924   1.078  78.534  1.00  0.00     0.293 HD
ENDBRANCH  17  21
BRANCH  18  23
ATOM     23  O   UNL     1     -38.058   1.141  77.988  1.00  0.00    -0.504 OA
ATOM     24  H   UNL     1     -38.686   0.360  78.148  1.00  0.00     0.293 HD
ENDBRANCH  18  23
ENDBRANCH   3  13
BRANCH  10  25
ATOM     25  O   UNL     1     -32.542   8.063  81.388  1.00  0.00    -0.507 OA
ATOM     26  H   UNL     1     -32.835   8.138  82.350  1.00  0.00     0.293 HD
ENDBRANCH  10  25
BRANCH  11  27
ATOM     27  O   UNL     1     -33.515   9.916  77.060  1.00  0.00    -0.508 OA
ATOM     28  H   UNL     1     -33.357   9.605  76.110  1.00  0.00     0.293 HD
ENDBRANCH  11  27
ENDBRANCH   1   2
BRANCH   1  29
ATOM     29  C   UNL     1     -37.952   4.851  82.621  1.00  0.00     0.339 C 
ATOM     30  C   UNL     1     -38.658   3.523  82.296  1.00  0.00     0.214 C 
ATOM     31  O   UNL     1     -37.940   5.175  84.010  1.00  0.00    -0.332 OA
ATOM     32  C   UNL     1     -38.062   2.385  83.126  1.00  0.00     0.180 C 
ATOM     33  C   UNL     1     -37.470   4.146  84.879  1.00  0.00     0.179 C 
ATOM     34  C   UNL     1     -38.098   2.747  84.619  1.00  0.00     0.177 C 
BRANCH  30  35
ATOM     35  O   UNL     1     -40.040   3.658  82.528  1.00  0.00    -0.384 OA
ATOM     36  H   UNL     1     -40.239   3.199  83.388  1.00  0.00     0.211 HD
ENDBRANCH  30  35
BRANCH  32  37
ATOM     37  O   UNL     1     -38.759   1.192  82.868  1.00  0.00    -0.387 OA
ATOM     38  H   UNL     1     -38.353   0.484  83.433  1.00  0.00     0.211 HD
ENDBRANCH  32  37
BRANCH  33  39
ATOM     39  C   UNL     1     -35.934   4.109  84.984  1.00  0.00     0.191 C 
BRANCH  39  40
ATOM     40  O   UNL     1     -35.404   5.396  84.829  1.00  0.00    -0.394 OA
ATOM     41  H   UNL     1     -36.026   5.893  84.241  1.00  0.00     0.210 HD
ENDBRANCH  39  40
ENDBRANCH  33  39
BRANCH  34  42
ATOM     42  O   UNL     1     -39.413   2.656  85.125  1.00  0.00    -0.387 OA
ATOM     43  H   UNL     1     -39.993   2.233  84.438  1.00  0.00     0.211 HD
ENDBRANCH  34  42
ENDBRANCH   1  29
TORSDOF 13
ENDMDL
MODEL 3
REMARK VINA RESULT:    -6.425      2.379      7.475
REMARK INTER + INTRA:         -10.985
REMARK INTER:                  -9.401
REMARK INTRA:                  -1.584
REMARK UNBOUND:                -1.367
REMARK SMILES O=c1c(O[C@@H]2O[C@H](CO)[C@@H](O)[C@@H](O)[C@H]2O)c(-c2cc(O)c(O)c(O)c2)oc2cc(O)cc(O)c12
REMARK SMILES IDX 4 1 3 2 16 3 26 4 2 5 27 6 1 7 34 8 28 9 32 10 29 11 31 12
REMARK SMILES IDX 17 13 18 14 19 15 25 16 21 17 23 18 20 19 22 21 24 23 33 25
REMARK SMILES IDX 30 27 5 29 14 30 6 31 12 32 7 33 10 34 15 35 13 37 8 39 9 40
REMARK SMILES IDX 11 42
REMARK H PARENT 20 20 22 22 24 24 33 26 30 28 15 36 13 38 9 41 11 43
REMARK Flexibility Score: inf
ROOT
ATOM      1  O   UNL     1     -36.954   7.344  79.584  1.00  0.00    -0.454 OA
ENDROOT
BRANCH   1   2
ATOM      2  C   UNL     1     -36.391   6.557  80.613  1.00  0.00     0.214 A 
ATOM      3  C   UNL     1     -36.662   5.183  80.842  1.00  0.00     0.181 A 
ATOM      4  O   UNL     1     -35.957   4.515  81.745  1.00  0.00    -0.452 OA
ATOM      5  C   UNL     1     -35.464   7.193  81.454  1.00  0.00     0.239 A 
ATOM      6  C   UNL     1     -35.043   5.076  82.524  1.00  0.00     0.146 A 
ATOM      7  O   UNL     1     -35.200   8.406  81.242  1.00  0.00    -0.285 OA
ATOM      8  C   UNL     1     -34.800   6.469  82.467  1.00  0.00     0.111 A 
ATOM      9  C   UNL     1     -34.319   4.266  83.405  1.00  0.00     0.094 A 
ATOM     10  C   UNL     1     -33.870   7.039  83.387  1.00  0.00     0.134 A 
ATOM     11  C   UNL     1     -33.349   4.817  84.241  1.00  0.00     0.123 A 
ATOM     12  C   UNL     1     -33.130   6.200  84.230  1.00  0.00     0.093 A 
BRANCH   3  13
ATOM     13  C   UNL     1     -37.716   4.435  80.147  1.00  0.00     0.029 A 
ATOM     14  C   UNL     1     -37.385   3.332  79.352  1.00  0.00     0.062 A 
ATOM     15  C   UNL     1     -38.384   2.613  78.688  1.00  0.00     0.162 A 
ATOM     16  C   UNL     1     -39.064   4.770  80.341  1.00  0.00     0.062 A 
ATOM     17  C   UNL     1     -39.729   2.994  78.819  1.00  0.00     0.200 A 
ATOM     18  C   UNL     1     -40.068   4.075  79.652  1.00  0.00     0.162 A 
BRANCH  15  19
ATOM     19  O   UNL     1     -38.017   1.526  77.896  1.00  0.00    -0.504 OA
ATOM     20  H   UNL     1     -38.181   1.504  76.899  1.00  0.00     0.293 HD
ENDBRANCH  15  19
BRANCH  17  21
ATOM     21  O   UNL     1     -40.713   2.298  78.118  1.00  0.00    -0.502 OA
ATOM     22  H   UNL     1     -40.962   1.344  78.349  1.00  0.00     0.293 HD
ENDBRANCH  17  21
BRANCH  18  23
ATOM     23  O   UNL     1     -41.398   4.466  79.784  1.00  0.00    -0.504 OA
ATOM     24  H   UNL     1     -41.739   4.893  80.639  1.00  0.00     0.293 HD
ENDBRANCH  18  23
ENDBRANCH   3  13
BRANCH  10  25
ATOM     25  O   UNL     1     -33.669   8.416  83.535  1.00  0.00    -0.507 OA
ATOM     26  H   UNL     1     -33.808   9.097  82.804  1.00  0.00     0.293 HD
ENDBRANCH  10  25
BRANCH  11  27
ATOM     27  O   UNL     1     -32.621   3.990  85.092  1.00  0.00    -0.508 OA
ATOM     28  H   UNL     1     -33.008   3.649  85.962  1.00  0.00     0.293 HD
ENDBRANCH  11  27
ENDBRANCH   1   2
BRANCH   1  29
ATOM     29  C   UNL     1     -37.046   7.055  78.185  1.00  0.00     0.339 C 
ATOM     30  C   UNL     1     -38.518   7.108  77.742  1.00  0.00     0.214 C 
ATOM     31  O   UNL     1     -36.177   7.876  77.407  1.00  0.00    -0.332 OA
ATOM     32  C   UNL     1     -39.012   8.555  77.699  1.00  0.00     0.180 C 
ATOM     33  C   UNL     1     -36.591   9.232  77.244  1.00  0.00     0.179 C 
ATOM     34  C   UNL     1     -38.079   9.404  76.823  1.00  0.00     0.177 C 
BRANCH  30  35
ATOM     35  O   UNL     1     -38.651   6.484  76.487  1.00  0.00    -0.384 OA
ATOM     36  H   UNL     1     -39.625   6.396  76.305  1.00  0.00     0.211 HD
ENDBRANCH  30  35
BRANCH  32  37
ATOM     37  O   UNL     1     -40.336   8.592  77.230  1.00  0.00    -0.387 OA
ATOM     38  H   UNL     1     -40.669   9.519  77.358  1.00  0.00     0.211 HD
ENDBRANCH  32  37
BRANCH  33  39
ATOM     39  C   UNL     1     -36.193  10.125  78.434  1.00  0.00     0.191 C 
BRANCH  39  40
ATOM     40  O   UNL     1     -34.917   9.777  78.898  1.00  0.00    -0.394 OA
ATOM     41  H   UNL     1     -34.302   9.850  78.126  1.00  0.00     0.210 HD
ENDBRANCH  39  40
ENDBRANCH  33  39
BRANCH  34  42
ATOM     42  O   UNL     1     -38.277   9.117  75.455  1.00  0.00    -0.387 OA
ATOM     43  H   UNL     1     -37.882   9.850  74.913  1.00  0.00     0.211 HD
ENDBRANCH  34  42
ENDBRANCH   1  29
TORSDOF 13
ENDMDL
MODEL 4
REMARK VINA RESULT:    -6.343      2.446      7.210
REMARK INTER + INTRA:         -10.861
REMARK INTER:                  -9.547
REMARK INTRA:                  -1.314
REMARK UNBOUND:                -1.367
REMARK SMILES O=c1c(O[C@@H]2O[C@H](CO)[C@@H](O)[C@@H](O)[C@H]2O)c(-c2cc(O)c(O)c(O)c2)oc2cc(O)cc(O)c12
REMARK SMILES IDX 4 1 3 2 16 3 26 4 2 5 27 6 1 7 34 8 28 9 32 10 29 11 31 12
REMARK SMILES IDX 17 13 18 14 19 15 25 16 21 17 23 18 20 19 22 21 24 23 33 25
REMARK SMILES IDX 30 27 5 29 14 30 6 31 12 32 7 33 10 34 15 35 13 37 8 39 9 40
REMARK SMILES IDX 11 42
REMARK H PARENT 20 20 22 22 24 24 33 26 30 28 15 36 13 38 9 41 11 43
REMARK Flexibility Score: inf
ROOT
ATOM      1  O   UNL     1     -37.629   7.506  80.437  1.00  0.00    -0.454 OA
ENDROOT
BRANCH   1   2
ATOM      2  C   UNL     1     -36.830   6.567  81.128  1.00  0.00     0.214 A 
ATOM      3  C   UNL     1     -36.847   5.164  80.927  1.00  0.00     0.181 A 
ATOM      4  O   UNL     1     -35.943   4.402  81.528  1.00  0.00    -0.452 OA
ATOM      5  C   UNL     1     -35.926   7.086  82.069  1.00  0.00     0.239 A 
ATOM      6  C   UNL     1     -35.047   4.865  82.388  1.00  0.00     0.146 A 
ATOM      7  O   UNL     1     -35.888   8.334  82.235  1.00  0.00    -0.285 OA
ATOM      8  C   UNL     1     -35.040   6.231  82.759  1.00  0.00     0.111 A 
ATOM      9  C   UNL     1     -34.104   3.982  82.922  1.00  0.00     0.094 A 
ATOM     10  C   UNL     1     -34.114   6.665  83.754  1.00  0.00     0.134 A 
ATOM     11  C   UNL     1     -33.145   4.431  83.828  1.00  0.00     0.123 A 
ATOM     12  C   UNL     1     -33.154   5.768  84.241  1.00  0.00     0.093 A 
BRANCH   3  13
ATOM     13  C   UNL     1     -37.841   4.472  80.097  1.00  0.00     0.029 A 
ATOM     14  C   UNL     1     -37.484   3.316  79.393  1.00  0.00     0.062 A 
ATOM     15  C   UNL     1     -38.426   2.652  78.601  1.00  0.00     0.162 A 
ATOM     16  C   UNL     1     -39.170   4.919  80.069  1.00  0.00     0.062 A 
ATOM     17  C   UNL     1     -39.739   3.141  78.511  1.00  0.00     0.200 A 
ATOM     18  C   UNL     1     -40.111   4.277  79.250  1.00  0.00     0.162 A 
BRANCH  15  19
ATOM     19  O   UNL     1     -38.033   1.508  77.907  1.00  0.00    -0.504 OA
ATOM     20  H   UNL     1     -38.174   0.578  78.274  1.00  0.00     0.293 HD
ENDBRANCH  15  19
BRANCH  17  21
ATOM     21  O   UNL     1     -40.657   2.495  77.684  1.00  0.00    -0.502 OA
ATOM     22  H   UNL     1     -40.394   2.117  76.783  1.00  0.00     0.293 HD
ENDBRANCH  17  21
BRANCH  18  23
ATOM     23  O   UNL     1     -41.407   4.775  79.162  1.00  0.00    -0.504 OA
ATOM     24  H   UNL     1     -41.618   5.602  78.612  1.00  0.00     0.293 HD
ENDBRANCH  18  23
ENDBRANCH   3  13
BRANCH  10  25
ATOM     25  O   UNL     1     -34.122   7.947  84.317  1.00  0.00    -0.507 OA
ATOM     26  H   UNL     1     -33.459   8.673  84.095  1.00  0.00     0.293 HD
ENDBRANCH  10  25
BRANCH  11  27
ATOM     27  O   UNL     1     -32.198   3.540  84.328  1.00  0.00    -0.508 OA
ATOM     28  H   UNL     1     -31.248   3.524  83.980  1.00  0.00     0.293 HD
ENDBRANCH  11  27
ENDBRANCH   1   2
BRANCH   1  29
ATOM     29  C   UNL     1     -37.233   8.462  79.449  1.00  0.00     0.339 C 
ATOM     30  C   UNL     1     -36.940   7.744  78.121  1.00  0.00     0.214 C 
ATOM     31  O   UNL     1     -38.165   9.536  79.333  1.00  0.00    -0.332 OA
ATOM     32  C   UNL     1     -38.241   7.280  77.466  1.00  0.00     0.180 C 
ATOM     33  C   UNL     1     -39.387   9.222  78.666  1.00  0.00     0.179 C 
ATOM     34  C   UNL     1     -39.209   8.464  77.319  1.00  0.00     0.177 C 
BRANCH  30  35
ATOM     35  O   UNL     1     -36.217   8.605  77.273  1.00  0.00    -0.384 OA
ATOM     36  H   UNL     1     -35.545   9.076  77.836  1.00  0.00     0.211 HD
ENDBRANCH  30  35
BRANCH  32  37
ATOM     37  O   UNL     1     -37.962   6.684  76.224  1.00  0.00    -0.387 OA
ATOM     38  H   UNL     1     -38.807   6.680  75.702  1.00  0.00     0.211 HD
ENDBRANCH  32  37
BRANCH  33  39
ATOM     39  C   UNL     1     -40.423   8.565  79.596  1.00  0.00     0.191 C 
BRANCH  39  40
ATOM     40  O   UNL     1     -41.326   7.794  78.852  1.00  0.00    -0.394 OA
ATOM     41  H   UNL     1     -42.224   8.183  79.000  1.00  0.00     0.210 HD
ENDBRANCH  39  40
ENDBRANCH  33  39
BRANCH  34  42
ATOM     42  O   UNL     1     -38.793   9.325  76.280  1.00  0.00    -0.387 OA
ATOM     43  H   UNL     1     -38.040   9.884  76.607  1.00  0.00     0.211 HD
ENDBRANCH  34  42
ENDBRANCH   1  29
TORSDOF 13
ENDMDL
MODEL 5
REMARK VINA RESULT:    -6.273      2.779      7.603
REMARK INTER + INTRA:         -10.757
REMARK INTER:                 -10.132
REMARK INTRA:                  -0.626
REMARK UNBOUND:                -1.367
REMARK SMILES O=c1c(O[C@@H]2O[C@H](CO)[C@@H](O)[C@@H](O)[C@H]2O)c(-c2cc(O)c(O)c(O)c2)oc2cc(O)cc(O)c12
REMARK SMILES IDX 4 1 3 2 16 3 26 4 2 5 27 6 1 7 34 8 28 9 32 10 29 11 31 12
REMARK SMILES IDX 17 13 18 14 19 15 25 16 21 17 23 18 20 19 22 21 24 23 33 25
REMARK SMILES IDX 30 27 5 29 14 30 6 31 12 32 7 33 10 34 15 35 13 37 8 39 9 40
REMARK SMILES IDX 11 42
REMARK H PARENT 20 20 22 22 24 24 33 26 30 28 15 36 13 38 9 41 11 43
REMARK Flexibility Score: inf
ROOT
ATOM      1  O   UNL     1     -38.591   7.457  79.685  1.00  0.00    -0.454 OA
ENDROOT
BRANCH   1   2
ATOM      2  C   UNL     1     -37.822   6.516  80.407  1.00  0.00     0.214 A 
ATOM      3  C   UNL     1     -38.118   5.135  80.534  1.00  0.00     0.181 A 
ATOM      4  O   UNL     1     -37.240   4.324  81.110  1.00  0.00    -0.452 OA
ATOM      5  C   UNL     1     -36.654   6.997  81.020  1.00  0.00     0.239 A 
ATOM      6  C   UNL     1     -36.107   4.740  81.659  1.00  0.00     0.146 A 
ATOM      7  O   UNL     1     -36.372   8.218  80.890  1.00  0.00    -0.285 OA
ATOM      8  C   UNL     1     -35.789   6.118  81.704  1.00  0.00     0.111 A 
ATOM      9  C   UNL     1     -35.227   3.792  82.190  1.00  0.00     0.094 A 
ATOM     10  C   UNL     1     -34.601   6.523  82.384  1.00  0.00     0.134 A 
ATOM     11  C   UNL     1     -34.026   4.189  82.775  1.00  0.00     0.123 A 
ATOM     12  C   UNL     1     -33.718   5.551  82.871  1.00  0.00     0.093 A 
BRANCH   3  13
ATOM     13  C   UNL     1     -39.375   4.526  80.083  1.00  0.00     0.029 A 
ATOM     14  C   UNL     1     -39.484   4.025  78.781  1.00  0.00     0.062 A 
ATOM     15  C   UNL     1     -40.678   3.443  78.345  1.00  0.00     0.162 A 
ATOM     16  C   UNL     1     -40.444   4.371  80.978  1.00  0.00     0.062 A 
ATOM     17  C   UNL     1     -41.777   3.356  79.216  1.00  0.00     0.200 A 
ATOM     18  C   UNL     1     -41.656   3.820  80.537  1.00  0.00     0.162 A 
BRANCH  15  19
ATOM     19  O   UNL     1     -40.754   2.963  77.038  1.00  0.00    -0.504 OA
ATOM     20  H   UNL     1     -40.821   3.579  76.240  1.00  0.00     0.293 HD
ENDBRANCH  15  19
BRANCH  17  21
ATOM     21  O   UNL     1     -42.976   2.813  78.756  1.00  0.00    -0.502 OA
ATOM     22  H   UNL     1     -43.497   3.231  77.996  1.00  0.00     0.293 HD
ENDBRANCH  17  21
BRANCH  18  23
ATOM     23  O   UNL     1     -42.740   3.744  81.406  1.00  0.00    -0.504 OA
ATOM     24  H   UNL     1     -42.715   4.186  82.320  1.00  0.00     0.293 HD
ENDBRANCH  18  23
ENDBRANCH   3  13
BRANCH  10  25
ATOM     25  O   UNL     1     -34.267   7.860  82.635  1.00  0.00    -0.507 OA
ATOM     26  H   UNL     1     -33.417   8.163  83.083  1.00  0.00     0.293 HD
ENDBRANCH  10  25
BRANCH  11  27
ATOM     27  O   UNL     1     -33.152   3.227  83.276  1.00  0.00    -0.508 OA
ATOM     28  H   UNL     1     -32.800   3.270  84.223  1.00  0.00     0.293 HD
ENDBRANCH  11  27
ENDBRANCH   1   2
BRANCH   1  29
ATOM     29  C   UNL     1     -38.141   8.573  78.910  1.00  0.00     0.339 C 
ATOM     30  C   UNL     1     -37.805   8.109  77.483  1.00  0.00     0.214 C 
ATOM     31  O   UNL     1     -39.052   9.669  78.963  1.00  0.00    -0.332 OA
ATOM     32  C   UNL     1     -39.086   7.804  76.704  1.00  0.00     0.180 C 
ATOM     33  C   UNL     1     -40.250   9.512  78.205  1.00  0.00     0.179 C 
ATOM     34  C   UNL     1     -40.029   9.016  76.748  1.00  0.00     0.177 C 
BRANCH  30  35
ATOM     35  O   UNL     1     -37.037   9.097  76.838  1.00  0.00    -0.384 OA
ATOM     36  H   UNL     1     -36.130   8.714  76.692  1.00  0.00     0.211 HD
ENDBRANCH  30  35
BRANCH  32  37
ATOM     37  O   UNL     1     -38.767   7.445  75.384  1.00  0.00    -0.387 OA
ATOM     38  H   UNL     1     -38.607   8.286  74.880  1.00  0.00     0.211 HD
ENDBRANCH  32  37
BRANCH  33  39
ATOM     39  C   UNL     1     -41.333   8.716  78.957  1.00  0.00     0.191 C 
BRANCH  39  40
ATOM     40  O   UNL     1     -42.593   8.956  78.394  1.00  0.00    -0.394 OA
ATOM     41  H   UNL     1     -42.923   8.088  78.051  1.00  0.00     0.210 HD
ENDBRANCH  39  40
ENDBRANCH  33  39
BRANCH  34  42
ATOM     42  O   UNL     1     -39.560  10.046  75.904  1.00  0.00    -0.387 OA
ATOM     43  H   UNL     1     -39.581   9.727  74.964  1.00  0.00     0.211 HD
ENDBRANCH  34  42
ENDBRANCH   1  29
TORSDOF 13
ENDMDL
MODEL 6
REMARK VINA RESULT:    -5.993      2.777      5.085
REMARK INTER + INTRA:         -10.338
REMARK INTER:                  -9.310
REMARK INTRA:                  -1.028
REMARK UNBOUND:                -1.367
REMARK SMILES O=c1c(O[C@@H]2O[C@H](CO)[C@@H](O)[C@@H](O)[C@H]2O)c(-c2cc(O)c(O)c(O)c2)oc2cc(O)cc(O)c12
REMARK SMILES IDX 4 1 3 2 16 3 26 4 2 5 27 6 1 7 34 8 28 9 32 10 29 11 31 12
REMARK SMILES IDX 17 13 18 14 19 15 25 16 21 17 23 18 20 19 22 21 24 23 33 25
REMARK SMILES IDX 30 27 5 29 14 30 6 31 12 32 7 33 10 34 15 35 13 37 8 39 9 40
REMARK SMILES IDX 11 42
REMARK H PARENT 20 20 22 22 24 24 33 26 30 28 15 36 13 38 9 41 11 43
REMARK Flexibility Score: inf
ROOT
ATOM      1  O   UNL     1     -36.515   5.518  79.364  1.00  0.00    -0.454 OA
ENDROOT
BRANCH   1   2
ATOM      2  C   UNL     1     -37.652   5.116  80.101  1.00  0.00     0.214 A 
ATOM      3  C   UNL     1     -38.981   5.554  79.870  1.00  0.00     0.181 A 
ATOM      4  O   UNL     1     -39.984   4.989  80.528  1.00  0.00    -0.452 OA
ATOM      5  C   UNL     1     -37.437   4.180  81.125  1.00  0.00     0.239 A 
ATOM      6  C   UNL     1     -39.819   4.071  81.470  1.00  0.00     0.146 A 
ATOM      7  O   UNL     1     -36.262   3.767  81.320  1.00  0.00    -0.285 OA
ATOM      8  C   UNL     1     -38.521   3.669  81.869  1.00  0.00     0.111 A 
ATOM      9  C   UNL     1     -40.950   3.501  82.063  1.00  0.00     0.094 A 
ATOM     10  C   UNL     1     -38.394   2.743  82.947  1.00  0.00     0.134 A 
ATOM     11  C   UNL     1     -40.818   2.532  83.056  1.00  0.00     0.123 A 
ATOM     12  C   UNL     1     -39.543   2.158  83.495  1.00  0.00     0.093 A 
BRANCH   3  13
ATOM     13  C   UNL     1     -39.331   6.638  78.945  1.00  0.00     0.029 A 
ATOM     14  C   UNL     1     -38.925   6.577  77.607  1.00  0.00     0.062 A 
ATOM     15  C   UNL     1     -39.256   7.605  76.719  1.00  0.00     0.162 A 
ATOM     16  C   UNL     1     -40.142   7.698  79.375  1.00  0.00     0.062 A 
ATOM     17  C   UNL     1     -40.003   8.706  77.167  1.00  0.00     0.200 A 
ATOM     18  C   UNL     1     -40.449   8.750  78.499  1.00  0.00     0.162 A 
BRANCH  15  19
ATOM     19  O   UNL     1     -38.827   7.516  75.396  1.00  0.00    -0.504 OA
ATOM     20  H   UNL     1     -38.540   8.326  74.865  1.00  0.00     0.293 HD
ENDBRANCH  15  19
BRANCH  17  21
ATOM     21  O   UNL     1     -40.291   9.747  76.284  1.00  0.00    -0.502 OA
ATOM     22  H   UNL     1     -40.229  10.718  76.562  1.00  0.00     0.293 HD
ENDBRANCH  17  21
BRANCH  18  23
ATOM     23  O   UNL     1     -41.184   9.840  78.956  1.00  0.00    -0.504 OA
ATOM     24  H   UNL     1     -42.190   9.887  78.830  1.00  0.00     0.293 HD
ENDBRANCH  18  23
ENDBRANCH   3  13
BRANCH  10  25
ATOM     25  O   UNL     1     -37.170   2.398  83.534  1.00  0.00    -0.507 OA
ATOM     26  H   UNL     1     -36.600   1.617  83.251  1.00  0.00     0.293 HD
ENDBRANCH  10  25
BRANCH  11  27
ATOM     27  O   UNL     1     -41.958   1.958  83.615  1.00  0.00    -0.508 OA
ATOM     28  H   UNL     1     -41.903   1.334  84.409  1.00  0.00     0.293 HD
ENDBRANCH  11  27
ENDBRANCH   1   2
BRANCH   1  29
ATOM     29  C   UNL     1     -35.953   6.828  79.230  1.00  0.00     0.339 C 
ATOM     30  C   UNL     1     -36.045   7.570  80.574  1.00  0.00     0.214 C 
ATOM     31  O   UNL     1     -34.640   6.798  78.674  1.00  0.00    -0.332 OA
ATOM     32  C   UNL     1     -35.034   7.000  81.570  1.00  0.00     0.180 C 
ATOM     33  C   UNL     1     -33.609   6.350  79.553  1.00  0.00     0.179 C 
ATOM     34  C   UNL     1     -33.626   7.016  80.958  1.00  0.00     0.177 C 
BRANCH  30  35
ATOM     35  O   UNL     1     -35.837   8.947  80.364  1.00  0.00    -0.384 OA
ATOM     36  H   UNL     1     -34.866   9.073  80.189  1.00  0.00     0.211 HD
ENDBRANCH  30  35
BRANCH  32  37
ATOM     37  O   UNL     1     -35.085   7.730  82.770  1.00  0.00    -0.387 OA
ATOM     38  H   UNL     1     -35.593   7.185  83.426  1.00  0.00     0.211 HD
ENDBRANCH  32  37
BRANCH  33  39
ATOM     39  C   UNL     1     -33.502   4.814  79.614  1.00  0.00     0.191 C 
BRANCH  39  40
ATOM     40  O   UNL     1     -34.381   4.228  78.693  1.00  0.00    -0.394 OA
ATOM     41  H   UNL     1     -34.971   3.623  79.207  1.00  0.00     0.210 HD
ENDBRANCH  39  40
ENDBRANCH  33  39
BRANCH  34  42
ATOM     42  O   UNL     1     -33.109   8.330  80.925  1.00  0.00    -0.387 OA
ATOM     43  H   UNL     1     -33.865   8.972  80.876  1.00  0.00     0.211 HD
ENDBRANCH  34  42
ENDBRANCH   1  29
TORSDOF 13
ENDMDL
MODEL 7
REMARK VINA RESULT:    -5.969     10.099     13.275
REMARK INTER + INTRA:         -10.302
REMARK INTER:                  -9.747
REMARK INTRA:                  -0.555
REMARK UNBOUND:                -1.367
REMARK SMILES O=c1c(O[C@@H]2O[C@H](CO)[C@@H](O)[C@@H](O)[C@H]2O)c(-c2cc(O)c(O)c(O)c2)oc2cc(O)cc(O)c12
REMARK SMILES IDX 4 1 3 2 16 3 26 4 2 5 27 6 1 7 34 8 28 9 32 10 29 11 31 12
REMARK SMILES IDX 17 13 18 14 19 15 25 16 21 17 23 18 20 19 22 21 24 23 33 25
REMARK SMILES IDX 30 27 5 29 14 30 6 31 12 32 7 33 10 34 15 35 13 37 8 39 9 40
REMARK SMILES IDX 11 42
REMARK H PARENT 20 20 22 22 24 24 33 26 30 28 15 36 13 38 9 41 11 43
REMARK Flexibility Score: inf
ROOT
ATOM      1  O   UNL     1     -40.310  -6.959  82.054  1.00  0.00    -0.454 OA
ENDROOT
BRANCH   1   2
ATOM      2  C   UNL     1     -38.943  -6.802  82.377  1.00  0.00     0.214 A 
ATOM      3  C   UNL     1     -38.354  -5.633  82.922  1.00  0.00     0.181 A 
ATOM      4  O   UNL     1     -37.091  -5.658  83.325  1.00  0.00    -0.452 OA
ATOM      5  C   UNL     1     -38.116  -7.917  82.164  1.00  0.00     0.239 A 
ATOM      6  C   UNL     1     -36.296  -6.709  83.179  1.00  0.00     0.146 A 
ATOM      7  O   UNL     1     -38.637  -8.968  81.704  1.00  0.00    -0.285 OA
ATOM      8  C   UNL     1     -36.752  -7.876  82.521  1.00  0.00     0.111 A 
ATOM      9  C   UNL     1     -34.995  -6.647  83.690  1.00  0.00     0.094 A 
ATOM     10  C   UNL     1     -35.831  -8.946  82.310  1.00  0.00     0.134 A 
ATOM     11  C   UNL     1     -34.128  -7.730  83.558  1.00  0.00     0.123 A 
ATOM     12  C   UNL     1     -34.548  -8.873  82.868  1.00  0.00     0.093 A 
BRANCH   3  13
ATOM     13  C   UNL     1     -39.058  -4.351  83.051  1.00  0.00     0.029 A 
ATOM     14  C   UNL     1     -40.427  -4.272  82.769  1.00  0.00     0.062 A 
ATOM     15  C   UNL     1     -41.104  -3.055  82.892  1.00  0.00     0.162 A 
ATOM     16  C   UNL     1     -38.383  -3.221  83.533  1.00  0.00     0.062 A 
ATOM     17  C   UNL     1     -40.413  -1.903  83.301  1.00  0.00     0.200 A 
ATOM     18  C   UNL     1     -39.048  -1.990  83.625  1.00  0.00     0.162 A 
BRANCH  15  19
ATOM     19  O   UNL     1     -42.466  -3.010  82.594  1.00  0.00    -0.504 OA
ATOM     20  H   UNL     1     -43.090  -3.776  82.806  1.00  0.00     0.293 HD
ENDBRANCH  15  19
BRANCH  17  21
ATOM     21  O   UNL     1     -41.089  -0.686  83.377  1.00  0.00    -0.502 OA
ATOM     22  H   UNL     1     -41.600  -0.307  82.590  1.00  0.00     0.293 HD
ENDBRANCH  17  21
BRANCH  18  23
ATOM     23  O   UNL     1     -38.351  -0.853  84.025  1.00  0.00    -0.504 OA
ATOM     24  H   UNL     1     -37.341  -0.795  83.935  1.00  0.00     0.293 HD
ENDBRANCH  18  23
ENDBRANCH   3  13
BRANCH  10  25
ATOM     25  O   UNL     1     -36.118 -10.075  81.535  1.00  0.00    -0.507 OA
ATOM     26  H   UNL     1     -35.605 -10.942  81.574  1.00  0.00     0.293 HD
ENDBRANCH  10  25
BRANCH  11  27
ATOM     27  O   UNL     1     -32.846  -7.657  84.097  1.00  0.00    -0.508 OA
ATOM     28  H   UNL     1     -32.670  -7.218  84.991  1.00  0.00     0.293 HD
ENDBRANCH  11  27
ENDBRANCH   1   2
BRANCH   1  29
ATOM     29  C   UNL     1     -41.221  -7.975  82.487  1.00  0.00     0.339 C 
ATOM     30  C   UNL     1     -42.066  -7.446  83.659  1.00  0.00     0.214 C 
ATOM     31  O   UNL     1     -41.992  -8.504  81.410  1.00  0.00    -0.332 OA
ATOM     32  C   UNL     1     -43.094  -6.429  83.160  1.00  0.00     0.180 C 
ATOM     33  C   UNL     1     -43.030  -7.657  80.921  1.00  0.00     0.179 C 
ATOM     34  C   UNL     1     -43.932  -7.040  82.028  1.00  0.00     0.177 C 
BRANCH  30  35
ATOM     35  O   UNL     1     -42.689  -8.527  84.311  1.00  0.00    -0.384 OA
ATOM     36  H   UNL     1     -42.130  -8.754  85.102  1.00  0.00     0.211 HD
ENDBRANCH  30  35
BRANCH  32  37
ATOM     37  O   UNL     1     -43.900  -6.004  84.229  1.00  0.00    -0.387 OA
ATOM     38  H   UNL     1     -43.709  -5.041  84.379  1.00  0.00     0.211 HD
ENDBRANCH  32  37
BRANCH  33  39
ATOM     39  C   UNL     1     -42.524  -6.616  79.906  1.00  0.00     0.191 C 
BRANCH  39  40
ATOM     40  O   UNL     1     -41.430  -7.124  79.192  1.00  0.00    -0.394 OA
ATOM     41  H   UNL     1     -41.799  -7.603  78.408  1.00  0.00     0.210 HD
ENDBRANCH  39  40
ENDBRANCH  33  39
BRANCH  34  42
ATOM     42  O   UNL     1     -44.856  -7.978  82.539  1.00  0.00    -0.387 OA
ATOM     43  H   UNL     1     -44.558  -8.892  82.289  1.00  0.00     0.211 HD
ENDBRANCH  34  42
ENDBRANCH   1  29
TORSDOF 13
ENDMDL
