MODEL 1
REMARK VINA RESULT:    -3.007      0.000      0.000
REMARK INTER + INTRA:          -3.675
REMARK INTER:                  -3.622
REMARK INTRA:                  -0.053
REMARK UNBOUND:                -0.053
REMARK SMILES OCCc1ccc(O)c(O)c1
REMARK SMILES IDX 3 1 4 2 5 3 6 4 7 5 11 6 9 7 8 8 10 10 2 12 1 13
REMARK H PARENT 8 9 10 11 1 14
REMARK Flexibility Score: inf
ROOT
ATOM      1  C   UNL     1      26.789  31.044  -0.125  1.00  0.00     0.064 C 
ENDROOT
BRANCH   1   2
ATOM      2  C   UNL     1      26.712  29.834   0.770  1.00  0.00    -0.042 A 
ATOM      3  C   UNL     1      27.301  28.622   0.378  1.00  0.00     0.008 A 
ATOM      4  C   UNL     1      27.205  27.495   1.197  1.00  0.00     0.050 A 
ATOM      5  C   UNL     1      26.510  27.560   2.413  1.00  0.00     0.157 A 
ATOM      6  C   UNL     1      26.007  29.896   1.983  1.00  0.00     0.054 A 
ATOM      7  C   UNL     1      25.908  28.769   2.806  1.00  0.00     0.157 A 
BRANCH   5   8
ATOM      8  O   UNL     1      26.415  26.434   3.228  1.00  0.00    -0.504 OA
ATOM      9  H   UNL     1      27.200  25.808   3.363  1.00  0.00     0.293 HD
ENDBRANCH   5   8
BRANCH   7  10
ATOM     10  O   UNL     1      25.205  28.866   4.008  1.00  0.00    -0.504 OA
ATOM     11  H   UNL     1      24.744  28.068   4.427  1.00  0.00     0.293 HD
ENDBRANCH   7  10
ENDBRANCH   1   2
BRANCH   1  12
ATOM     12  C   UNL     1      28.192  31.657  -0.113  1.00  0.00     0.161 C 
BRANCH  12  13
ATOM     13  O   UNL     1      28.128  33.057  -0.108  1.00  0.00    -0.396 OA
ATOM     14  H   UNL     1      27.424  33.307   0.546  1.00  0.00     0.210 HD
ENDBRANCH  12  13
ENDBRANCH   1  12
TORSDOF 5
ENDMDL
MODEL 2
REMARK VINA RESULT:    -2.511      0.876      2.065
REMARK INTER + INTRA:          -3.077
REMARK INTER:                  -3.023
REMARK INTRA:                  -0.054
REMARK UNBOUND:                -0.053
REMARK SMILES OCCc1ccc(O)c(O)c1
REMARK SMILES IDX 3 1 4 2 5 3 6 4 7 5 11 6 9 7 8 8 10 10 2 12 1 13
REMARK H PARENT 8 9 10 11 1 14
REMARK Flexibility Score: inf
ROOT
ATOM      1  C   UNL     1      26.581  31.108  -0.122  1.00  0.00     0.064 C 
ENDROOT
BRANCH   1   2
ATOM      2  C   UNL     1      26.542  29.889   0.764  1.00  0.00    -0.042 A 
ATOM      3  C   UNL     1      26.074  29.984   2.083  1.00  0.00     0.008 A 
ATOM      4  C   UNL     1      26.064  28.859   2.910  1.00  0.00     0.050 A 
ATOM      5  C   UNL     1      26.532  27.626   2.432  1.00  0.00     0.157 A 
ATOM      6  C   UNL     1      27.019  28.656   0.290  1.00  0.00     0.054 A 
ATOM      7  C   UNL     1      27.012  27.526   1.115  1.00  0.00     0.157 A 
BRANCH   5   8
ATOM      8  O   UNL     1      26.521  26.504   3.260  1.00  0.00    -0.504 OA
ATOM      9  H   UNL     1      26.085  26.523   4.174  1.00  0.00     0.293 HD
ENDBRANCH   5   8
BRANCH   7  10
ATOM     10  O   UNL     1      27.488  26.316   0.611  1.00  0.00    -0.504 OA
ATOM     11  H   UNL     1      27.699  26.188  -0.371  1.00  0.00     0.293 HD
ENDBRANCH   7  10
ENDBRANCH   1   2
BRANCH   1  12
ATOM     12  C   UNL     1      27.972  31.749  -0.125  1.00  0.00     0.161 C 
BRANCH  12  13
ATOM     13  O   UNL     1      27.879  33.148  -0.125  1.00  0.00    -0.396 OA
ATOM     14  H   UNL     1      28.446  33.470  -0.874  1.00  0.00     0.210 HD
ENDBRANCH  12  13
ENDBRANCH   1  12
TORSDOF 5
ENDMDL
MODEL 3
REMARK VINA RESULT:    -2.421      1.791      4.499
REMARK INTER + INTRA:          -2.969
REMARK INTER:                  -2.923
REMARK INTRA:                  -0.046
REMARK UNBOUND:                -0.053
REMARK SMILES OCCc1ccc(O)c(O)c1
REMARK SMILES IDX 3 1 4 2 5 3 6 4 7 5 11 6 9 7 8 8 10 10 2 12 1 13
REMARK H PARENT 8 9 10 11 1 14
REMARK Flexibility Score: inf
ROOT
ATOM      1  C   UNL     1      26.831  25.428   2.376  1.00  0.00     0.064 C 
ENDROOT
BRANCH   1   2
ATOM      2  C   UNL     1      26.793  26.878   1.966  1.00  0.00    -0.042 A 
ATOM      3  C   UNL     1      27.534  27.324   0.862  1.00  0.00     0.008 A 
ATOM      4  C   UNL     1      27.518  28.673   0.501  1.00  0.00     0.050 A 
ATOM      5  C   UNL     1      26.771  29.596   1.246  1.00  0.00     0.157 A 
ATOM      6  C   UNL     1      26.053  27.805   2.718  1.00  0.00     0.054 A 
ATOM      7  C   UNL     1      26.035  29.158   2.361  1.00  0.00     0.157 A 
BRANCH   5   8
ATOM      8  O   UNL     1      26.757  30.942   0.884  1.00  0.00    -0.504 OA
ATOM      9  H   UNL     1      27.609  31.436   0.645  1.00  0.00     0.293 HD
ENDBRANCH   5   8
BRANCH   7  10
ATOM     10  O   UNL     1      25.285  30.051   3.126  1.00  0.00    -0.504 OA
ATOM     11  H   UNL     1      24.300  30.211   2.954  1.00  0.00     0.293 HD
ENDBRANCH   7  10
ENDBRANCH   1   2
BRANCH   1  12
ATOM     12  C   UNL     1      26.071  24.548   1.379  1.00  0.00     0.161 C 
BRANCH  12  13
ATOM     13  O   UNL     1      24.859  25.145   1.005  1.00  0.00    -0.396 OA
ATOM     14  H   UNL     1      24.136  24.596   1.408  1.00  0.00     0.210 HD
ENDBRANCH  12  13
ENDBRANCH   1  12
TORSDOF 5
ENDMDL
MODEL 4
REMARK VINA RESULT:    -2.291      1.897      4.701
REMARK INTER + INTRA:          -2.812
REMARK INTER:                  -2.733
REMARK INTRA:                  -0.080
REMARK UNBOUND:                -0.053
REMARK SMILES OCCc1ccc(O)c(O)c1
REMARK SMILES IDX 3 1 4 2 5 3 6 4 7 5 11 6 9 7 8 8 10 10 2 12 1 13
REMARK H PARENT 8 9 10 11 1 14
REMARK Flexibility Score: inf
ROOT
ATOM      1  C   UNL     1      26.506  26.122   2.322  1.00  0.00     0.064 C 
ENDROOT
BRANCH   1   2
ATOM      2  C   UNL     1      26.807  27.492   1.771  1.00  0.00    -0.042 A 
ATOM      3  C   UNL     1      26.800  27.717   0.386  1.00  0.00     0.008 A 
ATOM      4  C   UNL     1      27.106  28.980  -0.124  1.00  0.00     0.050 A 
ATOM      5  C   UNL     1      27.433  30.033   0.743  1.00  0.00     0.157 A 
ATOM      6  C   UNL     1      27.145  28.544   2.637  1.00  0.00     0.054 A 
ATOM      7  C   UNL     1      27.453  29.811   2.131  1.00  0.00     0.157 A 
BRANCH   5   8
ATOM      8  O   UNL     1      27.738  31.293   0.231  1.00  0.00    -0.504 OA
ATOM      9  H   UNL     1      28.438  31.418  -0.491  1.00  0.00     0.293 HD
ENDBRANCH   5   8
BRANCH   7  10
ATOM     10  O   UNL     1      27.779  30.836   3.020  1.00  0.00    -0.504 OA
ATOM     11  H   UNL     1      27.540  31.803   2.836  1.00  0.00     0.293 HD
ENDBRANCH   7  10
ENDBRANCH   1   2
BRANCH   1  12
ATOM     12  C   UNL     1      25.644  25.308   1.353  1.00  0.00     0.161 C 
BRANCH  12  13
ATOM     13  O   UNL     1      26.032  23.961   1.346  1.00  0.00    -0.396 OA
ATOM     14  H   UNL     1      26.997  23.942   1.579  1.00  0.00     0.210 HD
ENDBRANCH  12  13
ENDBRANCH   1  12
TORSDOF 5
ENDMDL
MODEL 5
REMARK VINA RESULT:    -2.030      2.132      4.921
REMARK INTER + INTRA:          -2.498
REMARK INTER:                  -2.429
REMARK INTRA:                  -0.069
REMARK UNBOUND:                -0.053
REMARK SMILES OCCc1ccc(O)c(O)c1
REMARK SMILES IDX 3 1 4 2 5 3 6 4 7 5 11 6 9 7 8 8 10 10 2 12 1 13
REMARK H PARENT 8 9 10 11 1 14
REMARK Flexibility Score: inf
ROOT
ATOM      1  C   UNL     1      26.681  25.353   2.543  1.00  0.00     0.064 C 
ENDROOT
BRANCH   1   2
ATOM      2  C   UNL     1      26.696  26.844   2.323  1.00  0.00    -0.042 A 
ATOM      3  C   UNL     1      26.006  27.698   3.197  1.00  0.00     0.008 A 
ATOM      4  C   UNL     1      25.999  29.077   2.975  1.00  0.00     0.050 A 
ATOM      5  C   UNL     1      26.673  29.620   1.872  1.00  0.00     0.157 A 
ATOM      6  C   UNL     1      27.362  27.388   1.213  1.00  0.00     0.054 A 
ATOM      7  C   UNL     1      27.358  28.768   0.987  1.00  0.00     0.157 A 
BRANCH   5   8
ATOM      8  O   UNL     1      26.665  30.996   1.653  1.00  0.00    -0.504 OA
ATOM      9  H   UNL     1      26.872  31.653   2.395  1.00  0.00     0.293 HD
ENDBRANCH   5   8
BRANCH   7  10
ATOM     10  O   UNL     1      28.034  29.276  -0.123  1.00  0.00    -0.504 OA
ATOM     11  H   UNL     1      27.629  29.985  -0.721  1.00  0.00     0.293 HD
ENDBRANCH   7  10
ENDBRANCH   1   2
BRANCH   1  12
ATOM     12  C   UNL     1      26.081  24.619   1.340  1.00  0.00     0.161 C 
BRANCH  12  13
ATOM     13  O   UNL     1      24.830  25.153   1.000  1.00  0.00    -0.396 OA
ATOM     14  H   UNL     1      24.330  25.270   1.850  1.00  0.00     0.210 HD
ENDBRANCH  12  13
ENDBRANCH   1  12
TORSDOF 5
ENDMDL
MODEL 6
REMARK VINA RESULT:    -1.978      1.847      4.589
REMARK INTER + INTRA:          -2.435
REMARK INTER:                  -2.352
REMARK INTRA:                  -0.083
REMARK UNBOUND:                -0.053
REMARK SMILES OCCc1ccc(O)c(O)c1
REMARK SMILES IDX 3 1 4 2 5 3 6 4 7 5 11 6 9 7 8 8 10 10 2 12 1 13
REMARK H PARENT 8 9 10 11 1 14
REMARK Flexibility Score: inf
ROOT
ATOM      1  C   UNL     1      26.394  27.059   2.902  1.00  0.00     0.064 C 
ENDROOT
BRANCH   1   2
ATOM      2  C   UNL     1      26.935  28.232   2.126  1.00  0.00    -0.042 A 
ATOM      3  C   UNL     1      28.315  28.478   2.082  1.00  0.00     0.008 A 
ATOM      4  C   UNL     1      28.812  29.582   1.385  1.00  0.00     0.050 A 
ATOM      5  C   UNL     1      27.936  30.460   0.731  1.00  0.00     0.157 A 
ATOM      6  C   UNL     1      26.057  29.118   1.480  1.00  0.00     0.054 A 
ATOM      7  C   UNL     1      26.550  30.225   0.781  1.00  0.00     0.157 A 
BRANCH   5   8
ATOM      8  O   UNL     1      28.434  31.560   0.037  1.00  0.00    -0.504 OA
ATOM      9  H   UNL     1      28.722  31.491  -0.932  1.00  0.00     0.293 HD
ENDBRANCH   5   8
BRANCH   7  10
ATOM     10  O   UNL     1      25.651  31.081   0.145  1.00  0.00    -0.504 OA
ATOM     11  H   UNL     1      25.837  32.070   0.035  1.00  0.00     0.293 HD
ENDBRANCH   7  10
ENDBRANCH   1   2
BRANCH   1  12
ATOM     12  C   UNL     1      26.506  25.760   2.098  1.00  0.00     0.161 C 
BRANCH  12  13
ATOM     13  O   UNL     1      25.321  25.502   1.393  1.00  0.00    -0.396 OA
ATOM     14  H   UNL     1      24.991  24.620   1.707  1.00  0.00     0.210 HD
ENDBRANCH  12  13
ENDBRANCH   1  12
TORSDOF 5
ENDMDL
