MODEL 1
REMARK VINA RESULT:    -5.733      0.000      0.000
REMARK INTER + INTRA:          -6.068
REMARK INTER:                  -6.068
REMARK INTRA:                   0.000
REMARK UNBOUND:                 0.000
REMARK SMILES O=c1ccc2cc(O)c(O)cc2o1
REMARK SMILES IDX 4 1 3 2 2 3 1 4 13 5 12 6 11 7 9 8 7 9 6 10 5 11 8 12 10 14
REMARK H PARENT 8 13 10 15
REMARK Flexibility Score: inf
ROOT
ATOM      1  C   UNL     1       0.001   9.442   1.125  1.00  0.00     0.019 A 
ATOM      2  C   UNL     1       1.134   8.627   1.111  1.00  0.00     0.094 A 
ATOM      3  C   UNL     1       1.004   7.292   0.715  1.00  0.00     0.336 A 
ATOM      4  O   UNL     1       2.014   6.540   0.695  1.00  0.00    -0.246 OA
ATOM      5  O   UNL     1      -0.184   6.808   0.358  1.00  0.00    -0.423 OA
ATOM      6  C   UNL     1      -1.289   7.549   0.358  1.00  0.00     0.142 A 
ATOM      7  C   UNL     1      -2.510   6.986  -0.026  1.00  0.00     0.098 A 
ATOM      8  C   UNL     1      -3.677   7.764  -0.029  1.00  0.00     0.161 A 
ATOM      9  C   UNL     1      -3.623   9.112   0.356  1.00  0.00     0.158 A 
ATOM     10  C   UNL     1      -2.400   9.682   0.743  1.00  0.00     0.062 A 
ATOM     11  C   UNL     1      -1.233   8.906   0.745  1.00  0.00     0.022 A 
ENDROOT
BRANCH   9  12
ATOM     12  O   UNL     1      -4.786   9.877   0.351  1.00  0.00    -0.504 OA
ATOM     13  H   UNL     1      -4.767  10.874   0.536  1.00  0.00     0.293 HD
ENDBRANCH   9  12
BRANCH   8  14
ATOM     14  O   UNL     1      -4.894   7.205  -0.411  1.00  0.00    -0.504 OA
ATOM     15  H   UNL     1      -4.997   6.704  -1.286  1.00  0.00     0.293 HD
ENDBRANCH   8  14
TORSDOF 2
ENDMDL
MODEL 2
REMARK VINA RESULT:    -5.519      1.355      2.345
REMARK INTER + INTRA:          -5.842
REMARK INTER:                  -5.842
REMARK INTRA:                   0.000
REMARK UNBOUND:                 0.000
REMARK SMILES O=c1ccc2cc(O)c(O)cc2o1
REMARK SMILES IDX 4 1 3 2 2 3 1 4 13 5 12 6 11 7 9 8 7 9 6 10 5 11 8 12 10 14
REMARK H PARENT 8 13 10 15
REMARK Flexibility Score: inf
ROOT
ATOM      1  C   UNL     1      -0.267   7.113   0.417  1.00  0.00     0.019 A 
ATOM      2  C   UNL     1       0.864   7.824   0.821  1.00  0.00     0.094 A 
ATOM      3  C   UNL     1       0.723   9.163   1.200  1.00  0.00     0.336 A 
ATOM      4  O   UNL     1       1.730   9.822   1.569  1.00  0.00    -0.246 OA
ATOM      5  O   UNL     1      -0.473   9.748   1.173  1.00  0.00    -0.423 OA
ATOM      6  C   UNL     1      -1.575   9.108   0.794  1.00  0.00     0.142 A 
ATOM      7  C   UNL     1      -2.804   9.774   0.785  1.00  0.00     0.098 A 
ATOM      8  C   UNL     1      -3.969   9.103   0.386  1.00  0.00     0.161 A 
ATOM      9  C   UNL     1      -3.905   7.758  -0.007  1.00  0.00     0.158 A 
ATOM     10  C   UNL     1      -2.674   7.084  -0.001  1.00  0.00     0.062 A 
ATOM     11  C   UNL     1      -1.509   7.754   0.398  1.00  0.00     0.022 A 
ENDROOT
BRANCH   9  12
ATOM     12  O   UNL     1      -5.066   7.100  -0.402  1.00  0.00    -0.504 OA
ATOM     13  H   UNL     1      -5.175   6.733  -1.341  1.00  0.00     0.293 HD
ENDBRANCH   9  12
BRANCH   8  14
ATOM     14  O   UNL     1      -5.195   9.766   0.377  1.00  0.00    -0.504 OA
ATOM     15  H   UNL     1      -5.419  10.478   1.062  1.00  0.00     0.293 HD
ENDBRANCH   8  14
TORSDOF 2
ENDMDL
MODEL 3
REMARK VINA RESULT:    -5.491      1.311      5.020
REMARK INTER + INTRA:          -5.812
REMARK INTER:                  -5.812
REMARK INTRA:                   0.000
REMARK UNBOUND:                 0.000
REMARK SMILES O=c1ccc2cc(O)c(O)cc2o1
REMARK SMILES IDX 4 1 3 2 2 3 1 4 13 5 12 6 11 7 9 8 7 9 6 10 5 11 8 12 10 14
REMARK H PARENT 8 13 10 15
REMARK Flexibility Score: inf
ROOT
ATOM      1  C   UNL     1      -3.012   6.921  -0.030  1.00  0.00     0.019 A 
ATOM      2  C   UNL     1      -4.279   7.504  -0.036  1.00  0.00     0.094 A 
ATOM      3  C   UNL     1      -4.414   8.837   0.366  1.00  0.00     0.336 A 
ATOM      4  O   UNL     1      -5.549   9.382   0.368  1.00  0.00    -0.246 OA
ATOM      5  O   UNL     1      -3.348   9.537   0.749  1.00  0.00    -0.423 OA
ATOM      6  C   UNL     1      -2.122   9.020   0.770  1.00  0.00     0.142 A 
ATOM      7  C   UNL     1      -1.039   9.802   1.182  1.00  0.00     0.098 A 
ATOM      8  C   UNL     1       0.255   9.262   1.205  1.00  0.00     0.161 A 
ATOM      9  C   UNL     1       0.466   7.932   0.815  1.00  0.00     0.158 A 
ATOM     10  C   UNL     1      -0.616   7.141   0.402  1.00  0.00     0.062 A 
ATOM     11  C   UNL     1      -1.910   7.680   0.377  1.00  0.00     0.022 A 
ENDROOT
BRANCH   9  12
ATOM     12  O   UNL     1       1.755   7.403   0.842  1.00  0.00    -0.504 OA
ATOM     13  H   UNL     1       2.524   7.899   1.278  1.00  0.00     0.293 HD
ENDBRANCH   9  12
BRANCH   8  14
ATOM     14  O   UNL     1       1.335  10.041   1.616  1.00  0.00    -0.504 OA
ATOM     15  H   UNL     1       1.721   9.962   2.549  1.00  0.00     0.293 HD
ENDBRANCH   8  14
TORSDOF 2
ENDMDL
MODEL 4
REMARK VINA RESULT:    -5.483      7.530      8.927
REMARK INTER + INTRA:          -5.804
REMARK INTER:                  -5.804
REMARK INTRA:                   0.000
REMARK UNBOUND:                 0.000
REMARK SMILES O=c1ccc2cc(O)c(O)cc2o1
REMARK SMILES IDX 4 1 3 2 2 3 1 4 13 5 12 6 11 7 9 8 7 9 6 10 5 11 8 12 10 14
REMARK H PARENT 8 13 10 15
REMARK Flexibility Score: inf
ROOT
ATOM      1  C   UNL     1       1.943   0.140  -1.654  1.00  0.00     0.019 A 
ATOM      2  C   UNL     1       2.226  -1.187  -1.980  1.00  0.00     0.094 A 
ATOM      3  C   UNL     1       1.832  -2.200  -1.099  1.00  0.00     0.336 A 
ATOM      4  O   UNL     1       2.077  -3.404  -1.375  1.00  0.00    -0.246 OA
ATOM      5  O   UNL     1       1.198  -1.900   0.032  1.00  0.00    -0.423 OA
ATOM      6  C   UNL     1       0.909  -0.649   0.381  1.00  0.00     0.142 A 
ATOM      7  C   UNL     1       0.242  -0.394   1.583  1.00  0.00     0.098 A 
ATOM      8  C   UNL     1      -0.065   0.923   1.955  1.00  0.00     0.161 A 
ATOM      9  C   UNL     1       0.299   1.990   1.122  1.00  0.00     0.158 A 
ATOM     10  C   UNL     1       0.970   1.741  -0.085  1.00  0.00     0.062 A 
ATOM     11  C   UNL     1       1.276   0.425  -0.459  1.00  0.00     0.022 A 
ENDROOT
BRANCH   9  12
ATOM     12  O   UNL     1      -0.008   3.295   1.499  1.00  0.00    -0.504 OA
ATOM     13  H   UNL     1      -0.633   3.491   2.273  1.00  0.00     0.293 HD
ENDBRANCH   9  12
BRANCH   8  14
ATOM     14  O   UNL     1      -0.730   1.179   3.153  1.00  0.00    -0.504 OA
ATOM     15  H   UNL     1      -0.450   0.737   4.020  1.00  0.00     0.293 HD
ENDBRANCH   8  14
TORSDOF 2
ENDMDL
MODEL 5
REMARK VINA RESULT:    -5.409      9.146      9.799
REMARK INTER + INTRA:          -5.725
REMARK INTER:                  -5.725
REMARK INTRA:                   0.000
REMARK UNBOUND:                 0.000
REMARK SMILES O=c1ccc2cc(O)c(O)cc2o1
REMARK SMILES IDX 4 1 3 2 2 3 1 4 13 5 12 6 11 7 9 8 7 9 6 10 5 11 8 12 10 14
REMARK H PARENT 8 13 10 15
REMARK Flexibility Score: inf
ROOT
ATOM      1  C   UNL     1      -0.942  -1.122  -0.206  1.00  0.00     0.019 A 
ATOM      2  C   UNL     1      -0.846  -1.048   1.184  1.00  0.00     0.094 A 
ATOM      3  C   UNL     1       0.325  -0.541   1.757  1.00  0.00     0.336 A 
ATOM      4  O   UNL     1       0.431  -0.466   3.010  1.00  0.00    -0.246 OA
ATOM      5  O   UNL     1       1.331  -0.135   0.986  1.00  0.00    -0.423 OA
ATOM      6  C   UNL     1       1.282  -0.188  -0.342  1.00  0.00     0.142 A 
ATOM      7  C   UNL     1       2.370   0.252  -1.102  1.00  0.00     0.098 A 
ATOM      8  C   UNL     1       2.323   0.199  -2.502  1.00  0.00     0.161 A 
ATOM      9  C   UNL     1       1.180  -0.298  -3.147  1.00  0.00     0.158 A 
ATOM     10  C   UNL     1       0.085  -0.742  -2.391  1.00  0.00     0.062 A 
ATOM     11  C   UNL     1       0.131  -0.688  -0.991  1.00  0.00     0.022 A 
ENDROOT
BRANCH   9  12
ATOM     12  O   UNL     1       1.141  -0.348  -4.538  1.00  0.00    -0.504 OA
ATOM     13  H   UNL     1       1.085   0.495  -5.099  1.00  0.00     0.293 HD
ENDBRANCH   9  12
BRANCH   8  14
ATOM     14  O   UNL     1       3.407   0.637  -3.261  1.00  0.00    -0.504 OA
ATOM     15  H   UNL     1       3.328   1.424  -3.893  1.00  0.00     0.293 HD
ENDBRANCH   8  14
TORSDOF 2
ENDMDL
MODEL 6
REMARK VINA RESULT:    -5.309      7.471      9.377
REMARK INTER + INTRA:          -5.619
REMARK INTER:                  -5.619
REMARK INTRA:                   0.000
REMARK UNBOUND:                 0.000
REMARK SMILES O=c1ccc2cc(O)c(O)cc2o1
REMARK SMILES IDX 4 1 3 2 2 3 1 4 13 5 12 6 11 7 9 8 7 9 6 10 5 11 8 12 10 14
REMARK H PARENT 8 13 10 15
REMARK Flexibility Score: inf
ROOT
ATOM      1  C   UNL     1       0.745   2.149   0.310  1.00  0.00     0.019 A 
ATOM      2  C   UNL     1       0.069   2.214   1.529  1.00  0.00     0.094 A 
ATOM      3  C   UNL     1      -0.210   1.025   2.213  1.00  0.00     0.336 A 
ATOM      4  O   UNL     1      -0.818   1.062   3.315  1.00  0.00    -0.246 OA
ATOM      5  O   UNL     1       0.164  -0.147   1.706  1.00  0.00    -0.423 OA
ATOM      6  C   UNL     1       0.809  -0.254   0.547  1.00  0.00     0.142 A 
ATOM      7  C   UNL     1       1.176  -1.513   0.064  1.00  0.00     0.098 A 
ATOM      8  C   UNL     1       1.856  -1.631  -1.157  1.00  0.00     0.161 A 
ATOM      9  C   UNL     1       2.171  -0.482  -1.898  1.00  0.00     0.158 A 
ATOM     10  C   UNL     1       1.804   0.785  -1.419  1.00  0.00     0.062 A 
ATOM     11  C   UNL     1       1.125   0.903  -0.198  1.00  0.00     0.022 A 
ENDROOT
BRANCH   9  12
ATOM     12  O   UNL     1       2.846  -0.607  -3.110  1.00  0.00    -0.504 OA
ATOM     13  H   UNL     1       2.656  -1.373  -3.747  1.00  0.00     0.293 HD
ENDBRANCH   9  12
BRANCH   8  14
ATOM     14  O   UNL     1       2.223  -2.885  -1.641  1.00  0.00    -0.504 OA
ATOM     15  H   UNL     1       1.697  -3.345  -2.375  1.00  0.00     0.293 HD
ENDBRANCH   8  14
TORSDOF 2
ENDMDL
MODEL 7
REMARK VINA RESULT:    -5.215      7.462      9.436
REMARK INTER + INTRA:          -5.520
REMARK INTER:                  -5.520
REMARK INTRA:                   0.000
REMARK UNBOUND:                 0.000
REMARK SMILES O=c1ccc2cc(O)c(O)cc2o1
REMARK SMILES IDX 4 1 3 2 2 3 1 4 13 5 12 6 11 7 9 8 7 9 6 10 5 11 8 12 10 14
REMARK H PARENT 8 13 10 15
REMARK Flexibility Score: inf
ROOT
ATOM      1  C   UNL     1       0.184  -0.738   2.027  1.00  0.00     0.019 A 
ATOM      2  C   UNL     1      -0.360   0.355   2.704  1.00  0.00     0.094 A 
ATOM      3  C   UNL     1      -0.387   1.600   2.067  1.00  0.00     0.336 A 
ATOM      4  O   UNL     1      -0.874   2.599   2.660  1.00  0.00    -0.246 OA
ATOM      5  O   UNL     1       0.099   1.738   0.835  1.00  0.00    -0.423 OA
ATOM      6  C   UNL     1       0.626   0.723   0.156  1.00  0.00     0.142 A 
ATOM      7  C   UNL     1       1.122   0.928  -1.135  1.00  0.00     0.098 A 
ATOM      8  C   UNL     1       1.679  -0.139  -1.856  1.00  0.00     0.161 A 
ATOM      9  C   UNL     1       1.740  -1.417  -1.281  1.00  0.00     0.158 A 
ATOM     10  C   UNL     1       1.245  -1.628   0.014  1.00  0.00     0.062 A 
ATOM     11  C   UNL     1       0.687  -0.563   0.735  1.00  0.00     0.022 A 
ENDROOT
BRANCH   9  12
ATOM     12  O   UNL     1       2.295  -2.471  -2.003  1.00  0.00    -0.504 OA
ATOM     13  H   UNL     1       2.326  -2.462  -3.017  1.00  0.00     0.293 HD
ENDBRANCH   9  12
BRANCH   8  14
ATOM     14  O   UNL     1       2.174   0.063  -3.143  1.00  0.00    -0.504 OA
ATOM     15  H   UNL     1       2.624  -0.682  -3.661  1.00  0.00     0.293 HD
ENDBRANCH   8  14
TORSDOF 2
ENDMDL
MODEL 8
REMARK VINA RESULT:    -4.985     12.333     13.898
REMARK INTER + INTRA:          -5.277
REMARK INTER:                  -5.277
REMARK INTRA:                   0.000
REMARK UNBOUND:                 0.000
REMARK SMILES O=c1ccc2cc(O)c(O)cc2o1
REMARK SMILES IDX 4 1 3 2 2 3 1 4 13 5 12 6 11 7 9 8 7 9 6 10 5 11 8 12 10 14
REMARK H PARENT 8 13 10 15
REMARK Flexibility Score: inf
ROOT
ATOM      1  C   UNL     1      -3.541   1.466  -9.082  1.00  0.00     0.019 A 
ATOM      2  C   UNL     1      -4.933   1.547  -9.123  1.00  0.00     0.094 A 
ATOM      3  C   UNL     1      -5.678   0.366  -9.226  1.00  0.00     0.336 A 
ATOM      4  O   UNL     1      -6.935   0.417  -9.265  1.00  0.00    -0.246 OA
ATOM      5  O   UNL     1      -5.065  -0.814  -9.283  1.00  0.00    -0.423 OA
ATOM      6  C   UNL     1      -3.740  -0.935  -9.247  1.00  0.00     0.142 A 
ATOM      7  C   UNL     1      -3.151  -2.202  -9.311  1.00  0.00     0.098 A 
ATOM      8  C   UNL     1      -1.756  -2.335  -9.273  1.00  0.00     0.161 A 
ATOM      9  C   UNL     1      -0.945  -1.195  -9.171  1.00  0.00     0.158 A 
ATOM     10  C   UNL     1      -1.530   0.078  -9.107  1.00  0.00     0.062 A 
ATOM     11  C   UNL     1      -2.925   0.213  -9.144  1.00  0.00     0.022 A 
ENDROOT
BRANCH   9  12
ATOM     12  O   UNL     1       0.440  -1.336  -9.134  1.00  0.00    -0.504 OA
ATOM     13  H   UNL     1       0.910  -1.758  -8.340  1.00  0.00     0.293 HD
ENDBRANCH   9  12
BRANCH   8  14
ATOM     14  O   UNL     1      -1.167  -3.597  -9.338  1.00  0.00    -0.504 OA
ATOM     15  H   UNL     1      -0.256  -3.736  -9.758  1.00  0.00     0.293 HD
ENDBRANCH   8  14
TORSDOF 2
ENDMDL
MODEL 9
REMARK VINA RESULT:    -4.982      1.161      4.514
REMARK INTER + INTRA:          -5.273
REMARK INTER:                  -5.273
REMARK INTRA:                   0.000
REMARK UNBOUND:                 0.000
REMARK SMILES O=c1ccc2cc(O)c(O)cc2o1
REMARK SMILES IDX 4 1 3 2 2 3 1 4 13 5 12 6 11 7 9 8 7 9 6 10 5 11 8 12 10 14
REMARK H PARENT 8 13 10 15
REMARK Flexibility Score: inf
ROOT
ATOM      1  C   UNL     1      -2.900  10.125   0.753  1.00  0.00     0.019 A 
ATOM      2  C   UNL     1      -4.123   9.581   0.360  1.00  0.00     0.094 A 
ATOM      3  C   UNL     1      -4.180   8.228   0.007  1.00  0.00     0.336 A 
ATOM      4  O   UNL     1      -5.275   7.717  -0.351  1.00  0.00    -0.246 OA
ATOM      5  O   UNL     1      -3.084   7.474   0.045  1.00  0.00    -0.423 OA
ATOM      6  C   UNL     1      -1.899   7.953   0.413  1.00  0.00     0.142 A 
ATOM      7  C   UNL     1      -0.780   7.114   0.434  1.00  0.00     0.098 A 
ATOM      8  C   UNL     1       0.471   7.615   0.822  1.00  0.00     0.161 A 
ATOM      9  C   UNL     1       0.605   8.962   1.190  1.00  0.00     0.158 A 
ATOM     10  C   UNL     1      -0.513   9.809   1.170  1.00  0.00     0.062 A 
ATOM     11  C   UNL     1      -1.765   9.309   0.783  1.00  0.00     0.022 A 
ENDROOT
BRANCH   9  12
ATOM     12  O   UNL     1       1.852   9.450   1.573  1.00  0.00    -0.504 OA
ATOM     13  H   UNL     1       2.325   9.107   2.401  1.00  0.00     0.293 HD
ENDBRANCH   9  12
BRANCH   8  14
ATOM     14  O   UNL     1       1.587   6.780   0.843  1.00  0.00    -0.504 OA
ATOM     15  H   UNL     1       1.810   6.212   1.652  1.00  0.00     0.293 HD
ENDBRANCH   8  14
TORSDOF 2
ENDMDL
