MODEL 1
REMARK VINA RESULT:    -4.343      0.000      0.000
REMARK INTER + INTRA:          -6.794
REMARK INTER:                  -6.628
REMARK INTRA:                  -0.166
REMARK UNBOUND:                -0.166
REMARK SMILES CC1=CCC[C@@H](C)C(=O)C[C@H](C(C)C)C(=O)C1
REMARK SMILES IDX 8 1 9 2 6 3 7 4 5 5 4 6 3 7 2 8 1 9 10 11 11 12 15 13 16 14
REMARK SMILES IDX 17 15 12 17 13 18 14 19
REMARK H PARENT
REMARK Flexibility Score: 70.00
ROOT
ATOM      1  C   UNL     1      13.902  18.447  57.849  1.00  0.00     0.136 C 
ATOM      2  O   UNL     1      14.198  19.462  58.465  1.00  0.00    -0.299 OA
ENDROOT
BRANCH   1   3
ATOM      3  C   UNL     1      14.998  17.638  57.181  1.00  0.00     0.053 C 
ATOM      4  C   UNL     1      16.172  18.549  56.794  1.00  0.00     0.016 C 
BRANCH   3   5
ATOM      5  C   UNL     1      14.445  16.895  55.943  1.00  0.00     0.015 C 
BRANCH   5   6
ATOM      6  C   UNL     1      14.241  17.850  54.752  1.00  0.00     0.028 C 
BRANCH   6   7
ATOM      7  C   UNL     1      12.981  17.572  53.967  1.00  0.00    -0.028 C 
ATOM      8  C   UNL     1      11.793  18.206  54.128  1.00  0.00    -0.070 CG0
ATOM      9  C   UNL     1      10.621  17.710  53.317  1.00  0.00     0.039 C 
ATOM     10  G   UNL     1      11.593  19.414  55.036  1.00  0.00     0.000 G0
ENDBRANCH   6   7
ENDBRANCH   5   6
ENDBRANCH   3   5
ENDBRANCH   1   3
BRANCH   1  11
ATOM     11  C   UNL     1      12.452  18.020  57.797  1.00  0.00     0.087 C 
BRANCH  11  12
ATOM     12  C   UNL     1      11.494  19.233  57.643  1.00  0.00     0.066 C 
BRANCH  12  13
ATOM     13  C   UNL     1      10.807  19.166  56.287  1.00  0.00     0.140 C 
ATOM     14  O   UNL     1       9.606  18.938  56.220  1.00  0.00    -0.299 OA
BRANCH  13  15
ATOM     15  C   UNL     1      11.593  19.430  55.026  1.00  0.00     0.106 CG0
ATOM     16  G   UNL     1      11.793  18.200  54.150  1.00  0.00     0.000 G0
ENDBRANCH  13  15
ENDBRANCH  12  13
BRANCH  12  17
ATOM     17  C   UNL     1      10.450  19.343  58.803  1.00  0.00    -0.006 C 
ATOM     18  C   UNL     1      10.859  18.532  60.046  1.00  0.00     0.008 C 
ATOM     19  C   UNL     1      10.242  20.812  59.222  1.00  0.00     0.008 C 
ENDBRANCH  12  17
ENDBRANCH  11  12
ENDBRANCH   1  11
TORSDOF 1
ENDMDL
MODEL 2
REMARK VINA RESULT:    -3.951      1.910      4.330
REMARK INTER + INTRA:          -6.196
REMARK INTER:                  -6.164
REMARK INTRA:                  -0.032
REMARK UNBOUND:                -0.166
REMARK SMILES CC1=CCC[C@@H](C)C(=O)C[C@H](C(C)C)C(=O)C1
REMARK SMILES IDX 8 1 9 2 6 3 7 4 5 5 4 6 3 7 2 8 1 9 10 11 11 12 15 13 16 14
REMARK SMILES IDX 17 15 12 17 13 18 14 19
REMARK H PARENT
REMARK Flexibility Score: 70.00
ROOT
ATOM      1  C   UNL     1       9.327  20.707  57.893  1.00  0.00     0.136 C 
ATOM      2  O   UNL     1       8.184  20.268  57.871  1.00  0.00    -0.299 OA
ENDROOT
BRANCH   1   3
ATOM      3  C   UNL     1       9.732  21.771  56.891  1.00  0.00     0.053 C 
ATOM      4  C   UNL     1       8.743  22.944  56.929  1.00  0.00     0.016 C 
BRANCH   3   5
ATOM      5  C   UNL     1       9.820  21.169  55.469  1.00  0.00     0.015 C 
BRANCH   5   6
ATOM      6  C   UNL     1      10.215  19.681  55.506  1.00  0.00     0.028 C 
BRANCH   6   7
ATOM      7  C   UNL     1      11.703  19.452  55.396  1.00  0.00    -0.028 C 
ATOM      8  C   UNL     1      12.429  18.591  56.152  1.00  0.00    -0.070 CG0
ATOM      9  C   UNL     1      13.926  18.582  55.958  1.00  0.00     0.039 C 
ATOM     10  G   UNL     1      11.815  17.605  57.138  1.00  0.00     0.000 G0
ENDBRANCH   6   7
ENDBRANCH   5   6
ENDBRANCH   3   5
ENDBRANCH   1   3
BRANCH   1  11
ATOM     11  C   UNL     1      10.289  20.191  58.940  1.00  0.00     0.087 C 
BRANCH  11  12
ATOM     12  C   UNL     1      10.301  18.638  59.002  1.00  0.00     0.066 C 
BRANCH  12  13
ATOM     13  C   UNL     1      11.662  18.126  58.553  1.00  0.00     0.140 C 
ATOM     14  O   UNL     1      12.601  18.116  59.338  1.00  0.00    -0.299 OA
BRANCH  13  15
ATOM     15  C   UNL     1      11.843  17.583  57.156  1.00  0.00     0.106 CG0
ATOM     16  G   UNL     1      12.432  18.585  56.172  1.00  0.00     0.000 G0
ENDBRANCH  13  15
ENDBRANCH  12  13
BRANCH  12  17
ATOM     17  C   UNL     1       9.920  18.076  60.411  1.00  0.00    -0.006 C 
ATOM     18  C   UNL     1      10.216  19.073  61.546  1.00  0.00     0.008 C 
ATOM     19  C   UNL     1       8.428  17.695  60.469  1.00  0.00     0.008 C 
ENDBRANCH  12  17
ENDBRANCH  11  12
ENDBRANCH   1  11
TORSDOF 1
ENDMDL
MODEL 3
REMARK VINA RESULT:    -3.871      1.837      4.380
REMARK INTER + INTRA:          -6.074
REMARK INTER:                  -5.753
REMARK INTRA:                  -0.322
REMARK UNBOUND:                -0.166
REMARK SMILES CC1=CCC[C@@H](C)C(=O)C[C@H](C(C)C)C(=O)C1
REMARK SMILES IDX 8 1 9 2 6 3 7 4 5 5 4 6 3 7 2 8 1 9 10 11 11 12 15 13 16 14
REMARK SMILES IDX 17 15 12 17 13 18 14 19
REMARK H PARENT
REMARK Flexibility Score: 70.00
ROOT
ATOM      1  C   UNL     1      11.680  18.881  59.332  1.00  0.00     0.136 C 
ATOM      2  O   UNL     1      12.283  18.086  60.041  1.00  0.00    -0.299 OA
ENDROOT
BRANCH   1   3
ATOM      3  C   UNL     1      10.282  19.315  59.726  1.00  0.00     0.053 C 
ATOM      4  C   UNL     1      10.319  20.106  61.040  1.00  0.00     0.016 C 
BRANCH   3   5
ATOM      5  C   UNL     1       9.347  18.089  59.845  1.00  0.00     0.015 C 
BRANCH   5   6
ATOM      6  C   UNL     1       8.971  17.525  58.462  1.00  0.00     0.028 C 
BRANCH   6   7
ATOM      7  C   UNL     1       8.527  18.585  57.483  1.00  0.00    -0.028 C 
ATOM      8  C   UNL     1       9.125  18.867  56.298  1.00  0.00    -0.070 CG0
ATOM      9  C   UNL     1       8.592  20.037  55.507  1.00  0.00     0.039 C 
ATOM     10  G   UNL     1      10.261  18.043  55.705  1.00  0.00     0.000 G0
ENDBRANCH   6   7
ENDBRANCH   5   6
ENDBRANCH   3   5
ENDBRANCH   1   3
BRANCH   1  11
ATOM     11  C   UNL     1      12.365  19.422  58.096  1.00  0.00     0.087 C 
BRANCH  11  12
ATOM     12  C   UNL     1      12.521  18.337  56.995  1.00  0.00     0.066 C 
BRANCH  12  13
ATOM     13  C   UNL     1      11.621  18.680  55.817  1.00  0.00     0.140 C 
ATOM     14  O   UNL     1      12.016  19.445  54.948  1.00  0.00    -0.299 OA
BRANCH  13  15
ATOM     15  C   UNL     1      10.260  18.038  55.692  1.00  0.00     0.106 CG0
ATOM     16  G   UNL     1       9.125  18.870  56.278  1.00  0.00     0.000 G0
ENDBRANCH  13  15
ENDBRANCH  12  13
BRANCH  12  17
ATOM     17  C   UNL     1      14.003  18.135  56.536  1.00  0.00    -0.006 C 
ATOM     18  C   UNL     1      14.967  17.940  57.721  1.00  0.00     0.008 C 
ATOM     19  C   UNL     1      14.129  16.920  55.596  1.00  0.00     0.008 C 
ENDBRANCH  12  17
ENDBRANCH  11  12
ENDBRANCH   1  11
TORSDOF 1
ENDMDL
MODEL 4
REMARK VINA RESULT:    -3.747      2.179      3.956
REMARK INTER + INTRA:          -5.885
REMARK INTER:                  -5.742
REMARK INTRA:                  -0.143
REMARK UNBOUND:                -0.166
REMARK SMILES CC1=CCC[C@@H](C)C(=O)C[C@H](C(C)C)C(=O)C1
REMARK SMILES IDX 8 1 9 2 6 3 7 4 5 5 4 6 3 7 2 8 1 9 10 11 11 12 15 13 16 14
REMARK SMILES IDX 17 15 12 17 13 18 14 19
REMARK H PARENT
REMARK Flexibility Score: 70.00
ROOT
ATOM      1  C   UNL     1      11.525  16.626  55.666  1.00  0.00     0.136 C 
ATOM      2  O   UNL     1      10.915  15.674  56.134  1.00  0.00    -0.299 OA
ENDROOT
BRANCH   1   3
ATOM      3  C   UNL     1      12.450  16.406  54.484  1.00  0.00     0.053 C 
ATOM      4  C   UNL     1      12.807  14.919  54.356  1.00  0.00     0.016 C 
BRANCH   3   5
ATOM      5  C   UNL     1      13.725  17.270  54.626  1.00  0.00     0.015 C 
BRANCH   5   6
ATOM      6  C   UNL     1      14.656  16.731  55.728  1.00  0.00     0.028 C 
BRANCH   6   7
ATOM      7  C   UNL     1      15.333  17.819  56.527  1.00  0.00    -0.028 C 
ATOM      8  C   UNL     1      14.902  18.313  57.715  1.00  0.00    -0.070 CG0
ATOM      9  C   UNL     1      15.662  19.475  58.305  1.00  0.00     0.039 C 
ATOM     10  G   UNL     1      13.734  17.730  58.501  1.00  0.00     0.000 G0
ENDBRANCH   6   7
ENDBRANCH   5   6
ENDBRANCH   3   5
ENDBRANCH   1   3
BRANCH   1  11
ATOM     11  C   UNL     1      11.315  17.997  56.269  1.00  0.00     0.087 C 
BRANCH  11  12
ATOM     12  C   UNL     1      11.212  17.940  57.819  1.00  0.00     0.066 C 
BRANCH  12  13
ATOM     13  C   UNL     1      12.466  18.546  58.431  1.00  0.00     0.140 C 
ATOM     14  O   UNL     1      12.433  19.675  58.902  1.00  0.00    -0.299 OA
BRANCH  13  15
ATOM     15  C   UNL     1      13.738  17.737  58.505  1.00  0.00     0.106 CG0
ATOM     16  G   UNL     1      14.897  18.328  57.712  1.00  0.00     0.000 G0
ENDBRANCH  13  15
ENDBRANCH  12  13
BRANCH  12  17
ATOM     17  C   UNL     1       9.921  18.628  58.374  1.00  0.00    -0.006 C 
ATOM     18  C   UNL     1       9.173  19.438  57.300  1.00  0.00     0.008 C 
ATOM     19  C   UNL     1       8.951  17.586  58.966  1.00  0.00     0.008 C 
ENDBRANCH  12  17
ENDBRANCH  11  12
ENDBRANCH   1  11
TORSDOF 1
ENDMDL
MODEL 5
REMARK VINA RESULT:    -3.717      2.157      5.270
REMARK INTER + INTRA:          -5.838
REMARK INTER:                  -5.987
REMARK INTRA:                   0.149
REMARK UNBOUND:                -0.166
REMARK SMILES CC1=CCC[C@@H](C)C(=O)C[C@H](C(C)C)C(=O)C1
REMARK SMILES IDX 8 1 9 2 6 3 7 4 5 5 4 6 3 7 2 8 1 9 10 11 11 12 15 13 16 14
REMARK SMILES IDX 17 15 12 17 13 18 14 19
REMARK H PARENT
REMARK Flexibility Score: 70.00
ROOT
ATOM      1  C   UNL     1      11.182  17.911  56.572  1.00  0.00     0.136 C 
ATOM      2  O   UNL     1      10.701  18.640  55.714  1.00  0.00    -0.299 OA
ENDROOT
BRANCH   1   3
ATOM      3  C   UNL     1      10.874  18.180  58.032  1.00  0.00     0.053 C 
ATOM      4  C   UNL     1       9.472  18.786  58.179  1.00  0.00     0.016 C 
BRANCH   3   5
ATOM      5  C   UNL     1      11.945  19.111  58.649  1.00  0.00     0.015 C 
BRANCH   5   6
ATOM      6  C   UNL     1      13.188  18.323  59.102  1.00  0.00     0.028 C 
BRANCH   6   7
ATOM      7  C   UNL     1      14.486  18.908  58.600  1.00  0.00    -0.028 C 
ATOM      8  C   UNL     1      15.238  18.413  57.585  1.00  0.00    -0.070 CG0
ATOM      9  C   UNL     1      16.559  19.083  57.303  1.00  0.00     0.039 C 
ATOM     10  G   UNL     1      14.798  17.259  56.692  1.00  0.00     0.000 G0
ENDBRANCH   6   7
ENDBRANCH   5   6
ENDBRANCH   3   5
ENDBRANCH   1   3
BRANCH   1  11
ATOM     11  C   UNL     1      12.048  16.748  56.141  1.00  0.00     0.087 C 
BRANCH  11  12
ATOM     12  C   UNL     1      12.910  17.095  54.896  1.00  0.00     0.066 C 
BRANCH  12  13
ATOM     13  C   UNL     1      14.255  17.642  55.350  1.00  0.00     0.140 C 
ATOM     14  O   UNL     1      14.865  18.432  54.641  1.00  0.00    -0.299 OA
BRANCH  13  15
ATOM     15  C   UNL     1      14.816  17.250  56.695  1.00  0.00     0.106 CG0
ATOM     16  G   UNL     1      15.217  18.433  57.569  1.00  0.00     0.000 G0
ENDBRANCH  13  15
ENDBRANCH  12  13
BRANCH  12  17
ATOM     17  C   UNL     1      13.089  15.888  53.916  1.00  0.00    -0.006 C 
ATOM     18  C   UNL     1      11.889  14.924  53.939  1.00  0.00     0.008 C 
ATOM     19  C   UNL     1      13.298  16.378  52.470  1.00  0.00     0.008 C 
ENDBRANCH  12  17
ENDBRANCH  11  12
ENDBRANCH   1  11
TORSDOF 1
ENDMDL
MODEL 6
REMARK VINA RESULT:    -3.691      1.907      4.183
REMARK INTER + INTRA:          -5.800
REMARK INTER:                  -5.439
REMARK INTRA:                  -0.360
REMARK UNBOUND:                -0.166
REMARK SMILES CC1=CCC[C@@H](C)C(=O)C[C@H](C(C)C)C(=O)C1
REMARK SMILES IDX 8 1 9 2 6 3 7 4 5 5 4 6 3 7 2 8 1 9 10 11 11 12 15 13 16 14
REMARK SMILES IDX 17 15 12 17 13 18 14 19
REMARK H PARENT
REMARK Flexibility Score: 70.00
ROOT
ATOM      1  C   UNL     1      13.755  18.171  56.924  1.00  0.00     0.136 C 
ATOM      2  O   UNL     1      14.638  17.373  56.638  1.00  0.00    -0.299 OA
ENDROOT
BRANCH   1   3
ATOM      3  C   UNL     1      13.761  18.824  58.293  1.00  0.00     0.053 C 
ATOM      4  C   UNL     1      15.155  19.381  58.612  1.00  0.00     0.016 C 
BRANCH   3   5
ATOM      5  C   UNL     1      13.307  17.818  59.375  1.00  0.00     0.015 C 
BRANCH   5   6
ATOM      6  C   UNL     1      11.781  17.856  59.582  1.00  0.00     0.028 C 
BRANCH   6   7
ATOM      7  C   UNL     1      11.192  19.240  59.447  1.00  0.00    -0.028 C 
ATOM      8  C   UNL     1      10.268  19.620  58.529  1.00  0.00    -0.070 CG0
ATOM      9  C   UNL     1       9.882  21.078  58.489  1.00  0.00     0.039 C 
ATOM     10  G   UNL     1       9.570  18.653  57.580  1.00  0.00     0.000 G0
ENDBRANCH   6   7
ENDBRANCH   5   6
ENDBRANCH   3   5
ENDBRANCH   1   3
BRANCH   1  11
ATOM     11  C   UNL     1      12.702  18.498  55.889  1.00  0.00     0.087 C 
BRANCH  11  12
ATOM     12  C   UNL     1      11.429  17.623  56.060  1.00  0.00     0.066 C 
BRANCH  12  13
ATOM     13  C   UNL     1      10.214  18.525  56.222  1.00  0.00     0.140 C 
ATOM     14  O   UNL     1       9.748  19.105  55.250  1.00  0.00    -0.299 OA
BRANCH  13  15
ATOM     15  C   UNL     1       9.551  18.667  57.570  1.00  0.00     0.106 CG0
ATOM     16  G   UNL     1      10.264  19.626  58.516  1.00  0.00     0.000 G0
ENDBRANCH  13  15
ENDBRANCH  12  13
BRANCH  12  17
ATOM     17  C   UNL     1      11.224  16.602  54.893  1.00  0.00    -0.006 C 
ATOM     18  C   UNL     1      12.193  16.841  53.720  1.00  0.00     0.008 C 
ATOM     19  C   UNL     1      11.403  15.153  55.389  1.00  0.00     0.008 C 
ENDBRANCH  12  17
ENDBRANCH  11  12
ENDBRANCH   1  11
TORSDOF 1
ENDMDL
MODEL 7
REMARK VINA RESULT:    -3.684     10.686     12.403
REMARK INTER + INTRA:          -5.788
REMARK INTER:                  -5.567
REMARK INTRA:                  -0.221
REMARK UNBOUND:                -0.166
REMARK SMILES CC1=CCC[C@@H](C)C(=O)C[C@H](C(C)C)C(=O)C1
REMARK SMILES IDX 8 1 9 2 6 3 7 4 5 5 4 6 3 7 2 8 1 9 10 11 11 12 15 13 16 14
REMARK SMILES IDX 17 15 12 17 13 18 14 19
REMARK H PARENT
REMARK Flexibility Score: 70.00
ROOT
ATOM      1  C   UNL     1      17.906  11.349  52.302  1.00  0.00     0.136 C 
ATOM      2  O   UNL     1      16.848  11.666  51.774  1.00  0.00    -0.299 OA
ENDROOT
BRANCH   1   3
ATOM      3  C   UNL     1      19.210  11.825  51.692  1.00  0.00     0.053 C 
ATOM      4  C   UNL     1      19.112  13.309  51.314  1.00  0.00     0.016 C 
BRANCH   3   5
ATOM      5  C   UNL     1      19.579  10.964  50.461  1.00  0.00     0.015 C 
BRANCH   5   6
ATOM      6  C   UNL     1      20.768  10.031  50.758  1.00  0.00     0.028 C 
BRANCH   6   7
ATOM      7  C   UNL     1      21.609  10.483  51.927  1.00  0.00    -0.028 C 
ATOM      8  C   UNL     1      21.632   9.906  53.155  1.00  0.00    -0.070 CG0
ATOM      9  C   UNL     1      22.464  10.571  54.224  1.00  0.00     0.039 C 
ATOM     10  G   UNL     1      20.913   8.606  53.493  1.00  0.00     0.000 G0
ENDBRANCH   6   7
ENDBRANCH   5   6
ENDBRANCH   3   5
ENDBRANCH   1   3
BRANCH   1  11
ATOM     11  C   UNL     1      17.873  10.513  53.562  1.00  0.00     0.087 C 
BRANCH  11  12
ATOM     12  C   UNL     1      18.346   9.055  53.304  1.00  0.00     0.066 C 
BRANCH  12  13
ATOM     13  C   UNL     1      19.573   8.765  54.156  1.00  0.00     0.140 C 
ATOM     14  O   UNL     1      19.460   8.637  55.368  1.00  0.00    -0.299 OA
BRANCH  13  15
ATOM     15  C   UNL     1      20.922   8.584  53.504  1.00  0.00     0.106 CG0
ATOM     16  G   UNL     1      21.626   9.891  53.161  1.00  0.00     0.000 G0
ENDBRANCH  13  15
ENDBRANCH  12  13
BRANCH  12  17
ATOM     17  C   UNL     1      17.224   7.992  53.545  1.00  0.00    -0.006 C 
ATOM     18  C   UNL     1      16.262   8.395  54.678  1.00  0.00     0.008 C 
ATOM     19  C   UNL     1      16.402   7.757  52.263  1.00  0.00     0.008 C 
ENDBRANCH  12  17
ENDBRANCH  11  12
ENDBRANCH   1  11
TORSDOF 1
ENDMDL
MODEL 8
REMARK VINA RESULT:    -3.648      1.935      2.281
REMARK INTER + INTRA:          -5.734
REMARK INTER:                  -5.482
REMARK INTRA:                  -0.252
REMARK UNBOUND:                -0.166
REMARK SMILES CC1=CCC[C@@H](C)C(=O)C[C@H](C(C)C)C(=O)C1
REMARK SMILES IDX 8 1 9 2 6 3 7 4 5 5 4 6 3 7 2 8 1 9 10 11 11 12 15 13 16 14
REMARK SMILES IDX 17 15 12 17 13 18 14 19
REMARK H PARENT
REMARK Flexibility Score: 70.00
ROOT
ATOM      1  C   UNL     1      13.476  17.929  56.800  1.00  0.00     0.136 C 
ATOM      2  O   UNL     1      13.946  18.930  57.326  1.00  0.00    -0.299 OA
ENDROOT
BRANCH   1   3
ATOM      3  C   UNL     1      14.102  17.398  55.525  1.00  0.00     0.053 C 
ATOM      4  C   UNL     1      13.910  18.401  54.379  1.00  0.00     0.016 C 
BRANCH   3   5
ATOM      5  C   UNL     1      13.503  16.020  55.160  1.00  0.00     0.015 C 
BRANCH   5   6
ATOM      6  C   UNL     1      12.515  16.126  53.982  1.00  0.00     0.028 C 
BRANCH   6   7
ATOM      7  C   UNL     1      11.267  15.296  54.168  1.00  0.00    -0.028 C 
ATOM      8  C   UNL     1      10.132  15.705  54.788  1.00  0.00    -0.070 CG0
ATOM      9  C   UNL     1       9.029  14.690  54.965  1.00  0.00     0.039 C 
ATOM     10  G   UNL     1       9.893  17.133  55.263  1.00  0.00     0.000 G0
ENDBRANCH   6   7
ENDBRANCH   5   6
ENDBRANCH   3   5
ENDBRANCH   1   3
BRANCH   1  11
ATOM     11  C   UNL     1      12.300  17.242  57.457  1.00  0.00     0.087 C 
BRANCH  11  12
ATOM     12  C   UNL     1      11.014  18.114  57.406  1.00  0.00     0.066 C 
BRANCH  12  13
ATOM     13  C   UNL     1       9.894  17.323  56.746  1.00  0.00     0.140 C 
ATOM     14  O   UNL     1       8.984  16.868  57.426  1.00  0.00    -0.299 OA
BRANCH  13  15
ATOM     15  C   UNL     1       9.876  17.143  55.248  1.00  0.00     0.106 CG0
ATOM     16  G   UNL     1      10.132  15.712  54.791  1.00  0.00     0.000 G0
ENDBRANCH  13  15
ENDBRANCH  12  13
BRANCH  12  17
ATOM     17  C   UNL     1      10.579  18.650  58.810  1.00  0.00    -0.006 C 
ATOM     18  C   UNL     1      11.578  18.278  59.921  1.00  0.00     0.008 C 
ATOM     19  C   UNL     1      10.417  20.183  58.789  1.00  0.00     0.008 C 
ENDBRANCH  12  17
ENDBRANCH  11  12
ENDBRANCH   1  11
TORSDOF 1
ENDMDL
MODEL 9
REMARK VINA RESULT:    -3.619     10.979     12.645
REMARK INTER + INTRA:          -5.690
REMARK INTER:                  -5.336
REMARK INTRA:                  -0.354
REMARK UNBOUND:                -0.166
REMARK SMILES CC1=CCC[C@@H](C)C(=O)C[C@H](C(C)C)C(=O)C1
REMARK SMILES IDX 8 1 9 2 6 3 7 4 5 5 4 6 3 7 2 8 1 9 10 11 11 12 15 13 16 14
REMARK SMILES IDX 17 15 12 17 13 18 14 19
REMARK H PARENT
REMARK Flexibility Score: 70.00
ROOT
ATOM      1  C   UNL     1      19.133  10.985  53.592  1.00  0.00     0.136 C 
ATOM      2  O   UNL     1      18.240  11.745  53.942  1.00  0.00    -0.299 OA
ENDROOT
BRANCH   1   3
ATOM      3  C   UNL     1      20.199  11.483  52.635  1.00  0.00     0.053 C 
ATOM      4  C   UNL     1      20.984  12.641  53.266  1.00  0.00     0.016 C 
BRANCH   3   5
ATOM      5  C   UNL     1      19.564  11.913  51.292  1.00  0.00     0.015 C 
BRANCH   5   6
ATOM      6  C   UNL     1      19.365  10.713  50.348  1.00  0.00     0.028 C 
BRANCH   6   7
ATOM      7  C   UNL     1      20.533   9.756  50.339  1.00  0.00    -0.028 C 
ATOM      8  C   UNL     1      20.499   8.463  50.750  1.00  0.00    -0.070 CG0
ATOM      9  C   UNL     1      21.800   7.700  50.762  1.00  0.00     0.039 C 
ATOM     10  G   UNL     1      19.221   7.734  51.148  1.00  0.00     0.000 G0
ENDBRANCH   6   7
ENDBRANCH   5   6
ENDBRANCH   3   5
ENDBRANCH   1   3
BRANCH   1  11
ATOM     11  C   UNL     1      19.155   9.578  54.147  1.00  0.00     0.087 C 
BRANCH  11  12
ATOM     12  C   UNL     1      18.184   8.636  53.383  1.00  0.00     0.066 C 
BRANCH  12  13
ATOM     13  C   UNL     1      18.988   7.589  52.626  1.00  0.00     0.140 C 
ATOM     14  O   UNL     1      19.428   6.611  53.215  1.00  0.00    -0.299 OA
BRANCH  13  15
ATOM     15  C   UNL     1      19.200   7.729  51.138  1.00  0.00     0.106 CG0
ATOM     16  G   UNL     1      20.483   8.460  50.760  1.00  0.00     0.000 G0
ENDBRANCH  13  15
ENDBRANCH  12  13
BRANCH  12  17
ATOM     17  C   UNL     1      17.117   7.968  54.312  1.00  0.00    -0.006 C 
ATOM     18  C   UNL     1      16.370   8.992  55.186  1.00  0.00     0.008 C 
ATOM     19  C   UNL     1      16.082   7.180  53.486  1.00  0.00     0.008 C 
ENDBRANCH  12  17
ENDBRANCH  11  12
ENDBRANCH   1  11
TORSDOF 1
ENDMDL
