MODEL 1
REMARK VINA RESULT:    15.178      0.000      0.000
REMARK INTER + INTRA:          23.016
REMARK INTER:                  22.277
REMARK INTRA:                   0.739
REMARK UNBOUND:                 0.739
REMARK SMILES C=C1CC=CC(C)(C)CC=C(C)CCC1
REMARK SMILES IDX 2 1 1 2 15 3 14 4 13 5 11 6 12 7 10 8 3 10 4 11 5 12 6 13
REMARK SMILES IDX 7 14 8 15 9 16
REMARK H PARENT
REMARK Flexibility Score: 60.00
ROOT
ATOM      1  C   UNL     1     145.086 147.553 165.640  1.00  0.00    -0.074 C 
ATOM      2  C   UNL     1     144.619 148.812 165.614  1.00  0.00     0.008 C 
ENDROOT
BRANCH   1   3
ATOM      3  C   UNL     1     144.787 146.652 166.826  1.00  0.00     0.031 C 
BRANCH   3   4
ATOM      4  C   UNL     1     145.451 145.265 166.685  1.00  0.00     0.009 C 
BRANCH   4   5
ATOM      5  C   UNL     1     144.544 144.229 165.985  1.00  0.00     0.030 C 
BRANCH   5   6
ATOM      6  C   UNL     1     145.325 143.383 164.993  1.00  0.00    -0.077 C 
ATOM      7  C   UNL     1     146.195 142.282 165.546  1.00  0.00     0.039 C 
ATOM      8  C   UNL     1     145.279 143.533 163.644  1.00  0.00    -0.027 CG0
ATOM      9  G   UNL     1     144.480 144.560 162.862  1.00  0.00     0.000 G0
ENDBRANCH   5   6
ENDBRANCH   4   5
ENDBRANCH   3   4
ENDBRANCH   1   3
BRANCH   1  10
ATOM     10  C   UNL     1     145.892 147.033 164.471  1.00  0.00     0.057 C 
BRANCH  10  11
ATOM     11  C   UNL     1     145.341 147.587 163.181  1.00  0.00    -0.026 C 
ATOM     12  C   UNL     1     145.049 146.899 162.057  1.00  0.00    -0.024 C 
BRANCH  12  13
ATOM     13  C   UNL     1     145.168 145.392 161.800  1.00  0.00    -0.014 C 
ATOM     14  C   UNL     1     146.653 144.968 161.725  1.00  0.00     0.016 C 
ATOM     15  C   UNL     1     144.546 145.102 160.411  1.00  0.00     0.016 C 
BRANCH  13  16
ATOM     16  C   UNL     1     144.420 144.538 162.870  1.00  0.00     0.038 CG0
ATOM     17  G   UNL     1     145.316 143.544 163.586  1.00  0.00     0.000 G0
ENDBRANCH  13  16
ENDBRANCH  12  13
ENDBRANCH  10  11
ENDBRANCH   1  10
TORSDOF 0
ENDMDL
MODEL 2
REMARK VINA RESULT:    15.319      2.594      4.866
REMARK INTER + INTRA:          23.223
REMARK INTER:                  22.078
REMARK INTRA:                   1.146
REMARK UNBOUND:                 0.739
REMARK SMILES C=C1CC=CC(C)(C)CC=C(C)CCC1
REMARK SMILES IDX 2 1 1 2 15 3 14 4 13 5 11 6 12 7 10 8 3 10 4 11 5 12 6 13
REMARK SMILES IDX 7 14 8 15 9 16
REMARK H PARENT
REMARK Flexibility Score: 60.00
ROOT
ATOM      1  C   UNL     1     145.306 147.648 164.472  1.00  0.00    -0.074 C 
ATOM      2  C   UNL     1     145.286 147.292 165.767  1.00  0.00     0.008 C 
ENDROOT
BRANCH   1   3
ATOM      3  C   UNL     1     144.972 149.074 164.067  1.00  0.00     0.031 C 
BRANCH   3   4
ATOM      4  C   UNL     1     144.389 149.152 162.640  1.00  0.00     0.009 C 
BRANCH   4   5
ATOM      5  C   UNL     1     145.343 149.830 161.632  1.00  0.00     0.030 C 
BRANCH   5   6
ATOM      6  C   UNL     1     145.016 149.435 160.202  1.00  0.00    -0.077 C 
ATOM      7  C   UNL     1     144.250 150.426 159.361  1.00  0.00     0.039 C 
ATOM      8  C   UNL     1     145.383 148.265 159.618  1.00  0.00    -0.027 CG0
ATOM      9  G   UNL     1     146.156 147.124 160.257  1.00  0.00     0.000 G0
ENDBRANCH   5   6
ENDBRANCH   4   5
ENDBRANCH   3   4
ENDBRANCH   1   3
BRANCH   1  10
ATOM     10  C   UNL     1     145.683 146.626 163.425  1.00  0.00     0.057 C 
BRANCH  10  11
ATOM     11  C   UNL     1     144.442 146.121 162.731  1.00  0.00    -0.026 C 
ATOM     12  C   UNL     1     144.319 145.773 161.433  1.00  0.00    -0.024 C 
BRANCH  12  13
ATOM     13  C   UNL     1     145.392 145.771 160.337  1.00  0.00    -0.014 C 
ATOM     14  C   UNL     1     144.768 145.434 158.964  1.00  0.00     0.016 C 
ATOM     15  C   UNL     1     146.396 144.637 160.665  1.00  0.00     0.016 C 
BRANCH  13  16
ATOM     16  C   UNL     1     146.172 147.119 160.255  1.00  0.00     0.038 CG0
ATOM     17  G   UNL     1     145.378 148.240 159.610  1.00  0.00     0.000 G0
ENDBRANCH  13  16
ENDBRANCH  12  13
ENDBRANCH  10  11
ENDBRANCH   1  10
TORSDOF 0
ENDMDL
MODEL 3
REMARK VINA RESULT:    15.334      1.348      3.715
REMARK INTER + INTRA:          23.244
REMARK INTER:                  22.484
REMARK INTRA:                   0.760
REMARK UNBOUND:                 0.739
REMARK SMILES C=C1CC=CC(C)(C)CC=C(C)CCC1
REMARK SMILES IDX 2 1 1 2 15 3 14 4 13 5 11 6 12 7 10 8 3 10 4 11 5 12 6 13
REMARK SMILES IDX 7 14 8 15 9 16
REMARK H PARENT
REMARK Flexibility Score: 60.00
ROOT
ATOM      1  C   UNL     1     145.609 142.957 165.417  1.00  0.00    -0.074 C 
ATOM      2  C   UNL     1     145.991 141.672 165.328  1.00  0.00     0.008 C 
ENDROOT
BRANCH   1   3
ATOM      3  C   UNL     1     145.948 143.770 166.655  1.00  0.00     0.031 C 
BRANCH   3   4
ATOM      4  C   UNL     1     145.316 145.178 166.617  1.00  0.00     0.009 C 
BRANCH   4   5
ATOM      5  C   UNL     1     146.248 146.243 165.999  1.00  0.00     0.030 C 
BRANCH   5   6
ATOM      6  C   UNL     1     145.497 147.152 165.040  1.00  0.00    -0.077 C 
ATOM      7  C   UNL     1     144.616 148.222 165.636  1.00  0.00     0.039 C 
ATOM      8  C   UNL     1     145.579 147.086 163.686  1.00  0.00    -0.027 CG0
ATOM      9  G   UNL     1     146.396 146.105 162.863  1.00  0.00     0.000 G0
ENDBRANCH   5   6
ENDBRANCH   4   5
ENDBRANCH   3   4
ENDBRANCH   1   3
BRANCH   1  10
ATOM     10  C   UNL     1     144.858 143.592 164.270  1.00  0.00     0.057 C 
BRANCH  10  11
ATOM     11  C   UNL     1     145.411 143.096 162.957  1.00  0.00    -0.026 C 
ATOM     12  C   UNL     1     145.751 143.840 161.883  1.00  0.00    -0.024 C 
BRANCH  12  13
ATOM     13  C   UNL     1     145.694 145.363 161.718  1.00  0.00    -0.014 C 
ATOM     14  C   UNL     1     144.230 145.848 161.627  1.00  0.00     0.016 C 
ATOM     15  C   UNL     1     146.370 145.714 160.368  1.00  0.00     0.016 C 
BRANCH  13  16
ATOM     16  C   UNL     1     146.440 146.121 162.860  1.00  0.00     0.038 CG0
ATOM     17  G   UNL     1     145.548 147.069 163.640  1.00  0.00     0.000 G0
ENDBRANCH  13  16
ENDBRANCH  12  13
ENDBRANCH  10  11
ENDBRANCH   1  10
TORSDOF 0
ENDMDL
MODEL 4
REMARK VINA RESULT:    15.846      2.468      4.093
REMARK INTER + INTRA:          23.997
REMARK INTER:                  22.845
REMARK INTRA:                   1.151
REMARK UNBOUND:                 0.739
REMARK SMILES C=C1CC=CC(C)(C)CC=C(C)CCC1
REMARK SMILES IDX 2 1 1 2 15 3 14 4 13 5 11 6 12 7 10 8 3 10 4 11 5 12 6 13
REMARK SMILES IDX 7 14 8 15 9 16
REMARK H PARENT
REMARK Flexibility Score: 60.00
ROOT
ATOM      1  C   UNL     1     145.416 143.214 164.511  1.00  0.00    -0.074 C 
ATOM      2  C   UNL     1     145.355 143.682 165.768  1.00  0.00     0.008 C 
ENDROOT
BRANCH   1   3
ATOM      3  C   UNL     1     145.816 141.771 164.251  1.00  0.00     0.031 C 
BRANCH   3   4
ATOM      4  C   UNL     1     146.370 141.569 162.824  1.00  0.00     0.009 C 
BRANCH   4   5
ATOM      5  C   UNL     1     145.299 141.083 161.822  1.00  0.00     0.030 C 
BRANCH   5   6
ATOM      6  C   UNL     1     145.701 141.383 160.387  1.00  0.00    -0.077 C 
ATOM      7  C   UNL     1     146.461 140.318 159.638  1.00  0.00     0.039 C 
ATOM      8  C   UNL     1     145.404 142.531 159.725  1.00  0.00    -0.027 CG0
ATOM      9  G   UNL     1     144.652 143.734 160.264  1.00  0.00     0.000 G0
ENDBRANCH   5   6
ENDBRANCH   4   5
ENDBRANCH   3   4
ENDBRANCH   1   3
BRANCH   1  10
ATOM     10  C   UNL     1     145.064 144.127 163.359  1.00  0.00     0.057 C 
BRANCH  10  11
ATOM     11  C   UNL     1     146.321 144.695 162.750  1.00  0.00    -0.026 C 
ATOM     12  C   UNL     1     146.509 145.069 161.467  1.00  0.00    -0.024 C 
BRANCH  12  13
ATOM     13  C   UNL     1     145.506 145.044 160.307  1.00  0.00    -0.014 C 
ATOM     14  C   UNL     1     146.230 145.248 158.957  1.00  0.00     0.016 C 
ATOM     15  C   UNL     1     144.548 146.249 160.490  1.00  0.00     0.016 C 
BRANCH  13  16
ATOM     16  C   UNL     1     144.659 143.735 160.271  1.00  0.00     0.038 CG0
ATOM     17  G   UNL     1     145.412 142.543 159.707  1.00  0.00     0.000 G0
ENDBRANCH  13  16
ENDBRANCH  12  13
ENDBRANCH  10  11
ENDBRANCH   1  10
TORSDOF 0
ENDMDL
MODEL 5
REMARK VINA RESULT:    16.363      2.274      4.059
REMARK INTER + INTRA:          24.755
REMARK INTER:                  23.777
REMARK INTRA:                   0.978
REMARK UNBOUND:                 0.739
REMARK SMILES C=C1CC=CC(C)(C)CC=C(C)CCC1
REMARK SMILES IDX 2 1 1 2 15 3 14 4 13 5 11 6 12 7 10 8 3 10 4 11 5 12 6 13
REMARK SMILES IDX 7 14 8 15 9 16
REMARK H PARENT
REMARK Flexibility Score: 60.00
ROOT
ATOM      1  C   UNL     1     144.677 149.970 160.264  1.00  0.00    -0.074 C 
ATOM      2  C   UNL     1     144.971 151.046 159.516  1.00  0.00     0.008 C 
ENDROOT
BRANCH   1   3
ATOM      3  C   UNL     1     144.329 150.133 161.733  1.00  0.00     0.031 C 
BRANCH   3   4
ATOM      4  C   UNL     1     145.255 149.302 162.647  1.00  0.00     0.009 C 
BRANCH   4   5
ATOM      5  C   UNL     1     144.491 148.538 163.750  1.00  0.00     0.030 C 
BRANCH   5   6
ATOM      6  C   UNL     1     145.100 147.170 164.007  1.00  0.00    -0.077 C 
ATOM      7  C   UNL     1     145.726 146.926 165.357  1.00  0.00     0.039 C 
ATOM      8  C   UNL     1     145.101 146.144 163.116  1.00  0.00    -0.027 CG0
ATOM      9  G   UNL     1     144.532 146.150 161.709  1.00  0.00     0.000 G0
ENDBRANCH   5   6
ENDBRANCH   4   5
ENDBRANCH   3   4
ENDBRANCH   1   3
BRANCH   1  10
ATOM     10  C   UNL     1     144.674 148.599 159.628  1.00  0.00     0.057 C 
BRANCH  10  11
ATOM     11  C   UNL     1     146.062 148.010 159.670  1.00  0.00    -0.026 C 
ATOM     12  C   UNL     1     146.412 146.777 160.092  1.00  0.00    -0.024 C 
BRANCH  12  13
ATOM     13  C   UNL     1     145.508 145.650 160.608  1.00  0.00    -0.014 C 
ATOM     14  C   UNL     1     146.355 144.468 161.131  1.00  0.00     0.016 C 
ATOM     15  C   UNL     1     144.688 145.118 159.404  1.00  0.00     0.016 C 
BRANCH  13  16
ATOM     16  C   UNL     1     144.517 146.131 161.712  1.00  0.00     0.038 CG0
ATOM     17  G   UNL     1     145.114 146.119 163.108  1.00  0.00     0.000 G0
ENDBRANCH  13  16
ENDBRANCH  12  13
ENDBRANCH  10  11
ENDBRANCH   1  10
TORSDOF 0
ENDMDL
MODEL 6
REMARK VINA RESULT:    16.487      1.212      3.740
REMARK INTER + INTRA:          24.938
REMARK INTER:                  23.715
REMARK INTRA:                   1.222
REMARK UNBOUND:                 0.739
REMARK SMILES C=C1CC=CC(C)(C)CC=C(C)CCC1
REMARK SMILES IDX 2 1 1 2 15 3 14 4 13 5 11 6 12 7 10 8 3 10 4 11 5 12 6 13
REMARK SMILES IDX 7 14 8 15 9 16
REMARK H PARENT
REMARK Flexibility Score: 60.00
ROOT
ATOM      1  C   UNL     1     145.471 143.522 165.352  1.00  0.00    -0.074 C 
ATOM      2  C   UNL     1     145.915 142.311 165.726  1.00  0.00     0.008 C 
ENDROOT
BRANCH   1   3
ATOM      3  C   UNL     1     145.537 144.692 166.320  1.00  0.00     0.031 C 
BRANCH   3   4
ATOM      4  C   UNL     1     145.971 146.000 165.623  1.00  0.00     0.009 C 
BRANCH   4   5
ATOM      5  C   UNL     1     144.865 147.077 165.616  1.00  0.00     0.030 C 
BRANCH   5   6
ATOM      6  C   UNL     1     144.993 148.000 164.415  1.00  0.00    -0.077 C 
ATOM      7  C   UNL     1     145.376 149.435 164.674  1.00  0.00     0.039 C 
ATOM      8  C   UNL     1     144.809 147.619 163.124  1.00  0.00    -0.027 CG0
ATOM      9  G   UNL     1     144.425 146.240 162.620  1.00  0.00     0.000 G0
ENDBRANCH   5   6
ENDBRANCH   4   5
ENDBRANCH   3   4
ENDBRANCH   1   3
BRANCH   1  10
ATOM     10  C   UNL     1     144.925 143.718 163.957  1.00  0.00     0.057 C 
BRANCH  10  11
ATOM     11  C   UNL     1     146.057 143.727 162.959  1.00  0.00    -0.026 C 
ATOM     12  C   UNL     1     146.198 144.545 161.895  1.00  0.00    -0.024 C 
BRANCH  12  13
ATOM     13  C   UNL     1     145.280 145.684 161.435  1.00  0.00    -0.014 C 
ATOM     14  C   UNL     1     144.396 145.228 160.252  1.00  0.00     0.016 C 
ATOM     15  C   UNL     1     146.181 146.830 160.908  1.00  0.00     0.016 C 
BRANCH  13  16
ATOM     16  C   UNL     1     144.387 146.241 162.587  1.00  0.00     0.038 CG0
ATOM     17  G   UNL     1     144.818 147.611 163.078  1.00  0.00     0.000 G0
ENDBRANCH  13  16
ENDBRANCH  12  13
ENDBRANCH  10  11
ENDBRANCH   1  10
TORSDOF 0
ENDMDL
MODEL 7
REMARK VINA RESULT:    16.956      0.993      3.577
REMARK INTER + INTRA:          25.625
REMARK INTER:                  24.173
REMARK INTRA:                   1.451
REMARK UNBOUND:                 0.739
REMARK SMILES C=C1CC=CC(C)(C)CC=C(C)CCC1
REMARK SMILES IDX 2 1 1 2 15 3 14 4 13 5 11 6 12 7 10 8 3 10 4 11 5 12 6 13
REMARK SMILES IDX 7 14 8 15 9 16
REMARK H PARENT
REMARK Flexibility Score: 60.00
ROOT
ATOM      1  C   UNL     1     144.945 148.586 164.956  1.00  0.00    -0.074 C 
ATOM      2  C   UNL     1     144.784 149.882 165.269  1.00  0.00     0.008 C 
ENDROOT
BRANCH   1   3
ATOM      3  C   UNL     1     145.323 148.184 163.540  1.00  0.00     0.031 C 
BRANCH   3   4
ATOM      4  C   UNL     1     144.406 147.071 162.987  1.00  0.00     0.009 C 
BRANCH   4   5
ATOM      5  C   UNL     1     144.930 146.453 161.673  1.00  0.00     0.030 C 
BRANCH   5   6
ATOM      6  C   UNL     1     145.571 145.095 161.911  1.00  0.00    -0.077 C 
ATOM      7  C   UNL     1     146.510 144.571 160.854  1.00  0.00     0.039 C 
ATOM      8  C   UNL     1     145.376 144.331 163.017  1.00  0.00    -0.027 CG0
ATOM      9  G   UNL     1     144.486 144.647 164.205  1.00  0.00     0.000 G0
ENDBRANCH   5   6
ENDBRANCH   4   5
ENDBRANCH   3   4
ENDBRANCH   1   3
BRANCH   1  10
ATOM     10  C   UNL     1     144.770 147.534 166.026  1.00  0.00     0.057 C 
BRANCH  10  11
ATOM     11  C   UNL     1     146.032 146.717 166.156  1.00  0.00    -0.026 C 
ATOM     12  C   UNL     1     146.160 145.383 165.998  1.00  0.00    -0.024 C 
BRANCH  12  13
ATOM     13  C   UNL     1     145.084 144.357 165.623  1.00  0.00    -0.014 C 
ATOM     14  C   UNL     1     143.970 144.319 166.694  1.00  0.00     0.016 C 
ATOM     15  C   UNL     1     145.751 142.958 165.617  1.00  0.00     0.016 C 
BRANCH  13  16
ATOM     16  C   UNL     1     144.465 144.620 164.215  1.00  0.00     0.038 CG0
ATOM     17  G   UNL     1     145.406 144.290 163.070  1.00  0.00     0.000 G0
ENDBRANCH  13  16
ENDBRANCH  12  13
ENDBRANCH  10  11
ENDBRANCH   1  10
TORSDOF 0
ENDMDL
MODEL 8
REMARK VINA RESULT:    17.081      1.293      4.665
REMARK INTER + INTRA:          25.808
REMARK INTER:                  24.004
REMARK INTRA:                   1.805
REMARK UNBOUND:                 0.739
REMARK SMILES C=C1CC=CC(C)(C)CC=C(C)CCC1
REMARK SMILES IDX 2 1 1 2 15 3 14 4 13 5 11 6 12 7 10 8 3 10 4 11 5 12 6 13
REMARK SMILES IDX 7 14 8 15 9 16
REMARK H PARENT
REMARK Flexibility Score: 60.00
ROOT
ATOM      1  C   UNL     1     145.670 142.575 164.848  1.00  0.00    -0.074 C 
ATOM      2  C   UNL     1     145.904 141.252 164.823  1.00  0.00     0.008 C 
ENDROOT
BRANCH   1   3
ATOM      3  C   UNL     1     145.247 143.300 163.582  1.00  0.00     0.031 C 
BRANCH   3   4
ATOM      4  C   UNL     1     146.341 143.255 162.493  1.00  0.00     0.009 C 
BRANCH   4   5
ATOM      5  C   UNL     1     146.381 144.531 161.623  1.00  0.00     0.030 C 
BRANCH   5   6
ATOM      6  C   UNL     1     145.283 145.507 162.013  1.00  0.00    -0.077 C 
ATOM      7  C   UNL     1     144.141 145.697 161.047  1.00  0.00     0.039 C 
ATOM      8  C   UNL     1     145.246 146.204 163.179  1.00  0.00    -0.027 CG0
ATOM      9  G   UNL     1     146.272 146.176 164.297  1.00  0.00     0.000 G0
ENDBRANCH   5   6
ENDBRANCH   4   5
ENDBRANCH   3   4
ENDBRANCH   1   3
BRANCH   1  10
ATOM     10  C   UNL     1     145.810 143.331 166.149  1.00  0.00     0.057 C 
BRANCH  10  11
ATOM     11  C   UNL     1     144.631 144.253 166.337  1.00  0.00    -0.026 C 
ATOM     12  C   UNL     1     144.607 145.591 166.166  1.00  0.00    -0.024 C 
BRANCH  12  13
ATOM     13  C   UNL     1     145.743 146.519 165.717  1.00  0.00    -0.014 C 
ATOM     14  C   UNL     1     146.893 146.511 166.749  1.00  0.00     0.016 C 
ATOM     15  C   UNL     1     145.182 147.963 165.679  1.00  0.00     0.016 C 
BRANCH  13  16
ATOM     16  C   UNL     1     146.289 146.159 164.301  1.00  0.00     0.038 CG0
ATOM     17  G   UNL     1     145.230 146.201 163.214  1.00  0.00     0.000 G0
ENDBRANCH  13  16
ENDBRANCH  12  13
ENDBRANCH  10  11
ENDBRANCH   1  10
TORSDOF 0
ENDMDL
MODEL 9
REMARK VINA RESULT:    17.219      1.242      1.794
REMARK INTER + INTRA:          26.011
REMARK INTER:                  23.098
REMARK INTRA:                   2.913
REMARK UNBOUND:                 0.739
REMARK SMILES C=C1CC=CC(C)(C)CC=C(C)CCC1
REMARK SMILES IDX 2 1 1 2 15 3 14 4 13 5 11 6 12 7 10 8 3 10 4 11 5 12 6 13
REMARK SMILES IDX 7 14 8 15 9 16
REMARK H PARENT
REMARK Flexibility Score: 60.00
ROOT
ATOM      1  C   UNL     1     144.886 148.746 164.144  1.00  0.00    -0.074 C 
ATOM      2  C   UNL     1     144.251 149.856 163.732  1.00  0.00     0.008 C 
ENDROOT
BRANCH   1   3
ATOM      3  C   UNL     1     145.011 148.445 165.628  1.00  0.00     0.031 C 
BRANCH   3   4
ATOM      4  C   UNL     1     144.985 146.929 165.918  1.00  0.00     0.009 C 
BRANCH   4   5
ATOM      5  C   UNL     1     146.006 146.134 165.074  1.00  0.00     0.030 C 
BRANCH   5   6
ATOM      6  C   UNL     1     145.389 144.871 164.496  1.00  0.00    -0.077 C 
ATOM      7  C   UNL     1     144.638 143.965 165.439  1.00  0.00     0.039 C 
ATOM      8  C   UNL     1     145.446 144.511 163.187  1.00  0.00    -0.027 CG0
ATOM      9  G   UNL     1     146.135 145.258 162.060  1.00  0.00     0.000 G0
ENDBRANCH   5   6
ENDBRANCH   4   5
ENDBRANCH   3   4
ENDBRANCH   1   3
BRANCH   1  10
ATOM     10  C   UNL     1     145.455 147.790 163.121  1.00  0.00     0.057 C 
BRANCH  10  11
ATOM     11  C   UNL     1     144.614 147.817 161.869  1.00  0.00    -0.026 C 
ATOM     12  C   UNL     1     144.571 146.882 160.897  1.00  0.00    -0.024 C 
BRANCH  12  13
ATOM     13  C   UNL     1     145.329 145.551 160.814  1.00  0.00    -0.014 C 
ATOM     14  C   UNL     1     146.231 145.515 159.560  1.00  0.00     0.016 C 
ATOM     15  C   UNL     1     144.280 144.423 160.647  1.00  0.00     0.016 C 
BRANCH  13  16
ATOM     16  C   UNL     1     146.175 145.260 162.092  1.00  0.00     0.038 CG0
ATOM     17  G   UNL     1     145.403 144.529 163.175  1.00  0.00     0.000 G0
ENDBRANCH  13  16
ENDBRANCH  12  13
ENDBRANCH  10  11
ENDBRANCH   1  10
TORSDOF 0
ENDMDL
