MODEL 1
REMARK VINA RESULT:     5.851      0.000      0.000
REMARK INTER + INTRA:           6.881
REMARK INTER:                   7.219
REMARK INTRA:                  -0.338
REMARK UNBOUND:                -0.338
REMARK SMILES O=c1c(O)c(-c2cc(O)c(O)c(O)c2)oc2cc(O)cc(O)c12
REMARK SMILES IDX 5 1 3 2 2 3 1 4 23 5 21 6 20 7 18 8 17 9 16 10 15 11 6 12
REMARK SMILES IDX 7 13 8 14 14 15 10 16 12 17 9 18 11 20 13 22 4 24 22 26
REMARK SMILES IDX 19 28
REMARK H PARENT 9 19 11 21 13 23 4 25 22 27 19 29
REMARK Flexibility Score: inf
ROOT
ATOM      1  C   UNL     1    -117.164 -98.689  37.456  1.00  0.00     0.180 A 
ATOM      2  C   UNL     1    -118.124 -99.449  36.766  1.00  0.00     0.208 A 
ATOM      3  C   UNL     1    -118.081 -99.486  35.363  1.00  0.00     0.238 A 
ATOM      4  O   UNL     1    -118.975-100.125  34.747  1.00  0.00    -0.285 OA
ATOM      5  C   UNL     1    -117.071 -98.777  34.669  1.00  0.00     0.111 A 
ATOM      6  C   UNL     1    -116.909 -98.777  33.251  1.00  0.00     0.134 A 
ATOM      7  C   UNL     1    -115.956 -97.934  32.665  1.00  0.00     0.093 A 
ATOM      8  C   UNL     1    -115.116 -97.143  33.447  1.00  0.00     0.123 A 
ATOM      9  C   UNL     1    -115.226 -97.180  34.839  1.00  0.00     0.094 A 
ATOM     10  C   UNL     1    -116.192 -97.983  35.450  1.00  0.00     0.146 A 
ATOM     11  O   UNL     1    -116.271 -97.981  36.776  1.00  0.00    -0.452 OA
ENDROOT
BRANCH   1  12
ATOM     12  C   UNL     1    -117.130 -98.621  38.936  1.00  0.00     0.029 A 
ATOM     13  C   UNL     1    -117.961 -97.708  39.604  1.00  0.00     0.062 A 
ATOM     14  C   UNL     1    -117.931 -97.610  41.002  1.00  0.00     0.162 A 
ATOM     15  C   UNL     1    -116.240 -99.410  39.683  1.00  0.00     0.062 A 
ATOM     16  C   UNL     1    -117.057 -98.414  41.743  1.00  0.00     0.200 A 
ATOM     17  C   UNL     1    -116.205 -99.315  41.082  1.00  0.00     0.162 A 
BRANCH  14  18
ATOM     18  O   UNL     1    -118.768 -96.712  41.662  1.00  0.00    -0.504 OA
ATOM     19  H   UNL     1    -118.465 -96.217  42.493  1.00  0.00     0.293 HD
ENDBRANCH  14  18
BRANCH  16  20
ATOM     20  O   UNL     1    -117.043 -98.305  43.134  1.00  0.00    -0.502 OA
ATOM     21  H   UNL     1    -117.321 -99.069  43.738  1.00  0.00     0.293 HD
ENDBRANCH  16  20
BRANCH  17  22
ATOM     22  O   UNL     1    -115.323-100.108  41.815  1.00  0.00    -0.504 OA
ATOM     23  H   UNL     1    -115.623-100.614  42.640  1.00  0.00     0.293 HD
ENDBRANCH  17  22
ENDBRANCH   1  12
BRANCH   2  24
ATOM     24  O   UNL     1    -119.125-100.124  37.469  1.00  0.00    -0.502 OA
ATOM     25  H   UNL     1    -118.920-100.768  38.224  1.00  0.00     0.293 HD
ENDBRANCH   2  24
BRANCH   6  26
ATOM     26  O   UNL     1    -117.634 -99.598  32.382  1.00  0.00    -0.507 OA
ATOM     27  H   UNL     1    -118.546 -99.378  32.011  1.00  0.00     0.293 HD
ENDBRANCH   6  26
BRANCH   8  28
ATOM     28  O   UNL     1    -114.169 -96.328  32.831  1.00  0.00    -0.508 OA
ATOM     29  H   UNL     1    -113.881 -96.482  31.871  1.00  0.00     0.293 HD
ENDBRANCH   8  28
TORSDOF 7
ENDMDL
