MODEL 1
REMARK VINA RESULT:    -5.252      0.000      0.000
REMARK INTER + INTRA:          -5.252
REMARK INTER:                  -5.252
REMARK INTRA:                   0.000
REMARK UNBOUND:                 0.000
REMARK SMILES C=C1CCC[C@@]2(C)CC(=O)C(=C(C)C)C[C@@H]12
REMARK SMILES IDX 13 1 12 2 11 3 15 4 16 5 2 6 1 7 3 8 4 9 5 10 6 11 8 12 9 13
REMARK SMILES IDX 10 14 7 15 14 16
REMARK H PARENT
REMARK Flexibility Score: inf
ROOT
ATOM      1  C   UNL     1      -3.375  -3.943   9.090  1.00  0.00     0.039 C 
ATOM      2  C   UNL     1      -4.746  -3.960   9.726  1.00  0.00    -0.070 C 
ATOM      3  C   UNL     1      -5.660  -2.981   9.467  1.00  0.00    -0.006 C 
ATOM      4  C   UNL     1      -5.354  -1.840   8.510  1.00  0.00     0.047 C 
ATOM      5  C   UNL     1      -6.605  -1.323   7.750  1.00  0.00     0.025 C 
ATOM      6  C   UNL     1      -7.078  -2.206   6.589  1.00  0.00    -0.073 C 
ATOM      7  C   UNL     1      -6.513  -3.381   6.253  1.00  0.00     0.008 C 
ATOM      8  C   UNL     1      -8.286  -1.750   5.804  1.00  0.00     0.031 C 
ATOM      9  C   UNL     1      -8.876  -0.456   6.374  1.00  0.00     0.005 C 
ATOM     10  C   UNL     1      -9.093  -0.569   7.891  1.00  0.00     0.008 C 
ATOM     11  C   UNL     1      -7.814  -1.015   8.702  1.00  0.00    -0.018 C 
ATOM     12  C   UNL     1      -8.157  -2.296   9.510  1.00  0.00     0.088 C 
ATOM     13  C   UNL     1      -6.959  -2.892  10.189  1.00  0.00     0.159 C 
ATOM     14  O   UNL     1      -7.076  -3.302  11.375  1.00  0.00    -0.295 OA
ATOM     15  C   UNL     1      -7.444   0.125   9.685  1.00  0.00     0.012 C 
ATOM     16  C   UNL     1      -5.071  -5.129  10.627  1.00  0.00     0.039 C 
ENDROOT
TORSDOF 0
ENDMDL
MODEL 2
REMARK VINA RESULT:    -3.706     20.010     21.136
REMARK INTER + INTRA:          -3.706
REMARK INTER:                  -3.706
REMARK INTRA:                   0.000
REMARK UNBOUND:                 0.000
REMARK SMILES C=C1CCC[C@@]2(C)CC(=O)C(=C(C)C)C[C@@H]12
REMARK SMILES IDX 13 1 12 2 11 3 15 4 16 5 2 6 1 7 3 8 4 9 5 10 6 11 8 12 9 13
REMARK SMILES IDX 10 14 7 15 14 16
REMARK H PARENT
REMARK Flexibility Score: inf
ROOT
ATOM      1  C   UNL     1     -18.552 -17.100  17.077  1.00  0.00     0.039 C 
ATOM      2  C   UNL     1     -19.615 -17.798  16.262  1.00  0.00    -0.070 C 
ATOM      3  C   UNL     1     -19.544 -17.852  14.900  1.00  0.00    -0.006 C 
ATOM      4  C   UNL     1     -18.380 -17.235  14.140  1.00  0.00     0.047 C 
ATOM      5  C   UNL     1     -18.030 -17.995  12.833  1.00  0.00     0.025 C 
ATOM      6  C   UNL     1     -17.248 -19.301  13.023  1.00  0.00    -0.073 C 
ATOM      7  C   UNL     1     -16.919 -19.818  14.222  1.00  0.00     0.008 C 
ATOM      8  C   UNL     1     -16.869 -20.081  11.786  1.00  0.00     0.031 C 
ATOM      9  C   UNL     1     -17.406 -19.421  10.512  1.00  0.00     0.005 C 
ATOM     10  C   UNL     1     -18.904 -19.103  10.645  1.00  0.00     0.008 C 
ATOM     11  C   UNL     1     -19.282 -18.260  11.925  1.00  0.00    -0.018 C 
ATOM     12  C   UNL     1     -20.341 -19.045  12.745  1.00  0.00     0.088 C 
ATOM     13  C   UNL     1     -20.647 -18.401  14.066  1.00  0.00     0.159 C 
ATOM     14  O   UNL     1     -21.847 -18.330  14.442  1.00  0.00    -0.295 OA
ATOM     15  C   UNL     1     -19.895 -16.916  11.454  1.00  0.00     0.012 C 
ATOM     16  C   UNL     1     -20.738 -18.464  17.024  1.00  0.00     0.039 C 
ENDROOT
TORSDOF 0
ENDMDL
MODEL 3
REMARK VINA RESULT:    -3.627     19.754     21.184
REMARK INTER + INTRA:          -3.627
REMARK INTER:                  -3.627
REMARK INTRA:                   0.000
REMARK UNBOUND:                 0.000
REMARK SMILES C=C1CCC[C@@]2(C)CC(=O)C(=C(C)C)C[C@@H]12
REMARK SMILES IDX 13 1 12 2 11 3 15 4 16 5 2 6 1 7 3 8 4 9 5 10 6 11 8 12 9 13
REMARK SMILES IDX 10 14 7 15 14 16
REMARK H PARENT
REMARK Flexibility Score: inf
ROOT
ATOM      1  C   UNL     1     -22.050 -19.286   7.981  1.00  0.00     0.039 C 
ATOM      2  C   UNL     1     -21.627 -17.971   8.594  1.00  0.00    -0.070 C 
ATOM      3  C   UNL     1     -21.129 -17.908   9.863  1.00  0.00    -0.006 C 
ATOM      4  C   UNL     1     -20.952 -19.158  10.710  1.00  0.00     0.047 C 
ATOM      5  C   UNL     1     -19.750 -19.071  11.689  1.00  0.00     0.025 C 
ATOM      6  C   UNL     1     -18.369 -19.274  11.052  1.00  0.00    -0.073 C 
ATOM      7  C   UNL     1     -18.164 -19.460   9.735  1.00  0.00     0.008 C 
ATOM      8  C   UNL     1     -17.160 -19.210  11.957  1.00  0.00     0.031 C 
ATOM      9  C   UNL     1     -17.551 -18.885  13.402  1.00  0.00     0.005 C 
ATOM     10  C   UNL     1     -18.472 -17.657  13.463  1.00  0.00     0.008 C 
ATOM     11  C   UNL     1     -19.748 -17.751  12.538  1.00  0.00    -0.018 C 
ATOM     12  C   UNL     1     -19.756 -16.533  11.574  1.00  0.00     0.088 C 
ATOM     13  C   UNL     1     -20.844 -16.615  10.544  1.00  0.00     0.159 C 
ATOM     14  O   UNL     1     -21.509 -15.578  10.279  1.00  0.00    -0.295 OA
ATOM     15  C   UNL     1     -21.005 -17.695  13.443  1.00  0.00     0.012 C 
ATOM     16  C   UNL     1     -21.746 -16.738   7.727  1.00  0.00     0.039 C 
ENDROOT
TORSDOF 0
ENDMDL
MODEL 4
REMARK VINA RESULT:    -3.460      1.882      5.162
REMARK INTER + INTRA:          -3.460
REMARK INTER:                  -3.460
REMARK INTRA:                   0.000
REMARK UNBOUND:                 0.000
REMARK SMILES C=C1CCC[C@@]2(C)CC(=O)C(=C(C)C)C[C@@H]12
REMARK SMILES IDX 13 1 12 2 11 3 15 4 16 5 2 6 1 7 3 8 4 9 5 10 6 11 8 12 9 13
REMARK SMILES IDX 10 14 7 15 14 16
REMARK H PARENT
REMARK Flexibility Score: inf
ROOT
ATOM      1  C   UNL     1      -7.721   0.125   7.348  1.00  0.00     0.039 C 
ATOM      2  C   UNL     1      -7.551  -1.283   6.826  1.00  0.00    -0.070 C 
ATOM      3  C   UNL     1      -6.580  -2.108   7.313  1.00  0.00    -0.006 C 
ATOM      4  C   UNL     1      -5.638  -1.661   8.421  1.00  0.00     0.047 C 
ATOM      5  C   UNL     1      -5.189  -2.820   9.349  1.00  0.00     0.025 C 
ATOM      6  C   UNL     1      -6.229  -3.275  10.381  1.00  0.00    -0.073 C 
ATOM      7  C   UNL     1      -7.474  -2.772  10.472  1.00  0.00     0.008 C 
ATOM      8  C   UNL     1      -5.845  -4.394  11.321  1.00  0.00     0.031 C 
ATOM      9  C   UNL     1      -4.442  -4.930  11.021  1.00  0.00     0.005 C 
ATOM     10  C   UNL     1      -4.281  -5.254   9.528  1.00  0.00     0.008 C 
ATOM     11  C   UNL     1      -4.655  -4.065   8.558  1.00  0.00    -0.018 C 
ATOM     12  C   UNL     1      -5.757  -4.549   7.578  1.00  0.00     0.088 C 
ATOM     13  C   UNL     1      -6.296  -3.443   6.718  1.00  0.00     0.159 C 
ATOM     14  O   UNL     1      -6.490  -3.666   5.494  1.00  0.00    -0.295 OA
ATOM     15  C   UNL     1      -3.386  -3.684   7.753  1.00  0.00     0.012 C 
ATOM     16  C   UNL     1      -8.529  -1.747   5.771  1.00  0.00     0.039 C 
ENDROOT
TORSDOF 0
ENDMDL
MODEL 5
REMARK VINA RESULT:    -3.153     19.853     21.074
REMARK INTER + INTRA:          -3.153
REMARK INTER:                  -3.153
REMARK INTRA:                   0.000
REMARK UNBOUND:                 0.000
REMARK SMILES C=C1CCC[C@@]2(C)CC(=O)C(=C(C)C)C[C@@H]12
REMARK SMILES IDX 13 1 12 2 11 3 15 4 16 5 2 6 1 7 3 8 4 9 5 10 6 11 8 12 9 13
REMARK SMILES IDX 10 14 7 15 14 16
REMARK H PARENT
REMARK Flexibility Score: inf
ROOT
ATOM      1  C   UNL     1     -17.859 -17.040  15.706  1.00  0.00     0.039 C 
ATOM      2  C   UNL     1     -19.312 -17.295  15.378  1.00  0.00    -0.070 C 
ATOM      3  C   UNL     1     -19.759 -17.296  14.089  1.00  0.00    -0.006 C 
ATOM      4  C   UNL     1     -18.814 -17.065  12.920  1.00  0.00     0.047 C 
ATOM      5  C   UNL     1     -19.233 -17.826  11.634  1.00  0.00     0.025 C 
ATOM      6  C   UNL     1     -18.917 -19.327  11.628  1.00  0.00    -0.073 C 
ATOM      7  C   UNL     1     -18.369 -19.989  12.664  1.00  0.00     0.008 C 
ATOM      8  C   UNL     1     -19.292 -20.121  10.397  1.00  0.00     0.031 C 
ATOM      9  C   UNL     1     -20.000 -19.250   9.355  1.00  0.00     0.005 C 
ATOM     10  C   UNL     1     -21.152 -18.455   9.990  1.00  0.00     0.008 C 
ATOM     11  C   UNL     1     -20.740 -17.605  11.255  1.00  0.00    -0.018 C 
ATOM     12  C   UNL     1     -21.627 -18.033  12.455  1.00  0.00     0.088 C 
ATOM     13  C   UNL     1     -21.204 -17.397  13.747  1.00  0.00     0.159 C 
ATOM     14  O   UNL     1     -22.091 -16.947  14.520  1.00  0.00    -0.295 OA
ATOM     15  C   UNL     1     -20.997 -16.110  10.937  1.00  0.00     0.012 C 
ATOM     16  C   UNL     1     -20.237 -17.587  16.538  1.00  0.00     0.039 C 
ENDROOT
TORSDOF 0
ENDMDL
MODEL 6
REMARK VINA RESULT:    -3.098     19.949     21.500
REMARK INTER + INTRA:          -3.098
REMARK INTER:                  -3.098
REMARK INTRA:                   0.000
REMARK UNBOUND:                 0.000
REMARK SMILES C=C1CCC[C@@]2(C)CC(=O)C(=C(C)C)C[C@@H]12
REMARK SMILES IDX 13 1 12 2 11 3 15 4 16 5 2 6 1 7 3 8 4 9 5 10 6 11 8 12 9 13
REMARK SMILES IDX 10 14 7 15 14 16
REMARK H PARENT
REMARK Flexibility Score: inf
ROOT
ATOM      1  C   UNL     1     -20.982 -18.456   9.623  1.00  0.00     0.039 C 
ATOM      2  C   UNL     1     -21.022 -17.370  10.672  1.00  0.00    -0.070 C 
ATOM      3  C   UNL     1     -20.855 -17.655  11.996  1.00  0.00    -0.006 C 
ATOM      4  C   UNL     1     -20.595 -19.075  12.476  1.00  0.00     0.047 C 
ATOM      5  C   UNL     1     -19.702 -19.139  13.744  1.00  0.00     0.025 C 
ATOM      6  C   UNL     1     -18.204 -18.919  13.502  1.00  0.00    -0.073 C 
ATOM      7  C   UNL     1     -17.665 -18.631  12.303  1.00  0.00     0.008 C 
ATOM      8  C   UNL     1     -17.281 -18.981  14.698  1.00  0.00     0.031 C 
ATOM      9  C   UNL     1     -18.055 -19.210  16.000  1.00  0.00     0.005 C 
ATOM     10  C   UNL     1     -19.221 -18.217  16.131  1.00  0.00     0.008 C 
ATOM     11  C   UNL     1     -20.195 -18.186  14.889  1.00  0.00    -0.018 C 
ATOM     12  C   UNL     1     -20.260 -16.735  14.342  1.00  0.00     0.088 C 
ATOM     13  C   UNL     1     -21.035 -16.631  13.061  1.00  0.00     0.159 C 
ATOM     14  O   UNL     1     -21.840 -15.673  12.915  1.00  0.00    -0.295 OA
ATOM     15  C   UNL     1     -21.605 -18.614  15.371  1.00  0.00     0.012 C 
ATOM     16  C   UNL     1     -21.216 -15.952  10.186  1.00  0.00     0.039 C 
ENDROOT
TORSDOF 0
ENDMDL
MODEL 7
REMARK VINA RESULT:    -2.967     20.054     21.653
REMARK INTER + INTRA:          -2.967
REMARK INTER:                  -2.967
REMARK INTRA:                   0.000
REMARK UNBOUND:                 0.000
REMARK SMILES C=C1CCC[C@@]2(C)CC(=O)C(=C(C)C)C[C@@H]12
REMARK SMILES IDX 13 1 12 2 11 3 15 4 16 5 2 6 1 7 3 8 4 9 5 10 6 11 8 12 9 13
REMARK SMILES IDX 10 14 7 15 14 16
REMARK H PARENT
REMARK Flexibility Score: inf
ROOT
ATOM      1  C   UNL     1     -21.433 -15.892   9.823  1.00  0.00     0.039 C 
ATOM      2  C   UNL     1     -21.246 -17.388   9.925  1.00  0.00    -0.070 C 
ATOM      3  C   UNL     1     -20.348 -17.933  10.795  1.00  0.00    -0.006 C 
ATOM      4  C   UNL     1     -19.510 -17.065  11.721  1.00  0.00     0.047 C 
ATOM      5  C   UNL     1     -19.183 -17.750  13.074  1.00  0.00     0.025 C 
ATOM      6  C   UNL     1     -20.330 -17.775  14.092  1.00  0.00    -0.073 C 
ATOM      7  C   UNL     1     -21.567 -17.299  13.849  1.00  0.00     0.008 C 
ATOM      8  C   UNL     1     -20.069 -18.420  15.433  1.00  0.00     0.031 C 
ATOM      9  C   UNL     1     -18.655 -19.005  15.514  1.00  0.00     0.005 C 
ATOM     10  C   UNL     1     -18.355 -19.895  14.297  1.00  0.00     0.008 C 
ATOM     11  C   UNL     1     -18.602 -19.198  12.902  1.00  0.00    -0.018 C 
ATOM     12  C   UNL     1     -19.613 -20.051  12.090  1.00  0.00     0.088 C 
ATOM     13  C   UNL     1     -20.037 -19.389  10.812  1.00  0.00     0.159 C 
ATOM     14  O   UNL     1     -20.115 -20.085   9.765  1.00  0.00    -0.295 OA
ATOM     15  C   UNL     1     -17.251 -19.146  12.144  1.00  0.00     0.012 C 
ATOM     16  C   UNL     1     -22.125 -18.251   9.048  1.00  0.00     0.039 C 
ENDROOT
TORSDOF 0
ENDMDL
MODEL 8
REMARK VINA RESULT:    -2.949     20.024     21.610
REMARK INTER + INTRA:          -2.949
REMARK INTER:                  -2.949
REMARK INTRA:                   0.000
REMARK UNBOUND:                 0.000
REMARK SMILES C=C1CCC[C@@]2(C)CC(=O)C(=C(C)C)C[C@@H]12
REMARK SMILES IDX 13 1 12 2 11 3 15 4 16 5 2 6 1 7 3 8 4 9 5 10 6 11 8 12 9 13
REMARK SMILES IDX 10 14 7 15 14 16
REMARK H PARENT
REMARK Flexibility Score: inf
ROOT
ATOM      1  C   UNL     1     -20.625 -17.553  10.227  1.00  0.00     0.039 C 
ATOM      2  C   UNL     1     -19.495 -18.334  10.857  1.00  0.00    -0.070 C 
ATOM      3  C   UNL     1     -19.191 -18.200  12.180  1.00  0.00    -0.006 C 
ATOM      4  C   UNL     1     -19.989 -17.278  13.090  1.00  0.00     0.047 C 
ATOM      5  C   UNL     1     -20.072 -17.783  14.555  1.00  0.00     0.025 C 
ATOM      6  C   UNL     1     -21.064 -18.926  14.800  1.00  0.00    -0.073 C 
ATOM      7  C   UNL     1     -21.789 -19.518  13.832  1.00  0.00     0.008 C 
ATOM      8  C   UNL     1     -21.197 -19.454  16.209  1.00  0.00     0.031 C 
ATOM      9  C   UNL     1     -20.231 -18.753  17.170  1.00  0.00     0.005 C 
ATOM     10  C   UNL     1     -18.800 -18.750  16.611  1.00  0.00     0.008 C 
ATOM     11  C   UNL     1     -18.671 -18.167  15.149  1.00  0.00    -0.018 C 
ATOM     12  C   UNL     1     -18.015 -19.240  14.240  1.00  0.00     0.088 C 
ATOM     13  C   UNL     1     -17.995 -18.841  12.793  1.00  0.00     0.159 C 
ATOM     14  O   UNL     1     -16.951 -19.052  12.120  1.00  0.00    -0.295 OA
ATOM     15  C   UNL     1     -17.754 -16.918  15.208  1.00  0.00     0.012 C 
ATOM     16  C   UNL     1     -18.745 -19.297   9.966  1.00  0.00     0.039 C 
ENDROOT
TORSDOF 0
ENDMDL
MODEL 9
REMARK VINA RESULT:    -2.752      1.904      4.964
REMARK INTER + INTRA:          -2.752
REMARK INTER:                  -2.752
REMARK INTRA:                   0.000
REMARK UNBOUND:                 0.000
REMARK SMILES C=C1CCC[C@@]2(C)CC(=O)C(=C(C)C)C[C@@H]12
REMARK SMILES IDX 13 1 12 2 11 3 15 4 16 5 2 6 1 7 3 8 4 9 5 10 6 11 8 12 9 13
REMARK SMILES IDX 10 14 7 15 14 16
REMARK H PARENT
REMARK Flexibility Score: inf
ROOT
ATOM      1  C   UNL     1      -9.758   0.125  10.489  1.00  0.00     0.039 C 
ATOM      2  C   UNL     1      -9.173  -0.275   9.154  1.00  0.00    -0.070 C 
ATOM      3  C   UNL     1      -7.866  -0.647   9.035  1.00  0.00    -0.006 C 
ATOM      4  C   UNL     1      -6.942  -0.701  10.242  1.00  0.00     0.047 C 
ATOM      5  C   UNL     1      -5.854  -1.802  10.131  1.00  0.00     0.025 C 
ATOM      6  C   UNL     1      -6.337  -3.232  10.403  1.00  0.00    -0.073 C 
ATOM      7  C   UNL     1      -7.616  -3.561  10.666  1.00  0.00     0.008 C 
ATOM      8  C   UNL     1      -5.320  -4.347  10.321  1.00  0.00     0.031 C 
ATOM      9  C   UNL     1      -3.940  -3.825   9.909  1.00  0.00     0.005 C 
ATOM     10  C   UNL     1      -4.035  -2.941   8.656  1.00  0.00     0.008 C 
ATOM     11  C   UNL     1      -5.078  -1.760   8.768  1.00  0.00    -0.018 C 
ATOM     12  C   UNL     1      -6.098  -1.885   7.604  1.00  0.00     0.088 C 
ATOM     13  C   UNL     1      -7.227  -0.902   7.715  1.00  0.00     0.159 C 
ATOM     14  O   UNL     1      -7.610  -0.299   6.677  1.00  0.00    -0.295 OA
ATOM     15  C   UNL     1      -4.307  -0.422   8.631  1.00  0.00     0.012 C 
ATOM     16  C   UNL     1     -10.110  -0.280   7.968  1.00  0.00     0.039 C 
ENDROOT
TORSDOF 0
ENDMDL
