MODEL 1
REMARK VINA RESULT:    -3.463      0.000      0.000
REMARK INTER + INTRA:          -3.899
REMARK INTER:                  -3.868
REMARK INTRA:                  -0.030
REMARK UNBOUND:                -0.030
REMARK SMILES CCCC(=O)[O-]
REMARK SMILES IDX 3 1 4 2 5 3 6 4 2 5 1 6
REMARK H PARENT
REMARK Flexibility Score: inf
ROOT
ATOM      1  C   UNL     1      16.295   2.180  55.567  1.00  0.00     0.052 C 
ENDROOT
BRANCH   1   2
ATOM      2  C   UNL     1      15.085   3.020  55.844  1.00  0.00     0.041 C 
ATOM      3  O   UNL     1      15.000   4.186  55.376  1.00  0.00    -0.550 OA
ATOM      4  O   UNL     1      14.036   2.502  56.592  1.00  0.00    -0.550 OA
ENDBRANCH   1   2
BRANCH   1   5
ATOM      5  C   UNL     1      16.396   0.995  56.533  1.00  0.00     0.003 C 
ATOM      6  C   UNL     1      16.519  -0.343  55.803  1.00  0.00     0.004 C 
ENDBRANCH   1   5
TORSDOF 2
ENDMDL
MODEL 2
REMARK VINA RESULT:    -3.319     11.733     12.901
REMARK INTER + INTRA:          -3.738
REMARK INTER:                  -3.688
REMARK INTRA:                  -0.049
REMARK UNBOUND:                -0.030
REMARK SMILES CCCC(=O)[O-]
REMARK SMILES IDX 3 1 4 2 5 3 6 4 2 5 1 6
REMARK H PARENT
REMARK Flexibility Score: inf
ROOT
ATOM      1  C   UNL     1      23.646  -7.472  54.962  1.00  0.00     0.052 C 
ENDROOT
BRANCH   1   2
ATOM      2  C   UNL     1      23.780  -7.986  53.561  1.00  0.00     0.041 C 
ATOM      3  O   UNL     1      24.154  -9.170  53.351  1.00  0.00    -0.550 OA
ATOM      4  O   UNL     1      23.459  -7.166  52.487  1.00  0.00    -0.550 OA
ENDBRANCH   1   2
BRANCH   1   5
ATOM      5  C   UNL     1      22.344  -7.947  55.618  1.00  0.00     0.003 C 
ATOM      6  C   UNL     1      21.136  -7.115  55.185  1.00  0.00     0.004 C 
ENDBRANCH   1   5
TORSDOF 2
ENDMDL
MODEL 3
REMARK VINA RESULT:    -3.318     11.326     12.175
REMARK INTER + INTRA:          -3.737
REMARK INTER:                  -3.669
REMARK INTRA:                  -0.068
REMARK UNBOUND:                -0.030
REMARK SMILES CCCC(=O)[O-]
REMARK SMILES IDX 3 1 4 2 5 3 6 4 2 5 1 6
REMARK H PARENT
REMARK Flexibility Score: inf
ROOT
ATOM      1  C   UNL     1      22.947  -8.467  54.964  1.00  0.00     0.052 C 
ENDROOT
BRANCH   1   2
ATOM      2  C   UNL     1      21.954  -7.346  54.920  1.00  0.00     0.041 C 
ATOM      3  O   UNL     1      21.078  -7.239  55.818  1.00  0.00    -0.550 OA
ATOM      4  O   UNL     1      22.016  -6.402  53.904  1.00  0.00    -0.550 OA
ENDBRANCH   1   2
BRANCH   1   5
ATOM      5  C   UNL     1      24.378  -7.950  55.150  1.00  0.00     0.003 C 
ATOM      6  C   UNL     1      24.564  -7.214  56.477  1.00  0.00     0.004 C 
ENDBRANCH   1   5
TORSDOF 2
ENDMDL
MODEL 4
REMARK VINA RESULT:    -3.301     11.934     13.122
REMARK INTER + INTRA:          -3.717
REMARK INTER:                  -3.679
REMARK INTRA:                  -0.038
REMARK UNBOUND:                -0.030
REMARK SMILES CCCC(=O)[O-]
REMARK SMILES IDX 3 1 4 2 5 3 6 4 2 5 1 6
REMARK H PARENT
REMARK Flexibility Score: inf
ROOT
ATOM      1  C   UNL     1      23.340  -8.408  54.890  1.00  0.00     0.052 C 
ENDROOT
BRANCH   1   2
ATOM      2  C   UNL     1      24.618  -8.042  55.581  1.00  0.00     0.041 C 
ATOM      3  O   UNL     1      25.709  -8.551  55.210  1.00  0.00    -0.550 OA
ATOM      4  O   UNL     1      24.609  -7.113  56.612  1.00  0.00    -0.550 OA
ENDBRANCH   1   2
BRANCH   1   5
ATOM      5  C   UNL     1      22.439  -7.186  54.678  1.00  0.00     0.003 C 
ATOM      6  C   UNL     1      21.128  -7.285  55.459  1.00  0.00     0.004 C 
ENDBRANCH   1   5
TORSDOF 2
ENDMDL
MODEL 5
REMARK VINA RESULT:    -3.247     12.142     12.713
REMARK INTER + INTRA:          -3.657
REMARK INTER:                  -3.630
REMARK INTRA:                  -0.027
REMARK UNBOUND:                -0.030
REMARK SMILES CCCC(=O)[O-]
REMARK SMILES IDX 3 1 4 2 5 3 6 4 2 5 1 6
REMARK H PARENT
REMARK Flexibility Score: inf
ROOT
ATOM      1  C   UNL     1      24.035  -8.074  54.226  1.00  0.00     0.052 C 
ENDROOT
BRANCH   1   2
ATOM      2  C   UNL     1      23.300  -7.337  53.147  1.00  0.00     0.041 C 
ATOM      3  O   UNL     1      23.589  -7.530  51.936  1.00  0.00    -0.550 OA
ATOM      4  O   UNL     1      22.275  -6.462  53.479  1.00  0.00    -0.550 OA
ENDBRANCH   1   2
BRANCH   1   5
ATOM      5  C   UNL     1      23.506  -7.715  55.619  1.00  0.00     0.003 C 
ATOM      6  C   UNL     1      24.607  -7.191  56.543  1.00  0.00     0.004 C 
ENDBRANCH   1   5
TORSDOF 2
ENDMDL
MODEL 6
REMARK VINA RESULT:    -3.180      4.087      5.203
REMARK INTER + INTRA:          -3.582
REMARK INTER:                  -3.546
REMARK INTRA:                  -0.036
REMARK UNBOUND:                -0.030
REMARK SMILES CCCC(=O)[O-]
REMARK SMILES IDX 3 1 4 2 5 3 6 4 2 5 1 6
REMARK H PARENT
REMARK Flexibility Score: inf
ROOT
ATOM      1  C   UNL     1      11.255   3.693  54.195  1.00  0.00     0.052 C 
ENDROOT
BRANCH   1   2
ATOM      2  C   UNL     1      12.051   3.725  55.464  1.00  0.00     0.041 C 
ATOM      3  O   UNL     1      11.467   3.727  56.580  1.00  0.00    -0.550 OA
ATOM      4  O   UNL     1      13.439   3.719  55.414  1.00  0.00    -0.550 OA
ENDBRANCH   1   2
BRANCH   1   5
ATOM      5  C   UNL     1      12.089   4.145  52.991  1.00  0.00     0.003 C 
ATOM      6  C   UNL     1      12.087   5.664  52.817  1.00  0.00     0.004 C 
ENDBRANCH   1   5
TORSDOF 2
ENDMDL
MODEL 7
REMARK VINA RESULT:    -3.178      4.630      5.891
REMARK INTER + INTRA:          -3.580
REMARK INTER:                  -3.508
REMARK INTRA:                  -0.072
REMARK UNBOUND:                -0.030
REMARK SMILES CCCC(=O)[O-]
REMARK SMILES IDX 3 1 4 2 5 3 6 4 2 5 1 6
REMARK H PARENT
REMARK Flexibility Score: inf
ROOT
ATOM      1  C   UNL     1      10.652   3.413  54.418  1.00  0.00     0.052 C 
ENDROOT
BRANCH   1   2
ATOM      2  C   UNL     1      11.956   4.019  53.998  1.00  0.00     0.041 C 
ATOM      3  O   UNL     1      12.146   4.348  52.797  1.00  0.00    -0.550 OA
ATOM      4  O   UNL     1      12.950   4.249  54.940  1.00  0.00    -0.550 OA
ENDBRANCH   1   2
BRANCH   1   5
ATOM      5  C   UNL     1       9.952   4.258  55.488  1.00  0.00     0.003 C 
ATOM      6  C   UNL     1       9.629   5.670  54.996  1.00  0.00     0.004 C 
ENDBRANCH   1   5
TORSDOF 2
ENDMDL
MODEL 8
REMARK VINA RESULT:    -3.174      4.622      5.960
REMARK INTER + INTRA:          -3.575
REMARK INTER:                  -3.503
REMARK INTRA:                  -0.072
REMARK UNBOUND:                -0.030
REMARK SMILES CCCC(=O)[O-]
REMARK SMILES IDX 3 1 4 2 5 3 6 4 2 5 1 6
REMARK H PARENT
REMARK Flexibility Score: inf
ROOT
ATOM      1  C   UNL     1      10.665   3.430  54.418  1.00  0.00     0.052 C 
ENDROOT
BRANCH   1   2
ATOM      2  C   UNL     1      11.971   4.073  54.066  1.00  0.00     0.041 C 
ATOM      3  O   UNL     1      12.903   4.125  54.912  1.00  0.00    -0.550 OA
ATOM      4  O   UNL     1      12.171   4.587  52.792  1.00  0.00    -0.550 OA
ENDBRANCH   1   2
BRANCH   1   5
ATOM      5  C   UNL     1       9.919   4.218  55.501  1.00  0.00     0.003 C 
ATOM      6  C   UNL     1       9.604   5.650  55.067  1.00  0.00     0.004 C 
ENDBRANCH   1   5
TORSDOF 2
ENDMDL
MODEL 9
REMARK VINA RESULT:    -3.161      5.258      5.960
REMARK INTER + INTRA:          -3.561
REMARK INTER:                  -3.494
REMARK INTRA:                  -0.067
REMARK UNBOUND:                -0.030
REMARK SMILES CCCC(=O)[O-]
REMARK SMILES IDX 3 1 4 2 5 3 6 4 2 5 1 6
REMARK H PARENT
REMARK Flexibility Score: inf
ROOT
ATOM      1  C   UNL     1       9.718   3.828  54.845  1.00  0.00     0.052 C 
ENDROOT
BRANCH   1   2
ATOM      2  C   UNL     1      10.036   4.985  55.743  1.00  0.00     0.041 C 
ATOM      3  O   UNL     1       9.469   6.096  55.571  1.00  0.00    -0.550 OA
ATOM      4  O   UNL     1      10.933   4.825  56.791  1.00  0.00    -0.550 OA
ENDBRANCH   1   2
BRANCH   1   5
ATOM      5  C   UNL     1      10.988   3.201  54.258  1.00  0.00     0.003 C 
ATOM      6  C   UNL     1      11.794   4.195  53.420  1.00  0.00     0.004 C 
ENDBRANCH   1   5
TORSDOF 2
ENDMDL
