MODEL 1
REMARK VINA RESULT:    -3.626      0.000      0.000
REMARK INTER + INTRA:          -4.423
REMARK INTER:                  -4.368
REMARK INTRA:                  -0.054
REMARK UNBOUND:                -0.054
REMARK SMILES CCCCCO
REMARK SMILES IDX 4 1 3 2 2 3 1 4 5 5 6 6
REMARK H PARENT 6 7
REMARK Flexibility Score: inf
ROOT
ATOM      1  C   UNL     1      10.375   3.373  -1.334  1.00  0.00     0.028 C 
ENDROOT
BRANCH   1   2
ATOM      2  C   UNL     1       9.337   4.174  -0.537  1.00  0.00     0.002 C 
BRANCH   2   3
ATOM      3  C   UNL     1       8.429   4.981  -1.472  1.00  0.00    -0.003 C 
ATOM      4  C   UNL     1       8.279   6.420  -0.989  1.00  0.00     0.004 C 
ENDBRANCH   2   3
ENDBRANCH   1   2
BRANCH   1   5
ATOM      5  C   UNL     1      10.009   3.285  -2.819  1.00  0.00     0.156 C 
BRANCH   5   6
ATOM      6  O   UNL     1      11.139   2.999  -3.598  1.00  0.00    -0.396 OA
ATOM      7  H   UNL     1      11.930   3.161  -3.020  1.00  0.00     0.210 HD
ENDBRANCH   5   6
ENDBRANCH   1   5
TORSDOF 4
ENDMDL
MODEL 2
REMARK VINA RESULT:    -3.618      2.068      2.790
REMARK INTER + INTRA:          -4.412
REMARK INTER:                  -4.364
REMARK INTRA:                  -0.048
REMARK UNBOUND:                -0.054
REMARK SMILES CCCCCO
REMARK SMILES IDX 4 1 3 2 2 3 1 4 5 5 6 6
REMARK H PARENT 6 7
REMARK Flexibility Score: inf
ROOT
ATOM      1  C   UNL     1      10.514   3.607  -1.033  1.00  0.00     0.028 C 
ENDROOT
BRANCH   1   2
ATOM      2  C   UNL     1      10.060   3.364  -2.478  1.00  0.00     0.002 C 
BRANCH   2   3
ATOM      3  C   UNL     1       8.898   4.290  -2.853  1.00  0.00    -0.003 C 
ATOM      4  C   UNL     1       8.545   4.162  -4.331  1.00  0.00     0.004 C 
ENDBRANCH   2   3
ENDBRANCH   1   2
BRANCH   1   5
ATOM      5  C   UNL     1      10.380   5.080  -0.634  1.00  0.00     0.156 C 
BRANCH   5   6
ATOM      6  O   UNL     1      11.495   5.818  -1.058  1.00  0.00    -0.396 OA
ATOM      7  H   UNL     1      11.465   5.833  -2.050  1.00  0.00     0.210 HD
ENDBRANCH   5   6
ENDBRANCH   1   5
TORSDOF 4
ENDMDL
MODEL 3
REMARK VINA RESULT:    -3.583      1.885      2.508
REMARK INTER + INTRA:          -4.370
REMARK INTER:                  -4.279
REMARK INTRA:                  -0.091
REMARK UNBOUND:                -0.054
REMARK SMILES CCCCCO
REMARK SMILES IDX 4 1 3 2 2 3 1 4 5 5 6 6
REMARK H PARENT 6 7
REMARK Flexibility Score: inf
ROOT
ATOM      1  C   UNL     1      11.627   3.666  -2.899  1.00  0.00     0.028 C 
ENDROOT
BRANCH   1   2
ATOM      2  C   UNL     1      10.269   3.175  -2.380  1.00  0.00     0.002 C 
BRANCH   2   3
ATOM      3  C   UNL     1      10.142   3.405  -0.871  1.00  0.00    -0.003 C 
ATOM      4  C   UNL     1       9.062   4.436  -0.559  1.00  0.00     0.004 C 
ENDBRANCH   2   3
ENDBRANCH   1   2
BRANCH   1   5
ATOM      5  C   UNL     1      11.612   5.169  -3.199  1.00  0.00     0.156 C 
BRANCH   5   6
ATOM      6  O   UNL     1      12.309   5.883  -2.214  1.00  0.00    -0.396 OA
ATOM      7  H   UNL     1      12.943   5.244  -1.795  1.00  0.00     0.210 HD
ENDBRANCH   5   6
ENDBRANCH   1   5
TORSDOF 4
ENDMDL
MODEL 4
REMARK VINA RESULT:    -3.471      1.810      2.052
REMARK INTER + INTRA:          -4.235
REMARK INTER:                  -4.135
REMARK INTRA:                  -0.100
REMARK UNBOUND:                -0.054
REMARK SMILES CCCCCO
REMARK SMILES IDX 4 1 3 2 2 3 1 4 5 5 6 6
REMARK H PARENT 6 7
REMARK Flexibility Score: inf
ROOT
ATOM      1  C   UNL     1      10.614   3.960  -2.304  1.00  0.00     0.028 C 
ENDROOT
BRANCH   1   2
ATOM      2  C   UNL     1      10.310   3.634  -0.836  1.00  0.00     0.002 C 
BRANCH   2   3
ATOM      3  C   UNL     1       9.027   4.333  -0.372  1.00  0.00    -0.003 C 
ATOM      4  C   UNL     1       8.350   5.065  -1.526  1.00  0.00     0.004 C 
ENDBRANCH   2   3
ENDBRANCH   1   2
BRANCH   1   5
ATOM      5  C   UNL     1      11.927   4.735  -2.455  1.00  0.00     0.156 C 
BRANCH   5   6
ATOM      6  O   UNL     1      11.844   5.989  -1.832  1.00  0.00    -0.396 OA
ATOM      7  H   UNL     1      12.552   6.555  -2.237  1.00  0.00     0.210 HD
ENDBRANCH   5   6
ENDBRANCH   1   5
TORSDOF 4
ENDMDL
MODEL 5
REMARK VINA RESULT:    -3.441      2.265      3.059
REMARK INTER + INTRA:          -4.199
REMARK INTER:                  -4.111
REMARK INTRA:                  -0.087
REMARK UNBOUND:                -0.054
REMARK SMILES CCCCCO
REMARK SMILES IDX 4 1 3 2 2 3 1 4 5 5 6 6
REMARK H PARENT 6 7
REMARK Flexibility Score: inf
ROOT
ATOM      1  C   UNL     1       9.156   4.322  -2.789  1.00  0.00     0.028 C 
ENDROOT
BRANCH   1   2
ATOM      2  C   UNL     1       8.996   4.471  -4.308  1.00  0.00     0.002 C 
BRANCH   2   3
ATOM      3  C   UNL     1       9.399   5.876  -4.768  1.00  0.00    -0.003 C 
ATOM      4  C   UNL     1      10.871   5.926  -5.163  1.00  0.00     0.004 C 
ENDBRANCH   2   3
ENDBRANCH   1   2
BRANCH   1   5
ATOM      5  C   UNL     1      10.134   3.200  -2.427  1.00  0.00     0.156 C 
BRANCH   5   6
ATOM      6  O   UNL     1      10.958   2.883  -3.517  1.00  0.00    -0.396 OA
ATOM      7  H   UNL     1      10.757   1.942  -3.761  1.00  0.00     0.210 HD
ENDBRANCH   5   6
ENDBRANCH   1   5
TORSDOF 4
ENDMDL
MODEL 6
REMARK VINA RESULT:    -3.424      2.216      2.792
REMARK INTER + INTRA:          -4.179
REMARK INTER:                  -4.118
REMARK INTRA:                  -0.061
REMARK UNBOUND:                -0.054
REMARK SMILES CCCCCO
REMARK SMILES IDX 4 1 3 2 2 3 1 4 5 5 6 6
REMARK H PARENT 6 7
REMARK Flexibility Score: inf
ROOT
ATOM      1  C   UNL     1      11.424   3.791  -3.002  1.00  0.00     0.028 C 
ENDROOT
BRANCH   1   2
ATOM      2  C   UNL     1      10.044   3.658  -2.345  1.00  0.00     0.002 C 
BRANCH   2   3
ATOM      3  C   UNL     1       9.030   4.604  -2.999  1.00  0.00    -0.003 C 
ATOM      4  C   UNL     1       8.507   4.029  -4.312  1.00  0.00     0.004 C 
ENDBRANCH   2   3
ENDBRANCH   1   2
BRANCH   1   5
ATOM      5  C   UNL     1      11.814   5.258  -3.216  1.00  0.00     0.156 C 
BRANCH   5   6
ATOM      6  O   UNL     1      12.454   5.776  -2.081  1.00  0.00    -0.396 OA
ATOM      7  H   UNL     1      11.783   6.331  -1.605  1.00  0.00     0.210 HD
ENDBRANCH   5   6
ENDBRANCH   1   5
TORSDOF 4
ENDMDL
MODEL 7
REMARK VINA RESULT:    -3.353      1.673      2.203
REMARK INTER + INTRA:          -4.093
REMARK INTER:                  -4.009
REMARK INTRA:                  -0.084
REMARK UNBOUND:                -0.054
REMARK SMILES CCCCCO
REMARK SMILES IDX 4 1 3 2 2 3 1 4 5 5 6 6
REMARK H PARENT 6 7
REMARK Flexibility Score: inf
ROOT
ATOM      1  C   UNL     1       9.997   4.342  -1.877  1.00  0.00     0.028 C 
ENDROOT
BRANCH   1   2
ATOM      2  C   UNL     1       8.583   4.632  -2.397  1.00  0.00     0.002 C 
BRANCH   2   3
ATOM      3  C   UNL     1       8.469   4.306  -3.890  1.00  0.00    -0.003 C 
ATOM      4  C   UNL     1       9.178   5.356  -4.739  1.00  0.00     0.004 C 
ENDBRANCH   2   3
ENDBRANCH   1   2
BRANCH   1   5
ATOM      5  C   UNL     1      10.429   2.902  -2.172  1.00  0.00     0.156 C 
BRANCH   5   6
ATOM      6  O   UNL     1      11.517   2.876  -3.057  1.00  0.00    -0.396 OA
ATOM      7  H   UNL     1      11.934   1.980  -2.967  1.00  0.00     0.210 HD
ENDBRANCH   5   6
ENDBRANCH   1   5
TORSDOF 4
ENDMDL
MODEL 8
REMARK VINA RESULT:    -3.339      2.600      3.582
REMARK INTER + INTRA:          -4.076
REMARK INTER:                  -4.041
REMARK INTRA:                  -0.035
REMARK UNBOUND:                -0.054
REMARK SMILES CCCCCO
REMARK SMILES IDX 4 1 3 2 2 3 1 4 5 5 6 6
REMARK H PARENT 6 7
REMARK Flexibility Score: inf
ROOT
ATOM      1  C   UNL     1      10.176   4.606  -0.728  1.00  0.00     0.028 C 
ENDROOT
BRANCH   1   2
ATOM      2  C   UNL     1      10.368   3.273  -1.463  1.00  0.00     0.002 C 
BRANCH   2   3
ATOM      3  C   UNL     1      11.173   3.467  -2.752  1.00  0.00    -0.003 C 
ATOM      4  C   UNL     1      12.007   4.742  -2.696  1.00  0.00     0.004 C 
ENDBRANCH   2   3
ENDBRANCH   1   2
BRANCH   1   5
ATOM      5  C   UNL     1       8.701   4.873  -0.408  1.00  0.00     0.156 C 
BRANCH   5   6
ATOM      6  O   UNL     1       8.546   6.101   0.253  1.00  0.00    -0.396 OA
ATOM      7  H   UNL     1       8.926   5.983   1.163  1.00  0.00     0.210 HD
ENDBRANCH   5   6
ENDBRANCH   1   5
TORSDOF 4
ENDMDL
MODEL 9
REMARK VINA RESULT:    -3.331      1.644      2.571
REMARK INTER + INTRA:          -4.067
REMARK INTER:                  -3.969
REMARK INTRA:                  -0.097
REMARK UNBOUND:                -0.054
REMARK SMILES CCCCCO
REMARK SMILES IDX 4 1 3 2 2 3 1 4 5 5 6 6
REMARK H PARENT 6 7
REMARK Flexibility Score: inf
ROOT
ATOM      1  C   UNL     1       9.004   5.475  -3.157  1.00  0.00     0.028 C 
ENDROOT
BRANCH   1   2
ATOM      2  C   UNL     1       8.376   4.575  -2.084  1.00  0.00     0.002 C 
BRANCH   2   3
ATOM      3  C   UNL     1       9.265   4.502  -0.838  1.00  0.00    -0.003 C 
ATOM      4  C   UNL     1      10.269   3.359  -0.944  1.00  0.00     0.004 C 
ENDBRANCH   2   3
ENDBRANCH   1   2
BRANCH   1   5
ATOM      5  C   UNL     1       9.328   4.696  -4.436  1.00  0.00     0.156 C 
BRANCH   5   6
ATOM      6  O   UNL     1       8.702   3.441  -4.429  1.00  0.00    -0.396 OA
ATOM      7  H   UNL     1       7.724   3.611  -4.393  1.00  0.00     0.210 HD
ENDBRANCH   5   6
ENDBRANCH   1   5
TORSDOF 4
ENDMDL
