MODEL 1
REMARK VINA RESULT:    -7.589      0.000      0.000
REMARK INTER + INTRA:          -9.450
REMARK INTER:                  -9.142
REMARK INTRA:                  -0.308
REMARK UNBOUND:                -0.308
REMARK SMILES O=c1c(O)c(-c2ccc(O)c(O)c2)oc2cc(O)cc(O)c12
REMARK SMILES IDX 5 1 3 2 2 3 1 4 22 5 20 6 19 7 17 8 16 9 15 10 14 11 6 12
REMARK SMILES IDX 7 13 8 14 9 15 13 16 11 17 10 18 12 20 4 22 21 24 18 26
REMARK H PARENT 10 19 12 21 4 23 21 25 18 27
REMARK Flexibility Score: inf
ROOT
ATOM      1  C   UNL     1      60.954 -16.147  -0.324  1.00  0.00     0.180 A 
ATOM      2  C   UNL     1      61.758 -17.233   0.061  1.00  0.00     0.208 A 
ATOM      3  C   UNL     1      61.189 -18.264   0.826  1.00  0.00     0.238 A 
ATOM      4  O   UNL     1      61.928 -19.208   1.213  1.00  0.00    -0.285 OA
ATOM      5  C   UNL     1      59.821 -18.205   1.181  1.00  0.00     0.111 A 
ATOM      6  C   UNL     1      59.130 -19.213   1.919  1.00  0.00     0.134 A 
ATOM      7  C   UNL     1      57.810 -18.988   2.328  1.00  0.00     0.093 A 
ATOM      8  C   UNL     1      57.134 -17.822   1.970  1.00  0.00     0.123 A 
ATOM      9  C   UNL     1      57.780 -16.856   1.197  1.00  0.00     0.094 A 
ATOM     10  C   UNL     1      59.109 -17.035   0.806  1.00  0.00     0.146 A 
ATOM     11  O   UNL     1      59.690 -16.087   0.081  1.00  0.00    -0.452 OA
ENDROOT
BRANCH   1  12
ATOM     12  C   UNL     1      61.475 -15.034  -1.151  1.00  0.00     0.025 A 
ATOM     13  C   UNL     1      62.185 -13.965  -0.576  1.00  0.00     0.016 A 
ATOM     14  C   UNL     1      62.689 -12.939  -1.379  1.00  0.00     0.051 A 
ATOM     15  C   UNL     1      62.505 -12.972  -2.767  1.00  0.00     0.157 A 
ATOM     16  C   UNL     1      61.313 -15.073  -2.545  1.00  0.00     0.062 A 
ATOM     17  C   UNL     1      61.816 -14.047  -3.352  1.00  0.00     0.158 A 
BRANCH  15  18
ATOM     18  O   UNL     1      63.008 -11.946  -3.565  1.00  0.00    -0.504 OA
ATOM     19  H   UNL     1      62.655 -11.779  -4.500  1.00  0.00     0.293 HD
ENDBRANCH  15  18
BRANCH  17  20
ATOM     20  O   UNL     1      61.622 -14.113  -4.732  1.00  0.00    -0.504 OA
ATOM     21  H   UNL     1      61.989 -13.410  -5.362  1.00  0.00     0.293 HD
ENDBRANCH  17  20
ENDBRANCH   1  12
BRANCH   2  22
ATOM     22  O   UNL     1      63.113 -17.262  -0.283  1.00  0.00    -0.502 OA
ATOM     23  H   UNL     1      63.729 -18.016  -0.005  1.00  0.00     0.293 HD
ENDBRANCH   2  22
BRANCH   6  24
ATOM     24  O   UNL     1      59.682 -20.454   2.250  1.00  0.00    -0.507 OA
ATOM     25  H   UNL     1      59.978 -21.149   1.580  1.00  0.00     0.293 HD
ENDBRANCH   6  24
BRANCH   8  26
ATOM     26  O   UNL     1      55.815 -17.639   2.380  1.00  0.00    -0.508 OA
ATOM     27  H   UNL     1      55.185 -18.424   2.502  1.00  0.00     0.293 HD
ENDBRANCH   8  26
TORSDOF 6
ENDMDL
MODEL 2
REMARK VINA RESULT:    -7.527      1.466      2.968
REMARK INTER + INTRA:          -9.374
REMARK INTER:                  -9.049
REMARK INTRA:                  -0.326
REMARK UNBOUND:                -0.308
REMARK SMILES O=c1c(O)c(-c2ccc(O)c(O)c2)oc2cc(O)cc(O)c12
REMARK SMILES IDX 5 1 3 2 2 3 1 4 22 5 20 6 19 7 17 8 16 9 15 10 14 11 6 12
REMARK SMILES IDX 7 13 8 14 9 15 13 16 11 17 10 18 12 20 4 22 21 24 18 26
REMARK H PARENT 10 19 12 21 4 23 21 25 18 27
REMARK Flexibility Score: inf
ROOT
ATOM      1  C   UNL     1      61.080 -16.225   0.068  1.00  0.00     0.180 A 
ATOM      2  C   UNL     1      60.029 -15.903   0.945  1.00  0.00     0.208 A 
ATOM      3  C   UNL     1      59.601 -16.862   1.876  1.00  0.00     0.238 A 
ATOM      4  O   UNL     1      58.625 -16.588   2.622  1.00  0.00    -0.285 OA
ATOM      5  C   UNL     1      60.239 -18.125   1.931  1.00  0.00     0.111 A 
ATOM      6  C   UNL     1      59.913 -19.158   2.861  1.00  0.00     0.134 A 
ATOM      7  C   UNL     1      60.519 -20.414   2.738  1.00  0.00     0.093 A 
ATOM      8  C   UNL     1      61.485 -20.655   1.761  1.00  0.00     0.123 A 
ATOM      9  C   UNL     1      61.855 -19.634   0.884  1.00  0.00     0.094 A 
ATOM     10  C   UNL     1      61.241 -18.382   0.959  1.00  0.00     0.146 A 
ATOM     11  O   UNL     1      61.613 -17.441   0.099  1.00  0.00    -0.452 OA
ENDROOT
BRANCH   1  12
ATOM     12  C   UNL     1      61.603 -15.258  -0.924  1.00  0.00     0.025 A 
ATOM     13  C   UNL     1      62.566 -14.297  -0.572  1.00  0.00     0.016 A 
ATOM     14  C   UNL     1      63.063 -13.411  -1.531  1.00  0.00     0.051 A 
ATOM     15  C   UNL     1      62.616 -13.479  -2.857  1.00  0.00     0.157 A 
ATOM     16  C   UNL     1      61.174 -15.337  -2.259  1.00  0.00     0.062 A 
ATOM     17  C   UNL     1      61.669 -14.450  -3.222  1.00  0.00     0.158 A 
BRANCH  15  18
ATOM     18  O   UNL     1      63.112 -12.593  -3.811  1.00  0.00    -0.504 OA
ATOM     19  H   UNL     1      62.518 -12.201  -4.532  1.00  0.00     0.293 HD
ENDBRANCH  15  18
BRANCH  17  20
ATOM     20  O   UNL     1      61.209 -14.550  -4.535  1.00  0.00    -0.504 OA
ATOM     21  H   UNL     1      60.248 -14.786  -4.752  1.00  0.00     0.293 HD
ENDBRANCH  17  20
ENDBRANCH   1  12
BRANCH   2  22
ATOM     22  O   UNL     1      59.399 -14.657   0.860  1.00  0.00    -0.502 OA
ATOM     23  H   UNL     1      58.510 -14.529   0.393  1.00  0.00     0.293 HD
ENDBRANCH   2  22
BRANCH   6  24
ATOM     24  O   UNL     1      59.030 -18.994   3.931  1.00  0.00    -0.507 OA
ATOM     25  H   UNL     1      58.032 -19.134   3.879  1.00  0.00     0.293 HD
ENDBRANCH   6  24
BRANCH   8  26
ATOM     26  O   UNL     1      62.080 -21.913   1.679  1.00  0.00    -0.508 OA
ATOM     27  H   UNL     1      62.607 -22.301   2.453  1.00  0.00     0.293 HD
ENDBRANCH   8  26
TORSDOF 6
ENDMDL
MODEL 3
REMARK VINA RESULT:    -7.513      2.201      7.100
REMARK INTER + INTRA:          -9.358
REMARK INTER:                  -9.043
REMARK INTRA:                  -0.315
REMARK UNBOUND:                -0.308
REMARK SMILES O=c1c(O)c(-c2ccc(O)c(O)c2)oc2cc(O)cc(O)c12
REMARK SMILES IDX 5 1 3 2 2 3 1 4 22 5 20 6 19 7 17 8 16 9 15 10 14 11 6 12
REMARK SMILES IDX 7 13 8 14 9 15 13 16 11 17 10 18 12 20 4 22 21 24 18 26
REMARK H PARENT 10 19 12 21 4 23 21 25 18 27
REMARK Flexibility Score: inf
ROOT
ATOM      1  C   UNL     1      60.828 -15.101  -1.817  1.00  0.00     0.180 A 
ATOM      2  C   UNL     1      61.969 -14.284  -1.889  1.00  0.00     0.208 A 
ATOM      3  C   UNL     1      62.077 -13.356  -2.937  1.00  0.00     0.238 A 
ATOM      4  O   UNL     1      63.125 -12.664  -3.027  1.00  0.00    -0.285 OA
ATOM      5  C   UNL     1      61.036 -13.244  -3.889  1.00  0.00     0.111 A 
ATOM      6  C   UNL     1      61.021 -12.310  -4.969  1.00  0.00     0.134 A 
ATOM      7  C   UNL     1      60.002 -12.378  -5.927  1.00  0.00     0.093 A 
ATOM      8  C   UNL     1      58.963 -13.301  -5.810  1.00  0.00     0.123 A 
ATOM      9  C   UNL     1      58.935 -14.179  -4.725  1.00  0.00     0.094 A 
ATOM     10  C   UNL     1      59.957 -14.160  -3.774  1.00  0.00     0.146 A 
ATOM     11  O   UNL     1      59.899 -15.019  -2.763  1.00  0.00    -0.452 OA
ENDROOT
BRANCH   1  12
ATOM     12  C   UNL     1      60.631 -16.086  -0.729  1.00  0.00     0.025 A 
ATOM     13  C   UNL     1      61.021 -17.429  -0.878  1.00  0.00     0.016 A 
ATOM     14  C   UNL     1      60.848 -18.334   0.172  1.00  0.00     0.051 A 
ATOM     15  C   UNL     1      60.298 -17.911   1.389  1.00  0.00     0.157 A 
ATOM     16  C   UNL     1      60.101 -15.662   0.500  1.00  0.00     0.062 A 
ATOM     17  C   UNL     1      59.925 -16.567   1.553  1.00  0.00     0.158 A 
BRANCH  15  18
ATOM     18  O   UNL     1      60.126 -18.818   2.433  1.00  0.00    -0.504 OA
ATOM     19  H   UNL     1      59.229 -19.251   2.618  1.00  0.00     0.293 HD
ENDBRANCH  15  18
BRANCH  17  20
ATOM     20  O   UNL     1      59.382 -16.111   2.755  1.00  0.00    -0.504 OA
ATOM     21  H   UNL     1      59.895 -15.503   3.381  1.00  0.00     0.293 HD
ENDBRANCH  17  20
ENDBRANCH   1  12
BRANCH   2  22
ATOM     22  O   UNL     1      62.995 -14.425  -0.950  1.00  0.00    -0.502 OA
ATOM     23  H   UNL     1      63.789 -15.036  -1.100  1.00  0.00     0.293 HD
ENDBRANCH   2  22
BRANCH   6  24
ATOM     24  O   UNL     1      61.961 -11.288  -5.130  1.00  0.00    -0.507 OA
ATOM     25  H   UNL     1      61.733 -10.322  -5.315  1.00  0.00     0.293 HD
ENDBRANCH   6  24
BRANCH   8  26
ATOM     26  O   UNL     1      57.957 -13.329  -6.773  1.00  0.00    -0.508 OA
ATOM     27  H   UNL     1      57.264 -14.068  -6.794  1.00  0.00     0.293 HD
ENDBRANCH   8  26
TORSDOF 6
ENDMDL
MODEL 4
REMARK VINA RESULT:    -7.332      1.986      4.026
REMARK INTER + INTRA:          -9.140
REMARK INTER:                  -8.817
REMARK INTRA:                  -0.322
REMARK UNBOUND:                -0.308
REMARK SMILES O=c1c(O)c(-c2ccc(O)c(O)c2)oc2cc(O)cc(O)c12
REMARK SMILES IDX 5 1 3 2 2 3 1 4 22 5 20 6 19 7 17 8 16 9 15 10 14 11 6 12
REMARK SMILES IDX 7 13 8 14 9 15 13 16 11 17 10 18 12 20 4 22 21 24 18 26
REMARK H PARENT 10 19 12 21 4 23 21 25 18 27
REMARK Flexibility Score: inf
ROOT
ATOM      1  C   UNL     1      59.449 -17.468   1.108  1.00  0.00     0.180 A 
ATOM      2  C   UNL     1      58.112 -17.347   1.525  1.00  0.00     0.208 A 
ATOM      3  C   UNL     1      57.545 -18.373   2.297  1.00  0.00     0.238 A 
ATOM      4  O   UNL     1      56.332 -18.284   2.623  1.00  0.00    -0.285 OA
ATOM      5  C   UNL     1      58.324 -19.498   2.656  1.00  0.00     0.111 A 
ATOM      6  C   UNL     1      57.864 -20.578   3.469  1.00  0.00     0.134 A 
ATOM      7  C   UNL     1      58.678 -21.702   3.651  1.00  0.00     0.093 A 
ATOM      8  C   UNL     1      59.960 -21.758   3.105  1.00  0.00     0.123 A 
ATOM      9  C   UNL     1      60.444 -20.683   2.358  1.00  0.00     0.094 A 
ATOM     10  C   UNL     1      59.640 -19.564   2.129  1.00  0.00     0.146 A 
ATOM     11  O   UNL     1      60.134 -18.567   1.404  1.00  0.00    -0.452 OA
ENDROOT
BRANCH   1  12
ATOM     12  C   UNL     1      60.124 -16.417   0.312  1.00  0.00     0.025 A 
ATOM     13  C   UNL     1      60.058 -16.406  -1.093  1.00  0.00     0.016 A 
ATOM     14  C   UNL     1      60.682 -15.390  -1.821  1.00  0.00     0.051 A 
ATOM     15  C   UNL     1      61.369 -14.365  -1.159  1.00  0.00     0.157 A 
ATOM     16  C   UNL     1      60.795 -15.374   0.971  1.00  0.00     0.062 A 
ATOM     17  C   UNL     1      61.422 -14.356   0.244  1.00  0.00     0.158 A 
BRANCH  15  18
ATOM     18  O   UNL     1      61.992 -13.354  -1.889  1.00  0.00    -0.504 OA
ATOM     19  H   UNL     1      63.001 -13.275  -1.933  1.00  0.00     0.293 HD
ENDBRANCH  15  18
BRANCH  17  20
ATOM     20  O   UNL     1      62.091 -13.345   0.934  1.00  0.00    -0.504 OA
ATOM     21  H   UNL     1      63.062 -13.121   0.753  1.00  0.00     0.293 HD
ENDBRANCH  17  20
ENDBRANCH   1  12
BRANCH   2  22
ATOM     22  O   UNL     1      57.353 -16.237   1.142  1.00  0.00    -0.502 OA
ATOM     23  H   UNL     1      56.342 -16.259   1.096  1.00  0.00     0.293 HD
ENDBRANCH   2  22
BRANCH   6  24
ATOM     24  O   UNL     1      56.636 -20.583   4.137  1.00  0.00    -0.507 OA
ATOM     25  H   UNL     1      56.044 -21.393   4.246  1.00  0.00     0.293 HD
ENDBRANCH   6  24
BRANCH   8  26
ATOM     26  O   UNL     1      60.750 -22.886   3.320  1.00  0.00    -0.508 OA
ATOM     27  H   UNL     1      60.789 -23.641   2.645  1.00  0.00     0.293 HD
ENDBRANCH   8  26
TORSDOF 6
ENDMDL
MODEL 5
REMARK VINA RESULT:    -7.184      1.514      3.128
REMARK INTER + INTRA:          -8.961
REMARK INTER:                  -8.660
REMARK INTRA:                  -0.301
REMARK UNBOUND:                -0.308
REMARK SMILES O=c1c(O)c(-c2ccc(O)c(O)c2)oc2cc(O)cc(O)c12
REMARK SMILES IDX 5 1 3 2 2 3 1 4 22 5 20 6 19 7 17 8 16 9 15 10 14 11 6 12
REMARK SMILES IDX 7 13 8 14 9 15 13 16 11 17 10 18 12 20 4 22 21 24 18 26
REMARK H PARENT 10 19 12 21 4 23 21 25 18 27
REMARK Flexibility Score: inf
ROOT
ATOM      1  C   UNL     1      60.475 -16.572   0.594  1.00  0.00     0.180 A 
ATOM      2  C   UNL     1      59.207 -16.489   1.195  1.00  0.00     0.208 A 
ATOM      3  C   UNL     1      58.707 -17.603   1.885  1.00  0.00     0.238 A 
ATOM      4  O   UNL     1      57.548 -17.542   2.375  1.00  0.00    -0.285 OA
ATOM      5  C   UNL     1      59.486 -18.781   1.983  1.00  0.00     0.111 A 
ATOM      6  C   UNL     1      59.095 -19.956   2.693  1.00  0.00     0.134 A 
ATOM      7  C   UNL     1      59.887 -21.108   2.611  1.00  0.00     0.093 A 
ATOM      8  C   UNL     1      61.087 -21.108   1.901  1.00  0.00     0.123 A 
ATOM      9  C   UNL     1      61.509 -19.946   1.253  1.00  0.00     0.094 A 
ATOM     10  C   UNL     1      60.722 -18.793   1.285  1.00  0.00     0.146 A 
ATOM     11  O   UNL     1      61.154 -17.713   0.646  1.00  0.00    -0.452 OA
ENDROOT
BRANCH   1  12
ATOM     12  C   UNL     1      61.081 -15.431  -0.131  1.00  0.00     0.025 A 
ATOM     13  C   UNL     1      61.685 -14.364   0.558  1.00  0.00     0.016 A 
ATOM     14  C   UNL     1      62.271 -13.311  -0.148  1.00  0.00     0.051 A 
ATOM     15  C   UNL     1      62.275 -13.312  -1.548  1.00  0.00     0.157 A 
ATOM     16  C   UNL     1      61.106 -15.439  -1.535  1.00  0.00     0.062 A 
ATOM     17  C   UNL     1      61.691 -14.384  -2.244  1.00  0.00     0.158 A 
BRANCH  15  18
ATOM     18  O   UNL     1      62.859 -12.258  -2.249  1.00  0.00    -0.504 OA
ATOM     19  H   UNL     1      62.561 -11.300  -2.113  1.00  0.00     0.293 HD
ENDBRANCH  15  18
BRANCH  17  20
ATOM     20  O   UNL     1      61.685 -14.420  -3.639  1.00  0.00    -0.504 OA
ATOM     21  H   UNL     1      61.082 -15.046  -4.158  1.00  0.00     0.293 HD
ENDBRANCH  17  20
ENDBRANCH   1  12
BRANCH   2  22
ATOM     22  O   UNL     1      58.445 -15.323   1.069  1.00  0.00    -0.502 OA
ATOM     23  H   UNL     1      58.210 -14.922   0.169  1.00  0.00     0.293 HD
ENDBRANCH   2  22
BRANCH   6  24
ATOM     24  O   UNL     1      57.962 -20.035   3.508  1.00  0.00    -0.507 OA
ATOM     25  H   UNL     1      57.798 -20.755   4.196  1.00  0.00     0.293 HD
ENDBRANCH   6  24
BRANCH   8  26
ATOM     26  O   UNL     1      61.858 -22.268   1.856  1.00  0.00    -0.508 OA
ATOM     27  H   UNL     1      62.618 -22.425   2.508  1.00  0.00     0.293 HD
ENDBRANCH   8  26
TORSDOF 6
ENDMDL
MODEL 6
REMARK VINA RESULT:    -7.141      2.035      2.995
REMARK INTER + INTRA:          -8.910
REMARK INTER:                  -8.604
REMARK INTRA:                  -0.306
REMARK UNBOUND:                -0.308
REMARK SMILES O=c1c(O)c(-c2ccc(O)c(O)c2)oc2cc(O)cc(O)c12
REMARK SMILES IDX 5 1 3 2 2 3 1 4 22 5 20 6 19 7 17 8 16 9 15 10 14 11 6 12
REMARK SMILES IDX 7 13 8 14 9 15 13 16 11 17 10 18 12 20 4 22 21 24 18 26
REMARK H PARENT 10 19 12 21 4 23 21 25 18 27
REMARK Flexibility Score: inf
ROOT
ATOM      1  C   UNL     1      60.387 -17.892   1.046  1.00  0.00     0.180 A 
ATOM      2  C   UNL     1      61.465 -18.782   1.195  1.00  0.00     0.208 A 
ATOM      3  C   UNL     1      61.276 -19.960   1.934  1.00  0.00     0.238 A 
ATOM      4  O   UNL     1      62.259 -20.728   2.110  1.00  0.00    -0.285 OA
ATOM      5  C   UNL     1      60.010 -20.242   2.501  1.00  0.00     0.111 A 
ATOM      6  C   UNL     1      59.695 -21.426   3.235  1.00  0.00     0.134 A 
ATOM      7  C   UNL     1      58.448 -21.538   3.862  1.00  0.00     0.093 A 
ATOM      8  C   UNL     1      57.482 -20.542   3.727  1.00  0.00     0.123 A 
ATOM      9  C   UNL     1      57.757 -19.408   2.962  1.00  0.00     0.094 A 
ATOM     10  C   UNL     1      59.005 -19.250   2.355  1.00  0.00     0.146 A 
ATOM     11  O   UNL     1      59.230 -18.152   1.645  1.00  0.00    -0.452 OA
ENDROOT
BRANCH   1  12
ATOM     12  C   UNL     1      60.502 -16.641   0.260  1.00  0.00     0.025 A 
ATOM     13  C   UNL     1      60.042 -16.565  -1.066  1.00  0.00     0.016 A 
ATOM     14  C   UNL     1      60.139 -15.368  -1.779  1.00  0.00     0.051 A 
ATOM     15  C   UNL     1      60.681 -14.226  -1.176  1.00  0.00     0.157 A 
ATOM     16  C   UNL     1      61.025 -15.488   0.868  1.00  0.00     0.062 A 
ATOM     17  C   UNL     1      61.123 -14.287   0.156  1.00  0.00     0.158 A 
BRANCH  15  18
ATOM     18  O   UNL     1      60.777 -13.034  -1.891  1.00  0.00    -0.504 OA
ATOM     19  H   UNL     1      59.999 -12.388  -1.954  1.00  0.00     0.293 HD
ENDBRANCH  15  18
BRANCH  17  20
ATOM     20  O   UNL     1      61.662 -13.167   0.789  1.00  0.00    -0.504 OA
ATOM     21  H   UNL     1      62.020 -13.203   1.735  1.00  0.00     0.293 HD
ENDBRANCH  17  20
ENDBRANCH   1  12
BRANCH   2  22
ATOM     22  O   UNL     1      62.713 -18.474   0.645  1.00  0.00    -0.502 OA
ATOM     23  H   UNL     1      62.816 -17.887  -0.173  1.00  0.00     0.293 HD
ENDBRANCH   2  22
BRANCH   6  24
ATOM     24  O   UNL     1      60.554 -22.521   3.355  1.00  0.00    -0.507 OA
ATOM     25  H   UNL     1      60.504 -23.355   2.789  1.00  0.00     0.293 HD
ENDBRANCH   6  24
BRANCH   8  26
ATOM     26  O   UNL     1      56.245 -20.695   4.352  1.00  0.00    -0.508 OA
ATOM     27  H   UNL     1      55.391 -20.359   3.923  1.00  0.00     0.293 HD
ENDBRANCH   8  26
TORSDOF 6
ENDMDL
MODEL 7
REMARK VINA RESULT:    -6.885      2.641      7.736
REMARK INTER + INTRA:          -8.602
REMARK INTER:                  -8.279
REMARK INTRA:                  -0.323
REMARK UNBOUND:                -0.308
REMARK SMILES O=c1c(O)c(-c2ccc(O)c(O)c2)oc2cc(O)cc(O)c12
REMARK SMILES IDX 5 1 3 2 2 3 1 4 22 5 20 6 19 7 17 8 16 9 15 10 14 11 6 12
REMARK SMILES IDX 7 13 8 14 9 15 13 16 11 17 10 18 12 20 4 22 21 24 18 26
REMARK H PARENT 10 19 12 21 4 23 21 25 18 27
REMARK Flexibility Score: inf
ROOT
ATOM      1  C   UNL     1      59.490 -19.587   2.603  1.00  0.00     0.180 A 
ATOM      2  C   UNL     1      60.283 -20.293   1.682  1.00  0.00     0.208 A 
ATOM      3  C   UNL     1      60.967 -19.579   0.686  1.00  0.00     0.238 A 
ATOM      4  O   UNL     1      61.632 -20.220  -0.169  1.00  0.00    -0.285 OA
ATOM      5  C   UNL     1      60.864 -18.168   0.633  1.00  0.00     0.111 A 
ATOM      6  C   UNL     1      61.546 -17.340  -0.309  1.00  0.00     0.134 A 
ATOM      7  C   UNL     1      61.267 -15.968  -0.352  1.00  0.00     0.093 A 
ATOM      8  C   UNL     1      60.382 -15.385   0.554  1.00  0.00     0.123 A 
ATOM      9  C   UNL     1      59.755 -16.175   1.518  1.00  0.00     0.094 A 
ATOM     10  C   UNL     1      59.985 -17.552   1.562  1.00  0.00     0.146 A 
ATOM     11  O   UNL     1      59.360 -18.270   2.487  1.00  0.00    -0.452 OA
ENDROOT
BRANCH   1  12
ATOM     12  C   UNL     1      58.758 -20.267   3.697  1.00  0.00     0.025 A 
ATOM     13  C   UNL     1      59.314 -20.393   4.982  1.00  0.00     0.016 A 
ATOM     14  C   UNL     1      58.595 -21.017   6.004  1.00  0.00     0.051 A 
ATOM     15  C   UNL     1      57.307 -21.512   5.763  1.00  0.00     0.157 A 
ATOM     16  C   UNL     1      57.458 -20.745   3.466  1.00  0.00     0.062 A 
ATOM     17  C   UNL     1      56.735 -21.372   4.488  1.00  0.00     0.158 A 
BRANCH  15  18
ATOM     18  O   UNL     1      56.593 -22.136   6.785  1.00  0.00    -0.504 OA
ATOM     19  H   UNL     1      56.432 -23.136   6.787  1.00  0.00     0.293 HD
ENDBRANCH  15  18
BRANCH  17  20
ATOM     20  O   UNL     1      55.452 -21.847   4.217  1.00  0.00    -0.504 OA
ATOM     21  H   UNL     1      54.895 -22.323   4.916  1.00  0.00     0.293 HD
ENDBRANCH  17  20
ENDBRANCH   1  12
BRANCH   2  22
ATOM     22  O   UNL     1      60.354 -21.688   1.739  1.00  0.00    -0.502 OA
ATOM     23  H   UNL     1      61.025 -22.174   2.321  1.00  0.00     0.293 HD
ENDBRANCH   2  22
BRANCH   6  24
ATOM     24  O   UNL     1      62.519 -17.806  -1.198  1.00  0.00    -0.507 OA
ATOM     25  H   UNL     1      62.327 -18.179  -2.116  1.00  0.00     0.293 HD
ENDBRANCH   6  24
BRANCH   8  26
ATOM     26  O   UNL     1      60.141 -14.014   0.492  1.00  0.00    -0.508 OA
ATOM     27  H   UNL     1      60.559 -13.434  -0.227  1.00  0.00     0.293 HD
ENDBRANCH   8  26
TORSDOF 6
ENDMDL
MODEL 8
REMARK VINA RESULT:    -6.772      6.049      9.896
REMARK INTER + INTRA:          -8.466
REMARK INTER:                  -8.146
REMARK INTRA:                  -0.320
REMARK UNBOUND:                -0.308
REMARK SMILES O=c1c(O)c(-c2ccc(O)c(O)c2)oc2cc(O)cc(O)c12
REMARK SMILES IDX 5 1 3 2 2 3 1 4 22 5 20 6 19 7 17 8 16 9 15 10 14 11 6 12
REMARK SMILES IDX 7 13 8 14 9 15 13 16 11 17 10 18 12 20 4 22 21 24 18 26
REMARK H PARENT 10 19 12 21 4 23 21 25 18 27
REMARK Flexibility Score: inf
ROOT
ATOM      1  C   UNL     1      56.351 -13.739  -5.951  1.00  0.00     0.180 A 
ATOM      2  C   UNL     1      56.474 -12.785  -6.976  1.00  0.00     0.208 A 
ATOM      3  C   UNL     1      57.717 -12.168  -7.184  1.00  0.00     0.238 A 
ATOM      4  O   UNL     1      57.808 -11.275  -8.068  1.00  0.00    -0.285 OA
ATOM      5  C   UNL     1      58.825 -12.523  -6.379  1.00  0.00     0.111 A 
ATOM      6  C   UNL     1      60.141 -11.990  -6.529  1.00  0.00     0.134 A 
ATOM      7  C   UNL     1      61.129 -12.315  -5.591  1.00  0.00     0.093 A 
ATOM      8  C   UNL     1      60.867 -13.204  -4.548  1.00  0.00     0.123 A 
ATOM      9  C   UNL     1      59.601 -13.777  -4.427  1.00  0.00     0.094 A 
ATOM     10  C   UNL     1      58.585 -13.444  -5.325  1.00  0.00     0.146 A 
ATOM     11  O   UNL     1      57.391 -14.003  -5.168  1.00  0.00    -0.452 OA
ENDROOT
BRANCH   1  12
ATOM     12  C   UNL     1      55.079 -14.451  -5.685  1.00  0.00     0.025 A 
ATOM     13  C   UNL     1      54.821 -15.719  -6.236  1.00  0.00     0.016 A 
ATOM     14  C   UNL     1      53.625 -16.381  -5.952  1.00  0.00     0.051 A 
ATOM     15  C   UNL     1      52.675 -15.796  -5.105  1.00  0.00     0.157 A 
ATOM     16  C   UNL     1      54.134 -13.878  -4.819  1.00  0.00     0.062 A 
ATOM     17  C   UNL     1      52.934 -14.539  -4.533  1.00  0.00     0.158 A 
BRANCH  15  18
ATOM     18  O   UNL     1      51.482 -16.460  -4.825  1.00  0.00    -0.504 OA
ATOM     19  H   UNL     1      50.715 -16.475  -5.486  1.00  0.00     0.293 HD
ENDBRANCH  15  18
BRANCH  17  20
ATOM     20  O   UNL     1      52.013 -13.932  -3.679  1.00  0.00    -0.504 OA
ATOM     21  H   UNL     1      51.314 -13.281  -4.017  1.00  0.00     0.293 HD
ENDBRANCH  17  20
ENDBRANCH   1  12
BRANCH   2  22
ATOM     22  O   UNL     1      55.362 -12.433  -7.746  1.00  0.00    -0.502 OA
ATOM     23  H   UNL     1      54.497 -12.106  -7.334  1.00  0.00     0.293 HD
ENDBRANCH   2  22
BRANCH   6  24
ATOM     24  O   UNL     1      60.533 -11.166  -7.587  1.00  0.00    -0.507 OA
ATOM     25  H   UNL     1      60.224 -11.271  -8.542  1.00  0.00     0.293 HD
ENDBRANCH   6  24
BRANCH   8  26
ATOM     26  O   UNL     1      61.880 -13.517  -3.643  1.00  0.00    -0.508 OA
ATOM     27  H   UNL     1      62.857 -13.374  -3.871  1.00  0.00     0.293 HD
ENDBRANCH   8  26
TORSDOF 6
ENDMDL
MODEL 9
REMARK VINA RESULT:    -6.423     16.149     18.541
REMARK INTER + INTRA:          -8.044
REMARK INTER:                  -7.722
REMARK INTRA:                  -0.322
REMARK UNBOUND:                -0.308
REMARK SMILES O=c1c(O)c(-c2ccc(O)c(O)c2)oc2cc(O)cc(O)c12
REMARK SMILES IDX 5 1 3 2 2 3 1 4 22 5 20 6 19 7 17 8 16 9 15 10 14 11 6 12
REMARK SMILES IDX 7 13 8 14 9 15 13 16 11 17 10 18 12 20 4 22 21 24 18 26
REMARK H PARENT 10 19 12 21 4 23 21 25 18 27
REMARK Flexibility Score: inf
ROOT
ATOM      1  C   UNL     1      47.123 -26.828  -5.595  1.00  0.00     0.180 A 
ATOM      2  C   UNL     1      45.848 -27.113  -6.115  1.00  0.00     0.208 A 
ATOM      3  C   UNL     1      44.948 -26.056  -6.321  1.00  0.00     0.238 A 
ATOM      4  O   UNL     1      43.789 -26.322  -6.736  1.00  0.00    -0.285 OA
ATOM      5  C   UNL     1      45.337 -24.729  -6.022  1.00  0.00     0.111 A 
ATOM      6  C   UNL     1      44.518 -23.577  -6.230  1.00  0.00     0.134 A 
ATOM      7  C   UNL     1      44.956 -22.328  -5.775  1.00  0.00     0.093 A 
ATOM      8  C   UNL     1      46.209 -22.176  -5.180  1.00  0.00     0.123 A 
ATOM      9  C   UNL     1      47.042 -23.285  -5.026  1.00  0.00     0.094 A 
ATOM     10  C   UNL     1      46.617 -24.550  -5.436  1.00  0.00     0.146 A 
ATOM     11  O   UNL     1      47.436 -25.581  -5.262  1.00  0.00    -0.452 OA
ENDROOT
BRANCH   1  12
ATOM     12  C   UNL     1      48.137 -27.886  -5.372  1.00  0.00     0.025 A 
ATOM     13  C   UNL     1      48.236 -28.557  -4.141  1.00  0.00     0.016 A 
ATOM     14  C   UNL     1      49.184 -29.568  -3.962  1.00  0.00     0.051 A 
ATOM     15  C   UNL     1      50.036 -29.933  -5.012  1.00  0.00     0.157 A 
ATOM     16  C   UNL     1      48.978 -28.271  -6.429  1.00  0.00     0.062 A 
ATOM     17  C   UNL     1      49.929 -29.282  -6.253  1.00  0.00     0.158 A 
BRANCH  15  18
ATOM     18  O   UNL     1      50.981 -30.941  -4.830  1.00  0.00    -0.504 OA
ATOM     19  H   UNL     1      51.920 -30.737  -4.509  1.00  0.00     0.293 HD
ENDBRANCH  15  18
BRANCH  17  20
ATOM     20  O   UNL     1      50.757 -29.627  -7.321  1.00  0.00    -0.504 OA
ATOM     21  H   UNL     1      51.360 -28.952  -7.774  1.00  0.00     0.293 HD
ENDBRANCH  17  20
ENDBRANCH   1  12
BRANCH   2  22
ATOM     22  O   UNL     1      45.477 -28.433  -6.383  1.00  0.00    -0.502 OA
ATOM     23  H   UNL     1      45.471 -29.152  -5.670  1.00  0.00     0.293 HD
ENDBRANCH   2  22
BRANCH   6  24
ATOM     24  O   UNL     1      43.290 -23.603  -6.897  1.00  0.00    -0.507 OA
ATOM     25  H   UNL     1      42.454 -23.136  -6.579  1.00  0.00     0.293 HD
ENDBRANCH   6  24
BRANCH   8  26
ATOM     26  O   UNL     1      46.619 -20.914  -4.755  1.00  0.00    -0.508 OA
ATOM     27  H   UNL     1      47.569 -20.591  -4.895  1.00  0.00     0.293 HD
ENDBRANCH   8  26
TORSDOF 6
ENDMDL
