MODEL 1
REMARK VINA RESULT:    -4.799      0.000      0.000
REMARK INTER + INTRA:         -15.054
REMARK INTER:                 -12.093
REMARK INTRA:                  -2.961
REMARK UNBOUND:                -2.961
REMARK SMILES CCCCCCCCCCCCCCCCCCCCCCCCCCCC(=O)[O-]
REMARK SMILES IDX 15 1 16 2 17 3 18 4 19 5 20 6 21 7 22 8 23 9 24 10 25 11
REMARK SMILES IDX 26 12 27 13 28 14 29 15 30 16 14 17 13 18 12 19 11 20 10 21
REMARK SMILES IDX 9 22 8 23 7 24 6 25 5 26 4 27 3 28 2 29 1 30
REMARK H PARENT
REMARK Flexibility Score: inf
ROOT
ATOM      1  C   UNL     1      48.629  63.888  92.720  1.00  0.00     0.000 C 
ENDROOT
BRANCH   1   2
ATOM      2  C   UNL     1      49.305  64.866  93.700  1.00  0.00     0.000 C 
BRANCH   2   3
ATOM      3  C   UNL     1      48.373  65.927  94.312  1.00  0.00     0.000 C 
BRANCH   3   4
ATOM      4  C   UNL     1      49.005  66.799  95.416  1.00  0.00     0.000 C 
BRANCH   4   5
ATOM      5  C   UNL     1      49.850  67.986  94.912  1.00  0.00     0.000 C 
BRANCH   5   6
ATOM      6  C   UNL     1      51.364  67.844  95.144  1.00  0.00     0.000 C 
BRANCH   6   7
ATOM      7  C   UNL     1      52.181  68.095  93.864  1.00  0.00     0.000 C 
BRANCH   7   8
ATOM      8  C   UNL     1      51.718  67.231  92.678  1.00  0.00     0.000 C 
BRANCH   8   9
ATOM      9  C   UNL     1      51.215  68.012  91.446  1.00  0.00     0.000 C 
BRANCH   9  10
ATOM     10  C   UNL     1      49.678  68.099  91.334  1.00  0.00     0.000 C 
BRANCH  10  11
ATOM     11  C   UNL     1      49.096  67.033  90.386  1.00  0.00     0.000 C 
BRANCH  11  12
ATOM     12  C   UNL     1      47.556  66.993  90.394  1.00  0.00     0.006 C 
BRANCH  12  13
ATOM     13  C   UNL     1      46.947  66.749  91.788  1.00  0.00     0.053 C 
BRANCH  13  14
ATOM     14  C   UNL     1      45.644  66.015  91.728  1.00  0.00     0.041 C 
ATOM     15  O   UNL     1      44.968  66.006  90.666  1.00  0.00    -0.550 OA
ATOM     16  O   UNL     1      45.162  65.360  92.857  1.00  0.00    -0.550 OA
ENDBRANCH  13  14
ENDBRANCH  12  13
ENDBRANCH  11  12
ENDBRANCH  10  11
ENDBRANCH   9  10
ENDBRANCH   8   9
ENDBRANCH   7   8
ENDBRANCH   6   7
ENDBRANCH   5   6
ENDBRANCH   4   5
ENDBRANCH   3   4
ENDBRANCH   2   3
ENDBRANCH   1   2
BRANCH   1  17
ATOM     17  C   UNL     1      48.565  62.434  93.231  1.00  0.00     0.000 C 
BRANCH  17  18
ATOM     18  C   UNL     1      49.924  61.922  93.746  1.00  0.00     0.000 C 
BRANCH  18  19
ATOM     19  C   UNL     1      49.791  61.088  95.030  1.00  0.00     0.000 C 
BRANCH  19  20
ATOM     20  C   UNL     1      49.094  59.738  94.790  1.00  0.00     0.000 C 
BRANCH  20  21
ATOM     21  C   UNL     1      50.079  58.558  94.759  1.00  0.00     0.000 C 
BRANCH  21  22
ATOM     22  C   UNL     1      50.461  58.141  93.330  1.00  0.00    -0.000 C 
BRANCH  22  23
ATOM     23  C   UNL     1      51.896  58.574  92.995  1.00  0.00    -0.000 C 
BRANCH  23  24
ATOM     24  C   UNL     1      52.449  57.873  91.744  1.00  0.00    -0.000 C 
BRANCH  24  25
ATOM     25  C   UNL     1      51.488  56.807  91.188  1.00  0.00    -0.000 C 
BRANCH  25  26
ATOM     26  C   UNL     1      52.231  55.641  90.517  1.00  0.00    -0.000 C 
BRANCH  26  27
ATOM     27  C   UNL     1      52.085  54.322  91.297  1.00  0.00    -0.000 C 
BRANCH  27  28
ATOM     28  C   UNL     1      51.728  54.542  92.779  1.00  0.00    -0.000 C 
BRANCH  28  29
ATOM     29  C   UNL     1      52.932  54.533  93.739  1.00  0.00    -0.003 C 
ATOM     30  C   UNL     1      52.831  55.598  94.831  1.00  0.00     0.004 C 
ENDBRANCH  28  29
ENDBRANCH  27  28
ENDBRANCH  26  27
ENDBRANCH  25  26
ENDBRANCH  24  25
ENDBRANCH  23  24
ENDBRANCH  22  23
ENDBRANCH  21  22
ENDBRANCH  20  21
ENDBRANCH  19  20
ENDBRANCH  18  19
ENDBRANCH  17  18
ENDBRANCH   1  17
TORSDOF 26
ENDMDL
MODEL 2
REMARK VINA RESULT:    -4.768      1.222      3.814
REMARK INTER + INTRA:         -14.976
REMARK INTER:                 -11.899
REMARK INTRA:                  -3.077
REMARK UNBOUND:                -2.961
REMARK SMILES CCCCCCCCCCCCCCCCCCCCCCCCCCCC(=O)[O-]
REMARK SMILES IDX 15 1 16 2 17 3 18 4 19 5 20 6 21 7 22 8 23 9 24 10 25 11
REMARK SMILES IDX 26 12 27 13 28 14 29 15 30 16 14 17 13 18 12 19 11 20 10 21
REMARK SMILES IDX 9 22 8 23 7 24 6 25 5 26 4 27 3 28 2 29 1 30
REMARK H PARENT
REMARK Flexibility Score: inf
ROOT
ATOM      1  C   UNL     1      49.976  59.943  94.740  1.00  0.00     0.000 C 
ENDROOT
BRANCH   1   2
ATOM      2  C   UNL     1      49.528  60.065  93.271  1.00  0.00     0.000 C 
BRANCH   2   3
ATOM      3  C   UNL     1      48.870  61.406  92.897  1.00  0.00     0.000 C 
BRANCH   3   4
ATOM      4  C   UNL     1      49.340  62.621  93.722  1.00  0.00     0.000 C 
BRANCH   4   5
ATOM      5  C   UNL     1      48.711  63.970  93.322  1.00  0.00     0.000 C 
BRANCH   5   6
ATOM      6  C   UNL     1      49.716  65.116  93.118  1.00  0.00     0.000 C 
BRANCH   6   7
ATOM      7  C   UNL     1      49.278  66.413  93.823  1.00  0.00     0.000 C 
BRANCH   7   8
ATOM      8  C   UNL     1      49.761  67.681  93.098  1.00  0.00     0.000 C 
BRANCH   8   9
ATOM      9  C   UNL     1      50.565  67.438  91.804  1.00  0.00     0.000 C 
BRANCH   9  10
ATOM     10  C   UNL     1      49.726  67.513  90.510  1.00  0.00     0.000 C 
BRANCH  10  11
ATOM     11  C   UNL     1      48.249  67.855  90.786  1.00  0.00     0.000 C 
BRANCH  11  12
ATOM     12  C   UNL     1      47.336  66.614  90.811  1.00  0.00     0.006 C 
BRANCH  12  13
ATOM     13  C   UNL     1      46.298  66.629  91.949  1.00  0.00     0.053 C 
BRANCH  13  14
ATOM     14  C   UNL     1      45.134  65.728  91.679  1.00  0.00     0.041 C 
ATOM     15  O   UNL     1      44.064  66.197  91.207  1.00  0.00    -0.550 OA
ATOM     16  O   UNL     1      45.219  64.371  91.976  1.00  0.00    -0.550 OA
ENDBRANCH  13  14
ENDBRANCH  12  13
ENDBRANCH  11  12
ENDBRANCH  10  11
ENDBRANCH   9  10
ENDBRANCH   8   9
ENDBRANCH   7   8
ENDBRANCH   6   7
ENDBRANCH   5   6
ENDBRANCH   4   5
ENDBRANCH   3   4
ENDBRANCH   2   3
ENDBRANCH   1   2
BRANCH   1  17
ATOM     17  C   UNL     1      49.833  58.522  95.323  1.00  0.00     0.000 C 
BRANCH  17  18
ATOM     18  C   UNL     1      50.745  57.496  94.624  1.00  0.00     0.000 C 
BRANCH  18  19
ATOM     19  C   UNL     1      52.043  57.234  95.405  1.00  0.00     0.000 C 
BRANCH  19  20
ATOM     20  C   UNL     1      52.422  55.743  95.440  1.00  0.00     0.000 C 
BRANCH  20  21
ATOM     21  C   UNL     1      53.258  55.313  94.222  1.00  0.00     0.000 C 
BRANCH  21  22
ATOM     22  C   UNL     1      52.654  54.108  93.483  1.00  0.00    -0.000 C 
BRANCH  22  23
ATOM     23  C   UNL     1      51.633  54.565  92.431  1.00  0.00    -0.000 C 
BRANCH  23  24
ATOM     24  C   UNL     1      52.269  54.799  91.051  1.00  0.00    -0.000 C 
BRANCH  24  25
ATOM     25  C   UNL     1      51.979  56.206  90.497  1.00  0.00    -0.000 C 
BRANCH  25  26
ATOM     26  C   UNL     1      51.878  57.264  91.608  1.00  0.00    -0.000 C 
BRANCH  26  27
ATOM     27  C   UNL     1      53.025  58.288  91.552  1.00  0.00    -0.000 C 
BRANCH  27  28
ATOM     28  C   UNL     1      52.863  59.422  92.582  1.00  0.00    -0.000 C 
BRANCH  28  29
ATOM     29  C   UNL     1      52.873  60.841  91.984  1.00  0.00    -0.003 C 
ATOM     30  C   UNL     1      52.803  61.937  93.048  1.00  0.00     0.004 C 
ENDBRANCH  28  29
ENDBRANCH  27  28
ENDBRANCH  26  27
ENDBRANCH  25  26
ENDBRANCH  24  25
ENDBRANCH  23  24
ENDBRANCH  22  23
ENDBRANCH  21  22
ENDBRANCH  20  21
ENDBRANCH  19  20
ENDBRANCH  18  19
ENDBRANCH  17  18
ENDBRANCH   1  17
TORSDOF 26
ENDMDL
MODEL 3
REMARK VINA RESULT:    -4.638      2.420      4.892
REMARK INTER + INTRA:         -14.647
REMARK INTER:                 -11.760
REMARK INTRA:                  -2.887
REMARK UNBOUND:                -2.961
REMARK SMILES CCCCCCCCCCCCCCCCCCCCCCCCCCCC(=O)[O-]
REMARK SMILES IDX 15 1 16 2 17 3 18 4 19 5 20 6 21 7 22 8 23 9 24 10 25 11
REMARK SMILES IDX 26 12 27 13 28 14 29 15 30 16 14 17 13 18 12 19 11 20 10 21
REMARK SMILES IDX 9 22 8 23 7 24 6 25 5 26 4 27 3 28 2 29 1 30
REMARK H PARENT
REMARK Flexibility Score: inf
ROOT
ATOM      1  C   UNL     1      49.278  59.938  94.933  1.00  0.00     0.000 C 
ENDROOT
BRANCH   1   2
ATOM      2  C   UNL     1      50.147  60.383  93.740  1.00  0.00     0.000 C 
BRANCH   2   3
ATOM      3  C   UNL     1      50.229  61.905  93.523  1.00  0.00     0.000 C 
BRANCH   3   4
ATOM      4  C   UNL     1      48.871  62.619  93.361  1.00  0.00     0.000 C 
BRANCH   4   5
ATOM      5  C   UNL     1      48.955  64.107  92.964  1.00  0.00     0.000 C 
BRANCH   5   6
ATOM      6  C   UNL     1      47.650  64.700  92.407  1.00  0.00     0.000 C 
BRANCH   6   7
ATOM      7  C   UNL     1      47.567  66.225  92.604  1.00  0.00     0.000 C 
BRANCH   7   8
ATOM      8  C   UNL     1      47.200  66.976  91.313  1.00  0.00     0.000 C 
BRANCH   8   9
ATOM      9  C   UNL     1      48.369  67.227  90.338  1.00  0.00     0.000 C 
BRANCH   9  10
ATOM     10  C   UNL     1      49.589  67.925  90.975  1.00  0.00     0.000 C 
BRANCH  10  11
ATOM     11  C   UNL     1      50.805  66.986  91.103  1.00  0.00     0.000 C 
BRANCH  11  12
ATOM     12  C   UNL     1      51.311  66.848  92.551  1.00  0.00     0.006 C 
BRANCH  12  13
ATOM     13  C   UNL     1      52.326  67.931  92.962  1.00  0.00     0.053 C 
BRANCH  13  14
ATOM     14  C   UNL     1      52.716  67.840  94.404  1.00  0.00     0.041 C 
ATOM     15  O   UNL     1      51.831  67.792  95.300  1.00  0.00    -0.550 OA
ATOM     16  O   UNL     1      54.060  67.835  94.763  1.00  0.00    -0.550 OA
ENDBRANCH  13  14
ENDBRANCH  12  13
ENDBRANCH  11  12
ENDBRANCH  10  11
ENDBRANCH   9  10
ENDBRANCH   8   9
ENDBRANCH   7   8
ENDBRANCH   6   7
ENDBRANCH   5   6
ENDBRANCH   4   5
ENDBRANCH   3   4
ENDBRANCH   2   3
ENDBRANCH   1   2
BRANCH   1  17
ATOM     17  C   UNL     1      49.508  58.475  95.364  1.00  0.00     0.000 C 
BRANCH  17  18
ATOM     18  C   UNL     1      50.528  57.744  94.471  1.00  0.00     0.000 C 
BRANCH  18  19
ATOM     19  C   UNL     1      51.878  57.526  95.174  1.00  0.00     0.000 C 
BRANCH  19  20
ATOM     20  C   UNL     1      52.258  56.038  95.278  1.00  0.00     0.000 C 
BRANCH  20  21
ATOM     21  C   UNL     1      53.485  55.678  94.423  1.00  0.00     0.000 C 
BRANCH  21  22
ATOM     22  C   UNL     1      53.292  54.378  93.627  1.00  0.00    -0.000 C 
BRANCH  22  23
ATOM     23  C   UNL     1      51.836  54.228  93.164  1.00  0.00    -0.000 C 
BRANCH  23  24
ATOM     24  C   UNL     1      51.719  53.945  91.657  1.00  0.00    -0.000 C 
BRANCH  24  25
ATOM     25  C   UNL     1      52.518  54.947  90.803  1.00  0.00    -0.000 C 
BRANCH  25  26
ATOM     26  C   UNL     1      51.672  56.156  90.373  1.00  0.00    -0.000 C 
BRANCH  26  27
ATOM     27  C   UNL     1      51.647  57.267  91.438  1.00  0.00    -0.000 C 
BRANCH  27  28
ATOM     28  C   UNL     1      53.015  57.951  91.619  1.00  0.00    -0.000 C 
BRANCH  28  29
ATOM     29  C   UNL     1      52.951  59.372  92.209  1.00  0.00    -0.003 C 
ATOM     30  C   UNL     1      53.224  60.462  91.173  1.00  0.00     0.004 C 
ENDBRANCH  28  29
ENDBRANCH  27  28
ENDBRANCH  26  27
ENDBRANCH  25  26
ENDBRANCH  24  25
ENDBRANCH  23  24
ENDBRANCH  22  23
ENDBRANCH  21  22
ENDBRANCH  20  21
ENDBRANCH  19  20
ENDBRANCH  18  19
ENDBRANCH  17  18
ENDBRANCH   1  17
TORSDOF 26
ENDMDL
MODEL 4
REMARK VINA RESULT:    -4.583      2.655     10.415
REMARK INTER + INTRA:         -14.510
REMARK INTER:                 -12.023
REMARK INTRA:                  -2.486
REMARK UNBOUND:                -2.961
REMARK SMILES CCCCCCCCCCCCCCCCCCCCCCCCCCCC(=O)[O-]
REMARK SMILES IDX 15 1 16 2 17 3 18 4 19 5 20 6 21 7 22 8 23 9 24 10 25 11
REMARK SMILES IDX 26 12 27 13 28 14 29 15 30 16 14 17 13 18 12 19 11 20 10 21
REMARK SMILES IDX 9 22 8 23 7 24 6 25 5 26 4 27 3 28 2 29 1 30
REMARK H PARENT
REMARK Flexibility Score: inf
ROOT
ATOM      1  C   UNL     1      49.528  60.328  95.005  1.00  0.00     0.000 C 
ENDROOT
BRANCH   1   2
ATOM      2  C   UNL     1      49.885  59.058  94.209  1.00  0.00     0.000 C 
BRANCH   2   3
ATOM      3  C   UNL     1      50.325  57.854  95.061  1.00  0.00     0.000 C 
BRANCH   3   4
ATOM      4  C   UNL     1      51.810  57.462  94.927  1.00  0.00     0.000 C 
BRANCH   4   5
ATOM      5  C   UNL     1      52.348  56.537  96.038  1.00  0.00     0.000 C 
BRANCH   5   6
ATOM      6  C   UNL     1      52.663  55.101  95.586  1.00  0.00     0.000 C 
BRANCH   6   7
ATOM      7  C   UNL     1      53.524  55.063  94.310  1.00  0.00     0.000 C 
BRANCH   7   8
ATOM      8  C   UNL     1      53.243  53.830  93.435  1.00  0.00     0.000 C 
BRANCH   8   9
ATOM      9  C   UNL     1      52.003  53.935  92.523  1.00  0.00     0.000 C 
BRANCH   9  10
ATOM     10  C   UNL     1      52.126  54.988  91.401  1.00  0.00     0.000 C 
BRANCH  10  11
ATOM     11  C   UNL     1      51.351  56.281  91.720  1.00  0.00     0.000 C 
BRANCH  11  12
ATOM     12  C   UNL     1      52.029  57.546  91.161  1.00  0.00     0.006 C 
BRANCH  12  13
ATOM     13  C   UNL     1      52.872  58.311  92.198  1.00  0.00     0.053 C 
BRANCH  13  14
ATOM     14  C   UNL     1      53.109  59.737  91.812  1.00  0.00     0.041 C 
ATOM     15  O   UNL     1      53.837  60.015  90.822  1.00  0.00    -0.550 OA
ATOM     16  O   UNL     1      52.547  60.765  92.562  1.00  0.00    -0.550 OA
ENDBRANCH  13  14
ENDBRANCH  12  13
ENDBRANCH  11  12
ENDBRANCH  10  11
ENDBRANCH   9  10
ENDBRANCH   8   9
ENDBRANCH   7   8
ENDBRANCH   6   7
ENDBRANCH   5   6
ENDBRANCH   4   5
ENDBRANCH   3   4
ENDBRANCH   2   3
ENDBRANCH   1   2
BRANCH   1  17
ATOM     17  C   UNL     1      49.727  61.639  94.216  1.00  0.00     0.000 C 
BRANCH  17  18
ATOM     18  C   UNL     1      48.942  61.662  92.890  1.00  0.00     0.000 C 
BRANCH  18  19
ATOM     19  C   UNL     1      48.151  62.965  92.696  1.00  0.00     0.000 C 
BRANCH  19  20
ATOM     20  C   UNL     1      48.839  64.178  93.347  1.00  0.00     0.000 C 
BRANCH  20  21
ATOM     21  C   UNL     1      48.458  65.508  92.677  1.00  0.00     0.000 C 
BRANCH  21  22
ATOM     22  C   UNL     1      47.710  66.459  93.626  1.00  0.00    -0.000 C 
BRANCH  22  23
ATOM     23  C   UNL     1      48.618  66.908  94.781  1.00  0.00    -0.000 C 
BRANCH  23  24
ATOM     24  C   UNL     1      49.633  67.980  94.353  1.00  0.00    -0.000 C 
BRANCH  24  25
ATOM     25  C   UNL     1      50.908  67.966  95.217  1.00  0.00    -0.000 C 
BRANCH  25  26
ATOM     26  C   UNL     1      52.182  67.771  94.378  1.00  0.00    -0.000 C 
BRANCH  26  27
ATOM     27  C   UNL     1      51.913  67.012  93.066  1.00  0.00    -0.000 C 
BRANCH  27  28
ATOM     28  C   UNL     1      51.689  67.953  91.867  1.00  0.00    -0.000 C 
BRANCH  28  29
ATOM     29  C   UNL     1      50.940  67.317  90.681  1.00  0.00    -0.003 C 
ATOM     30  C   UNL     1      49.553  67.921  90.458  1.00  0.00     0.004 C 
ENDBRANCH  28  29
ENDBRANCH  27  28
ENDBRANCH  26  27
ENDBRANCH  25  26
ENDBRANCH  24  25
ENDBRANCH  23  24
ENDBRANCH  22  23
ENDBRANCH  21  22
ENDBRANCH  20  21
ENDBRANCH  19  20
ENDBRANCH  18  19
ENDBRANCH  17  18
ENDBRANCH   1  17
TORSDOF 26
ENDMDL
MODEL 5
REMARK VINA RESULT:    -4.552      2.158      5.506
REMARK INTER + INTRA:         -14.430
REMARK INTER:                 -11.541
REMARK INTRA:                  -2.890
REMARK UNBOUND:                -2.961
REMARK SMILES CCCCCCCCCCCCCCCCCCCCCCCCCCCC(=O)[O-]
REMARK SMILES IDX 15 1 16 2 17 3 18 4 19 5 20 6 21 7 22 8 23 9 24 10 25 11
REMARK SMILES IDX 26 12 27 13 28 14 29 15 30 16 14 17 13 18 12 19 11 20 10 21
REMARK SMILES IDX 9 22 8 23 7 24 6 25 5 26 4 27 3 28 2 29 1 30
REMARK H PARENT
REMARK Flexibility Score: inf
ROOT
ATOM      1  C   UNL     1      50.555  58.075  95.314  1.00  0.00     0.000 C 
ENDROOT
BRANCH   1   2
ATOM      2  C   UNL     1      49.571  58.379  94.167  1.00  0.00     0.000 C 
BRANCH   2   3
ATOM      3  C   UNL     1      49.766  59.743  93.483  1.00  0.00     0.000 C 
BRANCH   3   4
ATOM      4  C   UNL     1      49.883  60.947  94.439  1.00  0.00     0.000 C 
BRANCH   4   5
ATOM      5  C   UNL     1      49.355  62.284  93.881  1.00  0.00     0.000 C 
BRANCH   5   6
ATOM      6  C   UNL     1      48.486  62.157  92.618  1.00  0.00     0.000 C 
BRANCH   6   7
ATOM      7  C   UNL     1      47.415  63.259  92.530  1.00  0.00     0.000 C 
BRANCH   7   8
ATOM      8  C   UNL     1      48.013  64.661  92.325  1.00  0.00     0.000 C 
BRANCH   8   9
ATOM      9  C   UNL     1      47.007  65.828  92.407  1.00  0.00     0.000 C 
BRANCH   9  10
ATOM     10  C   UNL     1      47.250  66.950  91.375  1.00  0.00     0.000 C 
BRANCH  10  11
ATOM     11  C   UNL     1      48.590  66.787  90.632  1.00  0.00     0.000 C 
BRANCH  11  12
ATOM     12  C   UNL     1      49.680  67.752  91.134  1.00  0.00     0.006 C 
BRANCH  12  13
ATOM     13  C   UNL     1      50.873  67.048  91.807  1.00  0.00     0.053 C 
BRANCH  13  14
ATOM     14  C   UNL     1      50.966  67.341  93.271  1.00  0.00     0.041 C 
ATOM     15  O   UNL     1      49.924  67.383  93.978  1.00  0.00    -0.550 OA
ATOM     16  O   UNL     1      52.204  67.597  93.854  1.00  0.00    -0.550 OA
ENDBRANCH  13  14
ENDBRANCH  12  13
ENDBRANCH  11  12
ENDBRANCH  10  11
ENDBRANCH   9  10
ENDBRANCH   8   9
ENDBRANCH   7   8
ENDBRANCH   6   7
ENDBRANCH   5   6
ENDBRANCH   4   5
ENDBRANCH   3   4
ENDBRANCH   2   3
ENDBRANCH   1   2
BRANCH   1  17
ATOM     17  C   UNL     1      51.798  57.272  94.876  1.00  0.00     0.000 C 
BRANCH  17  18
ATOM     18  C   UNL     1      52.385  56.415  96.013  1.00  0.00     0.000 C 
BRANCH  18  19
ATOM     19  C   UNL     1      52.753  54.995  95.551  1.00  0.00     0.000 C 
BRANCH  19  20
ATOM     20  C   UNL     1      53.373  54.972  94.143  1.00  0.00     0.000 C 
BRANCH  20  21
ATOM     21  C   UNL     1      52.768  53.879  93.246  1.00  0.00     0.000 C 
BRANCH  21  22
ATOM     22  C   UNL     1      51.696  54.423  92.288  1.00  0.00    -0.000 C 
BRANCH  22  23
ATOM     23  C   UNL     1      52.292  54.710  90.902  1.00  0.00    -0.000 C 
BRANCH  23  24
ATOM     24  C   UNL     1      51.969  56.127  90.400  1.00  0.00    -0.000 C 
BRANCH  24  25
ATOM     25  C   UNL     1      51.766  57.130  91.550  1.00  0.00    -0.000 C 
BRANCH  25  26
ATOM     26  C   UNL     1      53.041  57.930  91.862  1.00  0.00    -0.000 C 
BRANCH  26  27
ATOM     27  C   UNL     1      52.746  59.404  92.191  1.00  0.00    -0.000 C 
BRANCH  27  28
ATOM     28  C   UNL     1      53.350  60.378  91.162  1.00  0.00    -0.000 C 
BRANCH  28  29
ATOM     29  C   UNL     1      53.284  61.862  91.564  1.00  0.00    -0.003 C 
ATOM     30  C   UNL     1      52.989  62.066  93.050  1.00  0.00     0.004 C 
ENDBRANCH  28  29
ENDBRANCH  27  28
ENDBRANCH  26  27
ENDBRANCH  25  26
ENDBRANCH  24  25
ENDBRANCH  23  24
ENDBRANCH  22  23
ENDBRANCH  21  22
ENDBRANCH  20  21
ENDBRANCH  19  20
ENDBRANCH  18  19
ENDBRANCH  17  18
ENDBRANCH   1  17
TORSDOF 26
ENDMDL
MODEL 6
REMARK VINA RESULT:    -4.496      2.484     10.198
REMARK INTER + INTRA:         -14.290
REMARK INTER:                 -10.826
REMARK INTRA:                  -3.464
REMARK UNBOUND:                -2.961
REMARK SMILES CCCCCCCCCCCCCCCCCCCCCCCCCCCC(=O)[O-]
REMARK SMILES IDX 15 1 16 2 17 3 18 4 19 5 20 6 21 7 22 8 23 9 24 10 25 11
REMARK SMILES IDX 26 12 27 13 28 14 29 15 30 16 14 17 13 18 12 19 11 20 10 21
REMARK SMILES IDX 9 22 8 23 7 24 6 25 5 26 4 27 3 28 2 29 1 30
REMARK H PARENT
REMARK Flexibility Score: inf
ROOT
ATOM      1  C   UNL     1      49.752  59.125  93.493  1.00  0.00     0.000 C 
ENDROOT
BRANCH   1   2
ATOM      2  C   UNL     1      49.986  57.606  93.605  1.00  0.00     0.000 C 
BRANCH   2   3
ATOM      3  C   UNL     1      50.014  56.848  92.266  1.00  0.00     0.000 C 
BRANCH   3   4
ATOM      4  C   UNL     1      51.296  57.036  91.431  1.00  0.00     0.000 C 
BRANCH   4   5
ATOM      5  C   UNL     1      52.212  55.798  91.347  1.00  0.00     0.000 C 
BRANCH   5   6
ATOM      6  C   UNL     1      51.572  54.487  91.830  1.00  0.00     0.000 C 
BRANCH   6   7
ATOM      7  C   UNL     1      52.291  53.900  93.058  1.00  0.00     0.000 C 
BRANCH   7   8
ATOM      8  C   UNL     1      53.161  54.933  93.794  1.00  0.00     0.000 C 
BRANCH   8   9
ATOM      9  C   UNL     1      52.539  55.533  95.071  1.00  0.00     0.000 C 
BRANCH   9  10
ATOM     10  C   UNL     1      52.845  57.031  95.283  1.00  0.00     0.000 C 
BRANCH  10  11
ATOM     11  C   UNL     1      53.585  57.656  94.085  1.00  0.00     0.000 C 
BRANCH  11  12
ATOM     12  C   UNL     1      53.258  59.148  93.884  1.00  0.00     0.006 C 
BRANCH  12  13
ATOM     13  C   UNL     1      53.065  59.551  92.410  1.00  0.00     0.053 C 
BRANCH  13  14
ATOM     14  C   UNL     1      52.888  61.026  92.233  1.00  0.00     0.041 C 
ATOM     15  O   UNL     1      53.204  61.578  91.146  1.00  0.00    -0.550 OA
ATOM     16  O   UNL     1      52.398  61.800  93.280  1.00  0.00    -0.550 OA
ENDBRANCH  13  14
ENDBRANCH  12  13
ENDBRANCH  11  12
ENDBRANCH  10  11
ENDBRANCH   9  10
ENDBRANCH   8   9
ENDBRANCH   7   8
ENDBRANCH   6   7
ENDBRANCH   5   6
ENDBRANCH   4   5
ENDBRANCH   3   4
ENDBRANCH   2   3
ENDBRANCH   1   2
BRANCH   1  17
ATOM     17  C   UNL     1      49.757  59.862  94.849  1.00  0.00     0.000 C 
BRANCH  17  18
ATOM     18  C   UNL     1      49.394  61.353  94.718  1.00  0.00     0.000 C 
BRANCH  18  19
ATOM     19  C   UNL     1      48.738  61.684  93.368  1.00  0.00     0.000 C 
BRANCH  19  20
ATOM     20  C   UNL     1      49.128  63.078  92.845  1.00  0.00     0.000 C 
BRANCH  20  21
ATOM     21  C   UNL     1      47.912  63.906  92.398  1.00  0.00     0.000 C 
BRANCH  21  22
ATOM     22  C   UNL     1      48.011  65.381  92.819  1.00  0.00    -0.000 C 
BRANCH  22  23
ATOM     23  C   UNL     1      47.400  66.300  91.750  1.00  0.00    -0.000 C 
BRANCH  23  24
ATOM     24  C   UNL     1      48.459  67.135  91.012  1.00  0.00    -0.000 C 
BRANCH  24  25
ATOM     25  C   UNL     1      49.897  66.706  91.355  1.00  0.00    -0.000 C 
BRANCH  25  26
ATOM     26  C   UNL     1      50.700  67.831  92.027  1.00  0.00    -0.000 C 
BRANCH  26  27
ATOM     27  C   UNL     1      51.719  67.298  93.050  1.00  0.00    -0.000 C 
BRANCH  27  28
ATOM     28  C   UNL     1      51.302  67.573  94.507  1.00  0.00    -0.000 C 
BRANCH  28  29
ATOM     29  C   UNL     1      49.873  68.121  94.675  1.00  0.00    -0.003 C 
ATOM     30  C   UNL     1      48.998  67.242  95.568  1.00  0.00     0.004 C 
ENDBRANCH  28  29
ENDBRANCH  27  28
ENDBRANCH  26  27
ENDBRANCH  25  26
ENDBRANCH  24  25
ENDBRANCH  23  24
ENDBRANCH  22  23
ENDBRANCH  21  22
ENDBRANCH  20  21
ENDBRANCH  19  20
ENDBRANCH  18  19
ENDBRANCH  17  18
ENDBRANCH   1  17
TORSDOF 26
ENDMDL
MODEL 7
REMARK VINA RESULT:    -4.455      1.494      2.913
REMARK INTER + INTRA:         -14.188
REMARK INTER:                 -11.072
REMARK INTRA:                  -3.116
REMARK UNBOUND:                -2.961
REMARK SMILES CCCCCCCCCCCCCCCCCCCCCCCCCCCC(=O)[O-]
REMARK SMILES IDX 15 1 16 2 17 3 18 4 19 5 20 6 21 7 22 8 23 9 24 10 25 11
REMARK SMILES IDX 26 12 27 13 28 14 29 15 30 16 14 17 13 18 12 19 11 20 10 21
REMARK SMILES IDX 9 22 8 23 7 24 6 25 5 26 4 27 3 28 2 29 1 30
REMARK H PARENT
REMARK Flexibility Score: inf
ROOT
ATOM      1  C   UNL     1      48.025  62.487  93.064  1.00  0.00     0.000 C 
ENDROOT
BRANCH   1   2
ATOM      2  C   UNL     1      48.695  63.807  92.635  1.00  0.00     0.000 C 
BRANCH   2   3
ATOM      3  C   UNL     1      49.298  64.637  93.781  1.00  0.00     0.000 C 
BRANCH   3   4
ATOM      4  C   UNL     1      48.594  65.980  94.061  1.00  0.00     0.000 C 
BRANCH   4   5
ATOM      5  C   UNL     1      49.286  66.881  95.104  1.00  0.00     0.000 C 
BRANCH   5   6
ATOM      6  C   UNL     1      49.979  68.125  94.523  1.00  0.00     0.000 C 
BRANCH   6   7
ATOM      7  C   UNL     1      51.320  67.788  93.847  1.00  0.00     0.000 C 
BRANCH   7   8
ATOM      8  C   UNL     1      51.330  68.110  92.343  1.00  0.00     0.000 C 
BRANCH   8   9
ATOM      9  C   UNL     1      50.690  67.041  91.433  1.00  0.00     0.000 C 
BRANCH   9  10
ATOM     10  C   UNL     1      49.728  67.607  90.367  1.00  0.00     0.000 C 
BRANCH  10  11
ATOM     11  C   UNL     1      48.324  67.893  90.933  1.00  0.00     0.000 C 
BRANCH  11  12
ATOM     12  C   UNL     1      47.386  66.672  90.868  1.00  0.00     0.006 C 
BRANCH  12  13
ATOM     13  C   UNL     1      46.318  66.647  91.977  1.00  0.00     0.053 C 
BRANCH  13  14
ATOM     14  C   UNL     1      45.157  65.766  91.641  1.00  0.00     0.041 C 
ATOM     15  O   UNL     1      44.116  66.254  91.125  1.00  0.00    -0.550 OA
ATOM     16  O   UNL     1      45.211  64.404  91.923  1.00  0.00    -0.550 OA
ENDBRANCH  13  14
ENDBRANCH  12  13
ENDBRANCH  11  12
ENDBRANCH  10  11
ENDBRANCH   9  10
ENDBRANCH   8   9
ENDBRANCH   7   8
ENDBRANCH   6   7
ENDBRANCH   5   6
ENDBRANCH   4   5
ENDBRANCH   3   4
ENDBRANCH   2   3
ENDBRANCH   1   2
BRANCH   1  17
ATOM     17  C   UNL     1      48.544  61.246  92.309  1.00  0.00     0.000 C 
BRANCH  17  18
ATOM     18  C   UNL     1      49.638  60.489  93.087  1.00  0.00     0.000 C 
BRANCH  18  19
ATOM     19  C   UNL     1      49.427  60.549  94.609  1.00  0.00     0.000 C 
BRANCH  19  20
ATOM     20  C   UNL     1      49.484  59.160  95.269  1.00  0.00     0.000 C 
BRANCH  20  21
ATOM     21  C   UNL     1      50.208  58.118  94.400  1.00  0.00     0.000 C 
BRANCH  21  22
ATOM     22  C   UNL     1      51.411  57.482  95.115  1.00  0.00    -0.000 C 
BRANCH  22  23
ATOM     23  C   UNL     1      52.464  57.008  94.102  1.00  0.00    -0.000 C 
BRANCH  23  24
ATOM     24  C   UNL     1      51.882  56.805  92.694  1.00  0.00    -0.000 C 
BRANCH  24  25
ATOM     25  C   UNL     1      52.303  57.915  91.713  1.00  0.00    -0.000 C 
BRANCH  25  26
ATOM     26  C   UNL     1      52.892  59.140  92.432  1.00  0.00    -0.000 C 
BRANCH  26  27
ATOM     27  C   UNL     1      53.531  60.144  91.457  1.00  0.00    -0.000 C 
BRANCH  27  28
ATOM     28  C   UNL     1      52.899  61.545  91.544  1.00  0.00    -0.000 C 
BRANCH  28  29
ATOM     29  C   UNL     1      52.538  62.003  92.969  1.00  0.00    -0.003 C 
ATOM     30  C   UNL     1      53.745  62.520  93.753  1.00  0.00     0.004 C 
ENDBRANCH  28  29
ENDBRANCH  27  28
ENDBRANCH  26  27
ENDBRANCH  25  26
ENDBRANCH  24  25
ENDBRANCH  23  24
ENDBRANCH  22  23
ENDBRANCH  21  22
ENDBRANCH  20  21
ENDBRANCH  19  20
ENDBRANCH  18  19
ENDBRANCH  17  18
ENDBRANCH   1  17
TORSDOF 26
ENDMDL
MODEL 8
REMARK VINA RESULT:    -4.395      2.395      4.756
REMARK INTER + INTRA:         -14.035
REMARK INTER:                 -11.190
REMARK INTRA:                  -2.844
REMARK UNBOUND:                -2.961
REMARK SMILES CCCCCCCCCCCCCCCCCCCCCCCCCCCC(=O)[O-]
REMARK SMILES IDX 15 1 16 2 17 3 18 4 19 5 20 6 21 7 22 8 23 9 24 10 25 11
REMARK SMILES IDX 26 12 27 13 28 14 29 15 30 16 14 17 13 18 12 19 11 20 10 21
REMARK SMILES IDX 9 22 8 23 7 24 6 25 5 26 4 27 3 28 2 29 1 30
REMARK H PARENT
REMARK Flexibility Score: inf
ROOT
ATOM      1  C   UNL     1      49.222  59.758  95.197  1.00  0.00     0.000 C 
ENDROOT
BRANCH   1   2
ATOM      2  C   UNL     1      50.145  60.934  94.823  1.00  0.00     0.000 C 
BRANCH   2   3
ATOM      3  C   UNL     1      49.844  61.596  93.467  1.00  0.00     0.000 C 
BRANCH   3   4
ATOM      4  C   UNL     1      48.372  61.525  93.013  1.00  0.00     0.000 C 
BRANCH   4   5
ATOM      5  C   UNL     1      47.849  62.776  92.280  1.00  0.00     0.000 C 
BRANCH   5   6
ATOM      6  C   UNL     1      48.347  64.115  92.851  1.00  0.00     0.000 C 
BRANCH   6   7
ATOM      7  C   UNL     1      47.572  65.319  92.287  1.00  0.00     0.000 C 
BRANCH   7   8
ATOM      8  C   UNL     1      47.882  66.631  93.027  1.00  0.00     0.000 C 
BRANCH   8   9
ATOM      9  C   UNL     1      48.323  67.807  92.132  1.00  0.00     0.000 C 
BRANCH   9  10
ATOM     10  C   UNL     1      49.214  67.399  90.939  1.00  0.00     0.000 C 
BRANCH  10  11
ATOM     11  C   UNL     1      50.684  67.181  91.349  1.00  0.00     0.000 C 
BRANCH  11  12
ATOM     12  C   UNL     1      51.099  68.016  92.575  1.00  0.00     0.006 C 
BRANCH  12  13
ATOM     13  C   UNL     1      52.555  67.785  93.022  1.00  0.00     0.053 C 
BRANCH  13  14
ATOM     14  C   UNL     1      52.727  67.885  94.505  1.00  0.00     0.041 C 
ATOM     15  O   UNL     1      53.873  67.789  95.020  1.00  0.00    -0.550 OA
ATOM     16  O   UNL     1      51.616  68.056  95.325  1.00  0.00    -0.550 OA
ENDBRANCH  13  14
ENDBRANCH  12  13
ENDBRANCH  11  12
ENDBRANCH  10  11
ENDBRANCH   9  10
ENDBRANCH   8   9
ENDBRANCH   7   8
ENDBRANCH   6   7
ENDBRANCH   5   6
ENDBRANCH   4   5
ENDBRANCH   3   4
ENDBRANCH   2   3
ENDBRANCH   1   2
BRANCH   1  17
ATOM     17  C   UNL     1      49.803  58.371  94.851  1.00  0.00     0.000 C 
BRANCH  17  18
ATOM     18  C   UNL     1      49.468  57.926  93.415  1.00  0.00     0.000 C 
BRANCH  18  19
ATOM     19  C   UNL     1      50.697  57.395  92.661  1.00  0.00     0.000 C 
BRANCH  19  20
ATOM     20  C   UNL     1      51.403  58.485  91.834  1.00  0.00     0.000 C 
BRANCH  20  21
ATOM     21  C   UNL     1      52.890  58.633  92.193  1.00  0.00     0.000 C 
BRANCH  21  22
ATOM     22  C   UNL     1      53.135  58.663  93.711  1.00  0.00    -0.000 C 
BRANCH  22  23
ATOM     23  C   UNL     1      53.667  57.311  94.209  1.00  0.00    -0.000 C 
BRANCH  23  24
ATOM     24  C   UNL     1      52.903  56.790  95.437  1.00  0.00    -0.000 C 
BRANCH  24  25
ATOM     25  C   UNL     1      52.446  55.329  95.274  1.00  0.00    -0.000 C 
BRANCH  25  26
ATOM     26  C   UNL     1      52.921  54.711  93.949  1.00  0.00    -0.000 C 
BRANCH  26  27
ATOM     27  C   UNL     1      51.756  54.402  92.992  1.00  0.00    -0.000 C 
BRANCH  27  28
ATOM     28  C   UNL     1      52.095  53.293  91.978  1.00  0.00    -0.000 C 
BRANCH  28  29
ATOM     29  C   UNL     1      52.331  53.787  90.539  1.00  0.00    -0.003 C 
ATOM     30  C   UNL     1      52.186  55.302  90.397  1.00  0.00     0.004 C 
ENDBRANCH  28  29
ENDBRANCH  27  28
ENDBRANCH  26  27
ENDBRANCH  25  26
ENDBRANCH  24  25
ENDBRANCH  23  24
ENDBRANCH  22  23
ENDBRANCH  21  22
ENDBRANCH  20  21
ENDBRANCH  19  20
ENDBRANCH  18  19
ENDBRANCH  17  18
ENDBRANCH   1  17
TORSDOF 26
ENDMDL
MODEL 9
REMARK VINA RESULT:    -4.279      6.362     14.426
REMARK INTER + INTRA:         -13.744
REMARK INTER:                 -12.371
REMARK INTRA:                  -1.372
REMARK UNBOUND:                -2.961
REMARK SMILES CCCCCCCCCCCCCCCCCCCCCCCCCCCC(=O)[O-]
REMARK SMILES IDX 15 1 16 2 17 3 18 4 19 5 20 6 21 7 22 8 23 9 24 10 25 11
REMARK SMILES IDX 26 12 27 13 28 14 29 15 30 16 14 17 13 18 12 19 11 20 10 21
REMARK SMILES IDX 9 22 8 23 7 24 6 25 5 26 4 27 3 28 2 29 1 30
REMARK H PARENT
REMARK Flexibility Score: inf
ROOT
ATOM      1  C   UNL     1      51.741  56.886  92.661  1.00  0.00     0.000 C 
ENDROOT
BRANCH   1   2
ATOM      2  C   UNL     1      52.472  56.067  93.743  1.00  0.00     0.000 C 
BRANCH   2   3
ATOM      3  C   UNL     1      52.624  54.567  93.435  1.00  0.00     0.000 C 
BRANCH   3   4
ATOM      4  C   UNL     1      52.016  54.106  92.095  1.00  0.00     0.000 C 
BRANCH   4   5
ATOM      5  C   UNL     1      51.307  52.737  92.131  1.00  0.00     0.000 C 
BRANCH   5   6
ATOM      6  C   UNL     1      52.243  51.529  92.305  1.00  0.00     0.000 C 
BRANCH   6   7
ATOM      7  C   UNL     1      51.472  50.212  92.506  1.00  0.00     0.000 C 
BRANCH   7   8
ATOM      8  C   UNL     1      52.397  49.006  92.740  1.00  0.00     0.000 C 
BRANCH   8   9
ATOM      9  C   UNL     1      52.159  48.234  94.054  1.00  0.00     0.000 C 
BRANCH   9  10
ATOM     10  C   UNL     1      53.414  48.090  94.943  1.00  0.00     0.000 C 
BRANCH  10  11
ATOM     11  C   UNL     1      54.703  48.516  94.214  1.00  0.00     0.000 C 
BRANCH  11  12
ATOM     12  C   UNL     1      55.890  48.741  95.169  1.00  0.00     0.006 C 
BRANCH  12  13
ATOM     13  C   UNL     1      57.231  48.983  94.450  1.00  0.00     0.053 C 
BRANCH  13  14
ATOM     14  C   UNL     1      58.265  49.590  95.345  1.00  0.00     0.041 C 
ATOM     15  O   UNL     1      59.338  48.975  95.584  1.00  0.00    -0.550 OA
ATOM     16  O   UNL     1      58.033  50.826  95.940  1.00  0.00    -0.550 OA
ENDBRANCH  13  14
ENDBRANCH  12  13
ENDBRANCH  11  12
ENDBRANCH  10  11
ENDBRANCH   9  10
ENDBRANCH   8   9
ENDBRANCH   7   8
ENDBRANCH   6   7
ENDBRANCH   5   6
ENDBRANCH   4   5
ENDBRANCH   3   4
ENDBRANCH   2   3
ENDBRANCH   1   2
BRANCH   1  17
ATOM     17  C   UNL     1      50.618  57.789  93.212  1.00  0.00     0.000 C 
BRANCH  17  18
ATOM     18  C   UNL     1      51.106  59.211  93.548  1.00  0.00     0.000 C 
BRANCH  18  19
ATOM     19  C   UNL     1      49.973  60.120  94.051  1.00  0.00     0.000 C 
BRANCH  19  20
ATOM     20  C   UNL     1      49.572  61.191  93.021  1.00  0.00     0.000 C 
BRANCH  20  21
ATOM     21  C   UNL     1      49.093  62.496  93.678  1.00  0.00     0.000 C 
BRANCH  21  22
ATOM     22  C   UNL     1      48.352  63.418  92.697  1.00  0.00    -0.000 C 
BRANCH  22  23
ATOM     23  C   UNL     1      48.651  64.894  92.996  1.00  0.00    -0.000 C 
BRANCH  23  24
ATOM     24  C   UNL     1      47.568  65.840  92.453  1.00  0.00    -0.000 C 
BRANCH  24  25
ATOM     25  C   UNL     1      47.966  66.491  91.116  1.00  0.00    -0.000 C 
BRANCH  25  26
ATOM     26  C   UNL     1      48.848  67.736  91.310  1.00  0.00    -0.000 C 
BRANCH  26  27
ATOM     27  C   UNL     1      50.180  67.640  90.546  1.00  0.00    -0.000 C 
BRANCH  27  28
ATOM     28  C   UNL     1      51.402  67.922  91.439  1.00  0.00    -0.000 C 
BRANCH  28  29
ATOM     29  C   UNL     1      51.136  67.805  92.951  1.00  0.00    -0.003 C 
ATOM     30  C   UNL     1      52.372  67.380  93.744  1.00  0.00     0.004 C 
ENDBRANCH  28  29
ENDBRANCH  27  28
ENDBRANCH  26  27
ENDBRANCH  25  26
ENDBRANCH  24  25
ENDBRANCH  23  24
ENDBRANCH  22  23
ENDBRANCH  21  22
ENDBRANCH  20  21
ENDBRANCH  19  20
ENDBRANCH  18  19
ENDBRANCH  17  18
ENDBRANCH   1  17
TORSDOF 26
ENDMDL
