MODEL 1
REMARK VINA RESULT:    -5.122      0.000      0.000
REMARK INTER + INTRA:          -5.122
REMARK INTER:                  -5.122
REMARK INTRA:                   0.000
REMARK UNBOUND:                 0.000
REMARK SMILES CC1=CC(=O)[C@@H]2C[C@H]1C2(C)C
REMARK SMILES IDX 1 1 2 2 3 3 4 4 5 5 6 6 7 7 8 8 9 9 10 10 11 11
REMARK H PARENT
REMARK Flexibility Score: inf
ROOT
ATOM      1  C   UNL     1      21.290  28.092 -20.653  1.00  0.00     0.040 C 
ATOM      2  C   UNL     1      21.821  28.698 -19.393  1.00  0.00    -0.066 C 
ATOM      3  C   UNL     1      21.185  28.558 -18.195  1.00  0.00     0.047 C 
ATOM      4  C   UNL     1      21.837  29.220 -17.019  1.00  0.00     0.159 C 
ATOM      5  O   UNL     1      21.371  29.128 -15.853  1.00  0.00    -0.295 OA
ATOM      6  C   UNL     1      23.104  30.016 -17.334  1.00  0.00     0.067 C 
ATOM      7  C   UNL     1      22.734  30.830 -18.594  1.00  0.00     0.021 C 
ATOM      8  C   UNL     1      23.095  29.567 -19.409  1.00  0.00     0.022 C 
ATOM      9  C   UNL     1      24.024  29.144 -18.235  1.00  0.00    -0.019 C 
ATOM     10  C   UNL     1      24.154  27.628 -17.910  1.00  0.00     0.012 C 
ATOM     11  C   UNL     1      25.450  29.735 -18.370  1.00  0.00     0.012 C 
ENDROOT
TORSDOF 0
ENDMDL
MODEL 2
REMARK VINA RESULT:    -5.039      2.081      3.310
REMARK INTER + INTRA:          -5.039
REMARK INTER:                  -5.039
REMARK INTRA:                   0.000
REMARK UNBOUND:                 0.000
REMARK SMILES CC1=CC(=O)[C@@H]2C[C@H]1C2(C)C
REMARK SMILES IDX 1 1 2 2 3 3 4 4 5 5 6 6 7 7 8 8 9 9 10 10 11 11
REMARK H PARENT
REMARK Flexibility Score: inf
ROOT
ATOM      1  C   UNL     1      22.772  27.402 -16.166  1.00  0.00     0.040 C 
ATOM      2  C   UNL     1      23.237  28.435 -17.143  1.00  0.00    -0.066 C 
ATOM      3  C   UNL     1      24.558  28.658 -17.392  1.00  0.00     0.047 C 
ATOM      4  C   UNL     1      24.872  29.724 -18.397  1.00  0.00     0.159 C 
ATOM      5  O   UNL     1      26.052  29.995 -18.744  1.00  0.00    -0.295 OA
ATOM      6  C   UNL     1      23.660  30.460 -18.972  1.00  0.00     0.067 C 
ATOM      7  C   UNL     1      22.789  30.773 -17.735  1.00  0.00     0.021 C 
ATOM      8  C   UNL     1      22.227  29.340 -17.877  1.00  0.00     0.022 C 
ATOM      9  C   UNL     1      22.594  29.406 -19.387  1.00  0.00    -0.019 C 
ATOM     10  C   UNL     1      23.077  28.103 -20.085  1.00  0.00     0.012 C 
ATOM     11  C   UNL     1      21.459  30.023 -20.244  1.00  0.00     0.012 C 
ENDROOT
TORSDOF 0
ENDMDL
MODEL 3
REMARK VINA RESULT:    -4.712      1.623      2.994
REMARK INTER + INTRA:          -4.712
REMARK INTER:                  -4.712
REMARK INTRA:                   0.000
REMARK UNBOUND:                 0.000
REMARK SMILES CC1=CC(=O)[C@@H]2C[C@H]1C2(C)C
REMARK SMILES IDX 1 1 2 2 3 3 4 4 5 5 6 6 7 7 8 8 9 9 10 10 11 11
REMARK H PARENT
REMARK Flexibility Score: inf
ROOT
ATOM      1  C   UNL     1      21.760  28.583 -15.558  1.00  0.00     0.040 C 
ATOM      2  C   UNL     1      22.233  28.547 -16.977  1.00  0.00    -0.066 C 
ATOM      3  C   UNL     1      21.370  28.455 -18.029  1.00  0.00     0.047 C 
ATOM      4  C   UNL     1      21.990  28.432 -19.393  1.00  0.00     0.159 C 
ATOM      5  O   UNL     1      21.299  28.392 -20.445  1.00  0.00    -0.295 OA
ATOM      6  C   UNL     1      23.519  28.457 -19.419  1.00  0.00     0.067 C 
ATOM      7  C   UNL     1      23.931  27.425 -18.346  1.00  0.00     0.021 C 
ATOM      8  C   UNL     1      23.739  28.555 -17.309  1.00  0.00     0.022 C 
ATOM      9  C   UNL     1      24.011  29.574 -18.453  1.00  0.00    -0.019 C 
ATOM     10  C   UNL     1      23.240  30.925 -18.433  1.00  0.00     0.012 C 
ATOM     11  C   UNL     1      25.520  29.878 -18.625  1.00  0.00     0.012 C 
ENDROOT
TORSDOF 0
ENDMDL
MODEL 4
REMARK VINA RESULT:    -4.648      1.726      2.422
REMARK INTER + INTRA:          -4.648
REMARK INTER:                  -4.648
REMARK INTRA:                   0.000
REMARK UNBOUND:                 0.000
REMARK SMILES CC1=CC(=O)[C@@H]2C[C@H]1C2(C)C
REMARK SMILES IDX 1 1 2 2 3 3 4 4 5 5 6 6 7 7 8 8 9 9 10 10 11 11
REMARK H PARENT
REMARK Flexibility Score: inf
ROOT
ATOM      1  C   UNL     1      20.206  27.148 -16.293  1.00  0.00     0.040 C 
ATOM      2  C   UNL     1      21.341  28.117 -16.383  1.00  0.00    -0.066 C 
ATOM      3  C   UNL     1      21.783  28.823 -15.303  1.00  0.00     0.047 C 
ATOM      4  C   UNL     1      22.930  29.756 -15.547  1.00  0.00     0.159 C 
ATOM      5  O   UNL     1      23.455  30.430 -14.622  1.00  0.00    -0.295 OA
ATOM      6  C   UNL     1      23.417  29.832 -16.994  1.00  0.00     0.067 C 
ATOM      7  C   UNL     1      22.118  29.945 -17.823  1.00  0.00     0.021 C 
ATOM      8  C   UNL     1      22.030  28.405 -17.733  1.00  0.00     0.022 C 
ATOM      9  C   UNL     1      23.573  28.384 -17.540  1.00  0.00    -0.019 C 
ATOM     10  C   UNL     1      24.183  27.303 -16.603  1.00  0.00     0.012 C 
ATOM     11  C   UNL     1      24.335  28.342 -18.889  1.00  0.00     0.012 C 
ENDROOT
TORSDOF 0
ENDMDL
MODEL 5
REMARK VINA RESULT:    -4.610      7.475      8.439
REMARK INTER + INTRA:          -4.610
REMARK INTER:                  -4.610
REMARK INTRA:                   0.000
REMARK UNBOUND:                 0.000
REMARK SMILES CC1=CC(=O)[C@@H]2C[C@H]1C2(C)C
REMARK SMILES IDX 1 1 2 2 3 3 4 4 5 5 6 6 7 7 8 8 9 9 10 10 11 11
REMARK H PARENT
REMARK Flexibility Score: inf
ROOT
ATOM      1  C   UNL     1      21.162  27.238 -24.976  1.00  0.00     0.040 C 
ATOM      2  C   UNL     1      21.269  25.758 -24.779  1.00  0.00    -0.066 C 
ATOM      3  C   UNL     1      20.370  24.886 -25.317  1.00  0.00     0.047 C 
ATOM      4  C   UNL     1      20.608  23.434 -25.036  1.00  0.00     0.159 C 
ATOM      5  O   UNL     1      19.873  22.528 -25.511  1.00  0.00    -0.295 OA
ATOM      6  C   UNL     1      21.802  23.128 -24.130  1.00  0.00     0.067 C 
ATOM      7  C   UNL     1      21.668  24.145 -22.975  1.00  0.00     0.021 C 
ATOM      8  C   UNL     1      22.383  25.157 -23.899  1.00  0.00     0.022 C 
ATOM      9  C   UNL     1      23.025  23.945 -24.634  1.00  0.00    -0.019 C 
ATOM     10  C   UNL     1      23.259  24.056 -26.168  1.00  0.00     0.012 C 
ATOM     11  C   UNL     1      24.351  23.490 -23.973  1.00  0.00     0.012 C 
ENDROOT
TORSDOF 0
ENDMDL
MODEL 6
REMARK VINA RESULT:    -4.587     12.134     13.616
REMARK INTER + INTRA:          -4.587
REMARK INTER:                  -4.587
REMARK INTRA:                   0.000
REMARK UNBOUND:                 0.000
REMARK SMILES CC1=CC(=O)[C@@H]2C[C@H]1C2(C)C
REMARK SMILES IDX 1 1 2 2 3 3 4 4 5 5 6 6 7 7 8 8 9 9 10 10 11 11
REMARK H PARENT
REMARK Flexibility Score: inf
ROOT
ATOM      1  C   UNL     1      30.653  28.946  -8.106  1.00  0.00     0.040 C 
ATOM      2  C   UNL     1      31.578  29.826  -8.886  1.00  0.00    -0.066 C 
ATOM      3  C   UNL     1      31.545  29.890 -10.247  1.00  0.00     0.047 C 
ATOM      4  C   UNL     1      32.531  30.817 -10.889  1.00  0.00     0.159 C 
ATOM      5  O   UNL     1      32.572  30.997 -12.135  1.00  0.00    -0.295 OA
ATOM      6  C   UNL     1      33.484  31.529  -9.928  1.00  0.00     0.067 C 
ATOM      7  C   UNL     1      33.959  30.412  -8.972  1.00  0.00     0.021 C 
ATOM      8  C   UNL     1      32.659  30.664  -8.174  1.00  0.00     0.022 C 
ATOM      9  C   UNL     1      32.654  32.109  -8.749  1.00  0.00    -0.019 C 
ATOM     10  C   UNL     1      31.282  32.770  -9.066  1.00  0.00     0.012 C 
ATOM     11  C   UNL     1      33.476  33.093  -7.878  1.00  0.00     0.012 C 
ENDROOT
TORSDOF 0
ENDMDL
MODEL 7
REMARK VINA RESULT:    -4.539      5.366      7.239
REMARK INTER + INTRA:          -4.539
REMARK INTER:                  -4.539
REMARK INTRA:                   0.000
REMARK UNBOUND:                 0.000
REMARK SMILES CC1=CC(=O)[C@@H]2C[C@H]1C2(C)C
REMARK SMILES IDX 1 1 2 2 3 3 4 4 5 5 6 6 7 7 8 8 9 9 10 10 11 11
REMARK H PARENT
REMARK Flexibility Score: inf
ROOT
ATOM      1  C   UNL     1      23.615  27.397 -10.873  1.00  0.00     0.040 C 
ATOM      2  C   UNL     1      22.635  28.456 -11.269  1.00  0.00    -0.066 C 
ATOM      3  C   UNL     1      22.991  29.766 -11.394  1.00  0.00     0.047 C 
ATOM      4  C   UNL     1      21.902  30.712 -11.798  1.00  0.00     0.159 C 
ATOM      5  O   UNL     1      22.113  31.939 -11.989  1.00  0.00    -0.295 OA
ATOM      6  C   UNL     1      20.516  30.085 -11.962  1.00  0.00     0.067 C 
ATOM      7  C   UNL     1      20.359  29.187 -10.715  1.00  0.00     0.021 C 
ATOM      8  C   UNL     1      21.149  28.113 -11.497  1.00  0.00     0.022 C 
ATOM      9  C   UNL     1      20.658  28.789 -12.809  1.00  0.00    -0.019 C 
ATOM     10  C   UNL     1      21.620  28.806 -14.032  1.00  0.00     0.012 C 
ATOM     11  C   UNL     1      19.287  28.239 -13.279  1.00  0.00     0.012 C 
ENDROOT
TORSDOF 0
ENDMDL
MODEL 8
REMARK VINA RESULT:    -4.437      5.727      7.125
REMARK INTER + INTRA:          -4.437
REMARK INTER:                  -4.437
REMARK INTRA:                   0.000
REMARK UNBOUND:                 0.000
REMARK SMILES CC1=CC(=O)[C@@H]2C[C@H]1C2(C)C
REMARK SMILES IDX 1 1 2 2 3 3 4 4 5 5 6 6 7 7 8 8 9 9 10 10 11 11
REMARK H PARENT
REMARK Flexibility Score: inf
ROOT
ATOM      1  C   UNL     1      19.855  28.883 -10.669  1.00  0.00     0.040 C 
ATOM      2  C   UNL     1      21.322  28.862 -10.961  1.00  0.00    -0.066 C 
ATOM      3  C   UNL     1      22.079  27.739 -10.803  1.00  0.00     0.047 C 
ATOM      4  C   UNL     1      23.534  27.870 -11.136  1.00  0.00     0.159 C 
ATOM      5  O   UNL     1      24.328  26.895 -11.073  1.00  0.00    -0.295 OA
ATOM      6  C   UNL     1      23.987  29.269 -11.556  1.00  0.00     0.067 C 
ATOM      7  C   UNL     1      23.327  30.205 -10.521  1.00  0.00     0.021 C 
ATOM      8  C   UNL     1      22.059  30.142 -11.402  1.00  0.00     0.022 C 
ATOM      9  C   UNL     1      22.983  29.817 -12.610  1.00  0.00    -0.019 C 
ATOM     10  C   UNL     1      22.453  28.844 -13.701  1.00  0.00     0.012 C 
ATOM     11  C   UNL     1      23.507  31.095 -13.313  1.00  0.00     0.012 C 
ENDROOT
TORSDOF 0
ENDMDL
MODEL 9
REMARK VINA RESULT:    -4.384      5.763      7.325
REMARK INTER + INTRA:          -4.384
REMARK INTER:                  -4.384
REMARK INTRA:                   0.000
REMARK UNBOUND:                 0.000
REMARK SMILES CC1=CC(=O)[C@@H]2C[C@H]1C2(C)C
REMARK SMILES IDX 1 1 2 2 3 3 4 4 5 5 6 6 7 7 8 8 9 9 10 10 11 11
REMARK H PARENT
REMARK Flexibility Score: inf
ROOT
ATOM      1  C   UNL     1      19.511  28.874 -10.491  1.00  0.00     0.040 C 
ATOM      2  C   UNL     1      20.847  28.840 -11.164  1.00  0.00    -0.066 C 
ATOM      3  C   UNL     1      20.980  28.666 -12.509  1.00  0.00     0.047 C 
ATOM      4  C   UNL     1      22.381  28.655 -13.040  1.00  0.00     0.159 C 
ATOM      5  O   UNL     1      22.633  28.545 -14.269  1.00  0.00    -0.295 OA
ATOM      6  C   UNL     1      23.482  28.785 -11.986  1.00  0.00     0.067 C 
ATOM      7  C   UNL     1      23.053  27.808 -10.870  1.00  0.00     0.021 C 
ATOM      8  C   UNL     1      22.148  28.944 -10.343  1.00  0.00     0.022 C 
ATOM      9  C   UNL     1      23.113  29.954 -11.028  1.00  0.00    -0.019 C 
ATOM     10  C   UNL     1      22.508  31.249 -11.641  1.00  0.00     0.012 C 
ATOM     11  C   UNL     1      24.294  30.358 -10.110  1.00  0.00     0.012 C 
ENDROOT
TORSDOF 0
ENDMDL
