MODEL 1
REMARK VINA RESULT:    -3.530      0.000      0.000
REMARK INTER + INTRA:          -4.185
REMARK INTER:                  -4.149
REMARK INTRA:                  -0.036
REMARK UNBOUND:                -0.036
REMARK SMILES O=C([O-])CCC(=O)[O-]
REMARK SMILES IDX 4 1 2 2 1 3 3 4 5 5 6 6 7 7 8 8
REMARK H PARENT
REMARK Flexibility Score: inf
ROOT
ATOM      1  C   UNL     1      63.325   1.743  -2.237  1.00  0.00     0.059 C 
ENDROOT
BRANCH   1   2
ATOM      2  C   UNL     1      64.799   1.622  -2.001  1.00  0.00     0.042 C 
ATOM      3  O   UNL     1      65.608   2.306  -2.682  1.00  0.00    -0.550 OA
ATOM      4  O   UNL     1      65.282   0.724  -1.058  1.00  0.00    -0.550 OA
ENDBRANCH   1   2
BRANCH   1   5
ATOM      5  C   UNL     1      63.013   2.711  -3.384  1.00  0.00     0.059 C 
BRANCH   5   6
ATOM      6  C   UNL     1      61.569   2.655  -3.778  1.00  0.00     0.042 C 
ATOM      7  O   UNL     1      60.681   2.468  -2.905  1.00  0.00    -0.550 OA
ATOM      8  O   UNL     1      61.207   2.769  -5.114  1.00  0.00    -0.550 OA
ENDBRANCH   5   6
ENDBRANCH   1   5
TORSDOF 3
ENDMDL
MODEL 2
REMARK VINA RESULT:    -3.529      0.076      4.308
REMARK INTER + INTRA:          -4.184
REMARK INTER:                  -4.150
REMARK INTRA:                  -0.035
REMARK UNBOUND:                -0.036
REMARK SMILES O=C([O-])CCC(=O)[O-]
REMARK SMILES IDX 4 1 2 2 1 3 3 4 5 5 6 6 7 7 8 8
REMARK H PARENT
REMARK Flexibility Score: inf
ROOT
ATOM      1  C   UNL     1      62.990   2.732  -3.386  1.00  0.00     0.059 C 
ENDROOT
BRANCH   1   2
ATOM      2  C   UNL     1      61.546   2.672  -3.783  1.00  0.00     0.042 C 
ATOM      3  O   UNL     1      61.215   2.809  -4.991  1.00  0.00    -0.550 OA
ATOM      4  O   UNL     1      60.564   2.509  -2.815  1.00  0.00    -0.550 OA
ENDBRANCH   1   2
BRANCH   1   5
ATOM      5  C   UNL     1      63.305   1.750  -2.252  1.00  0.00     0.059 C 
BRANCH   5   6
ATOM      6  C   UNL     1      64.780   1.638  -2.014  1.00  0.00     0.042 C 
ATOM      7  O   UNL     1      65.586   2.329  -2.690  1.00  0.00    -0.550 OA
ATOM      8  O   UNL     1      65.266   0.740  -1.071  1.00  0.00    -0.550 OA
ENDBRANCH   5   6
ENDBRANCH   1   5
TORSDOF 3
ENDMDL
MODEL 3
REMARK VINA RESULT:    -3.524      0.088      4.439
REMARK INTER + INTRA:          -4.179
REMARK INTER:                  -4.142
REMARK INTRA:                  -0.037
REMARK UNBOUND:                -0.036
REMARK SMILES O=C([O-])CCC(=O)[O-]
REMARK SMILES IDX 4 1 2 2 1 3 3 4 5 5 6 6 7 7 8 8
REMARK H PARENT
REMARK Flexibility Score: inf
ROOT
ATOM      1  C   UNL     1      62.966   2.687  -3.382  1.00  0.00     0.059 C 
ENDROOT
BRANCH   1   2
ATOM      2  C   UNL     1      61.505   2.648  -3.711  1.00  0.00     0.042 C 
ATOM      3  O   UNL     1      60.659   2.406  -2.810  1.00  0.00    -0.550 OA
ATOM      4  O   UNL     1      61.081   2.838  -5.020  1.00  0.00    -0.550 OA
ENDBRANCH   1   2
BRANCH   1   5
ATOM      5  C   UNL     1      63.309   1.747  -2.220  1.00  0.00     0.059 C 
BRANCH   5   6
ATOM      6  C   UNL     1      64.789   1.635  -2.018  1.00  0.00     0.042 C 
ATOM      7  O   UNL     1      65.579   2.295  -2.744  1.00  0.00    -0.550 OA
ATOM      8  O   UNL     1      65.297   0.772  -1.055  1.00  0.00    -0.550 OA
ENDBRANCH   5   6
ENDBRANCH   1   5
TORSDOF 3
ENDMDL
MODEL 4
REMARK VINA RESULT:    -3.518      2.490      3.911
REMARK INTER + INTRA:          -4.172
REMARK INTER:                  -4.139
REMARK INTRA:                  -0.033
REMARK UNBOUND:                -0.036
REMARK SMILES O=C([O-])CCC(=O)[O-]
REMARK SMILES IDX 4 1 2 2 1 3 3 4 5 5 6 6 7 7 8 8
REMARK H PARENT
REMARK Flexibility Score: inf
ROOT
ATOM      1  C   UNL     1      65.502   2.502  -2.690  1.00  0.00     0.059 C 
ENDROOT
BRANCH   1   2
ATOM      2  C   UNL     1      64.630   1.542  -1.939  1.00  0.00     0.042 C 
ATOM      3  O   UNL     1      65.144   0.698  -1.158  1.00  0.00    -0.550 OA
ATOM      4  O   UNL     1      63.255   1.551  -2.135  1.00  0.00    -0.550 OA
ENDBRANCH   1   2
BRANCH   1   5
ATOM      5  C   UNL     1      64.920   3.920  -2.680  1.00  0.00     0.059 C 
BRANCH   5   6
ATOM      6  C   UNL     1      65.784   4.876  -3.445  1.00  0.00     0.042 C 
ATOM      7  O   UNL     1      66.516   4.459  -4.381  1.00  0.00    -0.550 OA
ATOM      8  O   UNL     1      65.809   6.221  -3.098  1.00  0.00    -0.550 OA
ENDBRANCH   5   6
ENDBRANCH   1   5
TORSDOF 3
ENDMDL
MODEL 5
REMARK VINA RESULT:    -3.498      0.335      1.193
REMARK INTER + INTRA:          -4.147
REMARK INTER:                  -4.112
REMARK INTRA:                  -0.036
REMARK UNBOUND:                -0.036
REMARK SMILES O=C([O-])CCC(=O)[O-]
REMARK SMILES IDX 4 1 2 2 1 3 3 4 5 5 6 6 7 7 8 8
REMARK H PARENT
REMARK Flexibility Score: inf
ROOT
ATOM      1  C   UNL     1      63.316   1.711  -2.013  1.00  0.00     0.059 C 
ENDROOT
BRANCH   1   2
ATOM      2  C   UNL     1      64.801   1.531  -1.934  1.00  0.00     0.042 C 
ATOM      3  O   UNL     1      65.297   0.698  -1.129  1.00  0.00    -0.550 OA
ATOM      4  O   UNL     1      65.640   2.312  -2.718  1.00  0.00    -0.550 OA
ENDBRANCH   1   2
BRANCH   1   5
ATOM      5  C   UNL     1      62.907   2.496  -3.264  1.00  0.00     0.059 C 
BRANCH   5   6
ATOM      6  C   UNL     1      61.419   2.520  -3.439  1.00  0.00     0.042 C 
ATOM      7  O   UNL     1      60.664   2.167  -2.495  1.00  0.00    -0.550 OA
ATOM      8  O   UNL     1      60.868   2.893  -4.659  1.00  0.00    -0.550 OA
ENDBRANCH   5   6
ENDBRANCH   1   5
TORSDOF 3
ENDMDL
MODEL 6
REMARK VINA RESULT:    -3.403      1.141      1.330
REMARK INTER + INTRA:          -4.036
REMARK INTER:                  -4.004
REMARK INTRA:                  -0.032
REMARK UNBOUND:                -0.036
REMARK SMILES O=C([O-])CCC(=O)[O-]
REMARK SMILES IDX 4 1 2 2 1 3 3 4 5 5 6 6 7 7 8 8
REMARK H PARENT
REMARK Flexibility Score: inf
ROOT
ATOM      1  C   UNL     1      63.114   2.475  -2.999  1.00  0.00     0.059 C 
ENDROOT
BRANCH   1   2
ATOM      2  C   UNL     1      64.426   2.254  -2.310  1.00  0.00     0.042 C 
ATOM      3  O   UNL     1      65.232   3.210  -2.161  1.00  0.00    -0.550 OA
ATOM      4  O   UNL     1      64.776   0.984  -1.870  1.00  0.00    -0.550 OA
ENDBRANCH   1   2
BRANCH   1   5
ATOM      5  C   UNL     1      61.984   1.684  -2.329  1.00  0.00     0.059 C 
BRANCH   5   6
ATOM      6  C   UNL     1      60.636   2.166  -2.772  1.00  0.00     0.042 C 
ATOM      7  O   UNL     1      59.591   1.634  -2.314  1.00  0.00    -0.550 OA
ATOM      8  O   UNL     1      60.535   3.175  -3.722  1.00  0.00    -0.550 OA
ENDBRANCH   5   6
ENDBRANCH   1   5
TORSDOF 3
ENDMDL
MODEL 7
REMARK VINA RESULT:    -3.281      5.772      6.805
REMARK INTER + INTRA:          -3.893
REMARK INTER:                  -3.800
REMARK INTRA:                  -0.093
REMARK UNBOUND:                -0.036
REMARK SMILES O=C([O-])CCC(=O)[O-]
REMARK SMILES IDX 4 1 2 2 1 3 3 4 5 5 6 6 7 7 8 8
REMARK H PARENT
REMARK Flexibility Score: inf
ROOT
ATOM      1  C   UNL     1      59.145  -1.865   1.146  1.00  0.00     0.059 C 
ENDROOT
BRANCH   1   2
ATOM      2  C   UNL     1      58.857  -2.850   0.054  1.00  0.00     0.042 C 
ATOM      3  O   UNL     1      58.432  -2.451  -1.063  1.00  0.00    -0.550 OA
ATOM      4  O   UNL     1      59.019  -4.210   0.282  1.00  0.00    -0.550 OA
ENDBRANCH   1   2
BRANCH   1   5
ATOM      5  C   UNL     1      58.526  -0.495   0.850  1.00  0.00     0.059 C 
BRANCH   5   6
ATOM      6  C   UNL     1      59.556   0.489   0.386  1.00  0.00     0.042 C 
ATOM      7  O   UNL     1      59.507   0.956  -0.782  1.00  0.00    -0.550 OA
ATOM      8  O   UNL     1      60.595   0.859   1.233  1.00  0.00    -0.550 OA
ENDBRANCH   5   6
ENDBRANCH   1   5
TORSDOF 3
ENDMDL
MODEL 8
REMARK VINA RESULT:    -3.275      5.684      6.996
REMARK INTER + INTRA:          -3.886
REMARK INTER:                  -3.774
REMARK INTRA:                  -0.111
REMARK UNBOUND:                -0.036
REMARK SMILES O=C([O-])CCC(=O)[O-]
REMARK SMILES IDX 4 1 2 2 1 3 3 4 5 5 6 6 7 7 8 8
REMARK H PARENT
REMARK Flexibility Score: inf
ROOT
ATOM      1  C   UNL     1      58.563  -1.587   1.224  1.00  0.00     0.059 C 
ENDROOT
BRANCH   1   2
ATOM      2  C   UNL     1      57.946  -1.989  -0.081  1.00  0.00     0.042 C 
ATOM      3  O   UNL     1      58.574  -2.739  -0.874  1.00  0.00    -0.550 OA
ATOM      4  O   UNL     1      56.695  -1.503  -0.439  1.00  0.00    -0.550 OA
ENDBRANCH   1   2
BRANCH   1   5
ATOM      5  C   UNL     1      58.524  -0.068   1.424  1.00  0.00     0.059 C 
BRANCH   5   6
ATOM      6  C   UNL     1      59.632   0.615   0.680  1.00  0.00     0.042 C 
ATOM      7  O   UNL     1      60.718   0.875   1.260  1.00  0.00    -0.550 OA
ATOM      8  O   UNL     1      59.447   0.999  -0.643  1.00  0.00    -0.550 OA
ENDBRANCH   5   6
ENDBRANCH   1   5
TORSDOF 3
ENDMDL
MODEL 9
REMARK VINA RESULT:    -3.269      5.794      6.832
REMARK INTER + INTRA:          -3.878
REMARK INTER:                  -3.779
REMARK INTRA:                  -0.099
REMARK UNBOUND:                -0.036
REMARK SMILES O=C([O-])CCC(=O)[O-]
REMARK SMILES IDX 4 1 2 2 1 3 3 4 5 5 6 6 7 7 8 8
REMARK H PARENT
REMARK Flexibility Score: inf
ROOT
ATOM      1  C   UNL     1      58.687  -0.478   1.157  1.00  0.00     0.059 C 
ENDROOT
BRANCH   1   2
ATOM      2  C   UNL     1      59.668   0.504   0.593  1.00  0.00     0.042 C 
ATOM      3  O   UNL     1      60.622   0.923   1.301  1.00  0.00    -0.550 OA
ATOM      4  O   UNL     1      59.506   0.987  -0.699  1.00  0.00    -0.550 OA
ENDBRANCH   1   2
BRANCH   1   5
ATOM      5  C   UNL     1      59.287  -1.885   1.256  1.00  0.00     0.059 C 
BRANCH   5   6
ATOM      6  C   UNL     1      58.772  -2.783   0.173  1.00  0.00     0.042 C 
ATOM      7  O   UNL     1      58.113  -2.305  -0.787  1.00  0.00    -0.550 OA
ATOM      8  O   UNL     1      58.985  -4.154   0.247  1.00  0.00    -0.550 OA
ENDBRANCH   5   6
ENDBRANCH   1   5
TORSDOF 3
ENDMDL
