MODEL 1
REMARK VINA RESULT:    -6.567      0.000      0.000
REMARK INTER + INTRA:          -7.147
REMARK INTER:                  -7.143
REMARK INTRA:                  -0.004
REMARK UNBOUND:                -0.004
REMARK SMILES CC1(C)CC[C@@]2(C(=O)[O-])CC[C@]3(C)C(=CC[C@@H]4[C@@]5(C)CC[C@H](O)C(C)(C)[C@@H]5CC[C@]43C)[C@H]2C1
REMARK SMILES IDX 6 1 5 2 10 3 32 4 4 5 11 6 14 7 33 8 2 9 12 10 15 11 1 12
REMARK SMILES IDX 3 13 13 14 30 15 16 16 17 17 29 18 31 19 18 20 28 21 27 22
REMARK SMILES IDX 20 23 19 24 24 25 21 26 22 27 25 28 26 29 7 30 8 31 9 32
REMARK SMILES IDX 23 33
REMARK H PARENT 23 34
REMARK Flexibility Score: inf
ROOT
ATOM      1  C   UNL     1      62.147  -4.909   5.839  1.00  0.00     0.017 C 
ATOM      2  C   UNL     1      62.975  -6.146   6.334  1.00  0.00     0.014 C 
ATOM      3  C   UNL     1      63.125  -3.942   5.083  1.00  0.00     0.014 C 
ATOM      4  C   UNL     1      60.920  -5.410   4.960  1.00  0.00     0.028 C 
ATOM      5  C   UNL     1      62.079  -7.341   6.670  1.00  0.00     0.007 C 
ATOM      6  C   UNL     1      62.845  -3.789   3.583  1.00  0.00     0.013 C 
ATOM      7  C   UNL     1      60.431  -4.426   3.896  1.00  0.00    -0.064 C 
ATOM      8  C   UNL     1      61.178  -6.797   4.319  1.00  0.00     0.015 C 
ATOM      9  C   UNL     1      61.391  -7.912   5.392  1.00  0.00    -0.035 C 
ATOM     10  C   UNL     1      61.366  -3.410   3.250  1.00  0.00    -0.006 C 
ATOM     11  C   UNL     1      59.150  -4.536   3.467  1.00  0.00    -0.027 C 
ATOM     12  C   UNL     1      60.031  -8.531   5.786  1.00  0.00     0.011 C 
ATOM     13  C   UNL     1      62.269  -9.029   4.784  1.00  0.00     0.011 C 
ATOM     14  C   UNL     1      61.063  -2.035   3.938  1.00  0.00     0.017 C 
ATOM     15  C   UNL     1      61.088  -3.401   1.662  1.00  0.00    -0.020 C 
ATOM     16  C   UNL     1      58.577  -3.833   2.255  1.00  0.00     0.032 C 
ATOM     17  C   UNL     1      59.584  -2.974   1.431  1.00  0.00     0.006 C 
ATOM     18  C   UNL     1      62.023  -2.392   0.920  1.00  0.00     0.008 C 
ATOM     19  C   UNL     1      61.366  -4.824   1.068  1.00  0.00     0.012 C 
ATOM     20  C   UNL     1      59.140  -2.670  -0.065  1.00  0.00    -0.025 C 
ATOM     21  C   UNL     1      61.621  -2.116  -0.541  1.00  0.00     0.005 C 
ATOM     22  C   UNL     1      60.158  -1.608  -0.637  1.00  0.00     0.003 C 
ATOM     23  C   UNL     1      57.726  -2.004  -0.033  1.00  0.00     0.010 C 
ATOM     24  C   UNL     1      59.054  -3.974  -0.926  1.00  0.00     0.012 C 
ATOM     25  C   UNL     1      59.759  -0.933  -2.012  1.00  0.00    -0.006 C 
ATOM     26  C   UNL     1      57.296  -1.390  -1.373  1.00  0.00     0.033 C 
ATOM     27  C   UNL     1      58.311  -0.358  -1.887  1.00  0.00     0.120 C 
ATOM     28  C   UNL     1      60.701   0.269  -2.301  1.00  0.00     0.014 C 
ATOM     29  C   UNL     1      59.869  -1.896  -3.223  1.00  0.00     0.014 C 
ENDROOT
BRANCH   1  30
ATOM     30  C   UNL     1      61.613  -4.159   7.060  1.00  0.00     0.048 C 
ATOM     31  O   UNL     1      60.782  -3.221   6.930  1.00  0.00    -0.550 OA
ATOM     32  O   UNL     1      62.127  -4.415   8.328  1.00  0.00    -0.550 OA
ENDBRANCH   1  30
BRANCH  27  33
ATOM     33  O   UNL     1      57.874   0.147  -3.125  1.00  0.00    -0.393 OA
ATOM     34  H   UNL     1      58.518   0.851  -3.396  1.00  0.00     0.210 HD
ENDBRANCH  27  33
TORSDOF 2
ENDMDL
MODEL 2
REMARK VINA RESULT:    -6.157      7.718     11.682
REMARK INTER + INTRA:          -6.701
REMARK INTER:                  -6.471
REMARK INTRA:                  -0.230
REMARK UNBOUND:                -0.004
REMARK SMILES CC1(C)CC[C@@]2(C(=O)[O-])CC[C@]3(C)C(=CC[C@@H]4[C@@]5(C)CC[C@H](O)C(C)(C)[C@@H]5CC[C@]43C)[C@H]2C1
REMARK SMILES IDX 6 1 5 2 10 3 32 4 4 5 11 6 14 7 33 8 2 9 12 10 15 11 1 12
REMARK SMILES IDX 3 13 13 14 30 15 16 16 17 17 29 18 31 19 18 20 28 21 27 22
REMARK SMILES IDX 20 23 19 24 24 25 21 26 22 27 25 28 26 29 7 30 8 31 9 32
REMARK SMILES IDX 23 33
REMARK H PARENT 23 34
REMARK Flexibility Score: inf
ROOT
ATOM      1  C   UNL     1      58.229  -4.456  -4.529  1.00  0.00     0.017 C 
ATOM      2  C   UNL     1      59.374  -3.514  -5.043  1.00  0.00     0.014 C 
ATOM      3  C   UNL     1      57.033  -3.554  -4.060  1.00  0.00     0.014 C 
ATOM      4  C   UNL     1      57.849  -5.499  -5.668  1.00  0.00     0.028 C 
ATOM      5  C   UNL     1      60.377  -4.259  -5.928  1.00  0.00     0.007 C 
ATOM      6  C   UNL     1      55.756  -3.695  -4.897  1.00  0.00     0.013 C 
ATOM      7  C   UNL     1      56.408  -6.011  -5.633  1.00  0.00    -0.064 C 
ATOM      8  C   UNL     1      58.191  -4.978  -7.086  1.00  0.00     0.015 C 
ATOM      9  C   UNL     1      59.721  -4.720  -7.266  1.00  0.00    -0.035 C 
ATOM     10  C   UNL     1      55.269  -5.169  -5.068  1.00  0.00    -0.006 C 
ATOM     11  C   UNL     1      56.144  -7.210  -6.207  1.00  0.00    -0.027 C 
ATOM     12  C   UNL     1      60.420  -6.009  -7.752  1.00  0.00     0.011 C 
ATOM     13  C   UNL     1      59.921  -3.631  -8.344  1.00  0.00     0.011 C 
ATOM     14  C   UNL     1      54.972  -5.738  -3.638  1.00  0.00     0.017 C 
ATOM     15  C   UNL     1      54.011  -5.278  -6.070  1.00  0.00    -0.020 C 
ATOM     16  C   UNL     1      54.758  -7.749  -6.494  1.00  0.00     0.032 C 
ATOM     17  C   UNL     1      53.575  -6.796  -6.146  1.00  0.00     0.006 C 
ATOM     18  C   UNL     1      52.800  -4.426  -5.568  1.00  0.00     0.008 C 
ATOM     19  C   UNL     1      54.412  -4.737  -7.484  1.00  0.00     0.012 C 
ATOM     20  C   UNL     1      52.209  -7.119  -6.893  1.00  0.00    -0.025 C 
ATOM     21  C   UNL     1      51.479  -4.708  -6.308  1.00  0.00     0.005 C 
ATOM     22  C   UNL     1      51.101  -6.211  -6.232  1.00  0.00     0.003 C 
ATOM     23  C   UNL     1      51.835  -8.610  -6.608  1.00  0.00     0.010 C 
ATOM     24  C   UNL     1      52.329  -6.926  -8.441  1.00  0.00     0.012 C 
ATOM     25  C   UNL     1      49.603  -6.557  -6.610  1.00  0.00    -0.006 C 
ATOM     26  C   UNL     1      50.402  -8.982  -7.017  1.00  0.00     0.033 C 
ATOM     27  C   UNL     1      49.358  -8.078  -6.345  1.00  0.00     0.120 C 
ATOM     28  C   UNL     1      48.632  -5.773  -5.682  1.00  0.00     0.014 C 
ATOM     29  C   UNL     1      49.236  -6.183  -8.069  1.00  0.00     0.014 C 
ENDROOT
BRANCH   1  30
ATOM     30  C   UNL     1      58.737  -5.217  -3.304  1.00  0.00     0.048 C 
ATOM     31  O   UNL     1      59.132  -6.410  -3.402  1.00  0.00    -0.550 OA
ATOM     32  O   UNL     1      58.659  -4.650  -2.036  1.00  0.00    -0.550 OA
ENDBRANCH   1  30
BRANCH  27  33
ATOM     33  O   UNL     1      48.072  -8.451  -6.779  1.00  0.00    -0.393 OA
ATOM     34  H   UNL     1      48.045  -8.312  -7.762  1.00  0.00     0.210 HD
ENDBRANCH  27  33
TORSDOF 2
ENDMDL
MODEL 3
REMARK VINA RESULT:    -6.114      1.558      2.070
REMARK INTER + INTRA:          -6.654
REMARK INTER:                  -6.513
REMARK INTRA:                  -0.142
REMARK UNBOUND:                -0.004
REMARK SMILES CC1(C)CC[C@@]2(C(=O)[O-])CC[C@]3(C)C(=CC[C@@H]4[C@@]5(C)CC[C@H](O)C(C)(C)[C@@H]5CC[C@]43C)[C@H]2C1
REMARK SMILES IDX 6 1 5 2 10 3 32 4 4 5 11 6 14 7 33 8 2 9 12 10 15 11 1 12
REMARK SMILES IDX 3 13 13 14 30 15 16 16 17 17 29 18 31 19 18 20 28 21 27 22
REMARK SMILES IDX 20 23 19 24 24 25 21 26 22 27 25 28 26 29 7 30 8 31 9 32
REMARK SMILES IDX 23 33
REMARK H PARENT 23 34
REMARK Flexibility Score: inf
ROOT
ATOM      1  C   UNL     1      61.448  -5.715   3.958  1.00  0.00     0.017 C 
ATOM      2  C   UNL     1      61.611  -7.265   4.141  1.00  0.00     0.014 C 
ATOM      3  C   UNL     1      62.590  -5.217   3.003  1.00  0.00     0.014 C 
ATOM      4  C   UNL     1      59.980  -5.394   3.440  1.00  0.00     0.028 C 
ATOM      5  C   UNL     1      60.328  -7.920   4.661  1.00  0.00     0.007 C 
ATOM      6  C   UNL     1      62.105  -4.676   1.652  1.00  0.00     0.013 C 
ATOM      7  C   UNL     1      59.844  -4.119   2.604  1.00  0.00    -0.064 C 
ATOM      8  C   UNL     1      59.342  -6.589   2.688  1.00  0.00     0.015 C 
ATOM      9  C   UNL     1      59.183  -7.844   3.604  1.00  0.00    -0.035 C 
ATOM     10  C   UNL     1      60.999  -3.580   1.769  1.00  0.00    -0.006 C 
ATOM     11  C   UNL     1      58.630  -3.519   2.550  1.00  0.00    -0.027 C 
ATOM     12  C   UNL     1      57.824  -7.794   4.336  1.00  0.00     0.011 C 
ATOM     13  C   UNL     1      59.206  -9.113   2.721  1.00  0.00     0.011 C 
ATOM     14  C   UNL     1      61.604  -2.381   2.578  1.00  0.00     0.017 C 
ATOM     15  C   UNL     1      60.424  -3.146   0.326  1.00  0.00    -0.020 C 
ATOM     16  C   UNL     1      58.248  -2.418   1.584  1.00  0.00     0.032 C 
ATOM     17  C   UNL     1      59.343  -2.015   0.550  1.00  0.00     0.006 C 
ATOM     18  C   UNL     1      61.553  -2.595  -0.602  1.00  0.00     0.008 C 
ATOM     19  C   UNL     1      59.795  -4.391  -0.388  1.00  0.00     0.012 C 
ATOM     20  C   UNL     1      58.801  -1.266  -0.744  1.00  0.00    -0.025 C 
ATOM     21  C   UNL     1      61.040  -1.896  -1.875  1.00  0.00     0.005 C 
ATOM     22  C   UNL     1      60.065  -0.740  -1.530  1.00  0.00     0.003 C 
ATOM     23  C   UNL     1      57.976  -0.021  -0.282  1.00  0.00     0.010 C 
ATOM     24  C   UNL     1      57.872  -2.185  -1.605  1.00  0.00     0.012 C 
ATOM     25  C   UNL     1      59.777   0.283  -2.703  1.00  0.00    -0.006 C 
ATOM     26  C   UNL     1      57.639   0.958  -1.416  1.00  0.00     0.033 C 
ATOM     27  C   UNL     1      58.897   1.449  -2.147  1.00  0.00     0.120 C 
ATOM     28  C   UNL     1      61.112   0.914  -3.190  1.00  0.00     0.014 C 
ATOM     29  C   UNL     1      59.109  -0.373  -3.940  1.00  0.00     0.014 C 
ENDROOT
BRANCH   1  30
ATOM     30  C   UNL     1      61.659  -5.040   5.314  1.00  0.00     0.048 C 
ATOM     31  O   UNL     1      61.075  -3.958   5.595  1.00  0.00    -0.550 OA
ATOM     32  O   UNL     1      62.591  -5.541   6.217  1.00  0.00    -0.550 OA
ENDBRANCH   1  30
BRANCH  27  33
ATOM     33  O   UNL     1      58.521   2.320  -3.187  1.00  0.00    -0.393 OA
ATOM     34  H   UNL     1      59.170   2.187  -3.926  1.00  0.00     0.210 HD
ENDBRANCH  27  33
TORSDOF 2
ENDMDL
MODEL 4
REMARK VINA RESULT:    -6.055      4.554      9.801
REMARK INTER + INTRA:          -6.590
REMARK INTER:                  -6.458
REMARK INTRA:                  -0.132
REMARK UNBOUND:                -0.004
REMARK SMILES CC1(C)CC[C@@]2(C(=O)[O-])CC[C@]3(C)C(=CC[C@@H]4[C@@]5(C)CC[C@H](O)C(C)(C)[C@@H]5CC[C@]43C)[C@H]2C1
REMARK SMILES IDX 6 1 5 2 10 3 32 4 4 5 11 6 14 7 33 8 2 9 12 10 15 11 1 12
REMARK SMILES IDX 3 13 13 14 30 15 16 16 17 17 29 18 31 19 18 20 28 21 27 22
REMARK SMILES IDX 20 23 19 24 24 25 21 26 22 27 25 28 26 29 7 30 8 31 9 32
REMARK SMILES IDX 23 33
REMARK H PARENT 23 34
REMARK Flexibility Score: inf
ROOT
ATOM      1  C   UNL     1      59.029  -5.460  -7.357  1.00  0.00     0.017 C 
ATOM      2  C   UNL     1      59.926  -6.524  -8.081  1.00  0.00     0.014 C 
ATOM      3  C   UNL     1      57.921  -6.226  -6.552  1.00  0.00     0.014 C 
ATOM      4  C   UNL     1      59.945  -4.513  -6.465  1.00  0.00     0.028 C 
ATOM      5  C   UNL     1      61.277  -5.943  -8.509  1.00  0.00     0.007 C 
ATOM      6  C   UNL     1      58.021  -6.083  -5.028  1.00  0.00     0.013 C 
ATOM      7  C   UNL     1      59.259  -3.904  -5.241  1.00  0.00    -0.064 C 
ATOM      8  C   UNL     1      61.269  -5.197  -6.043  1.00  0.00     0.015 C 
ATOM      9  C   UNL     1      62.155  -5.576  -7.273  1.00  0.00    -0.035 C 
ATOM     10  C   UNL     1      58.104  -4.604  -4.534  1.00  0.00    -0.006 C 
ATOM     11  C   UNL     1      59.766  -2.753  -4.734  1.00  0.00    -0.027 C 
ATOM     12  C   UNL     1      63.076  -4.393  -7.644  1.00  0.00     0.011 C 
ATOM     13  C   UNL     1      63.047  -6.780  -6.894  1.00  0.00     0.011 C 
ATOM     14  C   UNL     1      56.798  -3.875  -5.000  1.00  0.00     0.017 C 
ATOM     15  C   UNL     1      58.350  -4.511  -2.943  1.00  0.00    -0.020 C 
ATOM     16  C   UNL     1      59.388  -2.153  -3.397  1.00  0.00     0.032 C 
ATOM     17  C   UNL     1      58.384  -2.983  -2.541  1.00  0.00     0.006 C 
ATOM     18  C   UNL     1      57.213  -5.223  -2.142  1.00  0.00     0.008 C 
ATOM     19  C   UNL     1      59.699  -5.219  -2.575  1.00  0.00     0.012 C 
ATOM     20  C   UNL     1      58.384  -2.644  -0.988  1.00  0.00    -0.025 C 
ATOM     21  C   UNL     1      57.224  -4.928  -0.631  1.00  0.00     0.005 C 
ATOM     22  C   UNL     1      57.153  -3.402  -0.354  1.00  0.00     0.003 C 
ATOM     23  C   UNL     1      58.134  -1.109  -0.820  1.00  0.00     0.010 C 
ATOM     24  C   UNL     1      59.749  -3.001  -0.311  1.00  0.00     0.012 C 
ATOM     25  C   UNL     1      56.774  -2.995   1.128  1.00  0.00    -0.006 C 
ATOM     26  C   UNL     1      57.817  -0.684   0.621  1.00  0.00     0.033 C 
ATOM     27  C   UNL     1      56.610  -1.442   1.193  1.00  0.00     0.120 C 
ATOM     28  C   UNL     1      55.398  -3.613   1.506  1.00  0.00     0.014 C 
ATOM     29  C   UNL     1      57.798  -3.489   2.182  1.00  0.00     0.014 C 
ENDROOT
BRANCH   1  30
ATOM     30  C   UNL     1      58.323  -4.615  -8.419  1.00  0.00     0.048 C 
ATOM     31  O   UNL     1      58.966  -3.787  -9.119  1.00  0.00    -0.550 OA
ATOM     32  O   UNL     1      56.938  -4.655  -8.549  1.00  0.00    -0.550 OA
ENDBRANCH   1  30
BRANCH  27  33
ATOM     33  O   UNL     1      56.388  -1.027   2.520  1.00  0.00    -0.393 OA
ATOM     34  H   UNL     1      55.622  -1.556   2.865  1.00  0.00     0.210 HD
ENDBRANCH  27  33
TORSDOF 2
ENDMDL
MODEL 5
REMARK VINA RESULT:    -6.031      5.331      9.285
REMARK INTER + INTRA:          -6.564
REMARK INTER:                  -6.331
REMARK INTRA:                  -0.233
REMARK UNBOUND:                -0.004
REMARK SMILES CC1(C)CC[C@@]2(C(=O)[O-])CC[C@]3(C)C(=CC[C@@H]4[C@@]5(C)CC[C@H](O)C(C)(C)[C@@H]5CC[C@]43C)[C@H]2C1
REMARK SMILES IDX 6 1 5 2 10 3 32 4 4 5 11 6 14 7 33 8 2 9 12 10 15 11 1 12
REMARK SMILES IDX 3 13 13 14 30 15 16 16 17 17 29 18 31 19 18 20 28 21 27 22
REMARK SMILES IDX 20 23 19 24 24 25 21 26 22 27 25 28 26 29 7 30 8 31 9 32
REMARK SMILES IDX 23 33
REMARK H PARENT 23 34
REMARK Flexibility Score: inf
ROOT
ATOM      1  C   UNL     1      59.593  -2.637  -1.341  1.00  0.00     0.017 C 
ATOM      2  C   UNL     1      59.470  -1.318  -0.499  1.00  0.00     0.014 C 
ATOM      3  C   UNL     1      58.524  -3.654  -0.807  1.00  0.00     0.014 C 
ATOM      4  C   UNL     1      59.450  -2.295  -2.887  1.00  0.00     0.028 C 
ATOM      5  C   UNL     1      60.121  -0.124  -1.203  1.00  0.00     0.007 C 
ATOM      6  C   UNL     1      57.415  -4.003  -1.807  1.00  0.00     0.013 C 
ATOM      7  C   UNL     1      58.891  -3.421  -3.759  1.00  0.00    -0.064 C 
ATOM      8  C   UNL     1      58.651  -0.990  -3.134  1.00  0.00     0.015 C 
ATOM      9  C   UNL     1      59.351   0.257  -2.505  1.00  0.00    -0.035 C 
ATOM     10  C   UNL     1      57.942  -4.474  -3.199  1.00  0.00    -0.006 C 
ATOM     11  C   UNL     1      59.191  -3.412  -5.081  1.00  0.00    -0.027 C 
ATOM     12  C   UNL     1      60.344   0.870  -3.517  1.00  0.00     0.011 C 
ATOM     13  C   UNL     1      58.278   1.321  -2.180  1.00  0.00     0.011 C 
ATOM     14  C   UNL     1      58.803  -5.763  -2.968  1.00  0.00     0.017 C 
ATOM     15  C   UNL     1      56.744  -4.692  -4.257  1.00  0.00    -0.020 C 
ATOM     16  C   UNL     1      58.528  -4.282  -6.127  1.00  0.00     0.032 C 
ATOM     17  C   UNL     1      57.376  -5.199  -5.615  1.00  0.00     0.006 C 
ATOM     18  C   UNL     1      55.713  -5.750  -3.749  1.00  0.00     0.008 C 
ATOM     19  C   UNL     1      55.972  -3.345  -4.465  1.00  0.00     0.012 C 
ATOM     20  C   UNL     1      56.369  -5.703  -6.737  1.00  0.00    -0.025 C 
ATOM     21  C   UNL     1      54.711  -6.221  -4.820  1.00  0.00     0.005 C 
ATOM     22  C   UNL     1      55.443  -6.791  -6.065  1.00  0.00     0.003 C 
ATOM     23  C   UNL     1      57.197  -6.412  -7.858  1.00  0.00     0.010 C 
ATOM     24  C   UNL     1      55.572  -4.520  -7.381  1.00  0.00     0.012 C 
ATOM     25  C   UNL     1      54.547  -7.645  -7.050  1.00  0.00    -0.006 C 
ATOM     26  C   UNL     1      56.342  -7.203  -8.858  1.00  0.00     0.033 C 
ATOM     27  C   UNL     1      55.464  -8.253  -8.161  1.00  0.00     0.120 C 
ATOM     28  C   UNL     1      53.912  -8.839  -6.282  1.00  0.00     0.014 C 
ATOM     29  C   UNL     1      53.380  -6.838  -7.676  1.00  0.00     0.014 C 
ENDROOT
BRANCH   1  30
ATOM     30  C   UNL     1      60.972  -3.248  -1.090  1.00  0.00     0.048 C 
ATOM     31  O   UNL     1      61.239  -3.815   0.004  1.00  0.00    -0.550 OA
ATOM     32  O   UNL     1      61.998  -3.083  -2.016  1.00  0.00    -0.550 OA
ENDBRANCH   1  30
BRANCH  27  33
ATOM     33  O   UNL     1      54.688  -8.924  -9.125  1.00  0.00    -0.393 OA
ATOM     34  H   UNL     1      54.304  -8.231  -9.723  1.00  0.00     0.210 HD
ENDBRANCH  27  33
TORSDOF 2
ENDMDL
MODEL 6
REMARK VINA RESULT:    -6.019      1.499      8.304
REMARK INTER + INTRA:          -6.551
REMARK INTER:                  -6.417
REMARK INTRA:                  -0.134
REMARK UNBOUND:                -0.004
REMARK SMILES CC1(C)CC[C@@]2(C(=O)[O-])CC[C@]3(C)C(=CC[C@@H]4[C@@]5(C)CC[C@H](O)C(C)(C)[C@@H]5CC[C@]43C)[C@H]2C1
REMARK SMILES IDX 6 1 5 2 10 3 32 4 4 5 11 6 14 7 33 8 2 9 12 10 15 11 1 12
REMARK SMILES IDX 3 13 13 14 30 15 16 16 17 17 29 18 31 19 18 20 28 21 27 22
REMARK SMILES IDX 20 23 19 24 24 25 21 26 22 27 25 28 26 29 7 30 8 31 9 32
REMARK SMILES IDX 23 33
REMARK H PARENT 23 34
REMARK Flexibility Score: inf
ROOT
ATOM      1  C   UNL     1      57.669  -2.106  -0.865  1.00  0.00     0.017 C 
ATOM      2  C   UNL     1      57.572  -2.077  -2.431  1.00  0.00     0.014 C 
ATOM      3  C   UNL     1      57.072  -3.470  -0.368  1.00  0.00     0.014 C 
ATOM      4  C   UNL     1      59.176  -1.856  -0.422  1.00  0.00     0.028 C 
ATOM      5  C   UNL     1      58.512  -1.035  -3.045  1.00  0.00     0.007 C 
ATOM      6  C   UNL     1      58.086  -4.410   0.296  1.00  0.00     0.013 C 
ATOM      7  C   UNL     1      59.578  -2.482   0.915  1.00  0.00    -0.064 C 
ATOM      8  C   UNL     1      60.191  -2.257  -1.521  1.00  0.00     0.015 C 
ATOM      9  C   UNL     1      60.007  -1.420  -2.827  1.00  0.00    -0.035 C 
ATOM     10  C   UNL     1      58.910  -3.745   1.444  1.00  0.00    -0.006 C 
ATOM     11  C   UNL     1      60.619  -1.933   1.587  1.00  0.00    -0.027 C 
ATOM     12  C   UNL     1      60.854  -0.130  -2.750  1.00  0.00     0.011 C 
ATOM     13  C   UNL     1      60.510  -2.252  -4.028  1.00  0.00     0.011 C 
ATOM     14  C   UNL     1      57.896  -3.277   2.544  1.00  0.00     0.017 C 
ATOM     15  C   UNL     1      60.056  -4.727   2.012  1.00  0.00    -0.020 C 
ATOM     16  C   UNL     1      61.315  -2.564   2.775  1.00  0.00     0.032 C 
ATOM     17  C   UNL     1      60.804  -3.978   3.186  1.00  0.00     0.006 C 
ATOM     18  C   UNL     1      59.452  -6.059   2.561  1.00  0.00     0.008 C 
ATOM     19  C   UNL     1      61.050  -5.101   0.860  1.00  0.00     0.012 C 
ATOM     20  C   UNL     1      61.823  -4.834   4.056  1.00  0.00    -0.025 C 
ATOM     21  C   UNL     1      60.441  -6.912   3.378  1.00  0.00     0.005 C 
ATOM     22  C   UNL     1      61.037  -6.105   4.562  1.00  0.00     0.003 C 
ATOM     23  C   UNL     1      62.225  -3.993   5.311  1.00  0.00     0.010 C 
ATOM     24  C   UNL     1      63.123  -5.184   3.257  1.00  0.00     0.012 C 
ATOM     25  C   UNL     1      61.754  -6.966   5.681  1.00  0.00    -0.006 C 
ATOM     26  C   UNL     1      62.970  -4.796   6.387  1.00  0.00     0.033 C 
ATOM     27  C   UNL     1      62.166  -6.018   6.854  1.00  0.00     0.120 C 
ATOM     28  C   UNL     1      60.755  -8.004   6.265  1.00  0.00     0.014 C 
ATOM     29  C   UNL     1      62.978  -7.760   5.155  1.00  0.00     0.014 C 
ENDROOT
BRANCH   1  30
ATOM     30  C   UNL     1      56.790  -0.989  -0.302  1.00  0.00     0.048 C 
ATOM     31  O   UNL     1      57.129   0.220  -0.415  1.00  0.00    -0.550 OA
ATOM     32  O   UNL     1      55.661  -1.289   0.454  1.00  0.00    -0.550 OA
ENDBRANCH   1  30
BRANCH  27  33
ATOM     33  O   UNL     1      62.911  -6.724   7.817  1.00  0.00    -0.393 OA
ATOM     34  H   UNL     1      63.539  -6.077   8.231  1.00  0.00     0.210 HD
ENDBRANCH  27  33
TORSDOF 2
ENDMDL
MODEL 7
REMARK VINA RESULT:    -6.017      7.290     11.249
REMARK INTER + INTRA:          -6.549
REMARK INTER:                  -6.316
REMARK INTRA:                  -0.232
REMARK UNBOUND:                -0.004
REMARK SMILES CC1(C)CC[C@@]2(C(=O)[O-])CC[C@]3(C)C(=CC[C@@H]4[C@@]5(C)CC[C@H](O)C(C)(C)[C@@H]5CC[C@]43C)[C@H]2C1
REMARK SMILES IDX 6 1 5 2 10 3 32 4 4 5 11 6 14 7 33 8 2 9 12 10 15 11 1 12
REMARK SMILES IDX 3 13 13 14 30 15 16 16 17 17 29 18 31 19 18 20 28 21 27 22
REMARK SMILES IDX 20 23 19 24 24 25 21 26 22 27 25 28 26 29 7 30 8 31 9 32
REMARK SMILES IDX 23 33
REMARK H PARENT 23 34
REMARK Flexibility Score: inf
ROOT
ATOM      1  C   UNL     1      58.765  -5.104  -4.486  1.00  0.00     0.017 C 
ATOM      2  C   UNL     1      59.552  -4.772  -3.170  1.00  0.00     0.014 C 
ATOM      3  C   UNL     1      58.292  -6.598  -4.404  1.00  0.00     0.014 C 
ATOM      4  C   UNL     1      57.582  -4.058  -4.675  1.00  0.00     0.028 C 
ATOM      5  C   UNL     1      59.662  -3.263  -2.931  1.00  0.00     0.007 C 
ATOM      6  C   UNL     1      56.772  -6.788  -4.332  1.00  0.00     0.013 C 
ATOM      7  C   UNL     1      56.370  -4.572  -5.454  1.00  0.00    -0.064 C 
ATOM      8  C   UNL     1      57.123  -3.434  -3.333  1.00  0.00     0.015 C 
ATOM      9  C   UNL     1      58.267  -2.632  -2.633  1.00  0.00    -0.035 C 
ATOM     10  C   UNL     1      55.987  -6.047  -5.461  1.00  0.00    -0.006 C 
ATOM     11  C   UNL     1      55.579  -3.663  -6.074  1.00  0.00    -0.027 C 
ATOM     12  C   UNL     1      58.261  -1.168  -3.125  1.00  0.00     0.011 C 
ATOM     13  C   UNL     1      58.013  -2.628  -1.109  1.00  0.00     0.011 C 
ATOM     14  C   UNL     1      56.478  -6.622  -6.834  1.00  0.00     0.017 C 
ATOM     15  C   UNL     1      54.391  -6.159  -5.260  1.00  0.00    -0.020 C 
ATOM     16  C   UNL     1      54.216  -3.957  -6.663  1.00  0.00     0.032 C 
ATOM     17  C   UNL     1      53.692  -5.412  -6.465  1.00  0.00     0.006 C 
ATOM     18  C   UNL     1      53.916  -7.647  -5.239  1.00  0.00     0.008 C 
ATOM     19  C   UNL     1      53.985  -5.516  -3.890  1.00  0.00     0.012 C 
ATOM     20  C   UNL     1      52.118  -5.585  -6.608  1.00  0.00    -0.025 C 
ATOM     21  C   UNL     1      52.389  -7.825  -5.344  1.00  0.00     0.005 C 
ATOM     22  C   UNL     1      51.828  -7.137  -6.617  1.00  0.00     0.003 C 
ATOM     23  C   UNL     1      51.685  -5.014  -7.998  1.00  0.00     0.010 C 
ATOM     24  C   UNL     1      51.341  -4.813  -5.491  1.00  0.00     0.012 C 
ATOM     25  C   UNL     1      50.363  -7.568  -7.034  1.00  0.00    -0.006 C 
ATOM     26  C   UNL     1      50.248  -5.375  -8.400  1.00  0.00     0.033 C 
ATOM     27  C   UNL     1      50.014  -6.893  -8.400  1.00  0.00     0.120 C 
ATOM     28  C   UNL     1      50.312  -9.105  -7.261  1.00  0.00     0.014 C 
ATOM     29  C   UNL     1      49.295  -7.232  -5.962  1.00  0.00     0.014 C 
ENDROOT
BRANCH   1  30
ATOM     30  C   UNL     1      59.726  -4.992  -5.670  1.00  0.00     0.048 C 
ATOM     31  O   UNL     1      60.643  -5.839  -5.841  1.00  0.00    -0.550 OA
ATOM     32  O   UNL     1      59.683  -3.885  -6.513  1.00  0.00    -0.550 OA
ENDBRANCH   1  30
BRANCH  27  33
ATOM     33  O   UNL     1      48.676  -7.156  -8.750  1.00  0.00    -0.393 OA
ATOM     34  H   UNL     1      48.143  -6.362  -8.481  1.00  0.00     0.210 HD
ENDBRANCH  27  33
TORSDOF 2
ENDMDL
MODEL 8
REMARK VINA RESULT:    -5.986      7.559     10.964
REMARK INTER + INTRA:          -6.515
REMARK INTER:                  -6.353
REMARK INTRA:                  -0.162
REMARK UNBOUND:                -0.004
REMARK SMILES CC1(C)CC[C@@]2(C(=O)[O-])CC[C@]3(C)C(=CC[C@@H]4[C@@]5(C)CC[C@H](O)C(C)(C)[C@@H]5CC[C@]43C)[C@H]2C1
REMARK SMILES IDX 6 1 5 2 10 3 32 4 4 5 11 6 14 7 33 8 2 9 12 10 15 11 1 12
REMARK SMILES IDX 3 13 13 14 30 15 16 16 17 17 29 18 31 19 18 20 28 21 27 22
REMARK SMILES IDX 20 23 19 24 24 25 21 26 22 27 25 28 26 29 7 30 8 31 9 32
REMARK SMILES IDX 23 33
REMARK H PARENT 23 34
REMARK Flexibility Score: inf
ROOT
ATOM      1  C   UNL     1      58.100  -4.740  -4.525  1.00  0.00     0.017 C 
ATOM      2  C   UNL     1      59.526  -5.391  -4.459  1.00  0.00     0.014 C 
ATOM      3  C   UNL     1      57.730  -4.537  -6.037  1.00  0.00     0.014 C 
ATOM      4  C   UNL     1      57.067  -5.640  -3.718  1.00  0.00     0.028 C 
ATOM      5  C   UNL     1      59.797  -6.043  -3.099  1.00  0.00     0.007 C 
ATOM      6  C   UNL     1      56.549  -5.384  -6.527  1.00  0.00     0.013 C 
ATOM      7  C   UNL     1      55.617  -5.564  -4.197  1.00  0.00    -0.064 C 
ATOM      8  C   UNL     1      57.517  -7.120  -3.626  1.00  0.00     0.015 C 
ATOM      9  C   UNL     1      58.873  -7.278  -2.867  1.00  0.00    -0.035 C 
ATOM     10  C   UNL     1      55.265  -5.251  -5.647  1.00  0.00    -0.006 C 
ATOM     11  C   UNL     1      54.637  -5.873  -3.313  1.00  0.00    -0.027 C 
ATOM     12  C   UNL     1      58.615  -7.436  -1.353  1.00  0.00     0.011 C 
ATOM     13  C   UNL     1      59.580  -8.558  -3.369  1.00  0.00     0.011 C 
ATOM     14  C   UNL     1      54.824  -3.748  -5.677  1.00  0.00     0.017 C 
ATOM     15  C   UNL     1      54.103  -6.264  -6.118  1.00  0.00    -0.020 C 
ATOM     16  C   UNL     1      53.184  -6.102  -3.673  1.00  0.00     0.032 C 
ATOM     17  C   UNL     1      52.843  -6.028  -5.192  1.00  0.00     0.006 C 
ATOM     18  C   UNL     1      53.694  -6.020  -7.606  1.00  0.00     0.008 C 
ATOM     19  C   UNL     1      54.612  -7.742  -6.007  1.00  0.00     0.012 C 
ATOM     20  C   UNL     1      51.491  -6.750  -5.614  1.00  0.00    -0.025 C 
ATOM     21  C   UNL     1      52.402  -6.742  -8.034  1.00  0.00     0.005 C 
ATOM     22  C   UNL     1      51.211  -6.357  -7.117  1.00  0.00     0.003 C 
ATOM     23  C   UNL     1      50.330  -6.164  -4.746  1.00  0.00     0.010 C 
ATOM     24  C   UNL     1      51.555  -8.296  -5.377  1.00  0.00     0.012 C 
ATOM     25  C   UNL     1      49.776  -6.722  -7.675  1.00  0.00    -0.006 C 
ATOM     26  C   UNL     1      48.928  -6.550  -5.238  1.00  0.00     0.033 C 
ATOM     27  C   UNL     1      48.698  -6.144  -6.701  1.00  0.00     0.120 C 
ATOM     28  C   UNL     1      49.558  -6.036  -9.053  1.00  0.00     0.014 C 
ATOM     29  C   UNL     1      49.568  -8.244  -7.889  1.00  0.00     0.014 C 
ENDROOT
BRANCH   1  30
ATOM     30  C   UNL     1      58.167  -3.355  -3.880  1.00  0.00     0.048 C 
ATOM     31  O   UNL     1      59.219  -2.663  -3.942  1.00  0.00    -0.550 OA
ATOM     32  O   UNL     1      57.110  -2.883  -3.107  1.00  0.00    -0.550 OA
ENDBRANCH   1  30
BRANCH  27  33
ATOM     33  O   UNL     1      47.410  -6.547  -7.099  1.00  0.00    -0.393 OA
ATOM     34  H   UNL     1      47.409  -7.539  -7.119  1.00  0.00     0.210 HD
ENDBRANCH  27  33
TORSDOF 2
ENDMDL
MODEL 9
REMARK VINA RESULT:    -5.945      7.447     11.764
REMARK INTER + INTRA:          -6.470
REMARK INTER:                  -6.260
REMARK INTRA:                  -0.210
REMARK UNBOUND:                -0.004
REMARK SMILES CC1(C)CC[C@@]2(C(=O)[O-])CC[C@]3(C)C(=CC[C@@H]4[C@@]5(C)CC[C@H](O)C(C)(C)[C@@H]5CC[C@]43C)[C@H]2C1
REMARK SMILES IDX 6 1 5 2 10 3 32 4 4 5 11 6 14 7 33 8 2 9 12 10 15 11 1 12
REMARK SMILES IDX 3 13 13 14 30 15 16 16 17 17 29 18 31 19 18 20 28 21 27 22
REMARK SMILES IDX 20 23 19 24 24 25 21 26 22 27 25 28 26 29 7 30 8 31 9 32
REMARK SMILES IDX 23 33
REMARK H PARENT 23 34
REMARK Flexibility Score: inf
ROOT
ATOM      1  C   UNL     1      51.044  -7.775  -4.876  1.00  0.00     0.017 C 
ATOM      2  C   UNL     1      50.276  -8.661  -5.918  1.00  0.00     0.014 C 
ATOM      3  C   UNL     1      52.087  -8.687  -4.139  1.00  0.00     0.014 C 
ATOM      4  C   UNL     1      51.685  -6.521  -5.615  1.00  0.00     0.028 C 
ATOM      5  C   UNL     1      49.579  -7.815  -6.989  1.00  0.00     0.007 C 
ATOM      6  C   UNL     1      53.554  -8.329  -4.405  1.00  0.00     0.013 C 
ATOM      7  C   UNL     1      52.948  -5.953  -4.966  1.00  0.00    -0.064 C 
ATOM      8  C   UNL     1      51.937  -6.786  -7.120  1.00  0.00     0.015 C 
ATOM      9  C   UNL     1      50.614  -7.082  -7.896  1.00  0.00    -0.035 C 
ATOM     10  C   UNL     1      53.896  -6.827  -4.153  1.00  0.00    -0.006 C 
ATOM     11  C   UNL     1      53.260  -4.656  -5.207  1.00  0.00    -0.027 C 
ATOM     12  C   UNL     1      49.993  -5.762  -8.403  1.00  0.00     0.011 C 
ATOM     13  C   UNL     1      50.942  -7.961  -9.125  1.00  0.00     0.011 C 
ATOM     14  C   UNL     1      53.593  -6.519  -2.646  1.00  0.00     0.017 C 
ATOM     15  C   UNL     1      55.409  -6.471  -4.582  1.00  0.00    -0.020 C 
ATOM     16  C   UNL     1      54.584  -4.005  -4.869  1.00  0.00     0.032 C 
ATOM     17  C   UNL     1      55.665  -4.945  -4.256  1.00  0.00     0.006 C 
ATOM     18  C   UNL     1      56.448  -7.339  -3.802  1.00  0.00     0.008 C 
ATOM     19  C   UNL     1      55.607  -6.760  -6.109  1.00  0.00     0.012 C 
ATOM     20  C   UNL     1      57.161  -4.421  -4.378  1.00  0.00    -0.025 C 
ATOM     21  C   UNL     1      57.905  -6.859  -3.941  1.00  0.00     0.005 C 
ATOM     22  C   UNL     1      58.055  -5.379  -3.498  1.00  0.00     0.003 C 
ATOM     23  C   UNL     1      57.234  -2.992  -3.748  1.00  0.00     0.010 C 
ATOM     24  C   UNL     1      57.628  -4.330  -5.869  1.00  0.00     0.012 C 
ATOM     25  C   UNL     1      59.538  -4.895  -3.231  1.00  0.00    -0.006 C 
ATOM     26  C   UNL     1      58.665  -2.480  -3.529  1.00  0.00     0.033 C 
ATOM     27  C   UNL     1      59.495  -3.439  -2.664  1.00  0.00     0.120 C 
ATOM     28  C   UNL     1      60.194  -5.788  -2.141  1.00  0.00     0.014 C 
ATOM     29  C   UNL     1      60.445  -4.973  -4.487  1.00  0.00     0.014 C 
ENDROOT
BRANCH   1  30
ATOM     30  C   UNL     1      50.046  -7.280  -3.828  1.00  0.00     0.048 C 
ATOM     31  O   UNL     1      49.745  -7.995  -2.834  1.00  0.00    -0.550 OA
ATOM     32  O   UNL     1      49.358  -6.085  -4.014  1.00  0.00    -0.550 OA
ENDBRANCH   1  30
BRANCH  27  33
ATOM     33  O   UNL     1      60.798  -2.928  -2.523  1.00  0.00    -0.393 OA
ATOM     34  H   UNL     1      60.727  -2.093  -1.990  1.00  0.00     0.210 HD
ENDBRANCH  27  33
TORSDOF 2
ENDMDL
