MODEL 1
REMARK VINA RESULT:    -4.749      0.000      0.000
REMARK INTER + INTRA:          -7.475
REMARK INTER:                  -7.248
REMARK INTRA:                  -0.227
REMARK UNBOUND:                -0.227
REMARK SMILES O=C([O-])CCCCCCCCC(=O)[O-]
REMARK SMILES IDX 7 1 6 2 5 3 4 4 2 5 1 6 3 7 8 8 9 9 10 10 11 11 12 12 13 13
REMARK SMILES IDX 14 14
REMARK H PARENT
REMARK Flexibility Score: inf
ROOT
ATOM      1  C   UNL     1      40.007  56.041  18.326  1.00  0.00     0.000 C 
ENDROOT
BRANCH   1   2
ATOM      2  C   UNL     1      41.073  55.930  17.224  1.00  0.00     0.000 C 
BRANCH   2   3
ATOM      3  C   UNL     1      42.375  55.282  17.726  1.00  0.00     0.006 C 
BRANCH   3   4
ATOM      4  C   UNL     1      42.983  54.327  16.691  1.00  0.00     0.053 C 
BRANCH   4   5
ATOM      5  C   UNL     1      44.262  54.861  16.121  1.00  0.00     0.041 C 
ATOM      6  O   UNL     1      44.658  56.016  16.427  1.00  0.00    -0.550 OA
ATOM      7  O   UNL     1      44.999  54.093  15.228  1.00  0.00    -0.550 OA
ENDBRANCH   4   5
ENDBRANCH   3   4
ENDBRANCH   2   3
ENDBRANCH   1   2
BRANCH   1   8
ATOM      8  C   UNL     1      38.930  57.092  18.005  1.00  0.00     0.000 C 
BRANCH   8   9
ATOM      9  C   UNL     1      37.959  56.628  16.908  1.00  0.00     0.000 C 
BRANCH   9  10
ATOM     10  C   UNL     1      36.552  57.230  17.071  1.00  0.00     0.006 C 
BRANCH  10  11
ATOM     11  C   UNL     1      35.976  57.723  15.737  1.00  0.00     0.053 C 
BRANCH  11  12
ATOM     12  C   UNL     1      34.762  56.944  15.331  1.00  0.00     0.041 C 
ATOM     13  O   UNL     1      34.526  56.728  14.114  1.00  0.00    -0.550 OA
ATOM     14  O   UNL     1      33.877  56.482  16.296  1.00  0.00    -0.550 OA
ENDBRANCH  11  12
ENDBRANCH  10  11
ENDBRANCH   9  10
ENDBRANCH   8   9
ENDBRANCH   1   8
TORSDOF 9
ENDMDL
MODEL 2
REMARK VINA RESULT:    -4.711      0.282      7.942
REMARK INTER + INTRA:          -7.417
REMARK INTER:                  -7.190
REMARK INTRA:                  -0.227
REMARK UNBOUND:                -0.227
REMARK SMILES O=C([O-])CCCCCCCCC(=O)[O-]
REMARK SMILES IDX 7 1 6 2 5 3 4 4 2 5 1 6 3 7 8 8 9 9 10 10 11 11 12 12 13 13
REMARK SMILES IDX 14 14
REMARK H PARENT
REMARK Flexibility Score: inf
ROOT
ATOM      1  C   UNL     1      38.994  57.096  18.112  1.00  0.00     0.000 C 
ENDROOT
BRANCH   1   2
ATOM      2  C   UNL     1      38.063  56.655  16.970  1.00  0.00     0.000 C 
BRANCH   2   3
ATOM      3  C   UNL     1      36.621  57.156  17.157  1.00  0.00     0.006 C 
BRANCH   3   4
ATOM      4  C   UNL     1      35.987  57.604  15.834  1.00  0.00     0.053 C 
BRANCH   4   5
ATOM      5  C   UNL     1      34.828  56.737  15.448  1.00  0.00     0.041 C 
ATOM      6  O   UNL     1      34.851  56.093  14.366  1.00  0.00    -0.550 OA
ATOM      7  O   UNL     1      33.710  56.664  16.270  1.00  0.00    -0.550 OA
ENDBRANCH   4   5
ENDBRANCH   3   4
ENDBRANCH   2   3
ENDBRANCH   1   2
BRANCH   1   8
ATOM      8  C   UNL     1      40.106  56.071  18.399  1.00  0.00     0.000 C 
BRANCH   8   9
ATOM      9  C   UNL     1      41.075  55.903  17.219  1.00  0.00     0.000 C 
BRANCH   9  10
ATOM     10  C   UNL     1      42.476  55.447  17.665  1.00  0.00     0.006 C 
BRANCH  10  11
ATOM     11  C   UNL     1      43.013  54.298  16.801  1.00  0.00     0.053 C 
BRANCH  11  12
ATOM     12  C   UNL     1      44.223  54.707  16.019  1.00  0.00     0.041 C 
ATOM     13  O   UNL     1      44.759  55.828  16.222  1.00  0.00    -0.550 OA
ATOM     14  O   UNL     1      44.742  53.862  15.047  1.00  0.00    -0.550 OA
ENDBRANCH  11  12
ENDBRANCH  10  11
ENDBRANCH   9  10
ENDBRANCH   8   9
ENDBRANCH   1   8
TORSDOF 9
ENDMDL
MODEL 3
REMARK VINA RESULT:    -4.688      1.171      1.664
REMARK INTER + INTRA:          -7.382
REMARK INTER:                  -7.070
REMARK INTRA:                  -0.312
REMARK UNBOUND:                -0.227
REMARK SMILES O=C([O-])CCCCCCCCC(=O)[O-]
REMARK SMILES IDX 7 1 6 2 5 3 4 4 2 5 1 6 3 7 8 8 9 9 10 10 11 11 12 12 13 13
REMARK SMILES IDX 14 14
REMARK H PARENT
REMARK Flexibility Score: inf
ROOT
ATOM      1  C   UNL     1      41.151  55.914  17.111  1.00  0.00     0.000 C 
ENDROOT
BRANCH   1   2
ATOM      2  C   UNL     1      42.565  55.462  17.510  1.00  0.00     0.000 C 
BRANCH   2   3
ATOM      3  C   UNL     1      42.841  53.994  17.145  1.00  0.00     0.006 C 
BRANCH   3   4
ATOM      4  C   UNL     1      42.590  53.710  15.658  1.00  0.00     0.053 C 
BRANCH   4   5
ATOM      5  C   UNL     1      43.844  53.825  14.848  1.00  0.00     0.041 C 
ATOM      6  O   UNL     1      44.029  54.823  14.103  1.00  0.00    -0.550 OA
ATOM      7  O   UNL     1      44.796  52.813  14.891  1.00  0.00    -0.550 OA
ENDBRANCH   4   5
ENDBRANCH   3   4
ENDBRANCH   2   3
ENDBRANCH   1   2
BRANCH   1   8
ATOM      8  C   UNL     1      40.195  55.999  18.314  1.00  0.00     0.000 C 
BRANCH   8   9
ATOM      9  C   UNL     1      39.084  57.042  18.115  1.00  0.00     0.000 C 
BRANCH   9  10
ATOM     10  C   UNL     1      38.078  56.633  17.025  1.00  0.00     0.006 C 
BRANCH  10  11
ATOM     11  C   UNL     1      36.755  57.403  17.139  1.00  0.00     0.053 C 
BRANCH  11  12
ATOM     12  C   UNL     1      35.879  57.187  15.944  1.00  0.00     0.041 C 
ATOM     13  O   UNL     1      36.198  57.676  14.828  1.00  0.00    -0.550 OA
ATOM     14  O   UNL     1      34.696  56.471  16.068  1.00  0.00    -0.550 OA
ENDBRANCH  11  12
ENDBRANCH  10  11
ENDBRANCH   9  10
ENDBRANCH   8   9
ENDBRANCH   1   8
TORSDOF 9
ENDMDL
MODEL 4
REMARK VINA RESULT:    -4.593      0.945      7.851
REMARK INTER + INTRA:          -7.236
REMARK INTER:                  -6.982
REMARK INTRA:                  -0.254
REMARK UNBOUND:                -0.227
REMARK SMILES O=C([O-])CCCCCCCCC(=O)[O-]
REMARK SMILES IDX 7 1 6 2 5 3 4 4 2 5 1 6 3 7 8 8 9 9 10 10 11 11 12 12 13 13
REMARK SMILES IDX 14 14
REMARK H PARENT
REMARK Flexibility Score: inf
ROOT
ATOM      1  C   UNL     1      37.877  56.698  16.822  1.00  0.00     0.000 C 
ENDROOT
BRANCH   1   2
ATOM      2  C   UNL     1      36.438  57.224  16.943  1.00  0.00     0.000 C 
BRANCH   2   3
ATOM      3  C   UNL     1      35.931  57.864  15.640  1.00  0.00     0.006 C 
BRANCH   3   4
ATOM      4  C   UNL     1      35.566  56.815  14.582  1.00  0.00     0.053 C 
BRANCH   4   5
ATOM      5  C   UNL     1      34.121  56.428  14.655  1.00  0.00     0.041 C 
ATOM      6  O   UNL     1      33.273  57.002  13.922  1.00  0.00    -0.550 OA
ATOM      7  O   UNL     1      33.705  55.454  15.555  1.00  0.00    -0.550 OA
ENDBRANCH   4   5
ENDBRANCH   3   4
ENDBRANCH   2   3
ENDBRANCH   1   2
BRANCH   1   8
ATOM      8  C   UNL     1      38.795  57.220  17.941  1.00  0.00     0.000 C 
BRANCH   8   9
ATOM      9  C   UNL     1      39.874  56.203  18.345  1.00  0.00     0.000 C 
BRANCH   9  10
ATOM     10  C   UNL     1      40.923  55.984  17.241  1.00  0.00     0.006 C 
BRANCH  10  11
ATOM     11  C   UNL     1      42.220  55.375  17.788  1.00  0.00     0.053 C 
BRANCH  11  12
ATOM     12  C   UNL     1      43.079  54.816  16.694  1.00  0.00     0.041 C 
ATOM     13  O   UNL     1      42.816  53.690  16.196  1.00  0.00    -0.550 OA
ATOM     14  O   UNL     1      44.185  55.526  16.246  1.00  0.00    -0.550 OA
ENDBRANCH  11  12
ENDBRANCH  10  11
ENDBRANCH   9  10
ENDBRANCH   8   9
ENDBRANCH   1   8
TORSDOF 9
ENDMDL
MODEL 5
REMARK VINA RESULT:    -4.586      0.923      1.666
REMARK INTER + INTRA:          -7.225
REMARK INTER:                  -7.026
REMARK INTRA:                  -0.200
REMARK UNBOUND:                -0.227
REMARK SMILES O=C([O-])CCCCCCCCC(=O)[O-]
REMARK SMILES IDX 7 1 6 2 5 3 4 4 2 5 1 6 3 7 8 8 9 9 10 10 11 11 12 12 13 13
REMARK SMILES IDX 14 14
REMARK H PARENT
REMARK Flexibility Score: inf
ROOT
ATOM      1  C   UNL     1      39.010  57.120  18.018  1.00  0.00     0.000 C 
ENDROOT
BRANCH   1   2
ATOM      2  C   UNL     1      40.103  56.081  18.317  1.00  0.00     0.000 C 
BRANCH   2   3
ATOM      3  C   UNL     1      41.091  55.911  17.150  1.00  0.00     0.006 C 
BRANCH   3   4
ATOM      4  C   UNL     1      42.435  55.332  17.610  1.00  0.00     0.053 C 
BRANCH   4   5
ATOM      5  C   UNL     1      43.126  54.584  16.511  1.00  0.00     0.041 C 
ATOM      6  O   UNL     1      44.084  55.114  15.888  1.00  0.00    -0.550 OA
ATOM      7  O   UNL     1      42.692  53.314  16.153  1.00  0.00    -0.550 OA
ENDBRANCH   4   5
ENDBRANCH   3   4
ENDBRANCH   2   3
ENDBRANCH   1   2
BRANCH   1   8
ATOM      8  C   UNL     1      37.975  56.613  16.997  1.00  0.00     0.000 C 
BRANCH   8   9
ATOM      9  C   UNL     1      36.631  57.351  17.102  1.00  0.00     0.000 C 
BRANCH   9  10
ATOM     10  C   UNL     1      36.150  57.897  15.746  1.00  0.00     0.006 C 
BRANCH  10  11
ATOM     11  C   UNL     1      35.625  56.785  14.828  1.00  0.00     0.053 C 
BRANCH  11  12
ATOM     12  C   UNL     1      34.152  56.568  15.000  1.00  0.00     0.041 C 
ATOM     13  O   UNL     1      33.704  56.100  16.079  1.00  0.00    -0.550 OA
ATOM     14  O   UNL     1      33.280  56.854  13.959  1.00  0.00    -0.550 OA
ENDBRANCH  11  12
ENDBRANCH  10  11
ENDBRANCH   9  10
ENDBRANCH   8   9
ENDBRANCH   1   8
TORSDOF 9
ENDMDL
MODEL 6
REMARK VINA RESULT:    -4.446      1.512      8.201
REMARK INTER + INTRA:          -7.012
REMARK INTER:                  -6.744
REMARK INTRA:                  -0.268
REMARK UNBOUND:                -0.227
REMARK SMILES O=C([O-])CCCCCCCCC(=O)[O-]
REMARK SMILES IDX 7 1 6 2 5 3 4 4 2 5 1 6 3 7 8 8 9 9 10 10 11 11 12 12 13 13
REMARK SMILES IDX 14 14
REMARK H PARENT
REMARK Flexibility Score: inf
ROOT
ATOM      1  C   UNL     1      40.832  55.965  17.167  1.00  0.00     0.000 C 
ENDROOT
BRANCH   1   2
ATOM      2  C   UNL     1      39.912  56.281  18.357  1.00  0.00     0.000 C 
BRANCH   2   3
ATOM      3  C   UNL     1      38.695  57.131  17.953  1.00  0.00     0.006 C 
BRANCH   3   4
ATOM      4  C   UNL     1      37.982  56.568  16.717  1.00  0.00     0.053 C 
BRANCH   4   5
ATOM      5  C   UNL     1      36.595  57.119  16.573  1.00  0.00     0.041 C 
ATOM      6  O   UNL     1      36.402  58.191  15.941  1.00  0.00    -0.550 OA
ATOM      7  O   UNL     1      35.522  56.464  17.164  1.00  0.00    -0.550 OA
ENDBRANCH   4   5
ENDBRANCH   3   4
ENDBRANCH   2   3
ENDBRANCH   1   2
BRANCH   1   8
ATOM      8  C   UNL     1      42.170  55.340  17.602  1.00  0.00     0.000 C 
BRANCH   8   9
ATOM      9  C   UNL     1      42.659  54.254  16.630  1.00  0.00     0.000 C 
BRANCH   9  10
ATOM     10  C   UNL     1      44.023  54.594  16.004  1.00  0.00     0.006 C 
BRANCH  10  11
ATOM     11  C   UNL     1      44.839  55.554  16.879  1.00  0.00     0.053 C 
BRANCH  11  12
ATOM     12  C   UNL     1      46.264  55.649  16.426  1.00  0.00     0.041 C 
ATOM     13  O   UNL     1      46.539  55.635  15.197  1.00  0.00    -0.550 OA
ATOM     14  O   UNL     1      47.289  55.722  17.360  1.00  0.00    -0.550 OA
ENDBRANCH  11  12
ENDBRANCH  10  11
ENDBRANCH   9  10
ENDBRANCH   8   9
ENDBRANCH   1   8
TORSDOF 9
ENDMDL
MODEL 7
REMARK VINA RESULT:    -4.293      2.617      8.427
REMARK INTER + INTRA:          -6.778
REMARK INTER:                  -6.416
REMARK INTRA:                  -0.362
REMARK UNBOUND:                -0.227
REMARK SMILES O=C([O-])CCCCCCCCC(=O)[O-]
REMARK SMILES IDX 7 1 6 2 5 3 4 4 2 5 1 6 3 7 8 8 9 9 10 10 11 11 12 12 13 13
REMARK SMILES IDX 14 14
REMARK H PARENT
REMARK Flexibility Score: inf
ROOT
ATOM      1  C   UNL     1      36.037  56.868  14.946  1.00  0.00     0.000 C 
ENDROOT
BRANCH   1   2
ATOM      2  C   UNL     1      34.651  56.209  14.860  1.00  0.00     0.000 C 
BRANCH   2   3
ATOM      3  C   UNL     1      33.719  56.646  16.003  1.00  0.00     0.006 C 
BRANCH   3   4
ATOM      4  C   UNL     1      32.872  55.482  16.535  1.00  0.00     0.053 C 
BRANCH   4   5
ATOM      5  C   UNL     1      31.620  55.963  17.203  1.00  0.00     0.041 C 
ATOM      6  O   UNL     1      31.115  57.071  16.881  1.00  0.00    -0.550 OA
ATOM      7  O   UNL     1      31.028  55.201  18.203  1.00  0.00    -0.550 OA
ENDBRANCH   4   5
ENDBRANCH   3   4
ENDBRANCH   2   3
ENDBRANCH   1   2
BRANCH   1   8
ATOM      8  C   UNL     1      36.162  57.833  16.139  1.00  0.00     0.000 C 
BRANCH   8   9
ATOM      9  C   UNL     1      36.946  57.225  17.313  1.00  0.00     0.000 C 
BRANCH   9  10
ATOM     10  C   UNL     1      38.272  56.583  16.868  1.00  0.00     0.006 C 
BRANCH  10  11
ATOM     11  C   UNL     1      39.365  56.715  17.937  1.00  0.00     0.053 C 
BRANCH  11  12
ATOM     12  C   UNL     1      40.607  55.966  17.560  1.00  0.00     0.041 C 
ATOM     13  O   UNL     1      40.837  55.688  16.354  1.00  0.00    -0.550 OA
ATOM     14  O   UNL     1      41.494  55.548  18.544  1.00  0.00    -0.550 OA
ENDBRANCH  11  12
ENDBRANCH  10  11
ENDBRANCH   9  10
ENDBRANCH   8   9
ENDBRANCH   1   8
TORSDOF 9
ENDMDL
MODEL 8
REMARK VINA RESULT:    -4.255      1.404      2.173
REMARK INTER + INTRA:          -6.721
REMARK INTER:                  -6.408
REMARK INTRA:                  -0.313
REMARK UNBOUND:                -0.227
REMARK SMILES O=C([O-])CCCCCCCCC(=O)[O-]
REMARK SMILES IDX 7 1 6 2 5 3 4 4 2 5 1 6 3 7 8 8 9 9 10 10 11 11 12 12 13 13
REMARK SMILES IDX 14 14
REMARK H PARENT
REMARK Flexibility Score: inf
ROOT
ATOM      1  C   UNL     1      41.651  55.647  16.908  1.00  0.00     0.000 C 
ENDROOT
BRANCH   1   2
ATOM      2  C   UNL     1      42.347  54.296  16.679  1.00  0.00     0.000 C 
BRANCH   2   3
ATOM      3  C   UNL     1      43.800  54.453  16.201  1.00  0.00     0.006 C 
BRANCH   3   4
ATOM      4  C   UNL     1      44.528  55.593  16.925  1.00  0.00     0.053 C 
BRANCH   4   5
ATOM      5  C   UNL     1      45.808  55.963  16.240  1.00  0.00     0.041 C 
ATOM      6  O   UNL     1      46.896  55.935  16.873  1.00  0.00    -0.550 OA
ATOM      7  O   UNL     1      45.794  56.368  14.911  1.00  0.00    -0.550 OA
ENDBRANCH   4   5
ENDBRANCH   3   4
ENDBRANCH   2   3
ENDBRANCH   1   2
BRANCH   1   8
ATOM      8  C   UNL     1      40.896  55.706  18.248  1.00  0.00     0.000 C 
BRANCH   8   9
ATOM      9  C   UNL     1      39.778  56.760  18.251  1.00  0.00     0.000 C 
BRANCH   9  10
ATOM     10  C   UNL     1      38.656  56.433  17.250  1.00  0.00     0.006 C 
BRANCH  10  11
ATOM     11  C   UNL     1      37.496  57.435  17.333  1.00  0.00     0.053 C 
BRANCH  11  12
ATOM     12  C   UNL     1      36.446  57.159  16.301  1.00  0.00     0.041 C 
ATOM     13  O   UNL     1      36.742  57.171  15.077  1.00  0.00    -0.550 OA
ATOM     14  O   UNL     1      35.135  56.918  16.689  1.00  0.00    -0.550 OA
ENDBRANCH  11  12
ENDBRANCH  10  11
ENDBRANCH   9  10
ENDBRANCH   8   9
ENDBRANCH   1   8
TORSDOF 9
ENDMDL
MODEL 9
REMARK VINA RESULT:    -4.164      6.021      9.469
REMARK INTER + INTRA:          -6.581
REMARK INTER:                  -5.775
REMARK INTRA:                  -0.806
REMARK UNBOUND:                -0.227
REMARK SMILES O=C([O-])CCCCCCCCC(=O)[O-]
REMARK SMILES IDX 7 1 6 2 5 3 4 4 2 5 1 6 3 7 8 8 9 9 10 10 11 11 12 12 13 13
REMARK SMILES IDX 14 14
REMARK H PARENT
REMARK Flexibility Score: inf
ROOT
ATOM      1  C   UNL     1      46.937  51.943  14.596  1.00  0.00     0.000 C 
ENDROOT
BRANCH   1   2
ATOM      2  C   UNL     1      45.783  52.710  13.931  1.00  0.00     0.000 C 
BRANCH   2   3
ATOM      3  C   UNL     1      44.637  53.016  14.910  1.00  0.00     0.006 C 
BRANCH   3   4
ATOM      4  C   UNL     1      44.681  54.463  15.419  1.00  0.00     0.053 C 
BRANCH   4   5
ATOM      5  C   UNL     1      43.738  54.682  16.562  1.00  0.00     0.041 C 
ATOM      6  O   UNL     1      43.046  53.728  17.005  1.00  0.00    -0.550 OA
ATOM      7  O   UNL     1      43.599  55.949  17.116  1.00  0.00    -0.550 OA
ENDBRANCH   4   5
ENDBRANCH   3   4
ENDBRANCH   2   3
ENDBRANCH   1   2
BRANCH   1   8
ATOM      8  C   UNL     1      48.291  52.660  14.442  1.00  0.00     0.000 C 
BRANCH   8   9
ATOM      9  C   UNL     1      48.741  53.357  15.736  1.00  0.00     0.000 C 
BRANCH   9  10
ATOM     10  C   UNL     1      48.389  54.855  15.753  1.00  0.00     0.006 C 
BRANCH  10  11
ATOM     11  C   UNL     1      47.934  55.326  17.141  1.00  0.00     0.053 C 
BRANCH  11  12
ATOM     12  C   UNL     1      47.737  56.811  17.189  1.00  0.00     0.041 C 
ATOM     13  O   UNL     1      48.578  57.542  17.773  1.00  0.00    -0.550 OA
ATOM     14  O   UNL     1      46.609  57.382  16.614  1.00  0.00    -0.550 OA
ENDBRANCH  11  12
ENDBRANCH  10  11
ENDBRANCH   9  10
ENDBRANCH   8   9
ENDBRANCH   1   8
TORSDOF 9
ENDMDL
