MODEL 1
REMARK VINA RESULT:    -2.520      0.000      0.000
REMARK INTER + INTRA:          -2.520
REMARK INTER:                  -2.520
REMARK INTRA:                   0.000
REMARK UNBOUND:                 0.000
REMARK SMILES CC(=O)[O-]
REMARK SMILES IDX 1 1 2 2 3 3 4 4
REMARK H PARENT
REMARK Flexibility Score: inf
ROOT
ATOM      1  C   UNL     1      -7.904  15.512 -12.041  1.00  0.00     0.063 C 
ATOM      2  C   UNL     1      -8.755  16.686 -12.388  1.00  0.00     0.038 C 
ATOM      3  O   UNL     1      -9.862  16.516 -12.964  1.00  0.00    -0.550 OA
ATOM      4  O   UNL     1      -8.353  17.966 -12.031  1.00  0.00    -0.550 OA
ENDROOT
TORSDOF 0
ENDMDL
MODEL 2
REMARK VINA RESULT:    -2.510      0.185      1.623
REMARK INTER + INTRA:          -2.510
REMARK INTER:                  -2.510
REMARK INTRA:                   0.000
REMARK UNBOUND:                 0.000
REMARK SMILES CC(=O)[O-]
REMARK SMILES IDX 1 1 2 2 3 3 4 4
REMARK H PARENT
REMARK Flexibility Score: inf
ROOT
ATOM      1  C   UNL     1      -7.843  15.408 -12.052  1.00  0.00     0.063 C 
ATOM      2  C   UNL     1      -8.689  16.618 -12.254  1.00  0.00     0.038 C 
ATOM      3  O   UNL     1      -8.300  17.739 -11.832  1.00  0.00    -0.550 OA
ATOM      4  O   UNL     1      -9.884  16.523 -12.954  1.00  0.00    -0.550 OA
ENDROOT
TORSDOF 0
ENDMDL
MODEL 3
REMARK VINA RESULT:    -2.452      2.056      2.501
REMARK INTER + INTRA:          -2.452
REMARK INTER:                  -2.452
REMARK INTRA:                   0.000
REMARK UNBOUND:                 0.000
REMARK SMILES CC(=O)[O-]
REMARK SMILES IDX 1 1 2 2 3 3 4 4
REMARK H PARENT
REMARK Flexibility Score: inf
ROOT
ATOM      1  C   UNL     1      -9.071  16.460 -12.352  1.00  0.00     0.063 C 
ATOM      2  C   UNL     1      -7.692  15.918 -12.196  1.00  0.00     0.038 C 
ATOM      3  O   UNL     1      -6.725  16.464 -12.790  1.00  0.00    -0.550 OA
ATOM      4  O   UNL     1      -7.460  14.840 -11.351  1.00  0.00    -0.550 OA
ENDROOT
TORSDOF 0
ENDMDL
MODEL 4
REMARK VINA RESULT:    -2.419      1.332      1.839
REMARK INTER + INTRA:          -2.419
REMARK INTER:                  -2.419
REMARK INTRA:                   0.000
REMARK UNBOUND:                 0.000
REMARK SMILES CC(=O)[O-]
REMARK SMILES IDX 1 1 2 2 3 3 4 4
REMARK H PARENT
REMARK Flexibility Score: inf
ROOT
ATOM      1  C   UNL     1      -8.395  18.600 -12.844  1.00  0.00     0.063 C 
ATOM      2  C   UNL     1      -8.668  17.180 -12.481  1.00  0.00     0.038 C 
ATOM      3  O   UNL     1      -9.747  16.634 -12.832  1.00  0.00    -0.550 OA
ATOM      4  O   UNL     1      -7.711  16.440 -11.800  1.00  0.00    -0.550 OA
ENDROOT
TORSDOF 0
ENDMDL
MODEL 5
REMARK VINA RESULT:    -2.397      2.268      2.477
REMARK INTER + INTRA:          -2.397
REMARK INTER:                  -2.397
REMARK INTRA:                   0.000
REMARK UNBOUND:                 0.000
REMARK SMILES CC(=O)[O-]
REMARK SMILES IDX 1 1 2 2 3 3 4 4
REMARK H PARENT
REMARK Flexibility Score: inf
ROOT
ATOM      1  C   UNL     1      -7.671  14.492 -13.350  1.00  0.00     0.063 C 
ATOM      2  C   UNL     1      -7.546  15.121 -12.004  1.00  0.00     0.038 C 
ATOM      3  O   UNL     1      -7.257  14.417 -11.001  1.00  0.00    -0.550 OA
ATOM      4  O   UNL     1      -7.697  16.494 -11.861  1.00  0.00    -0.550 OA
ENDROOT
TORSDOF 0
ENDMDL
MODEL 6
REMARK VINA RESULT:    -2.393      2.020      2.239
REMARK INTER + INTRA:          -2.393
REMARK INTER:                  -2.393
REMARK INTRA:                   0.000
REMARK UNBOUND:                 0.000
REMARK SMILES CC(=O)[O-]
REMARK SMILES IDX 1 1 2 2 3 3 4 4
REMARK H PARENT
REMARK Flexibility Score: inf
ROOT
ATOM      1  C   UNL     1      -9.043  16.559 -12.429  1.00  0.00     0.063 C 
ATOM      2  C   UNL     1      -7.667  16.027 -12.215  1.00  0.00     0.038 C 
ATOM      3  O   UNL     1      -7.482  15.038 -11.458  1.00  0.00    -0.550 OA
ATOM      4  O   UNL     1      -6.591  16.587 -12.892  1.00  0.00    -0.550 OA
ENDROOT
TORSDOF 0
ENDMDL
MODEL 7
REMARK VINA RESULT:    -2.378      1.302      2.315
REMARK INTER + INTRA:          -2.378
REMARK INTER:                  -2.378
REMARK INTRA:                   0.000
REMARK UNBOUND:                 0.000
REMARK SMILES CC(=O)[O-]
REMARK SMILES IDX 1 1 2 2 3 3 4 4
REMARK H PARENT
REMARK Flexibility Score: inf
ROOT
ATOM      1  C   UNL     1      -8.369  18.613 -12.981  1.00  0.00     0.063 C 
ATOM      2  C   UNL     1      -8.619  17.216 -12.526  1.00  0.00     0.038 C 
ATOM      3  O   UNL     1      -7.761  16.616 -11.826  1.00  0.00    -0.550 OA
ATOM      4  O   UNL     1      -9.822  16.591 -12.827  1.00  0.00    -0.550 OA
ENDROOT
TORSDOF 0
ENDMDL
MODEL 8
REMARK VINA RESULT:    -2.275      8.217      8.534
REMARK INTER + INTRA:          -2.275
REMARK INTER:                  -2.275
REMARK INTRA:                   0.000
REMARK UNBOUND:                 0.000
REMARK SMILES CC(=O)[O-]
REMARK SMILES IDX 1 1 2 2 3 3 4 4
REMARK H PARENT
REMARK Flexibility Score: inf
ROOT
ATOM      1  C   UNL     1      -7.239  12.175  -5.301  1.00  0.00     0.063 C 
ATOM      2  C   UNL     1      -8.584  11.656  -5.679  1.00  0.00     0.038 C 
ATOM      3  O   UNL     1      -9.517  12.456  -5.952  1.00  0.00    -0.550 OA
ATOM      4  O   UNL     1      -8.797  10.287  -5.782  1.00  0.00    -0.550 OA
ENDROOT
TORSDOF 0
ENDMDL
MODEL 9
REMARK VINA RESULT:    -1.979      2.775      3.191
REMARK INTER + INTRA:          -1.979
REMARK INTER:                  -1.979
REMARK INTRA:                   0.000
REMARK UNBOUND:                 0.000
REMARK SMILES CC(=O)[O-]
REMARK SMILES IDX 1 1 2 2 3 3 4 4
REMARK H PARENT
REMARK Flexibility Score: inf
ROOT
ATOM      1  C   UNL     1      -7.040  13.465 -13.530  1.00  0.00     0.063 C 
ATOM      2  C   UNL     1      -8.290  14.067 -14.075  1.00  0.00     0.038 C 
ATOM      3  O   UNL     1      -9.036  13.396 -14.837  1.00  0.00    -0.550 OA
ATOM      4  O   UNL     1      -8.664  15.351 -13.701  1.00  0.00    -0.550 OA
ENDROOT
TORSDOF 0
ENDMDL
