MODEL 1
REMARK VINA RESULT:    -4.566      0.000      0.000
REMARK INTER + INTRA:          -8.520
REMARK INTER:                  -7.235
REMARK INTRA:                  -1.284
REMARK UNBOUND:                -1.284
REMARK SMILES CCCCCCCCCCCC(=O)[O-]
REMARK SMILES IDX 7 1 8 2 9 3 10 4 11 5 12 6 13 7 14 8 6 9 5 10 4 11 3 12 2 13
REMARK SMILES IDX 1 14
REMARK H PARENT
REMARK Flexibility Score: inf
ROOT
ATOM      1  C   UNL     1     121.491 178.730 125.198  1.00  0.00     0.000 C 
ENDROOT
BRANCH   1   2
ATOM      2  C   UNL     1     120.820 179.913 125.908  1.00  0.00     0.000 C 
BRANCH   2   3
ATOM      3  C   UNL     1     119.422 179.528 126.413  1.00  0.00     0.000 C 
BRANCH   3   4
ATOM      4  C   UNL     1     118.807 178.362 125.621  1.00  0.00     0.006 C 
BRANCH   4   5
ATOM      5  C   UNL     1     117.445 178.715 125.010  1.00  0.00     0.053 C 
BRANCH   5   6
ATOM      6  C   UNL     1     117.575 178.932 123.536  1.00  0.00     0.041 C 
ATOM      7  O   UNL     1     116.551 179.155 122.836  1.00  0.00    -0.550 OA
ATOM      8  O   UNL     1     118.830 178.937 122.942  1.00  0.00    -0.550 OA
ENDBRANCH   5   6
ENDBRANCH   4   5
ENDBRANCH   3   4
ENDBRANCH   2   3
ENDBRANCH   1   2
BRANCH   1   9
ATOM      9  C   UNL     1     122.770 178.303 125.927  1.00  0.00     0.000 C 
BRANCH   9  10
ATOM     10  C   UNL     1     123.290 179.426 126.831  1.00  0.00    -0.000 C 
BRANCH  10  11
ATOM     11  C   UNL     1     123.705 178.882 128.203  1.00  0.00    -0.000 C 
BRANCH  11  12
ATOM     12  C   UNL     1     122.558 179.012 129.216  1.00  0.00    -0.000 C 
BRANCH  12  13
ATOM     13  C   UNL     1     122.009 177.650 129.667  1.00  0.00    -0.003 C 
ATOM     14  C   UNL     1     120.712 177.268 128.955  1.00  0.00     0.004 C 
ENDBRANCH  12  13
ENDBRANCH  11  12
ENDBRANCH  10  11
ENDBRANCH   9  10
ENDBRANCH   1   9
TORSDOF 10
ENDMDL
MODEL 2
REMARK VINA RESULT:    -4.502      1.595      3.047
REMARK INTER + INTRA:          -8.418
REMARK INTER:                  -7.618
REMARK INTRA:                  -0.799
REMARK UNBOUND:                -1.284
REMARK SMILES CCCCCCCCCCCC(=O)[O-]
REMARK SMILES IDX 7 1 8 2 9 3 10 4 11 5 12 6 13 7 14 8 6 9 5 10 4 11 3 12 2 13
REMARK SMILES IDX 1 14
REMARK H PARENT
REMARK Flexibility Score: inf
ROOT
ATOM      1  C   UNL     1     123.585 178.606 128.227  1.00  0.00     0.000 C 
ENDROOT
BRANCH   1   2
ATOM      2  C   UNL     1     122.503 179.020 127.221  1.00  0.00     0.000 C 
BRANCH   2   3
ATOM      3  C   UNL     1     121.103 178.909 127.844  1.00  0.00     0.000 C 
BRANCH   3   4
ATOM      4  C   UNL     1     120.021 179.593 126.992  1.00  0.00     0.006 C 
BRANCH   4   5
ATOM      5  C   UNL     1     119.344 178.628 126.010  1.00  0.00     0.053 C 
BRANCH   5   6
ATOM      6  C   UNL     1     119.373 179.190 124.624  1.00  0.00     0.041 C 
ATOM      7  O   UNL     1     120.376 179.838 124.224  1.00  0.00    -0.550 OA
ATOM      8  O   UNL     1     118.313 178.956 123.757  1.00  0.00    -0.550 OA
ENDBRANCH   5   6
ENDBRANCH   4   5
ENDBRANCH   3   4
ENDBRANCH   2   3
ENDBRANCH   1   2
BRANCH   1   9
ATOM      9  C   UNL     1     123.128 178.872 129.667  1.00  0.00     0.000 C 
BRANCH   9  10
ATOM     10  C   UNL     1     123.200 177.595 130.512  1.00  0.00    -0.000 C 
BRANCH  10  11
ATOM     11  C   UNL     1     121.835 177.262 131.125  1.00  0.00    -0.000 C 
BRANCH  11  12
ATOM     12  C   UNL     1     121.067 176.263 130.247  1.00  0.00    -0.000 C 
BRANCH  12  13
ATOM     13  C   UNL     1     119.736 175.824 130.876  1.00  0.00    -0.003 C 
ATOM     14  C   UNL     1     118.525 176.208 130.027  1.00  0.00     0.004 C 
ENDBRANCH  12  13
ENDBRANCH  11  12
ENDBRANCH  10  11
ENDBRANCH   9  10
ENDBRANCH   1   9
TORSDOF 10
ENDMDL
MODEL 3
REMARK VINA RESULT:    -4.479      1.196      2.008
REMARK INTER + INTRA:          -8.382
REMARK INTER:                  -7.070
REMARK INTRA:                  -1.312
REMARK UNBOUND:                -1.284
REMARK SMILES CCCCCCCCCCCC(=O)[O-]
REMARK SMILES IDX 7 1 8 2 9 3 10 4 11 5 12 6 13 7 14 8 6 9 5 10 4 11 3 12 2 13
REMARK SMILES IDX 1 14
REMARK H PARENT
REMARK Flexibility Score: inf
ROOT
ATOM      1  C   UNL     1     123.270 178.293 126.421  1.00  0.00     0.000 C 
ENDROOT
BRANCH   1   2
ATOM      2  C   UNL     1     121.793 178.171 126.025  1.00  0.00     0.000 C 
BRANCH   2   3
ATOM      3  C   UNL     1     121.113 179.547 126.014  1.00  0.00     0.000 C 
BRANCH   3   4
ATOM      4  C   UNL     1     119.754 179.542 126.734  1.00  0.00     0.006 C 
BRANCH   4   5
ATOM      5  C   UNL     1     118.626 180.125 125.873  1.00  0.00     0.053 C 
BRANCH   5   6
ATOM      6  C   UNL     1     117.975 179.047 125.066  1.00  0.00     0.041 C 
ATOM      7  O   UNL     1     117.924 177.868 125.508  1.00  0.00    -0.550 OA
ATOM      8  O   UNL     1     117.381 179.352 123.849  1.00  0.00    -0.550 OA
ENDBRANCH   5   6
ENDBRANCH   4   5
ENDBRANCH   3   4
ENDBRANCH   2   3
ENDBRANCH   1   2
BRANCH   1   9
ATOM      9  C   UNL     1     123.489 179.472 127.376  1.00  0.00     0.000 C 
BRANCH   9  10
ATOM     10  C   UNL     1     123.709 178.984 128.812  1.00  0.00    -0.000 C 
BRANCH  10  11
ATOM     11  C   UNL     1     122.395 178.984 129.602  1.00  0.00    -0.000 C 
BRANCH  11  12
ATOM     12  C   UNL     1     122.178 177.639 130.311  1.00  0.00    -0.000 C 
BRANCH  12  13
ATOM     13  C   UNL     1     121.167 176.742 129.580  1.00  0.00    -0.003 C 
ATOM     14  C   UNL     1     121.837 175.655 128.742  1.00  0.00     0.004 C 
ENDBRANCH  12  13
ENDBRANCH  11  12
ENDBRANCH  10  11
ENDBRANCH   9  10
ENDBRANCH   1   9
TORSDOF 10
ENDMDL
MODEL 4
REMARK VINA RESULT:    -4.463      2.010      4.252
REMARK INTER + INTRA:          -8.356
REMARK INTER:                  -6.970
REMARK INTRA:                  -1.386
REMARK UNBOUND:                -1.284
REMARK SMILES CCCCCCCCCCCC(=O)[O-]
REMARK SMILES IDX 7 1 8 2 9 3 10 4 11 5 12 6 13 7 14 8 6 9 5 10 4 11 3 12 2 13
REMARK SMILES IDX 1 14
REMARK H PARENT
REMARK Flexibility Score: inf
ROOT
ATOM      1  C   UNL     1     122.241 178.476 130.401  1.00  0.00     0.000 C 
ENDROOT
BRANCH   1   2
ATOM      2  C   UNL     1     121.916 178.985 128.991  1.00  0.00     0.000 C 
BRANCH   2   3
ATOM      3  C   UNL     1     123.079 178.709 128.027  1.00  0.00     0.000 C 
BRANCH   3   4
ATOM      4  C   UNL     1     122.756 179.115 126.579  1.00  0.00     0.006 C 
BRANCH   4   5
ATOM      5  C   UNL     1     121.282 179.492 126.386  1.00  0.00     0.053 C 
BRANCH   5   6
ATOM      6  C   UNL     1     120.813 179.082 125.025  1.00  0.00     0.041 C 
ATOM      7  O   UNL     1     121.598 178.494 124.236  1.00  0.00    -0.550 OA
ATOM      8  O   UNL     1     119.496 179.306 124.648  1.00  0.00    -0.550 OA
ENDBRANCH   5   6
ENDBRANCH   4   5
ENDBRANCH   3   4
ENDBRANCH   2   3
ENDBRANCH   1   2
BRANCH   1   9
ATOM      9  C   UNL     1     122.201 176.945 130.458  1.00  0.00     0.000 C 
BRANCH   9  10
ATOM     10  C   UNL     1     120.895 176.450 131.090  1.00  0.00    -0.000 C 
BRANCH  10  11
ATOM     11  C   UNL     1     120.074 175.629 130.088  1.00  0.00    -0.000 C 
BRANCH  11  12
ATOM     12  C   UNL     1     118.906 176.454 129.527  1.00  0.00    -0.000 C 
BRANCH  12  13
ATOM     13  C   UNL     1     119.087 176.800 128.041  1.00  0.00    -0.003 C 
ATOM     14  C   UNL     1     120.237 176.033 127.390  1.00  0.00     0.004 C 
ENDBRANCH  12  13
ENDBRANCH  11  12
ENDBRANCH  10  11
ENDBRANCH   9  10
ENDBRANCH   1   9
TORSDOF 10
ENDMDL
MODEL 5
REMARK VINA RESULT:    -4.410      1.173      2.697
REMARK INTER + INTRA:          -8.273
REMARK INTER:                  -6.873
REMARK INTRA:                  -1.400
REMARK UNBOUND:                -1.284
REMARK SMILES CCCCCCCCCCCC(=O)[O-]
REMARK SMILES IDX 7 1 8 2 9 3 10 4 11 5 12 6 13 7 14 8 6 9 5 10 4 11 3 12 2 13
REMARK SMILES IDX 1 14
REMARK H PARENT
REMARK Flexibility Score: inf
ROOT
ATOM      1  C   UNL     1     121.452 178.989 128.516  1.00  0.00     0.000 C 
ENDROOT
BRANCH   1   2
ATOM      2  C   UNL     1     120.547 177.752 128.447  1.00  0.00     0.000 C 
BRANCH   2   3
ATOM      3  C   UNL     1     119.417 177.956 127.427  1.00  0.00     0.000 C 
BRANCH   3   4
ATOM      4  C   UNL     1     119.530 179.296 126.680  1.00  0.00     0.006 C 
BRANCH   4   5
ATOM      5  C   UNL     1     118.231 179.682 125.961  1.00  0.00     0.053 C 
BRANCH   5   6
ATOM      6  C   UNL     1     118.272 179.234 124.534  1.00  0.00     0.041 C 
ATOM      7  O   UNL     1     117.204 178.958 123.926  1.00  0.00    -0.550 OA
ATOM      8  O   UNL     1     119.485 179.170 123.860  1.00  0.00    -0.550 OA
ENDBRANCH   5   6
ENDBRANCH   4   5
ENDBRANCH   3   4
ENDBRANCH   2   3
ENDBRANCH   1   2
BRANCH   1   9
ATOM      9  C   UNL     1     122.820 178.637 129.113  1.00  0.00     0.000 C 
BRANCH   9  10
ATOM     10  C   UNL     1     123.940 178.848 128.087  1.00  0.00    -0.000 C 
BRANCH  10  11
ATOM     11  C   UNL     1     123.370 179.286 126.733  1.00  0.00    -0.000 C 
BRANCH  11  12
ATOM     12  C   UNL     1     123.759 178.293 125.626  1.00  0.00    -0.000 C 
BRANCH  12  13
ATOM     13  C   UNL     1     122.544 177.564 125.033  1.00  0.00    -0.003 C 
ATOM     14  C   UNL     1     122.337 176.174 125.632  1.00  0.00     0.004 C 
ENDBRANCH  12  13
ENDBRANCH  11  12
ENDBRANCH  10  11
ENDBRANCH   9  10
ENDBRANCH   1   9
TORSDOF 10
ENDMDL
MODEL 6
REMARK VINA RESULT:    -4.377      2.497      4.203
REMARK INTER + INTRA:          -8.221
REMARK INTER:                  -6.794
REMARK INTRA:                  -1.427
REMARK UNBOUND:                -1.284
REMARK SMILES CCCCCCCCCCCC(=O)[O-]
REMARK SMILES IDX 7 1 8 2 9 3 10 4 11 5 12 6 13 7 14 8 6 9 5 10 4 11 3 12 2 13
REMARK SMILES IDX 1 14
REMARK H PARENT
REMARK Flexibility Score: inf
ROOT
ATOM      1  C   UNL     1     122.746 176.473 130.014  1.00  0.00     0.000 C 
ENDROOT
BRANCH   1   2
ATOM      2  C   UNL     1     121.551 175.641 129.531  1.00  0.00     0.000 C 
BRANCH   2   3
ATOM      3  C   UNL     1     120.279 176.002 130.312  1.00  0.00     0.000 C 
BRANCH   3   4
ATOM      4  C   UNL     1     119.048 176.148 129.403  1.00  0.00     0.006 C 
BRANCH   4   5
ATOM      5  C   UNL     1     119.224 177.242 128.342  1.00  0.00     0.053 C 
BRANCH   5   6
ATOM      6  C   UNL     1     119.049 176.670 126.970  1.00  0.00     0.041 C 
ATOM      7  O   UNL     1     118.404 177.308 126.096  1.00  0.00    -0.550 OA
ATOM      8  O   UNL     1     119.642 175.458 126.641  1.00  0.00    -0.550 OA
ENDBRANCH   5   6
ENDBRANCH   4   5
ENDBRANCH   3   4
ENDBRANCH   2   3
ENDBRANCH   1   2
BRANCH   1   9
ATOM      9  C   UNL     1     122.277 177.724 130.767  1.00  0.00     0.000 C 
BRANCH   9  10
ATOM     10  C   UNL     1     122.252 178.947 129.843  1.00  0.00    -0.000 C 
BRANCH  10  11
ATOM     11  C   UNL     1     123.662 179.297 129.353  1.00  0.00    -0.000 C 
BRANCH  11  12
ATOM     12  C   UNL     1     123.738 179.259 127.820  1.00  0.00    -0.000 C 
BRANCH  12  13
ATOM     13  C   UNL     1     122.385 178.932 127.169  1.00  0.00    -0.003 C 
ATOM     14  C   UNL     1     122.474 177.789 126.159  1.00  0.00     0.004 C 
ENDBRANCH  12  13
ENDBRANCH  11  12
ENDBRANCH  10  11
ENDBRANCH   9  10
ENDBRANCH   1   9
TORSDOF 10
ENDMDL
MODEL 7
REMARK VINA RESULT:    -4.374      2.899      5.381
REMARK INTER + INTRA:          -8.216
REMARK INTER:                  -7.111
REMARK INTRA:                  -1.105
REMARK UNBOUND:                -1.284
REMARK SMILES CCCCCCCCCCCC(=O)[O-]
REMARK SMILES IDX 7 1 8 2 9 3 10 4 11 5 12 6 13 7 14 8 6 9 5 10 4 11 3 12 2 13
REMARK SMILES IDX 1 14
REMARK H PARENT
REMARK Flexibility Score: inf
ROOT
ATOM      1  C   UNL     1     122.665 178.516 127.893  1.00  0.00     0.000 C 
ENDROOT
BRANCH   1   2
ATOM      2  C   UNL     1     123.188 179.189 126.617  1.00  0.00     0.000 C 
BRANCH   2   3
ATOM      3  C   UNL     1     124.126 178.249 125.846  1.00  0.00     0.000 C 
BRANCH   3   4
ATOM      4  C   UNL     1     123.365 177.166 125.063  1.00  0.00     0.006 C 
BRANCH   4   5
ATOM      5  C   UNL     1     124.272 176.382 124.106  1.00  0.00     0.053 C 
BRANCH   5   6
ATOM      6  C   UNL     1     124.437 177.125 122.818  1.00  0.00     0.041 C 
ATOM      7  O   UNL     1     123.427 177.438 122.134  1.00  0.00    -0.550 OA
ATOM      8  O   UNL     1     125.702 177.515 122.397  1.00  0.00    -0.550 OA
ENDBRANCH   5   6
ENDBRANCH   4   5
ENDBRANCH   3   4
ENDBRANCH   2   3
ENDBRANCH   1   2
BRANCH   1   9
ATOM      9  C   UNL     1     121.248 178.995 128.227  1.00  0.00     0.000 C 
BRANCH   9  10
ATOM     10  C   UNL     1     120.291 178.745 127.055  1.00  0.00    -0.000 C 
BRANCH  10  11
ATOM     11  C   UNL     1     119.616 180.047 126.608  1.00  0.00    -0.000 C 
BRANCH  11  12
ATOM     12  C   UNL     1     119.502 180.111 125.078  1.00  0.00    -0.000 C 
BRANCH  12  13
ATOM     13  C   UNL     1     120.348 179.037 124.377  1.00  0.00    -0.003 C 
ATOM     14  C   UNL     1     120.646 179.377 122.918  1.00  0.00     0.004 C 
ENDBRANCH  12  13
ENDBRANCH  11  12
ENDBRANCH  10  11
ENDBRANCH   9  10
ENDBRANCH   1   9
TORSDOF 10
ENDMDL
MODEL 8
REMARK VINA RESULT:    -4.374      1.841      3.187
REMARK INTER + INTRA:          -8.215
REMARK INTER:                  -7.146
REMARK INTRA:                  -1.069
REMARK UNBOUND:                -1.284
REMARK SMILES CCCCCCCCCCCC(=O)[O-]
REMARK SMILES IDX 7 1 8 2 9 3 10 4 11 5 12 6 13 7 14 8 6 9 5 10 4 11 3 12 2 13
REMARK SMILES IDX 1 14
REMARK H PARENT
REMARK Flexibility Score: inf
ROOT
ATOM      1  C   UNL     1     119.255 177.154 127.803  1.00  0.00     0.000 C 
ENDROOT
BRANCH   1   2
ATOM      2  C   UNL     1     119.044 178.378 126.901  1.00  0.00     0.000 C 
BRANCH   2   3
ATOM      3  C   UNL     1     120.151 179.419 127.122  1.00  0.00     0.000 C 
BRANCH   3   4
ATOM      4  C   UNL     1     120.811 179.869 125.808  1.00  0.00     0.006 C 
BRANCH   4   5
ATOM      5  C   UNL     1     119.921 179.619 124.584  1.00  0.00     0.053 C 
BRANCH   5   6
ATOM      6  C   UNL     1     120.737 179.104 123.441  1.00  0.00     0.041 C 
ATOM      7  O   UNL     1     121.708 178.331 123.655  1.00  0.00    -0.550 OA
ATOM      8  O   UNL     1     120.396 179.438 122.137  1.00  0.00    -0.550 OA
ENDBRANCH   5   6
ENDBRANCH   4   5
ENDBRANCH   3   4
ENDBRANCH   2   3
ENDBRANCH   1   2
BRANCH   1   9
ATOM      9  C   UNL     1     120.672 177.139 128.388  1.00  0.00     0.000 C 
BRANCH   9  10
ATOM     10  C   UNL     1     120.644 176.834 129.890  1.00  0.00    -0.000 C 
BRANCH  10  11
ATOM     11  C   UNL     1     121.891 177.388 130.588  1.00  0.00    -0.000 C 
BRANCH  11  12
ATOM     12  C   UNL     1     122.218 178.804 130.089  1.00  0.00    -0.000 C 
BRANCH  12  13
ATOM     13  C   UNL     1     123.661 178.933 129.579  1.00  0.00    -0.003 C 
ATOM     14  C   UNL     1     123.735 179.345 128.110  1.00  0.00     0.004 C 
ENDBRANCH  12  13
ENDBRANCH  11  12
ENDBRANCH  10  11
ENDBRANCH   9  10
ENDBRANCH   1   9
TORSDOF 10
ENDMDL
MODEL 9
REMARK VINA RESULT:    -4.332      1.548      3.259
REMARK INTER + INTRA:          -8.149
REMARK INTER:                  -6.746
REMARK INTRA:                  -1.403
REMARK UNBOUND:                -1.284
REMARK SMILES CCCCCCCCCCCC(=O)[O-]
REMARK SMILES IDX 7 1 8 2 9 3 10 4 11 5 12 6 13 7 14 8 6 9 5 10 4 11 3 12 2 13
REMARK SMILES IDX 1 14
REMARK H PARENT
REMARK Flexibility Score: inf
ROOT
ATOM      1  C   UNL     1     120.860 176.456 129.374  1.00  0.00     0.000 C 
ENDROOT
BRANCH   1   2
ATOM      2  C   UNL     1     120.692 176.833 127.896  1.00  0.00     0.000 C 
BRANCH   2   3
ATOM      3  C   UNL     1     119.593 177.892 127.722  1.00  0.00     0.000 C 
BRANCH   3   4
ATOM      4  C   UNL     1     120.157 179.277 127.366  1.00  0.00     0.006 C 
BRANCH   4   5
ATOM      5  C   UNL     1     119.246 180.059 126.412  1.00  0.00     0.053 C 
BRANCH   5   6
ATOM      6  C   UNL     1     119.404 179.557 125.011  1.00  0.00     0.041 C 
ATOM      7  O   UNL     1     120.492 179.721 124.399  1.00  0.00    -0.550 OA
ATOM      8  O   UNL     1     118.367 178.863 124.401  1.00  0.00    -0.550 OA
ENDBRANCH   5   6
ENDBRANCH   4   5
ENDBRANCH   3   4
ENDBRANCH   2   3
ENDBRANCH   1   2
BRANCH   1   9
ATOM      9  C   UNL     1     122.261 176.817 129.879  1.00  0.00     0.000 C 
BRANCH   9  10
ATOM     10  C   UNL     1     122.250 178.156 130.626  1.00  0.00    -0.000 C 
BRANCH  10  11
ATOM     11  C   UNL     1     123.225 179.151 129.987  1.00  0.00    -0.000 C 
BRANCH  11  12
ATOM     12  C   UNL     1     123.931 178.528 128.774  1.00  0.00    -0.000 C 
BRANCH  12  13
ATOM     13  C   UNL     1     123.716 179.337 127.485  1.00  0.00    -0.003 C 
ATOM     14  C   UNL     1     123.588 178.453 126.246  1.00  0.00     0.004 C 
ENDBRANCH  12  13
ENDBRANCH  11  12
ENDBRANCH  10  11
ENDBRANCH   9  10
ENDBRANCH   1   9
TORSDOF 10
ENDMDL
