MODEL 1
REMARK VINA RESULT:    -4.960      0.000      0.000
REMARK INTER + INTRA:          -4.960
REMARK INTER:                  -4.960
REMARK INTRA:                   0.000
REMARK UNBOUND:                 0.000
REMARK SMILES CC1=CC[C@]2(C)CCCC(C)(C)[C@]23C[C@H]13
REMARK SMILES IDX 1 1 2 2 3 3 4 4 5 5 7 6 8 7 9 8 10 9 13 10 15 11 14 12 11 13
REMARK SMILES IDX 12 14 6 15
REMARK H PARENT
REMARK Flexibility Score: inf
ROOT
ATOM      1  C   UNL     1     134.952 140.858 136.295  1.00  0.00     0.039 C 
ATOM      2  C   UNL     1     136.107 140.059 135.760  1.00  0.00    -0.074 C 
ATOM      3  C   UNL     1     136.839 140.562 134.743  1.00  0.00    -0.027 C 
ATOM      4  C   UNL     1     138.005 139.809 134.152  1.00  0.00     0.034 C 
ATOM      5  C   UNL     1     138.749 138.982 135.240  1.00  0.00    -0.022 C 
ATOM      6  C   UNL     1     139.816 138.095 134.556  1.00  0.00     0.008 C 
ATOM      7  C   UNL     1     140.513 137.123 135.525  1.00  0.00     0.001 C 
ATOM      8  C   UNL     1     139.517 136.216 136.265  1.00  0.00     0.007 C 
ATOM      9  C   UNL     1     138.387 136.970 137.024  1.00  0.00    -0.029 C 
ATOM     10  C   UNL     1     137.757 138.040 136.036  1.00  0.00    -0.012 C 
ATOM     11  C   UNL     1     136.415 138.706 136.381  1.00  0.00     0.022 C 
ATOM     12  C   UNL     1     136.442 137.588 135.339  1.00  0.00     0.017 C 
ATOM     13  C   UNL     1     137.393 135.881 137.526  1.00  0.00     0.012 C 
ATOM     14  C   UNL     1     138.944 137.656 138.298  1.00  0.00     0.012 C 
ATOM     15  C   UNL     1     139.435 140.019 136.185  1.00  0.00     0.012 C 
ENDROOT
TORSDOF 0
ENDMDL
MODEL 2
REMARK VINA RESULT:    -4.954      4.083      6.862
REMARK INTER + INTRA:          -4.954
REMARK INTER:                  -4.954
REMARK INTRA:                   0.000
REMARK UNBOUND:                 0.000
REMARK SMILES CC1=CC[C@]2(C)CCCC(C)(C)[C@]23C[C@H]13
REMARK SMILES IDX 1 1 2 2 3 3 4 4 5 5 7 6 8 7 9 8 10 9 13 10 15 11 14 12 11 13
REMARK SMILES IDX 12 14 6 15
REMARK H PARENT
REMARK Flexibility Score: inf
ROOT
ATOM      1  C   UNL     1     137.692 131.874 136.254  1.00  0.00     0.039 C 
ATOM      2  C   UNL     1     136.513 132.641 135.725  1.00  0.00    -0.074 C 
ATOM      3  C   UNL     1     135.754 132.092 134.752  1.00  0.00    -0.027 C 
ATOM      4  C   UNL     1     134.563 132.810 134.168  1.00  0.00     0.034 C 
ATOM      5  C   UNL     1     133.846 133.674 135.246  1.00  0.00    -0.022 C 
ATOM      6  C   UNL     1     132.749 134.524 134.560  1.00  0.00     0.008 C 
ATOM      7  C   UNL     1     132.074 135.529 135.510  1.00  0.00     0.001 C 
ATOM      8  C   UNL     1     133.084 136.474 136.181  1.00  0.00     0.007 C 
ATOM      9  C   UNL     1     134.245 135.761 136.934  1.00  0.00    -0.029 C 
ATOM     10  C   UNL     1     134.853 134.656 135.970  1.00  0.00    -0.012 C 
ATOM     11  C   UNL     1     136.211 134.016 136.299  1.00  0.00     0.022 C 
ATOM     12  C   UNL     1     136.141 135.090 135.215  1.00  0.00     0.017 C 
ATOM     13  C   UNL     1     135.244 136.877 137.359  1.00  0.00     0.012 C 
ATOM     14  C   UNL     1     133.734 135.122 138.251  1.00  0.00     0.012 C 
ATOM     15  C   UNL     1     133.200 132.671 136.253  1.00  0.00     0.012 C 
ENDROOT
TORSDOF 0
ENDMDL
MODEL 3
REMARK VINA RESULT:    -4.937      2.893      4.859
REMARK INTER + INTRA:          -4.937
REMARK INTER:                  -4.937
REMARK INTRA:                   0.000
REMARK UNBOUND:                 0.000
REMARK SMILES CC1=CC[C@]2(C)CCCC(C)(C)[C@]23C[C@H]13
REMARK SMILES IDX 1 1 2 2 3 3 4 4 5 5 7 6 8 7 9 8 10 9 13 10 15 11 14 12 11 13
REMARK SMILES IDX 12 14 6 15
REMARK H PARENT
REMARK Flexibility Score: inf
ROOT
ATOM      1  C   UNL     1     131.844 134.903 136.273  1.00  0.00     0.039 C 
ATOM      2  C   UNL     1     132.609 136.093 135.765  1.00  0.00    -0.074 C 
ATOM      3  C   UNL     1     132.059 136.867 134.805  1.00  0.00    -0.027 C 
ATOM      4  C   UNL     1     132.776 138.070 134.243  1.00  0.00     0.034 C 
ATOM      5  C   UNL     1     133.636 138.771 135.334  1.00  0.00    -0.022 C 
ATOM      6  C   UNL     1     134.485 139.881 134.668  1.00  0.00     0.008 C 
ATOM      7  C   UNL     1     135.486 140.542 135.632  1.00  0.00     0.001 C 
ATOM      8  C   UNL     1     136.432 139.524 136.287  1.00  0.00     0.007 C 
ATOM      9  C   UNL     1     135.721 138.348 137.019  1.00  0.00    -0.029 C 
ATOM     10  C   UNL     1     134.619 137.753 136.043  1.00  0.00    -0.012 C 
ATOM     11  C   UNL     1     133.982 136.388 136.347  1.00  0.00     0.022 C 
ATOM     12  C   UNL     1     135.058 136.480 135.266  1.00  0.00     0.017 C 
ATOM     13  C   UNL     1     136.839 137.345 137.429  1.00  0.00     0.012 C 
ATOM     14  C   UNL     1     135.079 138.835 138.344  1.00  0.00     0.012 C 
ATOM     15  C   UNL     1     132.629 139.397 136.351  1.00  0.00     0.012 C 
ENDROOT
TORSDOF 0
ENDMDL
MODEL 4
REMARK VINA RESULT:    -4.936      1.749      3.829
REMARK INTER + INTRA:          -4.936
REMARK INTER:                  -4.936
REMARK INTRA:                   0.000
REMARK UNBOUND:                 0.000
REMARK SMILES CC1=CC[C@]2(C)CCCC(C)(C)[C@]23C[C@H]13
REMARK SMILES IDX 1 1 2 2 3 3 4 4 5 5 7 6 8 7 9 8 10 9 13 10 15 11 14 12 11 13
REMARK SMILES IDX 12 14 6 15
REMARK H PARENT
REMARK Flexibility Score: inf
ROOT
ATOM      1  C   UNL     1     132.471 138.524 135.194  1.00  0.00     0.039 C 
ATOM      2  C   UNL     1     133.758 138.746 135.937  1.00  0.00    -0.074 C 
ATOM      3  C   UNL     1     133.871 138.296 137.205  1.00  0.00    -0.027 C 
ATOM      4  C   UNL     1     135.130 138.494 138.012  1.00  0.00     0.034 C 
ATOM      5  C   UNL     1     136.393 138.429 137.105  1.00  0.00    -0.022 C 
ATOM      6  C   UNL     1     137.635 138.815 137.945  1.00  0.00     0.008 C 
ATOM      7  C   UNL     1     138.923 138.928 137.111  1.00  0.00     0.001 C 
ATOM      8  C   UNL     1     138.785 139.924 135.948  1.00  0.00     0.007 C 
ATOM      9  C   UNL     1     137.583 139.653 134.996  1.00  0.00    -0.029 C 
ATOM     10  C   UNL     1     136.288 139.433 135.887  1.00  0.00    -0.012 C 
ATOM     11  C   UNL     1     134.896 139.473 135.238  1.00  0.00     0.022 C 
ATOM     12  C   UNL     1     135.378 140.686 136.032  1.00  0.00     0.017 C 
ATOM     13  C   UNL     1     137.509 140.869 134.026  1.00  0.00     0.012 C 
ATOM     14  C   UNL     1     137.857 138.414 134.105  1.00  0.00     0.012 C 
ATOM     15  C   UNL     1     136.508 136.949 136.619  1.00  0.00     0.012 C 
ENDROOT
TORSDOF 0
ENDMDL
MODEL 5
REMARK VINA RESULT:    -4.927      2.941      4.850
REMARK INTER + INTRA:          -4.927
REMARK INTER:                  -4.927
REMARK INTRA:                   0.000
REMARK UNBOUND:                 0.000
REMARK SMILES CC1=CC[C@]2(C)CCCC(C)(C)[C@]23C[C@H]13
REMARK SMILES IDX 1 1 2 2 3 3 4 4 5 5 7 6 8 7 9 8 10 9 13 10 15 11 14 12 11 13
REMARK SMILES IDX 12 14 6 15
REMARK H PARENT
REMARK Flexibility Score: inf
ROOT
ATOM      1  C   UNL     1     140.874 137.774 136.262  1.00  0.00     0.039 C 
ATOM      2  C   UNL     1     140.130 136.579 135.735  1.00  0.00    -0.074 C 
ATOM      3  C   UNL     1     140.689 135.836 134.756  1.00  0.00    -0.027 C 
ATOM      4  C   UNL     1     139.993 134.631 134.173  1.00  0.00     0.034 C 
ATOM      5  C   UNL     1     139.154 133.891 135.255  1.00  0.00    -0.022 C 
ATOM      6  C   UNL     1     138.324 132.777 134.572  1.00  0.00     0.008 C 
ATOM      7  C   UNL     1     137.342 132.076 135.527  1.00  0.00     0.001 C 
ATOM      8  C   UNL     1     136.380 133.062 136.209  1.00  0.00     0.007 C 
ATOM      9  C   UNL     1     137.072 134.236 136.960  1.00  0.00    -0.029 C 
ATOM     10  C   UNL     1     138.155 134.873 135.990  1.00  0.00    -0.012 C 
ATOM     11  C   UNL     1     138.766 136.244 136.319  1.00  0.00     0.022 C 
ATOM     12  C   UNL     1     137.686 136.153 135.242  1.00  0.00     0.017 C 
ATOM     13  C   UNL     1     135.936 135.208 137.397  1.00  0.00     0.012 C 
ATOM     14  C   UNL     1     137.732 133.736 138.271  1.00  0.00     0.012 C 
ATOM     15  C   UNL     1     140.180 133.265 136.253  1.00  0.00     0.012 C 
ENDROOT
TORSDOF 0
ENDMDL
MODEL 6
REMARK VINA RESULT:    -4.921      3.787      6.550
REMARK INTER + INTRA:          -4.921
REMARK INTER:                  -4.921
REMARK INTRA:                   0.000
REMARK UNBOUND:                 0.000
REMARK SMILES CC1=CC[C@]2(C)CCCC(C)(C)[C@]23C[C@H]13
REMARK SMILES IDX 1 1 2 2 3 3 4 4 5 5 7 6 8 7 9 8 10 9 13 10 15 11 14 12 11 13
REMARK SMILES IDX 12 14 6 15
REMARK H PARENT
REMARK Flexibility Score: inf
ROOT
ATOM      1  C   UNL     1     134.132 132.475 135.154  1.00  0.00     0.039 C 
ATOM      2  C   UNL     1     133.873 133.776 135.859  1.00  0.00    -0.074 C 
ATOM      3  C   UNL     1     134.319 133.939 137.123  1.00  0.00    -0.027 C 
ATOM      4  C   UNL     1     134.084 135.215 137.894  1.00  0.00     0.034 C 
ATOM      5  C   UNL     1     134.112 136.452 136.950  1.00  0.00    -0.022 C 
ATOM      6  C   UNL     1     133.691 137.706 137.754  1.00  0.00     0.008 C 
ATOM      7  C   UNL     1     133.540 138.966 136.883  1.00  0.00     0.001 C 
ATOM      8  C   UNL     1     132.549 138.765 135.725  1.00  0.00     0.007 C 
ATOM      9  C   UNL     1     132.854 137.544 134.809  1.00  0.00    -0.029 C 
ATOM     10  C   UNL     1     133.112 136.282 135.737  1.00  0.00    -0.012 C 
ATOM     11  C   UNL     1     133.112 134.871 135.128  1.00  0.00     0.022 C 
ATOM     12  C   UNL     1     131.886 135.341 135.910  1.00  0.00     0.017 C 
ATOM     13  C   UNL     1     131.640 137.406 133.843  1.00  0.00     0.012 C 
ATOM     14  C   UNL     1     134.084 137.828 133.909  1.00  0.00     0.012 C 
ATOM     15  C   UNL     1     135.588 136.596 136.460  1.00  0.00     0.012 C 
ENDROOT
TORSDOF 0
ENDMDL
MODEL 7
REMARK VINA RESULT:    -4.919      3.946      6.611
REMARK INTER + INTRA:          -4.919
REMARK INTER:                  -4.919
REMARK INTRA:                   0.000
REMARK UNBOUND:                 0.000
REMARK SMILES CC1=CC[C@]2(C)CCCC(C)(C)[C@]23C[C@H]13
REMARK SMILES IDX 1 1 2 2 3 3 4 4 5 5 7 6 8 7 9 8 10 9 13 10 15 11 14 12 11 13
REMARK SMILES IDX 12 14 6 15
REMARK H PARENT
REMARK Flexibility Score: inf
ROOT
ATOM      1  C   UNL     1     140.123 134.127 135.300  1.00  0.00     0.039 C 
ATOM      2  C   UNL     1     138.783 133.878 135.933  1.00  0.00    -0.074 C 
ATOM      3  C   UNL     1     138.551 134.334 137.183  1.00  0.00    -0.027 C 
ATOM      4  C   UNL     1     137.233 134.110 137.882  1.00  0.00     0.034 C 
ATOM      5  C   UNL     1     136.051 134.137 136.871  1.00  0.00    -0.022 C 
ATOM      6  C   UNL     1     134.752 133.726 137.606  1.00  0.00     0.008 C 
ATOM      7  C   UNL     1     133.543 133.574 136.666  1.00  0.00     0.001 C 
ATOM      8  C   UNL     1     133.804 132.574 135.528  1.00  0.00     0.007 C 
ATOM      9  C   UNL     1     135.075 132.868 134.680  1.00  0.00    -0.029 C 
ATOM     10  C   UNL     1     136.284 133.127 135.675  1.00  0.00    -0.012 C 
ATOM     11  C   UNL     1     137.727 133.118 135.147  1.00  0.00     0.022 C 
ATOM     12  C   UNL     1     137.209 131.899 135.909  1.00  0.00     0.017 C 
ATOM     13  C   UNL     1     135.261 131.647 133.731  1.00  0.00     0.012 C 
ATOM     14  C   UNL     1     134.848 134.093 133.757  1.00  0.00     0.012 C 
ATOM     15  C   UNL     1     135.941 135.610 136.363  1.00  0.00     0.012 C 
ENDROOT
TORSDOF 0
ENDMDL
MODEL 8
REMARK VINA RESULT:    -4.692      4.397      6.194
REMARK INTER + INTRA:          -4.692
REMARK INTER:                  -4.692
REMARK INTRA:                   0.000
REMARK UNBOUND:                 0.000
REMARK SMILES CC1=CC[C@]2(C)CCCC(C)(C)[C@]23C[C@H]13
REMARK SMILES IDX 1 1 2 2 3 3 4 4 5 5 7 6 8 7 9 8 10 9 13 10 15 11 14 12 11 13
REMARK SMILES IDX 12 14 6 15
REMARK H PARENT
REMARK Flexibility Score: inf
ROOT
ATOM      1  C   UNL     1     135.687 133.548 139.679  1.00  0.00     0.039 C 
ATOM      2  C   UNL     1     136.492 133.648 138.414  1.00  0.00    -0.074 C 
ATOM      3  C   UNL     1     137.837 133.556 138.482  1.00  0.00    -0.027 C 
ATOM      4  C   UNL     1     138.707 133.659 137.253  1.00  0.00     0.034 C 
ATOM      5  C   UNL     1     137.999 133.040 136.013  1.00  0.00    -0.022 C 
ATOM      6  C   UNL     1     138.850 133.331 134.753  1.00  0.00     0.008 C 
ATOM      7  C   UNL     1     138.170 132.892 133.444  1.00  0.00     0.001 C 
ATOM      8  C   UNL     1     136.782 133.528 133.261  1.00  0.00     0.007 C 
ATOM      9  C   UNL     1     135.799 133.303 134.446  1.00  0.00    -0.029 C 
ATOM     10  C   UNL     1     136.560 133.660 135.793  1.00  0.00    -0.012 C 
ATOM     11  C   UNL     1     135.766 133.854 137.094  1.00  0.00     0.022 C 
ATOM     12  C   UNL     1     136.273 135.085 136.344  1.00  0.00     0.017 C 
ATOM     13  C   UNL     1     134.548 134.182 134.152  1.00  0.00     0.012 C 
ATOM     14  C   UNL     1     135.294 131.838 134.471  1.00  0.00     0.012 C 
ATOM     15  C   UNL     1     137.927 131.502 136.272  1.00  0.00     0.012 C 
ENDROOT
TORSDOF 0
ENDMDL
MODEL 9
REMARK VINA RESULT:    -4.687      1.574      4.408
REMARK INTER + INTRA:          -4.687
REMARK INTER:                  -4.687
REMARK INTRA:                   0.000
REMARK UNBOUND:                 0.000
REMARK SMILES CC1=CC[C@]2(C)CCCC(C)(C)[C@]23C[C@H]13
REMARK SMILES IDX 1 1 2 2 3 3 4 4 5 5 7 6 8 7 9 8 10 9 13 10 15 11 14 12 11 13
REMARK SMILES IDX 12 14 6 15
REMARK H PARENT
REMARK Flexibility Score: inf
ROOT
ATOM      1  C   UNL     1     139.767 133.577 136.059  1.00  0.00     0.039 C 
ATOM      2  C   UNL     1     139.670 134.906 135.365  1.00  0.00    -0.074 C 
ATOM      3  C   UNL     1     139.742 134.951 134.017  1.00  0.00    -0.027 C 
ATOM      4  C   UNL     1     139.662 136.252 133.257  1.00  0.00     0.034 C 
ATOM      5  C   UNL     1     138.709 137.257 133.966  1.00  0.00    -0.022 C 
ATOM      6  C   UNL     1     138.802 138.627 133.250  1.00  0.00     0.008 C 
ATOM      7  C   UNL     1     138.011 139.740 133.960  1.00  0.00     0.001 C 
ATOM      8  C   UNL     1     138.434 139.919 135.427  1.00  0.00     0.007 C 
ATOM      9  C   UNL     1     138.374 138.623 136.287  1.00  0.00    -0.029 C 
ATOM     10  C   UNL     1     139.104 137.464 135.484  1.00  0.00    -0.012 C 
ATOM     11  C   UNL     1     139.496 136.163 136.203  1.00  0.00     0.022 C 
ATOM     12  C   UNL     1     140.576 137.203 135.911  1.00  0.00     0.017 C 
ATOM     13  C   UNL     1     139.024 138.975 137.658  1.00  0.00     0.012 C 
ATOM     14  C   UNL     1     136.905 138.238 136.598  1.00  0.00     0.012 C 
ATOM     15  C   UNL     1     137.268 136.670 133.823  1.00  0.00     0.012 C 
ENDROOT
TORSDOF 0
ENDMDL
