MODEL 1
REMARK VINA RESULT:    -3.139      0.000      0.000
REMARK INTER + INTRA:          -4.743
REMARK INTER:                  -4.424
REMARK INTRA:                  -0.319
REMARK UNBOUND:                -0.319
REMARK SMILES CCCCCCCCC=O
REMARK SMILES IDX 5 1 4 2 3 3 2 4 1 5 6 6 7 7 8 8 9 9 10 10
REMARK H PARENT
REMARK Flexibility Score: inf
ROOT
ATOM      1  C   UNL     1     163.985 165.211 170.047  1.00  0.00     0.000 C 
ENDROOT
BRANCH   1   2
ATOM      2  C   UNL     1     164.467 165.857 168.733  1.00  0.00    -0.000 C 
BRANCH   2   3
ATOM      3  C   UNL     1     165.916 165.521 168.328  1.00  0.00    -0.000 C 
BRANCH   3   4
ATOM      4  C   UNL     1     166.867 165.242 169.506  1.00  0.00    -0.003 C 
ATOM      5  C   UNL     1     167.792 166.419 169.813  1.00  0.00     0.004 C 
ENDBRANCH   3   4
ENDBRANCH   2   3
ENDBRANCH   1   2
BRANCH   1   6
ATOM      6  C   UNL     1     162.644 164.463 169.949  1.00  0.00     0.000 C 
BRANCH   6   7
ATOM      7  C   UNL     1     162.037 164.507 168.535  1.00  0.00     0.008 C 
BRANCH   7   8
ATOM      8  C   UNL     1     160.694 163.772 168.462  1.00  0.00     0.072 C 
BRANCH   8   9
ATOM      9  C   UNL     1     160.803 162.374 168.995  1.00  0.00     0.224 C 
ATOM     10  O   UNL     1     160.627 161.415 168.260  1.00  0.00    -0.303 OA
ENDBRANCH   8   9
ENDBRANCH   7   8
ENDBRANCH   6   7
ENDBRANCH   1   6
TORSDOF 7
ENDMDL
MODEL 2
REMARK VINA RESULT:    -3.108      8.660      9.602
REMARK INTER + INTRA:          -4.699
REMARK INTER:                  -4.220
REMARK INTRA:                  -0.479
REMARK UNBOUND:                -0.319
REMARK SMILES CCCCCCCCC=O
REMARK SMILES IDX 5 1 4 2 3 3 2 4 1 5 6 6 7 7 8 8 9 9 10 10
REMARK H PARENT
REMARK Flexibility Score: inf
ROOT
ATOM      1  C   UNL     1     163.035 173.588 168.208  1.00  0.00     0.000 C 
ENDROOT
BRANCH   1   2
ATOM      2  C   UNL     1     163.435 173.910 166.754  1.00  0.00    -0.000 C 
BRANCH   2   3
ATOM      3  C   UNL     1     162.615 175.028 166.081  1.00  0.00    -0.000 C 
BRANCH   3   4
ATOM      4  C   UNL     1     161.420 175.539 166.905  1.00  0.00    -0.003 C 
ATOM      5  C   UNL     1     160.074 175.257 166.239  1.00  0.00     0.004 C 
ENDBRANCH   3   4
ENDBRANCH   2   3
ENDBRANCH   1   2
BRANCH   1   6
ATOM      6  C   UNL     1     162.962 172.088 168.544  1.00  0.00     0.000 C 
BRANCH   6   7
ATOM      7  C   UNL     1     161.804 171.746 169.498  1.00  0.00     0.008 C 
BRANCH   7   8
ATOM      8  C   UNL     1     160.494 172.422 169.079  1.00  0.00     0.072 C 
BRANCH   8   9
ATOM      9  C   UNL     1     159.309 171.541 169.352  1.00  0.00     0.224 C 
ATOM     10  O   UNL     1     158.474 171.340 168.484  1.00  0.00    -0.303 OA
ENDBRANCH   8   9
ENDBRANCH   7   8
ENDBRANCH   6   7
ENDBRANCH   1   6
TORSDOF 7
ENDMDL
MODEL 3
REMARK VINA RESULT:    -3.047      8.508      9.909
REMARK INTER + INTRA:          -4.614
REMARK INTER:                  -3.979
REMARK INTRA:                  -0.635
REMARK UNBOUND:                -0.319
REMARK SMILES CCCCCCCCC=O
REMARK SMILES IDX 5 1 4 2 3 3 2 4 1 5 6 6 7 7 8 8 9 9 10 10
REMARK H PARENT
REMARK Flexibility Score: inf
ROOT
ATOM      1  C   UNL     1     161.592 172.026 170.263  1.00  0.00     0.000 C 
ENDROOT
BRANCH   1   2
ATOM      2  C   UNL     1     160.377 171.094 170.445  1.00  0.00    -0.000 C 
BRANCH   2   3
ATOM      3  C   UNL     1     159.030 171.672 169.968  1.00  0.00    -0.000 C 
BRANCH   3   4
ATOM      4  C   UNL     1     158.908 171.856 168.445  1.00  0.00    -0.003 C 
ATOM      5  C   UNL     1     158.762 173.320 168.033  1.00  0.00     0.004 C 
ENDBRANCH   3   4
ENDBRANCH   2   3
ENDBRANCH   1   2
BRANCH   1   6
ATOM      6  C   UNL     1     162.710 171.467 169.365  1.00  0.00     0.000 C 
BRANCH   6   7
ATOM      7  C   UNL     1     163.036 172.387 168.176  1.00  0.00     0.008 C 
BRANCH   7   8
ATOM      8  C   UNL     1     162.592 173.833 168.428  1.00  0.00     0.072 C 
BRANCH   8   9
ATOM      9  C   UNL     1     162.240 174.531 167.146  1.00  0.00     0.224 C 
ATOM     10  O   UNL     1     163.044 174.581 166.228  1.00  0.00    -0.303 OA
ENDBRANCH   8   9
ENDBRANCH   7   8
ENDBRANCH   6   7
ENDBRANCH   1   6
TORSDOF 7
ENDMDL
MODEL 4
REMARK VINA RESULT:    -3.015      3.025      5.732
REMARK INTER + INTRA:          -4.568
REMARK INTER:                  -4.186
REMARK INTRA:                  -0.382
REMARK UNBOUND:                -0.319
REMARK SMILES CCCCCCCCC=O
REMARK SMILES IDX 5 1 4 2 3 3 2 4 1 5 6 6 7 7 8 8 9 9 10 10
REMARK H PARENT
REMARK Flexibility Score: inf
ROOT
ATOM      1  C   UNL     1     163.805 165.200 170.172  1.00  0.00     0.000 C 
ENDROOT
BRANCH   1   2
ATOM      2  C   UNL     1     162.797 164.034 170.160  1.00  0.00    -0.000 C 
BRANCH   2   3
ATOM      3  C   UNL     1     161.390 164.389 169.642  1.00  0.00    -0.000 C 
BRANCH   3   4
ATOM      4  C   UNL     1     161.001 163.715 168.314  1.00  0.00    -0.003 C 
ATOM      5  C   UNL     1     161.292 164.591 167.096  1.00  0.00     0.004 C 
ENDBRANCH   3   4
ENDBRANCH   2   3
ENDBRANCH   1   2
BRANCH   1   6
ATOM      6  C   UNL     1     164.225 165.710 168.782  1.00  0.00     0.000 C 
BRANCH   6   7
ATOM      7  C   UNL     1     165.726 165.513 168.502  1.00  0.00     0.008 C 
BRANCH   7   8
ATOM      8  C   UNL     1     166.511 165.186 169.777  1.00  0.00     0.072 C 
BRANCH   8   9
ATOM      9  C   UNL     1     167.592 166.196 170.031  1.00  0.00     0.224 C 
ATOM     10  O   UNL     1     168.285 166.605 169.112  1.00  0.00    -0.303 OA
ENDBRANCH   8   9
ENDBRANCH   7   8
ENDBRANCH   6   7
ENDBRANCH   1   6
TORSDOF 7
ENDMDL
MODEL 5
REMARK VINA RESULT:    -2.970      4.948      7.585
REMARK INTER + INTRA:          -4.505
REMARK INTER:                  -4.024
REMARK INTRA:                  -0.481
REMARK UNBOUND:                -0.319
REMARK SMILES CCCCCCCCC=O
REMARK SMILES IDX 5 1 4 2 3 3 2 4 1 5 6 6 7 7 8 8 9 9 10 10
REMARK H PARENT
REMARK Flexibility Score: inf
ROOT
ATOM      1  C   UNL     1     167.535 166.992 170.869  1.00  0.00     0.000 C 
ENDROOT
BRANCH   1   2
ATOM      2  C   UNL     1     167.437 165.460 171.000  1.00  0.00    -0.000 C 
BRANCH   2   3
ATOM      3  C   UNL     1     166.504 164.773 169.983  1.00  0.00    -0.000 C 
BRANCH   3   4
ATOM      4  C   UNL     1     166.321 165.534 168.657  1.00  0.00    -0.003 C 
ATOM      5  C   UNL     1     164.871 165.947 168.405  1.00  0.00     0.004 C 
ENDBRANCH   3   4
ENDBRANCH   2   3
ENDBRANCH   1   2
BRANCH   1   6
ATOM      6  C   UNL     1     168.953 167.568 171.029  1.00  0.00     0.000 C 
BRANCH   6   7
ATOM      7  C   UNL     1     169.977 166.903 170.092  1.00  0.00     0.008 C 
BRANCH   7   8
ATOM      8  C   UNL     1     170.037 167.592 168.724  1.00  0.00     0.072 C 
BRANCH   8   9
ATOM      9  C   UNL     1     170.542 169.001 168.840  1.00  0.00     0.224 C 
ATOM     10  O   UNL     1     170.465 169.766 167.891  1.00  0.00    -0.303 OA
ENDBRANCH   8   9
ENDBRANCH   7   8
ENDBRANCH   6   7
ENDBRANCH   1   6
TORSDOF 7
ENDMDL
MODEL 6
REMARK VINA RESULT:    -2.939      8.822     10.351
REMARK INTER + INTRA:          -4.461
REMARK INTER:                  -4.055
REMARK INTRA:                  -0.406
REMARK UNBOUND:                -0.319
REMARK SMILES CCCCCCCCC=O
REMARK SMILES IDX 5 1 4 2 3 3 2 4 1 5 6 6 7 7 8 8 9 9 10 10
REMARK H PARENT
REMARK Flexibility Score: inf
ROOT
ATOM      1  C   UNL     1     169.009 156.785 169.200  1.00  0.00     0.000 C 
ENDROOT
BRANCH   1   2
ATOM      2  C   UNL     1     169.694 156.845 167.821  1.00  0.00    -0.000 C 
BRANCH   2   3
ATOM      3  C   UNL     1     168.839 156.342 166.641  1.00  0.00    -0.000 C 
BRANCH   3   4
ATOM      4  C   UNL     1     167.540 157.132 166.402  1.00  0.00    -0.003 C 
ATOM      5  C   UNL     1     166.654 156.507 165.325  1.00  0.00     0.004 C 
ENDBRANCH   3   4
ENDBRANCH   2   3
ENDBRANCH   1   2
BRANCH   1   6
ATOM      6  C   UNL     1     168.960 158.124 169.959  1.00  0.00     0.000 C 
BRANCH   6   7
ATOM      7  C   UNL     1     169.718 159.249 169.233  1.00  0.00     0.008 C 
BRANCH   7   8
ATOM      8  C   UNL     1     170.866 159.810 170.080  1.00  0.00     0.072 C 
BRANCH   8   9
ATOM      9  C   UNL     1     172.203 159.424 169.518  1.00  0.00     0.224 C 
ATOM     10  O   UNL     1     172.620 159.949 168.498  1.00  0.00    -0.303 OA
ENDBRANCH   8   9
ENDBRANCH   7   8
ENDBRANCH   6   7
ENDBRANCH   1   6
TORSDOF 7
ENDMDL
MODEL 7
REMARK VINA RESULT:    -2.923      8.707      9.459
REMARK INTER + INTRA:          -4.439
REMARK INTER:                  -3.795
REMARK INTRA:                  -0.644
REMARK UNBOUND:                -0.319
REMARK SMILES CCCCCCCCC=O
REMARK SMILES IDX 5 1 4 2 3 3 2 4 1 5 6 6 7 7 8 8 9 9 10 10
REMARK H PARENT
REMARK Flexibility Score: inf
ROOT
ATOM      1  C   UNL     1     161.854 175.078 166.846  1.00  0.00     0.000 C 
ENDROOT
BRANCH   1   2
ATOM      2  C   UNL     1     162.910 173.972 167.041  1.00  0.00    -0.000 C 
BRANCH   2   3
ATOM      3  C   UNL     1     163.036 173.431 168.479  1.00  0.00    -0.000 C 
BRANCH   3   4
ATOM      4  C   UNL     1     162.935 171.900 168.604  1.00  0.00    -0.003 C 
ATOM      5  C   UNL     1     162.168 171.457 169.849  1.00  0.00     0.004 C 
ENDBRANCH   3   4
ENDBRANCH   2   3
ENDBRANCH   1   2
BRANCH   1   6
ATOM      6  C   UNL     1     160.784 175.156 167.950  1.00  0.00     0.000 C 
BRANCH   6   7
ATOM      7  C   UNL     1     159.501 174.384 167.594  1.00  0.00     0.008 C 
BRANCH   7   8
ATOM      8  C   UNL     1     159.020 173.503 168.753  1.00  0.00     0.072 C 
BRANCH   8   9
ATOM      9  C   UNL     1     158.845 172.076 168.323  1.00  0.00     0.224 C 
ATOM     10  O   UNL     1     158.666 171.197 169.152  1.00  0.00    -0.303 OA
ENDBRANCH   8   9
ENDBRANCH   7   8
ENDBRANCH   6   7
ENDBRANCH   1   6
TORSDOF 7
ENDMDL
MODEL 8
REMARK VINA RESULT:    -2.886      8.666     10.313
REMARK INTER + INTRA:          -4.387
REMARK INTER:                  -3.817
REMARK INTRA:                  -0.570
REMARK UNBOUND:                -0.319
REMARK SMILES CCCCCCCCC=O
REMARK SMILES IDX 5 1 4 2 3 3 2 4 1 5 6 6 7 7 8 8 9 9 10 10
REMARK H PARENT
REMARK Flexibility Score: inf
ROOT
ATOM      1  C   UNL     1     169.290 156.779 169.338  1.00  0.00     0.000 C 
ENDROOT
BRANCH   1   2
ATOM      2  C   UNL     1     168.604 157.411 168.111  1.00  0.00    -0.000 C 
BRANCH   2   3
ATOM      3  C   UNL     1     168.171 158.881 168.286  1.00  0.00    -0.000 C 
BRANCH   3   4
ATOM      4  C   UNL     1     168.906 159.642 169.404  1.00  0.00    -0.003 C 
ATOM      5  C   UNL     1     167.962 160.161 170.487  1.00  0.00     0.004 C 
ENDBRANCH   3   4
ENDBRANCH   2   3
ENDBRANCH   1   2
BRANCH   1   6
ATOM      6  C   UNL     1     170.769 156.405 169.134  1.00  0.00     0.000 C 
BRANCH   6   7
ATOM      7  C   UNL     1     171.300 156.807 167.747  1.00  0.00     0.008 C 
BRANCH   7   8
ATOM      8  C   UNL     1     172.570 157.660 167.843  1.00  0.00     0.072 C 
BRANCH   8   9
ATOM      9  C   UNL     1     172.391 158.809 168.791  1.00  0.00     0.224 C 
ATOM     10  O   UNL     1     172.684 159.945 168.450  1.00  0.00    -0.303 OA
ENDBRANCH   8   9
ENDBRANCH   7   8
ENDBRANCH   6   7
ENDBRANCH   1   6
TORSDOF 7
ENDMDL
MODEL 9
REMARK VINA RESULT:    -2.877      8.228      8.982
REMARK INTER + INTRA:          -4.374
REMARK INTER:                  -3.801
REMARK INTRA:                  -0.572
REMARK UNBOUND:                -0.319
REMARK SMILES CCCCCCCCC=O
REMARK SMILES IDX 5 1 4 2 3 3 2 4 1 5 6 6 7 7 8 8 9 9 10 10
REMARK H PARENT
REMARK Flexibility Score: inf
ROOT
ATOM      1  C   UNL     1     162.557 171.593 168.960  1.00  0.00     0.000 C 
ENDROOT
BRANCH   1   2
ATOM      2  C   UNL     1     163.179 172.907 168.447  1.00  0.00    -0.000 C 
BRANCH   2   3
ATOM      3  C   UNL     1     162.466 174.194 168.906  1.00  0.00    -0.000 C 
BRANCH   3   4
ATOM      4  C   UNL     1     161.533 174.825 167.857  1.00  0.00    -0.003 C 
ATOM      5  C   UNL     1     162.179 174.933 166.477  1.00  0.00     0.004 C 
ENDBRANCH   3   4
ENDBRANCH   2   3
ENDBRANCH   1   2
BRANCH   1   6
ATOM      6  C   UNL     1     161.905 171.683 170.351  1.00  0.00     0.000 C 
BRANCH   6   7
ATOM      7  C   UNL     1     160.435 171.228 170.351  1.00  0.00     0.008 C 
BRANCH   7   8
ATOM      8  C   UNL     1     159.467 172.406 170.192  1.00  0.00     0.072 C 
BRANCH   8   9
ATOM      9  C   UNL     1     158.648 172.279 168.941  1.00  0.00     0.224 C 
ATOM     10  O   UNL     1     158.537 171.200 168.381  1.00  0.00    -0.303 OA
ENDBRANCH   8   9
ENDBRANCH   7   8
ENDBRANCH   6   7
ENDBRANCH   1   6
TORSDOF 7
ENDMDL
