MODEL 1
REMARK VINA RESULT:    -4.606      0.000      0.000
REMARK INTER + INTRA:          -8.630
REMARK INTER:                  -7.030
REMARK INTRA:                  -1.600
REMARK UNBOUND:                -1.600
REMARK SMILES OC[C@@H]1O[C@@H](O[C@]2(CO)O[C@H](CO)[C@@H](O)[C@H]2O)[C@H](O)[C@@H](O)[C@@H]1O
REMARK SMILES IDX 6 1 5 2 3 3 22 4 4 5 20 6 18 7 2 8 1 9 23 11 21 13 19 15
REMARK SMILES IDX 7 17 16 18 10 19 14 20 11 21 8 22 9 23 17 25 15 27 12 29
REMARK SMILES IDX 13 30
REMARK H PARENT 1 10 23 12 21 14 19 16 9 24 17 26 15 28 13 31
REMARK Flexibility Score: inf
ROOT
ATOM      1  O   UNL     1     168.803 172.017 163.694  1.00  0.00    -0.313 OA
ENDROOT
BRANCH   1   2
ATOM      2  C   UNL     1     168.246 172.853 162.692  1.00  0.00     0.285 C 
ATOM      3  C   UNL     1     167.800 175.102 162.128  1.00  0.00     0.178 C 
ATOM      4  C   UNL     1     166.806 174.526 161.071  1.00  0.00     0.177 C 
ATOM      5  O   UNL     1     168.143 174.186 163.164  1.00  0.00    -0.341 OA
ATOM      6  C   UNL     1     165.946 173.425 161.721  1.00  0.00     0.179 C 
ATOM      7  C   UNL     1     166.839 172.316 162.329  1.00  0.00     0.202 C 
BRANCH   3   8
ATOM      8  C   UNL     1     169.072 175.723 161.525  1.00  0.00     0.191 C 
BRANCH   8   9
ATOM      9  O   UNL     1     170.076 175.843 162.498  1.00  0.00    -0.394 OA
ATOM     10  H   UNL     1     169.797 175.282 163.270  1.00  0.00     0.210 HD
ENDBRANCH   8   9
ENDBRANCH   3   8
BRANCH   4  11
ATOM     11  O   UNL     1     167.496 173.995 159.965  1.00  0.00    -0.387 OA
ATOM     12  H   UNL     1     168.325 173.578 160.317  1.00  0.00     0.211 HD
ENDBRANCH   4  11
BRANCH   6  13
ATOM     13  O   UNL     1     165.146 173.985 162.733  1.00  0.00    -0.387 OA
ATOM     14  H   UNL     1     164.201 173.867 162.451  1.00  0.00     0.211 HD
ENDBRANCH   6  13
BRANCH   7  15
ATOM     15  O   UNL     1     166.959 171.259 161.412  1.00  0.00    -0.385 OA
ATOM     16  H   UNL     1     166.604 171.589 160.544  1.00  0.00     0.211 HD
ENDBRANCH   7  15
ENDBRANCH   1   2
BRANCH   1  17
ATOM     17  C   UNL     1     170.033 171.380 163.335  1.00  0.00     0.224 C 
ATOM     18  C   UNL     1     170.364 170.374 164.471  1.00  0.00     0.208 C 
ATOM     19  O   UNL     1     169.926 170.650 162.114  1.00  0.00    -0.337 OA
ATOM     20  C   UNL     1     170.002 169.038 163.856  1.00  0.00     0.180 C 
ATOM     21  C   UNL     1     170.246 169.302 162.379  1.00  0.00     0.179 C 
BRANCH  17  22
ATOM     22  C   UNL     1     171.112 172.485 163.186  1.00  0.00     0.225 C 
BRANCH  22  23
ATOM     23  O   UNL     1     171.058 173.407 164.241  1.00  0.00    -0.391 OA
ATOM     24  H   UNL     1     170.524 174.181 163.919  1.00  0.00     0.210 HD
ENDBRANCH  22  23
ENDBRANCH  17  22
BRANCH  18  25
ATOM     25  O   UNL     1     171.710 170.423 164.899  1.00  0.00    -0.385 OA
ATOM     26  H   UNL     1     171.931 169.572 165.357  1.00  0.00     0.211 HD
ENDBRANCH  18  25
BRANCH  20  27
ATOM     27  O   UNL     1     170.807 167.986 164.324  1.00  0.00    -0.387 OA
ATOM     28  H   UNL     1     171.374 167.708 163.556  1.00  0.00     0.211 HD
ENDBRANCH  20  27
BRANCH  21  29
ATOM     29  C   UNL     1     169.453 168.359 161.460  1.00  0.00     0.191 C 
BRANCH  29  30
ATOM     30  O   UNL     1     169.801 167.015 161.674  1.00  0.00    -0.394 OA
ATOM     31  H   UNL     1     169.194 166.668 162.375  1.00  0.00     0.210 HD
ENDBRANCH  29  30
ENDBRANCH  21  29
ENDBRANCH   1  17
TORSDOF 13
ENDMDL
MODEL 2
REMARK VINA RESULT:    -4.360      1.046      1.762
REMARK INTER + INTRA:          -8.254
REMARK INTER:                  -6.540
REMARK INTRA:                  -1.714
REMARK UNBOUND:                -1.600
REMARK SMILES OC[C@@H]1O[C@@H](O[C@]2(CO)O[C@H](CO)[C@@H](O)[C@H]2O)[C@H](O)[C@@H](O)[C@@H]1O
REMARK SMILES IDX 6 1 5 2 3 3 22 4 4 5 20 6 18 7 2 8 1 9 23 11 21 13 19 15
REMARK SMILES IDX 7 17 16 18 10 19 14 20 11 21 8 22 9 23 17 25 15 27 12 29
REMARK SMILES IDX 13 30
REMARK H PARENT 1 10 23 12 21 14 19 16 9 24 17 26 15 28 13 31
REMARK Flexibility Score: inf
ROOT
ATOM      1  O   UNL     1     168.882 171.268 164.039  1.00  0.00    -0.313 OA
ENDROOT
BRANCH   1   2
ATOM      2  C   UNL     1     168.562 172.331 163.155  1.00  0.00     0.285 C 
ATOM      3  C   UNL     1     168.526 174.683 162.949  1.00  0.00     0.178 C 
ATOM      4  C   UNL     1     167.564 174.454 161.741  1.00  0.00     0.177 C 
ATOM      5  O   UNL     1     168.620 173.572 163.837  1.00  0.00    -0.341 OA
ATOM      6  C   UNL     1     166.484 173.425 162.133  1.00  0.00     0.179 C 
ATOM      7  C   UNL     1     167.132 172.102 162.607  1.00  0.00     0.202 C 
BRANCH   3   8
ATOM      8  C   UNL     1     169.932 175.167 162.553  1.00  0.00     0.191 C 
BRANCH   8   9
ATOM      9  O   UNL     1     169.869 176.428 161.940  1.00  0.00    -0.394 OA
ATOM     10  H   UNL     1     169.551 176.280 161.010  1.00  0.00     0.210 HD
ENDBRANCH   8   9
ENDBRANCH   3   8
BRANCH   4  11
ATOM     11  O   UNL     1     168.269 173.991 160.614  1.00  0.00    -0.387 OA
ATOM     12  H   UNL     1     168.658 174.789 160.171  1.00  0.00     0.211 HD
ENDBRANCH   4  11
BRANCH   6  13
ATOM     13  O   UNL     1     165.685 173.948 163.165  1.00  0.00    -0.387 OA
ATOM     14  H   UNL     1     166.253 173.980 163.979  1.00  0.00     0.211 HD
ENDBRANCH   6  13
BRANCH   7  15
ATOM     15  O   UNL     1     167.177 171.195 161.535  1.00  0.00    -0.385 OA
ATOM     16  H   UNL     1     168.012 171.383 161.032  1.00  0.00     0.211 HD
ENDBRANCH   7  15
ENDBRANCH   1   2
BRANCH   1  17
ATOM     17  C   UNL     1     170.034 170.502 163.672  1.00  0.00     0.224 C 
ATOM     18  C   UNL     1     169.610 169.009 163.715  1.00  0.00     0.208 C 
ATOM     19  O   UNL     1     170.478 170.799 162.348  1.00  0.00    -0.337 OA
ATOM     20  C   UNL     1     169.453 168.658 162.250  1.00  0.00     0.180 C 
ATOM     21  C   UNL     1     170.449 169.605 161.598  1.00  0.00     0.179 C 
BRANCH  17  22
ATOM     22  C   UNL     1     171.164 170.830 164.683  1.00  0.00     0.225 C 
BRANCH  22  23
ATOM     23  O   UNL     1     172.431 170.563 164.146  1.00  0.00    -0.391 OA
ATOM     24  H   UNL     1     173.047 170.427 164.913  1.00  0.00     0.210 HD
ENDBRANCH  22  23
ENDBRANCH  17  22
BRANCH  18  25
ATOM     25  O   UNL     1     170.542 168.173 164.371  1.00  0.00    -0.385 OA
ATOM     26  H   UNL     1     170.958 167.571 163.702  1.00  0.00     0.211 HD
ENDBRANCH  18  25
BRANCH  20  27
ATOM     27  O   UNL     1     169.769 167.318 161.972  1.00  0.00    -0.387 OA
ATOM     28  H   UNL     1     170.171 167.310 161.063  1.00  0.00     0.211 HD
ENDBRANCH  20  27
BRANCH  21  29
ATOM     29  C   UNL     1     170.129 169.891 160.122  1.00  0.00     0.191 C 
BRANCH  29  30
ATOM     30  O   UNL     1     169.564 171.165 159.952  1.00  0.00    -0.394 OA
ATOM     31  H   UNL     1     168.606 171.089 160.189  1.00  0.00     0.210 HD
ENDBRANCH  29  30
ENDBRANCH  21  29
ENDBRANCH   1  17
TORSDOF 13
ENDMDL
MODEL 3
REMARK VINA RESULT:    -4.213      2.087      4.338
REMARK INTER + INTRA:          -8.030
REMARK INTER:                  -6.164
REMARK INTRA:                  -1.866
REMARK UNBOUND:                -1.600
REMARK SMILES OC[C@@H]1O[C@@H](O[C@]2(CO)O[C@H](CO)[C@@H](O)[C@H]2O)[C@H](O)[C@@H](O)[C@@H]1O
REMARK SMILES IDX 6 1 5 2 3 3 22 4 4 5 20 6 18 7 2 8 1 9 23 11 21 13 19 15
REMARK SMILES IDX 7 17 16 18 10 19 14 20 11 21 8 22 9 23 17 25 15 27 12 29
REMARK SMILES IDX 13 30
REMARK H PARENT 1 10 23 12 21 14 19 16 9 24 17 26 15 28 13 31
REMARK Flexibility Score: inf
ROOT
ATOM      1  O   UNL     1     170.101 170.099 161.934  1.00  0.00    -0.313 OA
ENDROOT
BRANCH   1   2
ATOM      2  C   UNL     1     169.241 170.848 161.088  1.00  0.00     0.285 C 
ATOM      3  C   UNL     1     167.159 170.798 159.976  1.00  0.00     0.178 C 
ATOM      4  C   UNL     1     167.713 171.976 159.115  1.00  0.00     0.177 C 
ATOM      5  O   UNL     1     168.164 170.040 160.643  1.00  0.00    -0.341 OA
ATOM      6  C   UNL     1     169.148 171.645 158.656  1.00  0.00     0.179 C 
ATOM      7  C   UNL     1     170.059 171.347 159.872  1.00  0.00     0.202 C 
BRANCH   3   8
ATOM      8  C   UNL     1     166.056 171.208 160.969  1.00  0.00     0.191 C 
BRANCH   8   9
ATOM      9  O   UNL     1     166.594 171.955 162.027  1.00  0.00    -0.394 OA
ATOM     10  H   UNL     1     165.884 172.583 162.328  1.00  0.00     0.210 HD
ENDBRANCH   8   9
ENDBRANCH   3   8
BRANCH   4  11
ATOM     11  O   UNL     1     167.717 173.179 159.846  1.00  0.00    -0.387 OA
ATOM     12  H   UNL     1     166.996 173.746 159.470  1.00  0.00     0.211 HD
ENDBRANCH   4  11
BRANCH   6  13
ATOM     13  O   UNL     1     169.126 170.526 157.806  1.00  0.00    -0.387 OA
ATOM     14  H   UNL     1     169.981 170.040 157.949  1.00  0.00     0.211 HD
ENDBRANCH   6  13
BRANCH   7  15
ATOM     15  O   UNL     1     170.763 172.511 160.222  1.00  0.00    -0.385 OA
ATOM     16  H   UNL     1     170.191 173.014 160.860  1.00  0.00     0.211 HD
ENDBRANCH   7  15
ENDBRANCH   1   2
BRANCH   1  17
ATOM     17  C   UNL     1     170.103 170.505 163.306  1.00  0.00     0.224 C 
ATOM     18  C   UNL     1     171.505 171.111 163.590  1.00  0.00     0.208 C 
ATOM     19  O   UNL     1     169.124 171.509 163.572  1.00  0.00    -0.337 OA
ATOM     20  C   UNL     1     171.233 172.601 163.606  1.00  0.00     0.180 C 
ATOM     21  C   UNL     1     169.788 172.646 164.077  1.00  0.00     0.179 C 
BRANCH  17  22
ATOM     22  C   UNL     1     169.810 169.252 164.171  1.00  0.00     0.225 C 
BRANCH  22  23
ATOM     23  O   UNL     1     170.863 168.328 164.117  1.00  0.00    -0.391 OA
ATOM     24  H   UNL     1     171.187 168.204 165.048  1.00  0.00     0.210 HD
ENDBRANCH  22  23
ENDBRANCH  17  22
BRANCH  18  25
ATOM     25  O   UNL     1     172.085 170.657 164.796  1.00  0.00    -0.385 OA
ATOM     26  H   UNL     1     171.419 170.110 165.285  1.00  0.00     0.211 HD
ENDBRANCH  18  25
BRANCH  20  27
ATOM     27  O   UNL     1     172.076 173.301 164.485  1.00  0.00    -0.387 OA
ATOM     28  H   UNL     1     172.408 174.091 163.983  1.00  0.00     0.211 HD
ENDBRANCH  20  27
BRANCH  21  29
ATOM     29  C   UNL     1     169.060 173.935 163.665  1.00  0.00     0.191 C 
BRANCH  29  30
ATOM     30  O   UNL     1     168.918 174.027 162.271  1.00  0.00    -0.394 OA
ATOM     31  H   UNL     1     169.192 173.153 161.896  1.00  0.00     0.210 HD
ENDBRANCH  29  30
ENDBRANCH  21  29
ENDBRANCH   1  17
TORSDOF 13
ENDMDL
MODEL 4
REMARK VINA RESULT:    -4.160      2.001      5.471
REMARK INTER + INTRA:          -7.949
REMARK INTER:                  -6.144
REMARK INTRA:                  -1.805
REMARK UNBOUND:                -1.600
REMARK SMILES OC[C@@H]1O[C@@H](O[C@]2(CO)O[C@H](CO)[C@@H](O)[C@H]2O)[C@H](O)[C@@H](O)[C@@H]1O
REMARK SMILES IDX 6 1 5 2 3 3 22 4 4 5 20 6 18 7 2 8 1 9 23 11 21 13 19 15
REMARK SMILES IDX 7 17 16 18 10 19 14 20 11 21 8 22 9 23 17 25 15 27 12 29
REMARK SMILES IDX 13 30
REMARK H PARENT 1 10 23 12 21 14 19 16 9 24 17 26 15 28 13 31
REMARK Flexibility Score: inf
ROOT
ATOM      1  O   UNL     1     168.974 170.423 160.846  1.00  0.00    -0.313 OA
ENDROOT
BRANCH   1   2
ATOM      2  C   UNL     1     169.506 170.781 162.112  1.00  0.00     0.285 C 
ATOM      3  C   UNL     1     171.501 171.341 163.243  1.00  0.00     0.178 C 
ATOM      4  C   UNL     1     170.718 171.024 164.556  1.00  0.00     0.177 C 
ATOM      5  O   UNL     1     170.922 170.777 162.070  1.00  0.00    -0.341 OA
ATOM      6  C   UNL     1     169.952 169.696 164.389  1.00  0.00     0.179 C 
ATOM      7  C   UNL     1     169.010 169.755 163.161  1.00  0.00     0.202 C 
BRANCH   3   8
ATOM      8  C   UNL     1     171.790 172.837 163.027  1.00  0.00     0.191 C 
BRANCH   8   9
ATOM      9  O   UNL     1     172.109 173.462 164.241  1.00  0.00    -0.394 OA
ATOM     10  H   UNL     1     171.365 174.089 164.446  1.00  0.00     0.210 HD
ENDBRANCH   8   9
ENDBRANCH   3   8
BRANCH   4  11
ATOM     11  O   UNL     1     169.811 172.056 164.865  1.00  0.00    -0.387 OA
ATOM     12  H   UNL     1     169.982 172.791 164.222  1.00  0.00     0.211 HD
ENDBRANCH   4  11
BRANCH   6  13
ATOM     13  O   UNL     1     170.866 168.641 164.224  1.00  0.00    -0.387 OA
ATOM     14  H   UNL     1     170.344 167.855 163.914  1.00  0.00     0.211 HD
ENDBRANCH   6  13
BRANCH   7  15
ATOM     15  O   UNL     1     167.715 170.099 163.584  1.00  0.00    -0.385 OA
ATOM     16  H   UNL     1     167.613 169.754 164.510  1.00  0.00     0.211 HD
ENDBRANCH   7  15
ENDBRANCH   1   2
BRANCH   1  17
ATOM     17  C   UNL     1     168.152 171.421 160.231  1.00  0.00     0.224 C 
ATOM     18  C   UNL     1     166.794 170.742 159.905  1.00  0.00     0.208 C 
ATOM     19  O   UNL     1     167.900 172.522 161.103  1.00  0.00    -0.337 OA
ATOM     20  C   UNL     1     165.878 171.281 160.984  1.00  0.00     0.180 C 
ATOM     21  C   UNL     1     166.504 172.637 161.272  1.00  0.00     0.179 C 
BRANCH  17  22
ATOM     22  C   UNL     1     168.888 171.923 158.961  1.00  0.00     0.225 C 
BRANCH  22  23
ATOM     23  O   UNL     1     169.237 170.863 158.113  1.00  0.00    -0.391 OA
ATOM     24  H   UNL     1     170.012 171.170 157.572  1.00  0.00     0.210 HD
ENDBRANCH  22  23
ENDBRANCH  17  22
BRANCH  18  25
ATOM     25  O   UNL     1     166.317 171.024 158.604  1.00  0.00    -0.385 OA
ATOM     26  H   UNL     1     165.405 170.647 158.509  1.00  0.00     0.211 HD
ENDBRANCH  18  25
BRANCH  20  27
ATOM     27  O   UNL     1     164.548 171.417 160.553  1.00  0.00    -0.387 OA
ATOM     28  H   UNL     1     164.029 170.715 161.026  1.00  0.00     0.211 HD
ENDBRANCH  20  27
BRANCH  21  29
ATOM     29  C   UNL     1     166.162 173.173 162.671  1.00  0.00     0.191 C 
BRANCH  29  30
ATOM     30  O   UNL     1     167.261 173.088 163.541  1.00  0.00    -0.394 OA
ATOM     31  H   UNL     1     168.030 173.501 163.074  1.00  0.00     0.210 HD
ENDBRANCH  29  30
ENDBRANCH  21  29
ENDBRANCH   1  17
TORSDOF 13
ENDMDL
MODEL 5
REMARK VINA RESULT:    -4.140      1.762      5.655
REMARK INTER + INTRA:          -7.918
REMARK INTER:                  -6.018
REMARK INTRA:                  -1.900
REMARK UNBOUND:                -1.600
REMARK SMILES OC[C@@H]1O[C@@H](O[C@]2(CO)O[C@H](CO)[C@@H](O)[C@H]2O)[C@H](O)[C@@H](O)[C@@H]1O
REMARK SMILES IDX 6 1 5 2 3 3 22 4 4 5 20 6 18 7 2 8 1 9 23 11 21 13 19 15
REMARK SMILES IDX 7 17 16 18 10 19 14 20 11 21 8 22 9 23 17 25 15 27 12 29
REMARK SMILES IDX 13 30
REMARK H PARENT 1 10 23 12 21 14 19 16 9 24 17 26 15 28 13 31
REMARK Flexibility Score: inf
ROOT
ATOM      1  O   UNL     1     168.388 171.249 162.319  1.00  0.00    -0.313 OA
ENDROOT
BRANCH   1   2
ATOM      2  C   UNL     1     169.695 171.687 162.655  1.00  0.00     0.285 C 
ATOM      3  C   UNL     1     171.974 171.480 162.075  1.00  0.00     0.178 C 
ATOM      4  C   UNL     1     172.276 172.086 163.482  1.00  0.00     0.177 C 
ATOM      5  O   UNL     1     170.664 170.936 161.944  1.00  0.00    -0.341 OA
ATOM      6  C   UNL     1     171.402 171.384 164.541  1.00  0.00     0.179 C 
ATOM      7  C   UNL     1     169.901 171.498 164.178  1.00  0.00     0.202 C 
BRANCH   3   8
ATOM      8  C   UNL     1     172.275 172.430 160.902  1.00  0.00     0.191 C 
BRANCH   8   9
ATOM      9  O   UNL     1     171.352 173.486 160.868  1.00  0.00    -0.394 OA
ATOM     10  H   UNL     1     171.580 174.044 160.078  1.00  0.00     0.210 HD
ENDBRANCH   8   9
ENDBRANCH   3   8
BRANCH   4  11
ATOM     11  O   UNL     1     172.020 173.470 163.501  1.00  0.00    -0.387 OA
ATOM     12  H   UNL     1     172.748 173.905 162.987  1.00  0.00     0.211 HD
ENDBRANCH   4  11
BRANCH   6  13
ATOM     13  O   UNL     1     171.759 170.027 164.623  1.00  0.00    -0.387 OA
ATOM     14  H   UNL     1     170.981 169.505 164.293  1.00  0.00     0.211 HD
ENDBRANCH   6  13
BRANCH   7  15
ATOM     15  O   UNL     1     169.336 172.582 164.870  1.00  0.00    -0.385 OA
ATOM     16  H   UNL     1     169.597 173.406 164.379  1.00  0.00     0.211 HD
ENDBRANCH   7  15
ENDBRANCH   1   2
BRANCH   1  17
ATOM     17  C   UNL     1     167.629 172.164 161.522  1.00  0.00     0.224 C 
ATOM     18  C   UNL     1     166.436 172.635 162.397  1.00  0.00     0.208 C 
ATOM     19  O   UNL     1     168.389 173.314 161.153  1.00  0.00    -0.337 OA
ATOM     20  C   UNL     1     166.852 174.030 162.816  1.00  0.00     0.180 C 
ATOM     21  C   UNL     1     167.724 174.456 161.646  1.00  0.00     0.179 C 
BRANCH  17  22
ATOM     22  C   UNL     1     167.172 171.413 160.244  1.00  0.00     0.225 C 
BRANCH  22  23
ATOM     23  O   UNL     1     166.664 172.296 159.280  1.00  0.00    -0.391 OA
ATOM     24  H   UNL     1     166.656 171.805 158.416  1.00  0.00     0.210 HD
ENDBRANCH  22  23
ENDBRANCH  17  22
BRANCH  18  25
ATOM     25  O   UNL     1     165.196 172.625 161.717  1.00  0.00    -0.385 OA
ATOM     26  H   UNL     1     165.361 172.455 160.754  1.00  0.00     0.211 HD
ENDBRANCH  18  25
BRANCH  20  27
ATOM     27  O   UNL     1     165.761 174.900 162.979  1.00  0.00    -0.387 OA
ATOM     28  H   UNL     1     166.131 175.821 162.936  1.00  0.00     0.211 HD
ENDBRANCH  20  27
BRANCH  21  29
ATOM     29  C   UNL     1     168.728 175.560 162.014  1.00  0.00     0.191 C 
BRANCH  29  30
ATOM     30  O   UNL     1     169.726 175.085 162.880  1.00  0.00    -0.394 OA
ATOM     31  H   UNL     1     170.315 175.852 163.088  1.00  0.00     0.210 HD
ENDBRANCH  29  30
ENDBRANCH  21  29
ENDBRANCH   1  17
TORSDOF 13
ENDMDL
MODEL 6
REMARK VINA RESULT:    -4.061      2.369      4.815
REMARK INTER + INTRA:          -7.797
REMARK INTER:                  -5.867
REMARK INTRA:                  -1.931
REMARK UNBOUND:                -1.600
REMARK SMILES OC[C@@H]1O[C@@H](O[C@]2(CO)O[C@H](CO)[C@@H](O)[C@H]2O)[C@H](O)[C@@H](O)[C@@H]1O
REMARK SMILES IDX 6 1 5 2 3 3 22 4 4 5 20 6 18 7 2 8 1 9 23 11 21 13 19 15
REMARK SMILES IDX 7 17 16 18 10 19 14 20 11 21 8 22 9 23 17 25 15 27 12 29
REMARK SMILES IDX 13 30
REMARK H PARENT 1 10 23 12 21 14 19 16 9 24 17 26 15 28 13 31
REMARK Flexibility Score: inf
ROOT
ATOM      1  O   UNL     1     171.155 170.835 161.605  1.00  0.00    -0.313 OA
ENDROOT
BRANCH   1   2
ATOM      2  C   UNL     1     171.384 172.190 161.251  1.00  0.00     0.285 C 
ATOM      3  C   UNL     1     171.169 173.757 159.498  1.00  0.00     0.178 C 
ATOM      4  C   UNL     1     172.186 174.629 160.299  1.00  0.00     0.177 C 
ATOM      5  O   UNL     1     171.170 172.380 159.863  1.00  0.00    -0.341 OA
ATOM      6  C   UNL     1     173.360 173.747 160.770  1.00  0.00     0.179 C 
ATOM      7  C   UNL     1     172.846 172.552 161.610  1.00  0.00     0.202 C 
BRANCH   3   8
ATOM      8  C   UNL     1     169.731 174.305 159.497  1.00  0.00     0.191 C 
BRANCH   8   9
ATOM      9  O   UNL     1     169.153 174.187 160.770  1.00  0.00    -0.394 OA
ATOM     10  H   UNL     1     168.202 173.934 160.633  1.00  0.00     0.210 HD
ENDBRANCH   8   9
ENDBRANCH   3   8
BRANCH   4  11
ATOM     11  O   UNL     1     171.570 175.230 161.413  1.00  0.00    -0.387 OA
ATOM     12  H   UNL     1     171.494 174.530 162.112  1.00  0.00     0.211 HD
ENDBRANCH   4  11
BRANCH   6  13
ATOM     13  O   UNL     1     174.065 173.263 159.654  1.00  0.00    -0.387 OA
ATOM     14  H   UNL     1     174.558 174.035 159.269  1.00  0.00     0.211 HD
ENDBRANCH   6  13
BRANCH   7  15
ATOM     15  O   UNL     1     172.933 172.871 162.975  1.00  0.00    -0.385 OA
ATOM     16  H   UNL     1     173.401 172.115 163.419  1.00  0.00     0.211 HD
ENDBRANCH   7  15
ENDBRANCH   1   2
BRANCH   1  17
ATOM     17  C   UNL     1     169.975 170.603 162.381  1.00  0.00     0.224 C 
ATOM     18  C   UNL     1     170.446 170.058 163.757  1.00  0.00     0.208 C 
ATOM     19  O   UNL     1     169.237 171.802 162.609  1.00  0.00    -0.337 OA
ATOM     20  C   UNL     1     170.281 171.256 164.671  1.00  0.00     0.180 C 
ATOM     21  C   UNL     1     169.135 171.998 164.002  1.00  0.00     0.179 C 
BRANCH  17  22
ATOM     22  C   UNL     1     169.092 169.588 161.610  1.00  0.00     0.225 C 
BRANCH  22  23
ATOM     23  O   UNL     1     169.770 168.382 161.380  1.00  0.00    -0.391 OA
ATOM     24  H   UNL     1     170.381 168.537 160.612  1.00  0.00     0.210 HD
ENDBRANCH  22  23
ENDBRANCH  17  22
BRANCH  18  25
ATOM     25  O   UNL     1     169.713 168.936 164.204  1.00  0.00    -0.385 OA
ATOM     26  H   UNL     1     169.901 168.794 165.168  1.00  0.00     0.211 HD
ENDBRANCH  18  25
BRANCH  20  27
ATOM     27  O   UNL     1     169.954 170.896 165.988  1.00  0.00    -0.387 OA
ATOM     28  H   UNL     1     169.254 170.194 165.919  1.00  0.00     0.211 HD
ENDBRANCH  20  27
BRANCH  21  29
ATOM     29  C   UNL     1     169.105 173.495 164.347  1.00  0.00     0.191 C 
BRANCH  29  30
ATOM     30  O   UNL     1     170.155 174.191 163.724  1.00  0.00    -0.394 OA
ATOM     31  H   UNL     1     169.747 174.763 163.028  1.00  0.00     0.210 HD
ENDBRANCH  29  30
ENDBRANCH  21  29
ENDBRANCH   1  17
TORSDOF 13
ENDMDL
MODEL 7
REMARK VINA RESULT:    -3.953      1.606      5.656
REMARK INTER + INTRA:          -7.633
REMARK INTER:                  -5.740
REMARK INTRA:                  -1.892
REMARK UNBOUND:                -1.600
REMARK SMILES OC[C@@H]1O[C@@H](O[C@]2(CO)O[C@H](CO)[C@@H](O)[C@H]2O)[C@H](O)[C@@H](O)[C@@H]1O
REMARK SMILES IDX 6 1 5 2 3 3 22 4 4 5 20 6 18 7 2 8 1 9 23 11 21 13 19 15
REMARK SMILES IDX 7 17 16 18 10 19 14 20 11 21 8 22 9 23 17 25 15 27 12 29
REMARK SMILES IDX 13 30
REMARK H PARENT 1 10 23 12 21 14 19 16 9 24 17 26 15 28 13 31
REMARK Flexibility Score: inf
ROOT
ATOM      1  O   UNL     1     167.479 172.781 163.272  1.00  0.00    -0.313 OA
ENDROOT
BRANCH   1   2
ATOM      2  C   UNL     1     168.620 171.943 163.378  1.00  0.00     0.285 C 
ATOM      3  C   UNL     1     169.320 169.689 163.440  1.00  0.00     0.178 C 
ATOM      4  C   UNL     1     170.659 170.234 164.031  1.00  0.00     0.177 C 
ATOM      5  O   UNL     1     168.225 170.593 163.550  1.00  0.00    -0.341 OA
ATOM      6  C   UNL     1     170.350 171.260 165.140  1.00  0.00     0.179 C 
ATOM      7  C   UNL     1     169.456 172.403 164.598  1.00  0.00     0.202 C 
BRANCH   3   8
ATOM      8  C   UNL     1     169.435 169.167 161.996  1.00  0.00     0.191 C 
BRANCH   8   9
ATOM      9  O   UNL     1     169.647 170.225 161.100  1.00  0.00    -0.394 OA
ATOM     10  H   UNL     1     170.292 169.899 160.418  1.00  0.00     0.210 HD
ENDBRANCH   8   9
ENDBRANCH   3   8
BRANCH   4  11
ATOM     11  O   UNL     1     171.442 170.842 163.031  1.00  0.00    -0.387 OA
ATOM     12  H   UNL     1     170.942 170.752 162.179  1.00  0.00     0.211 HD
ENDBRANCH   4  11
BRANCH   6  13
ATOM     13  O   UNL     1     169.693 170.621 166.205  1.00  0.00    -0.387 OA
ATOM     14  H   UNL     1     168.763 170.441 165.903  1.00  0.00     0.211 HD
ENDBRANCH   6  13
BRANCH   7  15
ATOM     15  O   UNL     1     170.264 173.493 164.234  1.00  0.00    -0.385 OA
ATOM     16  H   UNL     1     169.653 174.247 164.025  1.00  0.00     0.211 HD
ENDBRANCH   7  15
ENDBRANCH   1   2
BRANCH   1  17
ATOM     17  C   UNL     1     167.265 173.349 161.976  1.00  0.00     0.224 C 
ATOM     18  C   UNL     1     167.506 174.877 162.114  1.00  0.00     0.208 C 
ATOM     19  O   UNL     1     168.182 172.842 161.008  1.00  0.00    -0.337 OA
ATOM     20  C   UNL     1     168.872 175.063 161.486  1.00  0.00     0.180 C 
ATOM     21  C   UNL     1     168.903 173.930 160.473  1.00  0.00     0.179 C 
BRANCH  17  22
ATOM     22  C   UNL     1     165.814 173.011 161.544  1.00  0.00     0.225 C 
BRANCH  22  23
ATOM     23  O   UNL     1     164.871 173.560 162.425  1.00  0.00    -0.391 OA
ATOM     24  H   UNL     1     164.194 172.855 162.599  1.00  0.00     0.210 HD
ENDBRANCH  22  23
ENDBRANCH  17  22
BRANCH  18  25
ATOM     25  O   UNL     1     166.514 175.666 161.487  1.00  0.00    -0.385 OA
ATOM     26  H   UNL     1     166.604 175.572 160.504  1.00  0.00     0.211 HD
ENDBRANCH  18  25
BRANCH  20  27
ATOM     27  O   UNL     1     169.018 176.311 160.857  1.00  0.00    -0.387 OA
ATOM     28  H   UNL     1     168.996 176.133 159.880  1.00  0.00     0.211 HD
ENDBRANCH  20  27
BRANCH  21  29
ATOM     29  C   UNL     1     170.329 173.507 160.087  1.00  0.00     0.191 C 
BRANCH  29  30
ATOM     30  O   UNL     1     171.017 172.947 161.175  1.00  0.00    -0.394 OA
ATOM     31  H   UNL     1     170.576 173.280 161.996  1.00  0.00     0.210 HD
ENDBRANCH  29  30
ENDBRANCH  21  29
ENDBRANCH   1  17
TORSDOF 13
ENDMDL
MODEL 8
REMARK VINA RESULT:    -3.823      2.229      5.611
REMARK INTER + INTRA:          -7.435
REMARK INTER:                  -5.825
REMARK INTRA:                  -1.610
REMARK UNBOUND:                -1.600
REMARK SMILES OC[C@@H]1O[C@@H](O[C@]2(CO)O[C@H](CO)[C@@H](O)[C@H]2O)[C@H](O)[C@@H](O)[C@@H]1O
REMARK SMILES IDX 6 1 5 2 3 3 22 4 4 5 20 6 18 7 2 8 1 9 23 11 21 13 19 15
REMARK SMILES IDX 7 17 16 18 10 19 14 20 11 21 8 22 9 23 17 25 15 27 12 29
REMARK SMILES IDX 13 30
REMARK H PARENT 1 10 23 12 21 14 19 16 9 24 17 26 15 28 13 31
REMARK Flexibility Score: inf
ROOT
ATOM      1  O   UNL     1     170.408 170.043 161.897  1.00  0.00    -0.313 OA
ENDROOT
BRANCH   1   2
ATOM      2  C   UNL     1     169.725 169.483 160.786  1.00  0.00     0.285 C 
ATOM      3  C   UNL     1     169.669 167.624 159.332  1.00  0.00     0.178 C 
ATOM      4  C   UNL     1     168.803 168.522 158.393  1.00  0.00     0.177 C 
ATOM      5  O   UNL     1     170.423 168.350 160.299  1.00  0.00    -0.341 OA
ATOM      6  C   UNL     1     169.450 169.916 158.276  1.00  0.00     0.179 C 
ATOM      7  C   UNL     1     169.629 170.557 159.675  1.00  0.00     0.202 C 
BRANCH   3   8
ATOM      8  C   UNL     1     168.888 166.486 160.013  1.00  0.00     0.191 C 
BRANCH   8   9
ATOM      9  O   UNL     1     168.045 165.843 159.094  1.00  0.00    -0.394 OA
ATOM     10  H   UNL     1     167.257 165.517 159.604  1.00  0.00     0.210 HD
ENDBRANCH   8   9
ENDBRANCH   3   8
BRANCH   4  11
ATOM     11  O   UNL     1     167.491 168.649 158.885  1.00  0.00    -0.387 OA
ATOM     12  H   UNL     1     167.564 168.835 159.857  1.00  0.00     0.211 HD
ENDBRANCH   4  11
BRANCH   6  13
ATOM     13  O   UNL     1     170.704 169.805 157.651  1.00  0.00    -0.387 OA
ATOM     14  H   UNL     1     171.362 169.594 158.364  1.00  0.00     0.211 HD
ENDBRANCH   6  13
BRANCH   7  15
ATOM     15  O   UNL     1     168.547 171.414 159.936  1.00  0.00    -0.385 OA
ATOM     16  H   UNL     1     168.790 172.305 159.570  1.00  0.00     0.211 HD
ENDBRANCH   7  15
ENDBRANCH   1   2
BRANCH   1  17
ATOM     17  C   UNL     1     169.626 170.164 163.089  1.00  0.00     0.224 C 
ATOM     18  C   UNL     1     170.359 171.186 164.001  1.00  0.00     0.208 C 
ATOM     19  O   UNL     1     168.316 170.665 162.826  1.00  0.00    -0.337 OA
ATOM     20  C   UNL     1     169.520 172.438 163.849  1.00  0.00     0.180 C 
ATOM     21  C   UNL     1     168.145 171.856 163.562  1.00  0.00     0.179 C 
BRANCH  17  22
ATOM     22  C   UNL     1     169.524 168.757 163.734  1.00  0.00     0.225 C 
BRANCH  22  23
ATOM     23  O   UNL     1     170.769 168.310 164.200  1.00  0.00    -0.391 OA
ATOM     24  H   UNL     1     170.717 167.320 164.257  1.00  0.00     0.210 HD
ENDBRANCH  22  23
ENDBRANCH  17  22
BRANCH  18  25
ATOM     25  O   UNL     1     170.465 170.770 165.348  1.00  0.00    -0.385 OA
ATOM     26  H   UNL     1     171.348 170.338 165.480  1.00  0.00     0.211 HD
ENDBRANCH  18  25
BRANCH  20  27
ATOM     27  O   UNL     1     169.504 173.229 165.010  1.00  0.00    -0.387 OA
ATOM     28  H   UNL     1     169.550 172.598 165.777  1.00  0.00     0.211 HD
ENDBRANCH  20  27
BRANCH  21  29
ATOM     29  C   UNL     1     167.220 172.833 162.819  1.00  0.00     0.191 C 
BRANCH  29  30
ATOM     30  O   UNL     1     166.463 172.181 161.833  1.00  0.00    -0.394 OA
ATOM     31  H   UNL     1     165.512 172.282 162.087  1.00  0.00     0.210 HD
ENDBRANCH  29  30
ENDBRANCH  21  29
ENDBRANCH   1  17
TORSDOF 13
ENDMDL
MODEL 9
REMARK VINA RESULT:    -3.787      1.905      3.050
REMARK INTER + INTRA:          -7.380
REMARK INTER:                  -5.516
REMARK INTRA:                  -1.864
REMARK UNBOUND:                -1.600
REMARK SMILES OC[C@@H]1O[C@@H](O[C@]2(CO)O[C@H](CO)[C@@H](O)[C@H]2O)[C@H](O)[C@@H](O)[C@@H]1O
REMARK SMILES IDX 6 1 5 2 3 3 22 4 4 5 20 6 18 7 2 8 1 9 23 11 21 13 19 15
REMARK SMILES IDX 7 17 16 18 10 19 14 20 11 21 8 22 9 23 17 25 15 27 12 29
REMARK SMILES IDX 13 30
REMARK H PARENT 1 10 23 12 21 14 19 16 9 24 17 26 15 28 13 31
REMARK Flexibility Score: inf
ROOT
ATOM      1  O   UNL     1     169.047 173.703 162.011  1.00  0.00    -0.313 OA
ENDROOT
BRANCH   1   2
ATOM      2  C   UNL     1     167.887 173.067 161.500  1.00  0.00     0.285 C 
ATOM      3  C   UNL     1     166.771 172.471 159.507  1.00  0.00     0.178 C 
ATOM      4  C   UNL     1     165.503 172.287 160.400  1.00  0.00     0.177 C 
ATOM      5  O   UNL     1     167.790 173.270 160.101  1.00  0.00    -0.341 OA
ATOM      6  C   UNL     1     165.365 173.492 161.351  1.00  0.00     0.179 C 
ATOM      7  C   UNL     1     166.645 173.668 162.204  1.00  0.00     0.202 C 
BRANCH   3   8
ATOM      8  C   UNL     1     167.367 171.154 158.979  1.00  0.00     0.191 C 
BRANCH   8   9
ATOM      9  O   UNL     1     167.943 170.416 160.024  1.00  0.00    -0.394 OA
ATOM     10  H   UNL     1     167.245 169.789 160.353  1.00  0.00     0.210 HD
ENDBRANCH   8   9
ENDBRANCH   3   8
BRANCH   4  11
ATOM     11  O   UNL     1     165.583 171.099 161.152  1.00  0.00    -0.387 OA
ATOM     12  H   UNL     1     166.521 171.019 161.464  1.00  0.00     0.211 HD
ENDBRANCH   4  11
BRANCH   6  13
ATOM     13  O   UNL     1     165.140 174.661 160.603  1.00  0.00    -0.387 OA
ATOM     14  H   UNL     1     165.974 174.840 160.092  1.00  0.00     0.211 HD
ENDBRANCH   6  13
BRANCH   7  15
ATOM     15  O   UNL     1     166.462 173.049 163.451  1.00  0.00    -0.385 OA
ATOM     16  H   UNL     1     166.541 173.760 164.141  1.00  0.00     0.211 HD
ENDBRANCH   7  15
ENDBRANCH   1   2
BRANCH   1  17
ATOM     17  C   UNL     1     170.100 172.817 162.405  1.00  0.00     0.224 C 
ATOM     18  C   UNL     1     170.249 172.956 163.944  1.00  0.00     0.208 C 
ATOM     19  O   UNL     1     169.794 171.454 162.110  1.00  0.00    -0.337 OA
ATOM     20  C   UNL     1     169.588 171.696 164.464  1.00  0.00     0.180 C 
ATOM     21  C   UNL     1     169.828 170.726 163.318  1.00  0.00     0.179 C 
BRANCH  17  22
ATOM     22  C   UNL     1     171.383 173.236 161.641  1.00  0.00     0.225 C 
BRANCH  22  23
ATOM     23  O   UNL     1     172.374 172.246 161.712  1.00  0.00    -0.391 OA
ATOM     24  H   UNL     1     172.255 171.781 162.582  1.00  0.00     0.210 HD
ENDBRANCH  22  23
ENDBRANCH  17  22
BRANCH  18  25
ATOM     25  O   UNL     1     171.589 173.078 164.375  1.00  0.00    -0.385 OA
ATOM     26  H   UNL     1     171.987 173.885 163.959  1.00  0.00     0.211 HD
ENDBRANCH  18  25
BRANCH  20  27
ATOM     27  O   UNL     1     170.167 171.228 165.655  1.00  0.00    -0.387 OA
ATOM     28  H   UNL     1     171.050 170.845 165.404  1.00  0.00     0.211 HD
ENDBRANCH  20  27
BRANCH  21  29
ATOM     29  C   UNL     1     168.820 169.567 163.290  1.00  0.00     0.191 C 
BRANCH  29  30
ATOM     30  O   UNL     1     167.502 170.030 163.146  1.00  0.00    -0.394 OA
ATOM     31  H   UNL     1     166.910 169.339 163.537  1.00  0.00     0.210 HD
ENDBRANCH  29  30
ENDBRANCH  21  29
ENDBRANCH   1  17
TORSDOF 13
ENDMDL
