MODEL 1
REMARK VINA RESULT:    -0.779      0.000      0.000
REMARK INTER + INTRA:          -2.656
REMARK INTER:                  -1.143
REMARK INTRA:                  -1.513
REMARK UNBOUND:                -1.513
REMARK SMILES Cc1cc2c(C(C)C)c(O)c(O)c(C=O)c2c(O)c1-c1c(C)cc2c(C(C)C)c(O)c(O)c(C=O)c2c1O
REMARK SMILES IDX 1 1 2 2 3 3 4 4 16 5 13 6 11 7 9 8 5 9 17 10 19 11 20 12
REMARK SMILES IDX 37 13 21 14 36 15 23 16 22 17 24 18 33 19 25 20 31 21 29 22
REMARK SMILES IDX 38 23 34 25 35 26 26 27 27 28 28 29 32 30 30 32 18 34 6 36
REMARK SMILES IDX 7 37 8 38 14 39 15 40 10 41 12 43
REMARK H PARENT 38 24 32 31 30 33 18 35 10 42 12 44
REMARK Flexibility Score: inf
ROOT
ATOM      1  C   UNL     1      80.766  81.732  84.392  1.00  0.00     0.045 C 
ATOM      2  C   UNL     1      81.608  80.518  84.082  1.00  0.00    -0.039 A 
ATOM      3  C   UNL     1      80.987  79.335  83.678  1.00  0.00     0.013 A 
ATOM      4  C   UNL     1      81.726  78.172  83.375  1.00  0.00    -0.006 A 
ATOM      5  C   UNL     1      83.148  78.258  83.334  1.00  0.00     0.039 A 
ATOM      6  C   UNL     1      83.892  77.162  82.808  1.00  0.00     0.072 A 
ATOM      7  C   UNL     1      83.227  75.993  82.392  1.00  0.00     0.169 A 
ATOM      8  C   UNL     1      81.826  75.894  82.492  1.00  0.00     0.162 A 
ATOM      9  C   UNL     1      81.074  76.936  83.078  1.00  0.00     0.008 A 
ATOM     10  C   UNL     1      83.779  79.432  83.845  1.00  0.00     0.132 A 
ATOM     11  C   UNL     1      83.007  80.557  84.205  1.00  0.00     0.031 A 
ENDROOT
BRANCH  11  12
ATOM     12  C   UNL     1      83.666  81.792  84.706  1.00  0.00     0.031 A 
ATOM     13  C   UNL     1      84.119  82.772  83.797  1.00  0.00     0.132 A 
ATOM     14  C   UNL     1      83.869  81.965  86.083  1.00  0.00    -0.039 A 
ATOM     15  C   UNL     1      84.703  83.984  84.272  1.00  0.00     0.039 A 
ATOM     16  C   UNL     1      84.541  83.099  86.543  1.00  0.00     0.013 A 
ATOM     17  C   UNL     1      83.453  80.903  87.073  1.00  0.00     0.045 C 
ATOM     18  C   UNL     1      84.934  84.140  85.672  1.00  0.00    -0.006 A 
ATOM     19  C   UNL     1      85.106  85.026  83.386  1.00  0.00     0.072 A 
ATOM     20  C   UNL     1      85.593  85.309  86.164  1.00  0.00     0.008 A 
ATOM     21  C   UNL     1      85.886  86.093  83.868  1.00  0.00     0.169 A 
ATOM     22  C   UNL     1      86.200  86.182  85.235  1.00  0.00     0.162 A 
BRANCH  13  23
ATOM     23  O   UNL     1      84.033  82.520  82.422  1.00  0.00    -0.507 OA
ATOM     24  H   UNL     1      83.770  83.214  81.735  1.00  0.00     0.293 HD
ENDBRANCH  13  23
BRANCH  19  25
ATOM     25  C   UNL     1      84.652  85.080  81.975  1.00  0.00     0.264 C 
ATOM     26  O   UNL     1      85.443  84.846  81.025  1.00  0.00    -0.298 OA
ENDBRANCH  19  25
BRANCH  20  27
ATOM     27  C   UNL     1      85.701  85.605  87.671  1.00  0.00     0.017 C 
ATOM     28  C   UNL     1      87.113  85.308  88.187  1.00  0.00     0.012 C 
ATOM     29  C   UNL     1      85.251  87.026  88.063  1.00  0.00     0.012 C 
ENDBRANCH  20  27
BRANCH  21  30
ATOM     30  O   UNL     1      86.297  87.087  82.972  1.00  0.00    -0.504 OA
ATOM     31  H   UNL     1      85.980  87.151  82.015  1.00  0.00     0.293 HD
ENDBRANCH  21  30
BRANCH  22  32
ATOM     32  O   UNL     1      87.125  87.125  85.691  1.00  0.00    -0.504 OA
ATOM     33  H   UNL     1      87.897  87.473  85.138  1.00  0.00     0.293 HD
ENDBRANCH  22  32
ENDBRANCH  11  12
BRANCH  10  34
ATOM     34  O   UNL     1      85.166  79.466  84.030  1.00  0.00    -0.507 OA
ATOM     35  H   UNL     1      85.838  79.389  83.277  1.00  0.00     0.293 HD
ENDBRANCH  10  34
BRANCH   9  36
ATOM     36  C   UNL     1      79.575  76.730  83.366  1.00  0.00     0.017 C 
ATOM     37  C   UNL     1      78.768  76.691  82.064  1.00  0.00     0.012 C 
ATOM     38  C   UNL     1      79.275  75.506  84.250  1.00  0.00     0.012 C 
ENDBRANCH   9  36
BRANCH   6  39
ATOM     39  C   UNL     1      85.348  77.249  82.550  1.00  0.00     0.264 C 
ATOM     40  O   UNL     1      86.174  76.641  83.280  1.00  0.00    -0.298 OA
ENDBRANCH   6  39
BRANCH   8  41
ATOM     41  O   UNL     1      81.149  74.784  81.978  1.00  0.00    -0.504 OA
ATOM     42  H   UNL     1      81.394  74.302  81.126  1.00  0.00     0.293 HD
ENDBRANCH   8  41
BRANCH   7  43
ATOM     43  O   UNL     1      83.995  74.942  81.874  1.00  0.00    -0.504 OA
ATOM     44  H   UNL     1      83.619  74.126  81.414  1.00  0.00     0.293 HD
ENDBRANCH   7  43
TORSDOF 11
ENDMDL
MODEL 2
REMARK VINA RESULT:    -0.715      3.945      9.019
REMARK INTER + INTRA:          -2.562
REMARK INTER:                  -1.101
REMARK INTRA:                  -1.460
REMARK UNBOUND:                -1.513
REMARK SMILES Cc1cc2c(C(C)C)c(O)c(O)c(C=O)c2c(O)c1-c1c(C)cc2c(C(C)C)c(O)c(O)c(C=O)c2c1O
REMARK SMILES IDX 1 1 2 2 3 3 4 4 16 5 13 6 11 7 9 8 5 9 17 10 19 11 20 12
REMARK SMILES IDX 37 13 21 14 36 15 23 16 22 17 24 18 33 19 25 20 31 21 29 22
REMARK SMILES IDX 38 23 34 25 35 26 26 27 27 28 28 29 32 30 30 32 18 34 6 36
REMARK SMILES IDX 7 37 8 38 14 39 15 40 10 41 12 43
REMARK H PARENT 38 24 32 31 30 33 18 35 10 42 12 44
REMARK Flexibility Score: inf
ROOT
ATOM      1  C   UNL     1      81.193  82.809  82.809  1.00  0.00     0.045 C 
ATOM      2  C   UNL     1      82.247  83.415  83.703  1.00  0.00    -0.039 A 
ATOM      3  C   UNL     1      83.272  84.176  83.139  1.00  0.00     0.013 A 
ATOM      4  C   UNL     1      84.282  84.768  83.929  1.00  0.00    -0.006 A 
ATOM      5  C   UNL     1      84.160  84.710  85.347  1.00  0.00     0.039 A 
ATOM      6  C   UNL     1      85.040  85.496  86.148  1.00  0.00     0.072 A 
ATOM      7  C   UNL     1      86.050  86.266  85.541  1.00  0.00     0.169 A 
ATOM      8  C   UNL     1      86.201  86.268  84.140  1.00  0.00     0.162 A 
ATOM      9  C   UNL     1      85.390  85.442  83.331  1.00  0.00     0.008 A 
ATOM     10  C   UNL     1      83.174  83.850  85.917  1.00  0.00     0.132 A 
ATOM     11  C   UNL     1      82.218  83.217  85.093  1.00  0.00     0.031 A 
ENDROOT
BRANCH  11  12
ATOM     12  C   UNL     1      81.170  82.347  85.691  1.00  0.00     0.031 A 
ATOM     13  C   UNL     1      79.944  82.903  86.113  1.00  0.00     0.132 A 
ATOM     14  C   UNL     1      81.417  80.977  85.864  1.00  0.00    -0.039 A 
ATOM     15  C   UNL     1      78.913  82.067  86.637  1.00  0.00     0.039 A 
ATOM     16  C   UNL     1      80.453  80.176  86.478  1.00  0.00     0.013 A 
ATOM     17  C   UNL     1      82.744  80.369  85.479  1.00  0.00     0.045 C 
ATOM     18  C   UNL     1      79.182  80.679  86.839  1.00  0.00    -0.006 A 
ATOM     19  C   UNL     1      77.637  82.583  87.007  1.00  0.00     0.072 A 
ATOM     20  C   UNL     1      78.195  79.837  87.438  1.00  0.00     0.008 A 
ATOM     21  C   UNL     1      76.739  81.779  87.732  1.00  0.00     0.169 A 
ATOM     22  C   UNL     1      77.059  80.440  88.020  1.00  0.00     0.162 A 
BRANCH  13  23
ATOM     23  O   UNL     1      79.769  84.291  86.061  1.00  0.00    -0.507 OA
ATOM     24  H   UNL     1      80.311  84.907  85.469  1.00  0.00     0.293 HD
ENDBRANCH  13  23
BRANCH  19  25
ATOM     25  C   UNL     1      77.173  83.923  86.573  1.00  0.00     0.264 C 
ATOM     26  O   UNL     1      77.077  84.877  87.389  1.00  0.00    -0.298 OA
ENDBRANCH  19  25
BRANCH  20  27
ATOM     27  C   UNL     1      78.367  78.309  87.510  1.00  0.00     0.017 C 
ATOM     28  C   UNL     1      78.479  77.704  86.106  1.00  0.00     0.012 C 
ATOM     29  C   UNL     1      79.532  77.853  88.409  1.00  0.00     0.012 C 
ENDBRANCH  20  27
BRANCH  21  30
ATOM     30  O   UNL     1      75.505  82.319  88.112  1.00  0.00    -0.504 OA
ATOM     31  H   UNL     1      74.615  81.874  87.937  1.00  0.00     0.293 HD
ENDBRANCH  21  30
BRANCH  22  32
ATOM     32  O   UNL     1      76.265  79.695  88.896  1.00  0.00    -0.504 OA
ATOM     33  H   UNL     1      75.255  79.675  88.867  1.00  0.00     0.293 HD
ENDBRANCH  22  32
ENDBRANCH  11  12
BRANCH  10  34
ATOM     34  O   UNL     1      83.168  83.595  87.293  1.00  0.00    -0.507 OA
ATOM     35  H   UNL     1      82.592  82.890  87.735  1.00  0.00     0.293 HD
ENDBRANCH  10  34
BRANCH   9  36
ATOM     36  C   UNL     1      85.700  85.301  81.828  1.00  0.00     0.017 C 
ATOM     37  C   UNL     1      85.402  86.606  81.083  1.00  0.00     0.012 C 
ATOM     38  C   UNL     1      87.125  84.799  81.533  1.00  0.00     0.012 C 
ENDBRANCH   9  36
BRANCH   6  39
ATOM     39  C   UNL     1      84.853  85.645  87.610  1.00  0.00     0.264 C 
ATOM     40  O   UNL     1      85.635  85.087  88.425  1.00  0.00    -0.298 OA
ENDBRANCH   6  39
BRANCH   8  41
ATOM     41  O   UNL     1      87.125  87.115  83.522  1.00  0.00    -0.504 OA
ATOM     42  H   UNL     1      87.033  88.118  83.452  1.00  0.00     0.293 HD
ENDBRANCH   8  41
BRANCH   7  43
ATOM     43  O   UNL     1      86.888  87.028  86.363  1.00  0.00    -0.504 OA
ATOM     44  H   UNL     1      87.892  87.079  86.273  1.00  0.00     0.293 HD
ENDBRANCH   7  43
TORSDOF 11
ENDMDL
MODEL 3
REMARK VINA RESULT:    -0.707      4.333      9.440
REMARK INTER + INTRA:          -2.550
REMARK INTER:                  -1.074
REMARK INTRA:                  -1.476
REMARK UNBOUND:                -1.513
REMARK SMILES Cc1cc2c(C(C)C)c(O)c(O)c(C=O)c2c(O)c1-c1c(C)cc2c(C(C)C)c(O)c(O)c(C=O)c2c1O
REMARK SMILES IDX 1 1 2 2 3 3 4 4 16 5 13 6 11 7 9 8 5 9 17 10 19 11 20 12
REMARK SMILES IDX 37 13 21 14 36 15 23 16 22 17 24 18 33 19 25 20 31 21 29 22
REMARK SMILES IDX 38 23 34 25 35 26 26 27 27 28 28 29 32 30 30 32 18 34 6 36
REMARK SMILES IDX 7 37 8 38 14 39 15 40 10 41 12 43
REMARK H PARENT 38 24 32 31 30 33 18 35 10 42 12 44
REMARK Flexibility Score: inf
ROOT
ATOM      1  C   UNL     1      84.935  79.601  82.658  1.00  0.00     0.045 C 
ATOM      2  C   UNL     1      85.179  81.091  82.660  1.00  0.00    -0.039 A 
ATOM      3  C   UNL     1      85.549  81.726  83.846  1.00  0.00     0.013 A 
ATOM      4  C   UNL     1      85.791  83.116  83.903  1.00  0.00    -0.006 A 
ATOM      5  C   UNL     1      85.806  83.856  82.685  1.00  0.00     0.039 A 
ATOM      6  C   UNL     1      86.274  85.202  82.702  1.00  0.00     0.072 A 
ATOM      7  C   UNL     1      86.657  85.802  83.916  1.00  0.00     0.169 A 
ATOM      8  C   UNL     1      86.581  85.081  85.124  1.00  0.00     0.162 A 
ATOM      9  C   UNL     1      86.052  83.772  85.144  1.00  0.00     0.008 A 
ATOM     10  C   UNL     1      85.330  83.229  81.495  1.00  0.00     0.132 A 
ATOM     11  C   UNL     1      85.030  81.849  81.487  1.00  0.00     0.031 A 
ENDROOT
BRANCH  11  12
ATOM     12  C   UNL     1      84.566  81.189  80.238  1.00  0.00     0.031 A 
ATOM     13  C   UNL     1      83.186  81.091  79.960  1.00  0.00     0.132 A 
ATOM     14  C   UNL     1      85.502  80.633  79.353  1.00  0.00    -0.039 A 
ATOM     15  C   UNL     1      82.734  80.507  78.738  1.00  0.00     0.039 A 
ATOM     16  C   UNL     1      85.058  79.964  78.212  1.00  0.00     0.013 A 
ATOM     17  C   UNL     1      86.981  80.669  79.658  1.00  0.00     0.045 C 
ATOM     18  C   UNL     1      83.691  79.917  77.857  1.00  0.00    -0.006 A 
ATOM     19  C   UNL     1      81.353  80.455  78.392  1.00  0.00     0.072 A 
ATOM     20  C   UNL     1      83.256  79.254  76.668  1.00  0.00     0.008 A 
ATOM     21  C   UNL     1      80.933  79.670  77.303  1.00  0.00     0.169 A 
ATOM     22  C   UNL     1      81.876  79.004  76.502  1.00  0.00     0.162 A 
BRANCH  13  23
ATOM     23  O   UNL     1      82.263  81.526  80.918  1.00  0.00    -0.507 OA
ATOM     24  H   UNL     1      82.474  82.201  81.641  1.00  0.00     0.293 HD
ENDBRANCH  13  23
BRANCH  19  25
ATOM     25  C   UNL     1      80.335  81.281  79.085  1.00  0.00     0.264 C 
ATOM     26  O   UNL     1      79.496  80.763  79.867  1.00  0.00    -0.298 OA
ENDBRANCH  19  25
BRANCH  20  27
ATOM     27  C   UNL     1      84.252  78.764  75.602  1.00  0.00     0.017 C 
ATOM     28  C   UNL     1      84.411  77.241  75.660  1.00  0.00     0.012 C 
ATOM     29  C   UNL     1      83.922  79.237  74.173  1.00  0.00     0.012 C 
ENDBRANCH  20  27
BRANCH  21  30
ATOM     30  O   UNL     1      79.567  79.609  77.002  1.00  0.00    -0.504 OA
ATOM     31  H   UNL     1      79.113  80.193  76.313  1.00  0.00     0.293 HD
ENDBRANCH  21  30
BRANCH  22  32
ATOM     32  O   UNL     1      81.463  78.076  75.543  1.00  0.00    -0.504 OA
ATOM     33  H   UNL     1      81.717  78.121  74.565  1.00  0.00     0.293 HD
ENDBRANCH  22  32
ENDBRANCH  11  12
BRANCH  10  34
ATOM     34  O   UNL     1      85.119  83.982  80.335  1.00  0.00    -0.507 OA
ATOM     35  H   UNL     1      84.210  84.128  79.913  1.00  0.00     0.293 HD
ENDBRANCH  10  34
BRANCH   9  36
ATOM     36  C   UNL     1      85.786  83.075  86.492  1.00  0.00     0.017 C 
ATOM     37  C   UNL     1      87.101  82.688  87.177  1.00  0.00     0.012 C 
ATOM     38  C   UNL     1      84.876  83.879  87.439  1.00  0.00     0.012 C 
ENDBRANCH   9  36
BRANCH   6  39
ATOM     39  C   UNL     1      86.506  85.971  81.456  1.00  0.00     0.264 C 
ATOM     40  O   UNL     1      85.734  86.906  81.118  1.00  0.00    -0.298 OA
ENDBRANCH   6  39
BRANCH   8  41
ATOM     41  O   UNL     1      87.064  85.629  86.315  1.00  0.00    -0.504 OA
ATOM     42  H   UNL     1      86.526  85.737  87.162  1.00  0.00     0.293 HD
ENDBRANCH   8  41
BRANCH   7  43
ATOM     43  O   UNL     1      87.117  87.125  83.887  1.00  0.00    -0.504 OA
ATOM     44  H   UNL     1      88.010  87.416  83.517  1.00  0.00     0.293 HD
ENDBRANCH   7  43
TORSDOF 11
ENDMDL
MODEL 4
REMARK VINA RESULT:    -0.682      3.873      9.131
REMARK INTER + INTRA:          -2.514
REMARK INTER:                  -1.025
REMARK INTRA:                  -1.489
REMARK UNBOUND:                -1.513
REMARK SMILES Cc1cc2c(C(C)C)c(O)c(O)c(C=O)c2c(O)c1-c1c(C)cc2c(C(C)C)c(O)c(O)c(C=O)c2c1O
REMARK SMILES IDX 1 1 2 2 3 3 4 4 16 5 13 6 11 7 9 8 5 9 17 10 19 11 20 12
REMARK SMILES IDX 37 13 21 14 36 15 23 16 22 17 24 18 33 19 25 20 31 21 29 22
REMARK SMILES IDX 38 23 34 25 35 26 26 27 27 28 28 29 32 30 30 32 18 34 6 36
REMARK SMILES IDX 7 37 8 38 14 39 15 40 10 41 12 43
REMARK H PARENT 38 24 32 31 30 33 18 35 10 42 12 44
REMARK Flexibility Score: inf
ROOT
ATOM      1  C   UNL     1      80.560  82.778  84.385  1.00  0.00     0.045 C 
ATOM      2  C   UNL     1      81.772  83.671  84.279  1.00  0.00    -0.039 A 
ATOM      3  C   UNL     1      82.265  84.300  85.422  1.00  0.00     0.013 A 
ATOM      4  C   UNL     1      83.396  85.144  85.380  1.00  0.00    -0.006 A 
ATOM      5  C   UNL     1      84.138  85.229  84.166  1.00  0.00     0.039 A 
ATOM      6  C   UNL     1      85.402  85.887  84.174  1.00  0.00     0.072 A 
ATOM      7  C   UNL     1      85.875  86.494  85.354  1.00  0.00     0.169 A 
ATOM      8  C   UNL     1      85.106  86.457  86.533  1.00  0.00     0.162 A 
ATOM      9  C   UNL     1      83.819  85.875  86.531  1.00  0.00     0.008 A 
ATOM     10  C   UNL     1      83.577  84.671  82.978  1.00  0.00     0.132 A 
ATOM     11  C   UNL     1      82.405  83.887  83.044  1.00  0.00     0.031 A 
ENDROOT
BRANCH  11  12
ATOM     12  C   UNL     1      81.839  83.277  81.811  1.00  0.00     0.031 A 
ATOM     13  C   UNL     1      82.295  82.016  81.371  1.00  0.00     0.132 A 
ATOM     14  C   UNL     1      80.876  83.975  81.067  1.00  0.00    -0.039 A 
ATOM     15  C   UNL     1      81.718  81.401  80.220  1.00  0.00     0.039 A 
ATOM     16  C   UNL     1      80.391  83.424  79.880  1.00  0.00     0.013 A 
ATOM     17  C   UNL     1      80.418  85.353  81.480  1.00  0.00     0.045 C 
ATOM     18  C   UNL     1      80.761  82.129  79.451  1.00  0.00    -0.006 A 
ATOM     19  C   UNL     1      82.102  80.098  79.788  1.00  0.00     0.072 A 
ATOM     20  C   UNL     1      80.230  81.567  78.248  1.00  0.00     0.008 A 
ATOM     21  C   UNL     1      81.689  79.627  78.528  1.00  0.00     0.169 A 
ATOM     22  C   UNL     1      80.829  80.399  77.729  1.00  0.00     0.162 A 
BRANCH  13  23
ATOM     23  O   UNL     1      83.353  81.398  82.047  1.00  0.00    -0.507 OA
ATOM     24  H   UNL     1      83.275  80.515  82.533  1.00  0.00     0.293 HD
ENDBRANCH  13  23
BRANCH  19  25
ATOM     25  C   UNL     1      82.855  79.168  80.664  1.00  0.00     0.264 C 
ATOM     26  O   UNL     1      84.075  78.928  80.467  1.00  0.00    -0.298 OA
ENDBRANCH  19  25
BRANCH  20  27
ATOM     27  C   UNL     1      79.068  82.231  77.487  1.00  0.00     0.017 C 
ATOM     28  C   UNL     1      79.571  82.922  76.215  1.00  0.00     0.012 C 
ATOM     29  C   UNL     1      77.898  81.277  77.178  1.00  0.00     0.012 C 
ENDBRANCH  20  27
BRANCH  21  30
ATOM     30  O   UNL     1      82.106  78.357  78.113  1.00  0.00    -0.504 OA
ATOM     31  H   UNL     1      82.260  77.579  78.739  1.00  0.00     0.293 HD
ENDBRANCH  21  30
BRANCH  22  32
ATOM     32  O   UNL     1      80.568  80.030  76.407  1.00  0.00    -0.504 OA
ATOM     33  H   UNL     1      80.323  79.092  76.119  1.00  0.00     0.293 HD
ENDBRANCH  22  32
ENDBRANCH  11  12
BRANCH  10  34
ATOM     34  O   UNL     1      84.162  84.926  81.733  1.00  0.00    -0.507 OA
ATOM     35  H   UNL     1      84.844  84.320  81.294  1.00  0.00     0.293 HD
ENDBRANCH  10  34
BRANCH   9  36
ATOM     36  C   UNL     1      82.911  86.021  87.767  1.00  0.00     0.017 C 
ATOM     37  C   UNL     1      81.579  86.678  87.393  1.00  0.00     0.012 C 
ATOM     38  C   UNL     1      82.692  84.705  88.536  1.00  0.00     0.012 C 
ENDBRANCH   9  36
BRANCH   6  39
ATOM     39  C   UNL     1      86.319  85.848  83.011  1.00  0.00     0.264 C 
ATOM     40  O   UNL     1      86.490  86.863  82.285  1.00  0.00    -0.298 OA
ENDBRANCH   6  39
BRANCH   8  41
ATOM     41  O   UNL     1      85.616  86.956  87.735  1.00  0.00    -0.504 OA
ATOM     42  H   UNL     1      86.596  86.997  87.974  1.00  0.00     0.293 HD
ENDBRANCH   8  41
BRANCH   7  43
ATOM     43  O   UNL     1      87.125  87.125  85.320  1.00  0.00    -0.504 OA
ATOM     44  H   UNL     1      87.313  88.009  84.872  1.00  0.00     0.293 HD
ENDBRANCH   7  43
TORSDOF 11
ENDMDL
MODEL 5
REMARK VINA RESULT:    -0.672      3.269      9.100
REMARK INTER + INTRA:          -2.499
REMARK INTER:                  -1.010
REMARK INTRA:                  -1.489
REMARK UNBOUND:                -1.513
REMARK SMILES Cc1cc2c(C(C)C)c(O)c(O)c(C=O)c2c(O)c1-c1c(C)cc2c(C(C)C)c(O)c(O)c(C=O)c2c1O
REMARK SMILES IDX 1 1 2 2 3 3 4 4 16 5 13 6 11 7 9 8 5 9 17 10 19 11 20 12
REMARK SMILES IDX 37 13 21 14 36 15 23 16 22 17 24 18 33 19 25 20 31 21 29 22
REMARK SMILES IDX 38 23 34 25 35 26 26 27 27 28 28 29 32 30 30 32 18 34 6 36
REMARK SMILES IDX 7 37 8 38 14 39 15 40 10 41 12 43
REMARK H PARENT 38 24 32 31 30 33 18 35 10 42 12 44
REMARK Flexibility Score: inf
ROOT
ATOM      1  C   UNL     1      81.192  82.000  85.497  1.00  0.00     0.045 C 
ATOM      2  C   UNL     1      82.164  83.055  85.028  1.00  0.00    -0.039 A 
ATOM      3  C   UNL     1      83.020  83.659  85.950  1.00  0.00     0.013 A 
ATOM      4  C   UNL     1      83.950  84.650  85.565  1.00  0.00    -0.006 A 
ATOM      5  C   UNL     1      84.117  84.926  84.177  1.00  0.00     0.039 A 
ATOM      6  C   UNL     1      85.206  85.748  83.763  1.00  0.00     0.072 A 
ATOM      7  C   UNL     1      86.061  86.324  84.722  1.00  0.00     0.169 A 
ATOM      8  C   UNL     1      85.849  86.094  86.095  1.00  0.00     0.162 A 
ATOM      9  C   UNL     1      84.736  85.344  86.534  1.00  0.00     0.008 A 
ATOM     10  C   UNL     1      83.174  84.386  83.251  1.00  0.00     0.132 A 
ATOM     11  C   UNL     1      82.212  83.447  83.680  1.00  0.00     0.031 A 
ENDROOT
BRANCH  11  12
ATOM     12  C   UNL     1      81.251  82.859  82.709  1.00  0.00     0.031 A 
ATOM     13  C   UNL     1      81.596  81.698  81.985  1.00  0.00     0.132 A 
ATOM     14  C   UNL     1      80.013  83.482  82.489  1.00  0.00    -0.039 A 
ATOM     15  C   UNL     1      80.659  81.097  81.092  1.00  0.00     0.039 A 
ATOM     16  C   UNL     1      79.140  82.959  81.534  1.00  0.00     0.013 A 
ATOM     17  C   UNL     1      79.646  84.761  83.203  1.00  0.00     0.045 C 
ATOM     18  C   UNL     1      79.414  81.753  80.851  1.00  0.00    -0.006 A 
ATOM     19  C   UNL     1      80.947  79.885  80.399  1.00  0.00     0.072 A 
ATOM     20  C   UNL     1      78.493  81.215  79.899  1.00  0.00     0.008 A 
ATOM     21  C   UNL     1      80.102  79.456  79.359  1.00  0.00     0.169 A 
ATOM     22  C   UNL     1      78.930  80.169  79.056  1.00  0.00     0.162 A 
BRANCH  13  23
ATOM     23  O   UNL     1      82.886  81.171  82.115  1.00  0.00    -0.507 OA
ATOM     24  H   UNL     1      83.571  81.160  81.370  1.00  0.00     0.293 HD
ENDBRANCH  13  23
BRANCH  19  25
ATOM     25  C   UNL     1      82.066  78.997  80.797  1.00  0.00     0.264 C 
ATOM     26  O   UNL     1      83.126  78.940  80.120  1.00  0.00    -0.298 OA
ENDBRANCH  19  25
BRANCH  20  27
ATOM     27  C   UNL     1      77.071  81.780  79.737  1.00  0.00     0.017 C 
ATOM     28  C   UNL     1      76.956  82.616  78.458  1.00  0.00     0.012 C 
ATOM     29  C   UNL     1      75.962  80.712  79.807  1.00  0.00     0.012 C 
ENDBRANCH  20  27
BRANCH  21  30
ATOM     30  O   UNL     1      80.423  78.279  78.672  1.00  0.00    -0.504 OA
ATOM     31  H   UNL     1      81.246  77.723  78.856  1.00  0.00     0.293 HD
ENDBRANCH  21  30
BRANCH  22  32
ATOM     32  O   UNL     1      78.189  79.863  77.912  1.00  0.00    -0.504 OA
ATOM     33  H   UNL     1      77.268  79.446  77.928  1.00  0.00     0.293 HD
ENDBRANCH  22  32
ENDBRANCH  11  12
BRANCH  10  34
ATOM     34  O   UNL     1      83.171  84.810  81.918  1.00  0.00    -0.507 OA
ATOM     35  H   UNL     1      83.765  85.546  81.557  1.00  0.00     0.293 HD
ENDBRANCH  10  34
BRANCH   9  36
ATOM     36  C   UNL     1      84.405  85.273  88.037  1.00  0.00     0.017 C 
ATOM     37  C   UNL     1      82.988  85.787  88.310  1.00  0.00     0.012 C 
ATOM     38  C   UNL     1      84.626  83.880  88.656  1.00  0.00     0.012 C 
ENDBRANCH   9  36
BRANCH   6  39
ATOM     39  C   UNL     1      85.564  85.921  82.336  1.00  0.00     0.264 C 
ATOM     40  O   UNL     1      85.328  87.001  81.733  1.00  0.00    -0.298 OA
ENDBRANCH   6  39
BRANCH   8  41
ATOM     41  O   UNL     1      86.758  86.568  87.047  1.00  0.00    -0.504 OA
ATOM     42  H   UNL     1      86.880  86.181  87.971  1.00  0.00     0.293 HD
ENDBRANCH   8  41
BRANCH   7  43
ATOM     43  O   UNL     1      87.121  87.120  84.272  1.00  0.00    -0.504 OA
ATOM     44  H   UNL     1      88.061  86.789  84.109  1.00  0.00     0.293 HD
ENDBRANCH   7  43
TORSDOF 11
ENDMDL
MODEL 6
REMARK VINA RESULT:    -0.669      4.106      6.417
REMARK INTER + INTRA:          -2.495
REMARK INTER:                  -1.144
REMARK INTRA:                  -1.351
REMARK UNBOUND:                -1.513
REMARK SMILES Cc1cc2c(C(C)C)c(O)c(O)c(C=O)c2c(O)c1-c1c(C)cc2c(C(C)C)c(O)c(O)c(C=O)c2c1O
REMARK SMILES IDX 1 1 2 2 3 3 4 4 16 5 13 6 11 7 9 8 5 9 17 10 19 11 20 12
REMARK SMILES IDX 37 13 21 14 36 15 23 16 22 17 24 18 33 19 25 20 31 21 29 22
REMARK SMILES IDX 38 23 34 25 35 26 26 27 27 28 28 29 32 30 30 32 18 34 6 36
REMARK SMILES IDX 7 37 8 38 14 39 15 40 10 41 12 43
REMARK H PARENT 38 24 32 31 30 33 18 35 10 42 12 44
REMARK Flexibility Score: inf
ROOT
ATOM      1  C   UNL     1      79.387  86.129  84.538  1.00  0.00     0.045 C 
ATOM      2  C   UNL     1      79.346  84.783  85.218  1.00  0.00    -0.039 A 
ATOM      3  C   UNL     1      78.204  84.404  85.924  1.00  0.00     0.013 A 
ATOM      4  C   UNL     1      78.111  83.155  86.577  1.00  0.00    -0.006 A 
ATOM      5  C   UNL     1      79.152  82.203  86.379  1.00  0.00     0.039 A 
ATOM      6  C   UNL     1      78.962  80.867  86.838  1.00  0.00     0.072 A 
ATOM      7  C   UNL     1      77.786  80.518  87.530  1.00  0.00     0.169 A 
ATOM      8  C   UNL     1      76.789  81.483  87.774  1.00  0.00     0.162 A 
ATOM      9  C   UNL     1      76.986  82.829  87.394  1.00  0.00     0.008 A 
ATOM     10  C   UNL     1      80.358  82.627  85.746  1.00  0.00     0.132 A 
ATOM     11  C   UNL     1      80.444  83.908  85.160  1.00  0.00     0.031 A 
ENDROOT
BRANCH  11  12
ATOM     12  C   UNL     1      81.690  84.338  84.472  1.00  0.00     0.031 A 
ATOM     13  C   UNL     1      82.710  84.992  85.195  1.00  0.00     0.132 A 
ATOM     14  C   UNL     1      81.835  84.121  83.093  1.00  0.00    -0.039 A 
ATOM     15  C   UNL     1      83.931  85.359  84.553  1.00  0.00     0.039 A 
ATOM     16  C   UNL     1      82.982  84.578  82.441  1.00  0.00     0.013 A 
ATOM     17  C   UNL     1      80.733  83.481  82.284  1.00  0.00     0.045 C 
ATOM     18  C   UNL     1      84.059  85.163  83.145  1.00  0.00    -0.006 A 
ATOM     19  C   UNL     1      85.010  85.956  85.268  1.00  0.00     0.072 A 
ATOM     20  C   UNL     1      85.239  85.596  82.465  1.00  0.00     0.008 A 
ATOM     21  C   UNL     1      86.093  86.514  84.564  1.00  0.00     0.169 A 
ATOM     22  C   UNL     1      86.158  86.409  83.163  1.00  0.00     0.162 A 
BRANCH  13  23
ATOM     23  O   UNL     1      82.490  85.324  86.537  1.00  0.00    -0.507 OA
ATOM     24  H   UNL     1      82.249  86.252  86.858  1.00  0.00     0.293 HD
ENDBRANCH  13  23
BRANCH  19  25
ATOM     25  C   UNL     1      85.083  85.932  86.749  1.00  0.00     0.264 C 
ATOM     26  O   UNL     1      84.920  86.980  87.428  1.00  0.00    -0.298 OA
ENDBRANCH  19  25
BRANCH  20  27
ATOM     27  C   UNL     1      85.501  85.247  80.989  1.00  0.00     0.017 C 
ATOM     28  C   UNL     1      85.267  86.463  80.088  1.00  0.00     0.012 C 
ATOM     29  C   UNL     1      86.884  84.619  80.731  1.00  0.00     0.012 C 
ENDBRANCH  20  27
BRANCH  21  30
ATOM     30  O   UNL     1      87.125  87.124  85.286  1.00  0.00    -0.504 OA
ATOM     31  H   UNL     1      87.080  88.064  85.652  1.00  0.00     0.293 HD
ENDBRANCH  21  30
BRANCH  22  32
ATOM     32  O   UNL     1      87.124  87.118  82.445  1.00  0.00    -0.504 OA
ATOM     33  H   UNL     1      88.039  87.352  82.804  1.00  0.00     0.293 HD
ENDBRANCH  22  32
ENDBRANCH  11  12
BRANCH  10  34
ATOM     34  O   UNL     1      81.481  81.791  85.732  1.00  0.00    -0.507 OA
ATOM     35  H   UNL     1      82.074  81.654  84.923  1.00  0.00     0.293 HD
ENDBRANCH  10  34
BRANCH   9  36
ATOM     36  C   UNL     1      75.982  83.906  87.847  1.00  0.00     0.017 C 
ATOM     37  C   UNL     1      76.688  85.016  88.633  1.00  0.00     0.012 C 
ATOM     38  C   UNL     1      75.132  84.484  86.701  1.00  0.00     0.012 C 
ENDBRANCH   9  36
BRANCH   6  39
ATOM     39  C   UNL     1      79.905  79.775  86.499  1.00  0.00     0.264 C 
ATOM     40  O   UNL     1      80.480  79.112  87.401  1.00  0.00    -0.298 OA
ENDBRANCH   6  39
BRANCH   8  41
ATOM     41  O   UNL     1      75.572  81.121  88.359  1.00  0.00    -0.504 OA
ATOM     42  H   UNL     1      74.664  81.290  87.953  1.00  0.00     0.293 HD
ENDBRANCH   8  41
BRANCH   7  43
ATOM     43  O   UNL     1      77.636  79.193  87.958  1.00  0.00    -0.504 OA
ATOM     44  H   UNL     1      78.352  78.485  87.900  1.00  0.00     0.293 HD
ENDBRANCH   7  43
TORSDOF 11
ENDMDL
MODEL 7
REMARK VINA RESULT:    -0.664      3.602      9.157
REMARK INTER + INTRA:          -2.487
REMARK INTER:                  -1.032
REMARK INTRA:                  -1.455
REMARK UNBOUND:                -1.513
REMARK SMILES Cc1cc2c(C(C)C)c(O)c(O)c(C=O)c2c(O)c1-c1c(C)cc2c(C(C)C)c(O)c(O)c(C=O)c2c1O
REMARK SMILES IDX 1 1 2 2 3 3 4 4 16 5 13 6 11 7 9 8 5 9 17 10 19 11 20 12
REMARK SMILES IDX 37 13 21 14 36 15 23 16 22 17 24 18 33 19 25 20 31 21 29 22
REMARK SMILES IDX 38 23 34 25 35 26 26 27 27 28 28 29 32 30 30 32 18 34 6 36
REMARK SMILES IDX 7 37 8 38 14 39 15 40 10 41 12 43
REMARK H PARENT 38 24 32 31 30 33 18 35 10 42 12 44
REMARK Flexibility Score: inf
ROOT
ATOM      1  C   UNL     1      81.189  81.870  84.897  1.00  0.00     0.045 C 
ATOM      2  C   UNL     1      82.232  82.902  84.541  1.00  0.00    -0.039 A 
ATOM      3  C   UNL     1      82.780  83.700  85.545  1.00  0.00     0.013 A 
ATOM      4  C   UNL     1      83.760  84.678  85.268  1.00  0.00    -0.006 A 
ATOM      5  C   UNL     1      84.308  84.742  83.954  1.00  0.00     0.039 A 
ATOM      6  C   UNL     1      85.451  85.560  83.721  1.00  0.00     0.072 A 
ATOM      7  C   UNL     1      85.988  86.337  84.766  1.00  0.00     0.169 A 
ATOM      8  C   UNL     1      85.403  86.313  86.046  1.00  0.00     0.162 A 
ATOM      9  C   UNL     1      84.226  85.568  86.283  1.00  0.00     0.008 A 
ATOM     10  C   UNL     1      83.676  84.000  82.911  1.00  0.00     0.132 A 
ATOM     11  C   UNL     1      82.651  83.078  83.211  1.00  0.00     0.031 A 
ENDROOT
BRANCH  11  12
ATOM     12  C   UNL     1      82.016  82.281  82.128  1.00  0.00     0.031 A 
ATOM     13  C   UNL     1      80.858  82.761  81.481  1.00  0.00     0.132 A 
ATOM     14  C   UNL     1      82.552  81.033  81.775  1.00  0.00    -0.039 A 
ATOM     15  C   UNL     1      80.274  82.029  80.404  1.00  0.00     0.039 A 
ATOM     16  C   UNL     1      81.918  80.264  80.798  1.00  0.00     0.013 A 
ATOM     17  C   UNL     1      83.752  80.467  82.495  1.00  0.00     0.045 C 
ATOM     18  C   UNL     1      80.807  80.746  80.071  1.00  0.00    -0.006 A 
ATOM     19  C   UNL     1      79.148  82.517  79.681  1.00  0.00     0.072 A 
ATOM     20  C   UNL     1      80.189  79.957  79.051  1.00  0.00     0.008 A 
ATOM     21  C   UNL     1      78.463  81.668  78.793  1.00  0.00     0.169 A 
ATOM     22  C   UNL     1      78.934  80.366  78.550  1.00  0.00     0.162 A 
BRANCH  13  23
ATOM     23  O   UNL     1      80.258  83.940  81.940  1.00  0.00    -0.507 OA
ATOM     24  H   UNL     1      79.465  84.382  81.494  1.00  0.00     0.293 HD
ENDBRANCH  13  23
BRANCH  19  25
ATOM     25  C   UNL     1      78.716  83.934  79.758  1.00  0.00     0.264 C 
ATOM     26  O   UNL     1      77.670  84.266  80.375  1.00  0.00    -0.298 OA
ENDBRANCH  19  25
BRANCH  20  27
ATOM     27  C   UNL     1      80.829  78.657  78.533  1.00  0.00     0.017 C 
ATOM     28  C   UNL     1      80.088  77.429  79.073  1.00  0.00     0.012 C 
ATOM     29  C   UNL     1      80.966  78.596  76.999  1.00  0.00     0.012 C 
ENDBRANCH  20  27
BRANCH  21  30
ATOM     30  O   UNL     1      77.340  82.161  78.119  1.00  0.00    -0.504 OA
ATOM     31  H   UNL     1      76.389  82.039  78.439  1.00  0.00     0.293 HD
ENDBRANCH  21  30
BRANCH  22  32
ATOM     32  O   UNL     1      78.162  79.457  77.823  1.00  0.00    -0.504 OA
ATOM     33  H   UNL     1      77.186  79.266  78.009  1.00  0.00     0.293 HD
ENDBRANCH  22  32
ENDBRANCH  11  12
BRANCH  10  34
ATOM     34  O   UNL     1      84.040  84.208  81.575  1.00  0.00    -0.507 OA
ATOM     35  H   UNL     1      84.866  84.717  81.288  1.00  0.00     0.293 HD
ENDBRANCH  10  34
BRANCH   9  36
ATOM     36  C   UNL     1      83.486  85.712  87.626  1.00  0.00     0.017 C 
ATOM     37  C   UNL     1      84.365  85.244  88.789  1.00  0.00     0.012 C 
ATOM     38  C   UNL     1      82.927  87.125  87.878  1.00  0.00     0.012 C 
ENDBRANCH   9  36
BRANCH   6  39
ATOM     39  C   UNL     1      86.195  85.530  82.440  1.00  0.00     0.264 C 
ATOM     40  O   UNL     1      86.123  86.487  81.625  1.00  0.00    -0.298 OA
ENDBRANCH   6  39
BRANCH   8  41
ATOM     41  O   UNL     1      85.995  86.991  87.116  1.00  0.00    -0.504 OA
ATOM     42  H   UNL     1      85.935  86.709  88.083  1.00  0.00     0.293 HD
ENDBRANCH   8  41
BRANCH   7  43
ATOM     43  O   UNL     1      87.116  87.122  84.497  1.00  0.00    -0.504 OA
ATOM     44  H   UNL     1      87.103  87.996  83.993  1.00  0.00     0.293 HD
ENDBRANCH   7  43
TORSDOF 11
ENDMDL
MODEL 8
REMARK VINA RESULT:    -0.642      9.943     12.927
REMARK INTER + INTRA:          -2.456
REMARK INTER:                  -0.973
REMARK INTRA:                  -1.483
REMARK UNBOUND:                -1.513
REMARK SMILES Cc1cc2c(C(C)C)c(O)c(O)c(C=O)c2c(O)c1-c1c(C)cc2c(C(C)C)c(O)c(O)c(C=O)c2c1O
REMARK SMILES IDX 1 1 2 2 3 3 4 4 16 5 13 6 11 7 9 8 5 9 17 10 19 11 20 12
REMARK SMILES IDX 37 13 21 14 36 15 23 16 22 17 24 18 33 19 25 20 31 21 29 22
REMARK SMILES IDX 38 23 34 25 35 26 26 27 27 28 28 29 32 30 30 32 18 34 6 36
REMARK SMILES IDX 7 37 8 38 14 39 15 40 10 41 12 43
REMARK H PARENT 38 24 32 31 30 33 18 35 10 42 12 44
REMARK Flexibility Score: inf
ROOT
ATOM      1  C   UNL     1      72.696  81.506  83.085  1.00  0.00     0.045 C 
ATOM      2  C   UNL     1      73.888  82.428  83.152  1.00  0.00    -0.039 A 
ATOM      3  C   UNL     1      75.135  81.973  82.724  1.00  0.00     0.013 A 
ATOM      4  C   UNL     1      76.283  82.794  82.763  1.00  0.00    -0.006 A 
ATOM      5  C   UNL     1      76.126  84.169  83.105  1.00  0.00     0.039 A 
ATOM      6  C   UNL     1      77.228  85.055  82.924  1.00  0.00     0.072 A 
ATOM      7  C   UNL     1      78.466  84.560  82.472  1.00  0.00     0.169 A 
ATOM      8  C   UNL     1      78.628  83.189  82.194  1.00  0.00     0.162 A 
ATOM      9  C   UNL     1      77.574  82.280  82.435  1.00  0.00     0.008 A 
ATOM     10  C   UNL     1      74.876  84.605  83.638  1.00  0.00     0.132 A 
ATOM     11  C   UNL     1      73.763  83.737  83.648  1.00  0.00     0.031 A 
ENDROOT
BRANCH  11  12
ATOM     12  C   UNL     1      72.452  84.202  84.173  1.00  0.00     0.031 A 
ATOM     13  C   UNL     1      71.544  84.867  83.323  1.00  0.00     0.132 A 
ATOM     14  C   UNL     1      72.135  84.009  85.526  1.00  0.00    -0.039 A 
ATOM     15  C   UNL     1      70.262  85.268  83.805  1.00  0.00     0.039 A 
ATOM     16  C   UNL     1      70.927  84.499  86.027  1.00  0.00     0.013 A 
ATOM     17  C   UNL     1      73.115  83.357  86.472  1.00  0.00     0.045 C 
ATOM     18  C   UNL     1      69.958  85.095  85.189  1.00  0.00    -0.006 A 
ATOM     19  C   UNL     1      69.293  85.878  82.956  1.00  0.00     0.072 A 
ATOM     20  C   UNL     1      68.713  85.564  85.713  1.00  0.00     0.008 A 
ATOM     21  C   UNL     1      68.144  86.468  83.515  1.00  0.00     0.169 A 
ATOM     22  C   UNL     1      67.905  86.385  84.898  1.00  0.00     0.162 A 
BRANCH  13  23
ATOM     23  O   UNL     1      71.934  85.174  82.014  1.00  0.00    -0.507 OA
ATOM     24  H   UNL     1      72.014  84.491  81.272  1.00  0.00     0.293 HD
ENDBRANCH  13  23
BRANCH  19  25
ATOM     25  C   UNL     1      69.401  85.834  81.478  1.00  0.00     0.264 C 
ATOM     26  O   UNL     1      69.683  86.865  80.813  1.00  0.00    -0.298 OA
ENDBRANCH  19  25
BRANCH  20  27
ATOM     27  C   UNL     1      68.265  85.241  87.150  1.00  0.00     0.017 C 
ATOM     28  C   UNL     1      68.320  86.491  88.035  1.00  0.00     0.012 C 
ATOM     29  C   UNL     1      66.887  84.556  87.236  1.00  0.00     0.012 C 
ENDBRANCH  20  27
BRANCH  21  30
ATOM     30  O   UNL     1      67.223  87.089  82.664  1.00  0.00    -0.504 OA
ATOM     31  H   UNL     1      67.004  88.075  82.690  1.00  0.00     0.293 HD
ENDBRANCH  21  30
BRANCH  22  32
ATOM     32  O   UNL     1      66.875  87.125  85.484  1.00  0.00    -0.504 OA
ATOM     33  H   UNL     1      66.003  86.726  85.804  1.00  0.00     0.293 HD
ENDBRANCH  22  32
ENDBRANCH  11  12
BRANCH  10  34
ATOM     34  O   UNL     1      74.751  85.884  84.191  1.00  0.00    -0.507 OA
ATOM     35  H   UNL     1      74.756  86.738  83.647  1.00  0.00     0.293 HD
ENDBRANCH  10  34
BRANCH   9  36
ATOM     36  C   UNL     1      77.829  80.765  82.321  1.00  0.00     0.017 C 
ATOM     37  C   UNL     1      77.493  80.053  83.636  1.00  0.00     0.012 C 
ATOM     38  C   UNL     1      77.118  80.103  81.127  1.00  0.00     0.012 C 
ENDBRANCH   9  36
BRANCH   6  39
ATOM     39  C   UNL     1      77.090  86.523  83.067  1.00  0.00     0.264 C 
ATOM     40  O   UNL     1      77.556  87.124  84.071  1.00  0.00    -0.298 OA
ENDBRANCH   6  39
BRANCH   8  41
ATOM     41  O   UNL     1      79.816  82.708  81.638  1.00  0.00    -0.504 OA
ATOM     42  H   UNL     1      80.643  83.262  81.473  1.00  0.00     0.293 HD
ENDBRANCH   8  41
BRANCH   7  43
ATOM     43  O   UNL     1      79.520  85.466  82.301  1.00  0.00    -0.504 OA
ATOM     44  H   UNL     1      79.410  86.444  82.078  1.00  0.00     0.293 HD
ENDBRANCH   7  43
TORSDOF 11
ENDMDL
MODEL 9
REMARK VINA RESULT:    -0.496      4.163      9.813
REMARK INTER + INTRA:          -2.242
REMARK INTER:                  -0.817
REMARK INTRA:                  -1.425
REMARK UNBOUND:                -1.513
REMARK SMILES Cc1cc2c(C(C)C)c(O)c(O)c(C=O)c2c(O)c1-c1c(C)cc2c(C(C)C)c(O)c(O)c(C=O)c2c1O
REMARK SMILES IDX 1 1 2 2 3 3 4 4 16 5 13 6 11 7 9 8 5 9 17 10 19 11 20 12
REMARK SMILES IDX 37 13 21 14 36 15 23 16 22 17 24 18 33 19 25 20 31 21 29 22
REMARK SMILES IDX 38 23 34 25 35 26 26 27 27 28 28 29 32 30 30 32 18 34 6 36
REMARK SMILES IDX 7 37 8 38 14 39 15 40 10 41 12 43
REMARK H PARENT 38 24 32 31 30 33 18 35 10 42 12 44
REMARK Flexibility Score: inf
ROOT
ATOM      1  C   UNL     1      81.988  84.833  79.947  1.00  0.00     0.045 C 
ATOM      2  C   UNL     1      82.412  85.051  81.379  1.00  0.00    -0.039 A 
ATOM      3  C   UNL     1      83.706  85.497  81.654  1.00  0.00     0.013 A 
ATOM      4  C   UNL     1      84.153  85.719  82.974  1.00  0.00    -0.006 A 
ATOM      5  C   UNL     1      83.209  85.632  84.038  1.00  0.00     0.039 A 
ATOM      6  C   UNL     1      83.590  86.077  85.337  1.00  0.00     0.072 A 
ATOM      7  C   UNL     1      84.900  86.538  85.570  1.00  0.00     0.169 A 
ATOM      8  C   UNL     1      85.844  86.564  84.525  1.00  0.00     0.162 A 
ATOM      9  C   UNL     1      85.513  86.060  83.248  1.00  0.00     0.008 A 
ATOM     10  C   UNL     1      81.921  85.079  83.768  1.00  0.00     0.132 A 
ATOM     11  C   UNL     1      81.527  84.803  82.442  1.00  0.00     0.031 A 
ENDROOT
BRANCH  11  12
ATOM     12  C   UNL     1      80.173  84.259  82.158  1.00  0.00     0.031 A 
ATOM     13  C   UNL     1      79.973  82.864  82.072  1.00  0.00     0.132 A 
ATOM     14  C   UNL     1      79.099  85.136  81.943  1.00  0.00    -0.039 A 
ATOM     15  C   UNL     1      78.667  82.332  81.854  1.00  0.00     0.039 A 
ATOM     16  C   UNL     1      77.843  84.621  81.620  1.00  0.00     0.013 A 
ATOM     17  C   UNL     1      79.298  86.633  81.966  1.00  0.00     0.045 C 
ATOM     18  C   UNL     1      77.586  83.231  81.606  1.00  0.00    -0.006 A 
ATOM     19  C   UNL     1      78.417  80.929  81.832  1.00  0.00     0.072 A 
ATOM     20  C   UNL     1      76.285  82.721  81.304  1.00  0.00     0.008 A 
ATOM     21  C   UNL     1      77.174  80.446  81.385  1.00  0.00     0.169 A 
ATOM     22  C   UNL     1      76.147  81.341  81.039  1.00  0.00     0.162 A 
BRANCH  13  23
ATOM     23  O   UNL     1      81.080  82.010  82.151  1.00  0.00    -0.507 OA
ATOM     24  H   UNL     1      81.477  81.523  81.359  1.00  0.00     0.293 HD
ENDBRANCH  13  23
BRANCH  19  25
ATOM     25  C   UNL     1      79.396  79.946  82.358  1.00  0.00     0.264 C 
ATOM     26  O   UNL     1      80.093  79.241  81.582  1.00  0.00    -0.298 OA
ENDBRANCH  19  25
BRANCH  20  27
ATOM     27  C   UNL     1      75.055  83.642  81.209  1.00  0.00     0.017 C 
ATOM     28  C   UNL     1      74.566  83.754  79.761  1.00  0.00     0.012 C 
ATOM     29  C   UNL     1      73.905  83.249  82.157  1.00  0.00     0.012 C 
ENDBRANCH  20  27
BRANCH  21  30
ATOM     30  O   UNL     1      76.964  79.063  81.342  1.00  0.00    -0.504 OA
ATOM     31  H   UNL     1      77.294  78.463  80.599  1.00  0.00     0.293 HD
ENDBRANCH  21  30
BRANCH  22  32
ATOM     32  O   UNL     1      74.984  80.880  80.418  1.00  0.00    -0.504 OA
ATOM     33  H   UNL     1      74.059  80.956  80.819  1.00  0.00     0.293 HD
ENDBRANCH  22  32
ENDBRANCH  11  12
BRANCH  10  34
ATOM     34  O   UNL     1      81.051  84.770  84.820  1.00  0.00    -0.507 OA
ATOM     35  H   UNL     1      80.076  85.042  84.845  1.00  0.00     0.293 HD
ENDBRANCH  10  34
BRANCH   9  36
ATOM     36  C   UNL     1      86.610  85.907  82.178  1.00  0.00     0.017 C 
ATOM     37  C   UNL     1      86.689  84.461  81.677  1.00  0.00     0.012 C 
ATOM     38  C   UNL     1      86.479  86.899  81.007  1.00  0.00     0.012 C 
ENDBRANCH   9  36
BRANCH   6  39
ATOM     39  C   UNL     1      82.614  86.203  86.445  1.00  0.00     0.264 C 
ATOM     40  O   UNL     1      82.577  85.356  87.376  1.00  0.00    -0.298 OA
ENDBRANCH   6  39
BRANCH   8  41
ATOM     41  O   UNL     1      87.109  87.125  84.719  1.00  0.00    -0.504 OA
ATOM     42  H   UNL     1      87.934  86.886  84.189  1.00  0.00     0.293 HD
ENDBRANCH   8  41
BRANCH   7  43
ATOM     43  O   UNL     1      85.231  86.973  86.859  1.00  0.00    -0.504 OA
ATOM     44  H   UNL     1      84.599  87.447  87.488  1.00  0.00     0.293 HD
ENDBRANCH   7  43
TORSDOF 11
ENDMDL
