MODEL 1
REMARK VINA RESULT:    -4.627      0.000      0.000
REMARK INTER + INTRA:          -6.706
REMARK INTER:                  -6.250
REMARK INTRA:                  -0.455
REMARK UNBOUND:                -0.455
REMARK SMILES CCCCCCCC(=O)[O-]
REMARK SMILES IDX 5 1 6 2 7 3 8 4 9 5 10 6 4 7 3 8 2 9 1 10
REMARK H PARENT
REMARK Flexibility Score: inf
ROOT
ATOM      1  C   UNL     1      15.970   1.076  14.757  1.00  0.00     0.000 C 
ENDROOT
BRANCH   1   2
ATOM      2  C   UNL     1      16.530  -0.355  14.626  1.00  0.00     0.006 C 
BRANCH   2   3
ATOM      3  C   UNL     1      17.874  -0.439  13.879  1.00  0.00     0.053 C 
BRANCH   3   4
ATOM      4  C   UNL     1      19.016  -0.799  14.782  1.00  0.00     0.041 C 
ATOM      5  O   UNL     1      19.630  -1.887  14.627  1.00  0.00    -0.550 OA
ATOM      6  O   UNL     1      19.375   0.048  15.822  1.00  0.00    -0.550 OA
ENDBRANCH   3   4
ENDBRANCH   2   3
ENDBRANCH   1   2
BRANCH   1   7
ATOM      7  C   UNL     1      14.952   1.486  13.680  1.00  0.00     0.000 C 
BRANCH   7   8
ATOM      8  C   UNL     1      15.516   2.509  12.679  1.00  0.00    -0.000 C 
BRANCH   8   9
ATOM      9  C   UNL     1      15.920   1.864  11.344  1.00  0.00    -0.003 C 
ATOM     10  C   UNL     1      17.424   1.933  11.082  1.00  0.00     0.004 C 
ENDBRANCH   8   9
ENDBRANCH   7   8
ENDBRANCH   1   7
TORSDOF 6
ENDMDL
MODEL 2
REMARK VINA RESULT:    -4.586     13.147     14.506
REMARK INTER + INTRA:          -6.649
REMARK INTER:                  -6.222
REMARK INTRA:                  -0.427
REMARK UNBOUND:                -0.455
REMARK SMILES CCCCCCCC(=O)[O-]
REMARK SMILES IDX 5 1 6 2 7 3 8 4 9 5 10 6 4 7 3 8 2 9 1 10
REMARK H PARENT
REMARK Flexibility Score: inf
ROOT
ATOM      1  C   UNL     1      28.935  -2.641   5.728  1.00  0.00     0.000 C 
ENDROOT
BRANCH   1   2
ATOM      2  C   UNL     1      30.074  -3.386   6.453  1.00  0.00     0.006 C 
BRANCH   2   3
ATOM      3  C   UNL     1      31.374  -2.571   6.586  1.00  0.00     0.053 C 
BRANCH   3   4
ATOM      4  C   UNL     1      31.846  -2.462   8.005  1.00  0.00     0.041 C 
ATOM      5  O   UNL     1      31.324  -1.624   8.786  1.00  0.00    -0.550 OA
ATOM      6  O   UNL     1      32.893  -3.257   8.453  1.00  0.00    -0.550 OA
ENDBRANCH   3   4
ENDBRANCH   2   3
ENDBRANCH   1   2
BRANCH   1   7
ATOM      7  C   UNL     1      27.584  -2.627   6.463  1.00  0.00     0.000 C 
BRANCH   7   8
ATOM      8  C   UNL     1      27.091  -1.205   6.784  1.00  0.00    -0.000 C 
BRANCH   8   9
ATOM      9  C   UNL     1      28.228  -0.279   7.241  1.00  0.00    -0.003 C 
ATOM     10  C   UNL     1      28.201  -0.002   8.744  1.00  0.00     0.004 C 
ENDBRANCH   8   9
ENDBRANCH   7   8
ENDBRANCH   1   7
TORSDOF 6
ENDMDL
MODEL 3
REMARK VINA RESULT:    -4.577     12.612     14.113
REMARK INTER + INTRA:          -6.637
REMARK INTER:                  -6.148
REMARK INTRA:                  -0.489
REMARK UNBOUND:                -0.455
REMARK SMILES CCCCCCCC(=O)[O-]
REMARK SMILES IDX 5 1 6 2 7 3 8 4 9 5 10 6 4 7 3 8 2 9 1 10
REMARK H PARENT
REMARK Flexibility Score: inf
ROOT
ATOM      1  C   UNL     1      30.934  -1.152   6.712  1.00  0.00     0.000 C 
ENDROOT
BRANCH   1   2
ATOM      2  C   UNL     1      30.612   0.000   7.685  1.00  0.00     0.006 C 
BRANCH   2   3
ATOM      3  C   UNL     1      30.199  -0.463   9.094  1.00  0.00     0.053 C 
BRANCH   3   4
ATOM      4  C   UNL     1      28.917   0.162   9.556  1.00  0.00     0.041 C 
ATOM      5  O   UNL     1      27.977   0.359   8.742  1.00  0.00    -0.550 OA
ATOM      6  O   UNL     1      28.775   0.565  10.877  1.00  0.00    -0.550 OA
ENDBRANCH   3   4
ENDBRANCH   2   3
ENDBRANCH   1   2
BRANCH   1   7
ATOM      7  C   UNL     1      30.447  -2.543   7.152  1.00  0.00     0.000 C 
BRANCH   7   8
ATOM      8  C   UNL     1      29.711  -3.302   6.034  1.00  0.00    -0.000 C 
BRANCH   8   9
ATOM      9  C   UNL     1      28.487  -2.536   5.511  1.00  0.00    -0.003 C 
ATOM     10  C   UNL     1      27.365  -2.431   6.544  1.00  0.00     0.004 C 
ENDBRANCH   8   9
ENDBRANCH   7   8
ENDBRANCH   1   7
TORSDOF 6
ENDMDL
MODEL 4
REMARK VINA RESULT:    -4.573      2.658      3.744
REMARK INTER + INTRA:          -6.632
REMARK INTER:                  -6.276
REMARK INTRA:                  -0.356
REMARK UNBOUND:                -0.455
REMARK SMILES CCCCCCCC(=O)[O-]
REMARK SMILES IDX 5 1 6 2 7 3 8 4 9 5 10 6 4 7 3 8 2 9 1 10
REMARK H PARENT
REMARK Flexibility Score: inf
ROOT
ATOM      1  C   UNL     1      15.427   2.884  13.198  1.00  0.00     0.000 C 
ENDROOT
BRANCH   1   2
ATOM      2  C   UNL     1      14.802   2.366  14.509  1.00  0.00     0.006 C 
BRANCH   2   3
ATOM      3  C   UNL     1      15.816   1.738  15.484  1.00  0.00     0.053 C 
BRANCH   3   4
ATOM      4  C   UNL     1      15.793   2.384  16.837  1.00  0.00     0.041 C 
ATOM      5  O   UNL     1      15.368   3.561  16.972  1.00  0.00    -0.550 OA
ATOM      6  O   UNL     1      16.281   1.700  17.943  1.00  0.00    -0.550 OA
ENDBRANCH   3   4
ENDBRANCH   2   3
ENDBRANCH   1   2
BRANCH   1   7
ATOM      7  C   UNL     1      15.523   1.854  12.061  1.00  0.00     0.000 C 
BRANCH   7   8
ATOM      8  C   UNL     1      16.798   2.012  11.214  1.00  0.00    -0.000 C 
BRANCH   8   9
ATOM      9  C   UNL     1      17.678   0.753  11.236  1.00  0.00    -0.003 C 
ATOM     10  C   UNL     1      17.690   0.060  12.599  1.00  0.00     0.004 C 
ENDBRANCH   8   9
ENDBRANCH   7   8
ENDBRANCH   1   7
TORSDOF 6
ENDMDL
MODEL 5
REMARK VINA RESULT:    -4.542      1.242      2.414
REMARK INTER + INTRA:          -6.591
REMARK INTER:                  -6.314
REMARK INTRA:                  -0.276
REMARK UNBOUND:                -0.455
REMARK SMILES CCCCCCCC(=O)[O-]
REMARK SMILES IDX 5 1 6 2 7 3 8 4 9 5 10 6 4 7 3 8 2 9 1 10
REMARK H PARENT
REMARK Flexibility Score: inf
ROOT
ATOM      1  C   UNL     1      17.739   0.527  11.554  1.00  0.00     0.000 C 
ENDROOT
BRANCH   1   2
ATOM      2  C   UNL     1      17.512   0.004  12.987  1.00  0.00     0.006 C 
BRANCH   2   3
ATOM      3  C   UNL     1      18.721  -0.739  13.584  1.00  0.00     0.053 C 
BRANCH   3   4
ATOM      4  C   UNL     1      18.965  -0.385  15.021  1.00  0.00     0.041 C 
ATOM      5  O   UNL     1      17.996  -0.214  15.807  1.00  0.00    -0.550 OA
ATOM      6  O   UNL     1      20.261  -0.203  15.483  1.00  0.00    -0.550 OA
ENDBRANCH   3   4
ENDBRANCH   2   3
ENDBRANCH   1   2
BRANCH   1   7
ATOM      7  C   UNL     1      17.051   1.862  11.222  1.00  0.00     0.000 C 
BRANCH   7   8
ATOM      8  C   UNL     1      15.609   1.941  11.753  1.00  0.00    -0.000 C 
BRANCH   8   9
ATOM      9  C   UNL     1      15.440   3.019  12.835  1.00  0.00    -0.003 C 
ATOM     10  C   UNL     1      14.824   2.476  14.124  1.00  0.00     0.004 C 
ENDBRANCH   8   9
ENDBRANCH   7   8
ENDBRANCH   1   7
TORSDOF 6
ENDMDL
MODEL 6
REMARK VINA RESULT:    -4.541     12.174     13.311
REMARK INTER + INTRA:          -6.589
REMARK INTER:                  -6.160
REMARK INTRA:                  -0.429
REMARK UNBOUND:                -0.455
REMARK SMILES CCCCCCCC(=O)[O-]
REMARK SMILES IDX 5 1 6 2 7 3 8 4 9 5 10 6 4 7 3 8 2 9 1 10
REMARK H PARENT
REMARK Flexibility Score: inf
ROOT
ATOM      1  C   UNL     1      27.462  -1.084   7.630  1.00  0.00     0.000 C 
ENDROOT
BRANCH   1   2
ATOM      2  C   UNL     1      28.229   0.194   8.023  1.00  0.00     0.006 C 
BRANCH   2   3
ATOM      3  C   UNL     1      29.355  -0.038   9.047  1.00  0.00     0.053 C 
BRANCH   3   4
ATOM      4  C   UNL     1      28.995   0.443  10.421  1.00  0.00     0.041 C 
ATOM      5  O   UNL     1      29.100  -0.328  11.412  1.00  0.00    -0.550 OA
ATOM      6  O   UNL     1      28.503   1.728  10.603  1.00  0.00    -0.550 OA
ENDBRANCH   3   4
ENDBRANCH   2   3
ENDBRANCH   1   2
BRANCH   1   7
ATOM      7  C   UNL     1      27.414  -1.387   6.123  1.00  0.00     0.000 C 
BRANCH   7   8
ATOM      8  C   UNL     1      28.235  -2.628   5.734  1.00  0.00    -0.000 C 
BRANCH   8   9
ATOM      9  C   UNL     1      29.749  -2.369   5.780  1.00  0.00    -0.003 C 
ATOM     10  C   UNL     1      30.470  -3.240   6.810  1.00  0.00     0.004 C 
ENDBRANCH   8   9
ENDBRANCH   7   8
ENDBRANCH   1   7
TORSDOF 6
ENDMDL
MODEL 7
REMARK VINA RESULT:    -4.537      4.871      5.739
REMARK INTER + INTRA:          -6.583
REMARK INTER:                  -6.243
REMARK INTRA:                  -0.340
REMARK UNBOUND:                -0.455
REMARK SMILES CCCCCCCC(=O)[O-]
REMARK SMILES IDX 5 1 6 2 7 3 8 4 9 5 10 6 4 7 3 8 2 9 1 10
REMARK H PARENT
REMARK Flexibility Score: inf
ROOT
ATOM      1  C   UNL     1      15.819   0.260  20.088  1.00  0.00     0.000 C 
ENDROOT
BRANCH   1   2
ATOM      2  C   UNL     1      17.014  -0.172  19.215  1.00  0.00     0.006 C 
BRANCH   2   3
ATOM      3  C   UNL     1      16.941  -1.630  18.727  1.00  0.00     0.053 C 
BRANCH   3   4
ATOM      4  C   UNL     1      15.981  -1.812  17.590  1.00  0.00     0.041 C 
ATOM      5  O   UNL     1      16.320  -1.508  16.416  1.00  0.00    -0.550 OA
ATOM      6  O   UNL     1      14.695  -2.277  17.832  1.00  0.00    -0.550 OA
ENDBRANCH   3   4
ENDBRANCH   2   3
ENDBRANCH   1   2
BRANCH   1   7
ATOM      7  C   UNL     1      15.029   1.474  19.571  1.00  0.00     0.000 C 
BRANCH   7   8
ATOM      8  C   UNL     1      13.850   1.081  18.665  1.00  0.00    -0.000 C 
BRANCH   8   9
ATOM      9  C   UNL     1      13.563   2.134  17.583  1.00  0.00    -0.003 C 
ATOM     10  C   UNL     1      13.330   3.530  18.160  1.00  0.00     0.004 C 
ENDBRANCH   8   9
ENDBRANCH   7   8
ENDBRANCH   1   7
TORSDOF 6
ENDMDL
MODEL 8
REMARK VINA RESULT:    -4.512      3.744      4.701
REMARK INTER + INTRA:          -6.550
REMARK INTER:                  -6.368
REMARK INTRA:                  -0.182
REMARK UNBOUND:                -0.455
REMARK SMILES CCCCCCCC(=O)[O-]
REMARK SMILES IDX 5 1 6 2 7 3 8 4 9 5 10 6 4 7 3 8 2 9 1 10
REMARK H PARENT
REMARK Flexibility Score: inf
ROOT
ATOM      1  C   UNL     1      13.284   2.752  15.565  1.00  0.00     0.000 C 
ENDROOT
BRANCH   1   2
ATOM      2  C   UNL     1      13.155   3.175  17.042  1.00  0.00     0.006 C 
BRANCH   2   3
ATOM      3  C   UNL     1      14.448   3.006  17.860  1.00  0.00     0.053 C 
BRANCH   3   4
ATOM      4  C   UNL     1      14.487   1.714  18.620  1.00  0.00     0.041 C 
ATOM      5  O   UNL     1      13.605   0.836  18.426  1.00  0.00    -0.550 OA
ATOM      6  O   UNL     1      15.473   1.496  19.572  1.00  0.00    -0.550 OA
ENDBRANCH   3   4
ENDBRANCH   2   3
ENDBRANCH   1   2
BRANCH   1   7
ATOM      7  C   UNL     1      14.724   2.574  15.053  1.00  0.00     0.000 C 
BRANCH   7   8
ATOM      8  C   UNL     1      14.792   1.864  13.690  1.00  0.00    -0.000 C 
BRANCH   8   9
ATOM      9  C   UNL     1      15.518   2.703  12.626  1.00  0.00    -0.003 C 
ATOM     10  C   UNL     1      15.884   1.896  11.381  1.00  0.00     0.004 C 
ENDBRANCH   8   9
ENDBRANCH   7   8
ENDBRANCH   1   7
TORSDOF 6
ENDMDL
MODEL 9
REMARK VINA RESULT:    -4.490      1.207      2.019
REMARK INTER + INTRA:          -6.520
REMARK INTER:                  -6.173
REMARK INTRA:                  -0.348
REMARK UNBOUND:                -0.455
REMARK SMILES CCCCCCCC(=O)[O-]
REMARK SMILES IDX 5 1 6 2 7 3 8 4 9 5 10 6 4 7 3 8 2 9 1 10
REMARK H PARENT
REMARK Flexibility Score: inf
ROOT
ATOM      1  C   UNL     1      14.782   1.626  13.694  1.00  0.00     0.000 C 
ENDROOT
BRANCH   1   2
ATOM      2  C   UNL     1      15.399   1.489  15.100  1.00  0.00     0.006 C 
BRANCH   2   3
ATOM      3  C   UNL     1      15.959   0.088  15.407  1.00  0.00     0.053 C 
BRANCH   3   4
ATOM      4  C   UNL     1      17.413  -0.042  15.064  1.00  0.00     0.041 C 
ATOM      5  O   UNL     1      18.292   0.122  15.951  1.00  0.00    -0.550 OA
ATOM      6  O   UNL     1      17.799  -0.303  13.756  1.00  0.00    -0.550 OA
ENDBRANCH   3   4
ENDBRANCH   2   3
ENDBRANCH   1   2
BRANCH   1   7
ATOM      7  C   UNL     1      15.530   2.566  12.733  1.00  0.00     0.000 C 
BRANCH   7   8
ATOM      8  C   UNL     1      15.846   1.911  11.378  1.00  0.00    -0.000 C 
BRANCH   8   9
ATOM      9  C   UNL     1      17.351   1.905  11.066  1.00  0.00    -0.003 C 
ATOM     10  C   UNL     1      17.761   0.759  10.141  1.00  0.00     0.004 C 
ENDBRANCH   8   9
ENDBRANCH   7   8
ENDBRANCH   1   7
TORSDOF 6
ENDMDL
