MODEL 1
REMARK VINA RESULT:    -7.032      0.000      0.000
REMARK INTER + INTRA:          -8.746
REMARK INTER:                  -8.471
REMARK INTRA:                  -0.275
REMARK UNBOUND:                -0.275
REMARK SMILES O=c1c(O)c(-c2ccc(O)c(O)c2)oc2cc(O)cc(O)c12
REMARK SMILES IDX 5 1 3 2 2 3 1 4 22 5 20 6 19 7 17 8 16 9 15 10 14 11 6 12
REMARK SMILES IDX 7 13 8 14 9 15 13 16 11 17 10 18 12 20 4 22 21 24 18 26
REMARK H PARENT 10 19 12 21 4 23 21 25 18 27
REMARK Flexibility Score: inf
ROOT
ATOM      1  C   UNL     1     -21.887  14.538 -39.582  1.00  0.00     0.180 A 
ATOM      2  C   UNL     1     -21.673  15.477 -40.605  1.00  0.00     0.208 A 
ATOM      3  C   UNL     1     -22.599  16.519 -40.778  1.00  0.00     0.238 A 
ATOM      4  O   UNL     1     -22.431  17.325 -41.730  1.00  0.00    -0.285 OA
ATOM      5  C   UNL     1     -23.718  16.618 -39.915  1.00  0.00     0.111 A 
ATOM      6  C   UNL     1     -24.696  17.655 -39.973  1.00  0.00     0.134 A 
ATOM      7  C   UNL     1     -25.830  17.580 -39.154  1.00  0.00     0.093 A 
ATOM      8  C   UNL     1     -25.989  16.540 -38.236  1.00  0.00     0.123 A 
ATOM      9  C   UNL     1     -25.009  15.555 -38.130  1.00  0.00     0.094 A 
ATOM     10  C   UNL     1     -23.884  15.583 -38.958  1.00  0.00     0.146 A 
ATOM     11  O   UNL     1     -22.980  14.619 -38.832  1.00  0.00    -0.452 OA
ENDROOT
BRANCH   1  12
ATOM     12  C   UNL     1     -20.943  13.426 -39.323  1.00  0.00     0.025 A 
ATOM     13  C   UNL     1     -20.910  12.288 -40.147  1.00  0.00     0.016 A 
ATOM     14  C   UNL     1     -19.994  11.262 -39.898  1.00  0.00     0.051 A 
ATOM     15  C   UNL     1     -19.092  11.363 -38.831  1.00  0.00     0.157 A 
ATOM     16  C   UNL     1     -20.022  13.532 -38.268  1.00  0.00     0.062 A 
ATOM     17  C   UNL     1     -19.105  12.507 -38.015  1.00  0.00     0.158 A 
BRANCH  15  18
ATOM     18  O   UNL     1     -18.181  10.337 -38.585  1.00  0.00    -0.504 OA
ATOM     19  H   UNL     1     -17.189  10.519 -38.488  1.00  0.00     0.293 HD
ENDBRANCH  15  18
BRANCH  17  20
ATOM     20  O   UNL     1     -18.214  12.641 -36.950  1.00  0.00    -0.504 OA
ATOM     21  H   UNL     1     -18.452  12.355 -36.009  1.00  0.00     0.293 HD
ENDBRANCH  17  20
ENDBRANCH   1  12
BRANCH   2  22
ATOM     22  O   UNL     1     -20.574  15.349 -41.459  1.00  0.00    -0.502 OA
ATOM     23  H   UNL     1     -19.706  14.916 -41.167  1.00  0.00     0.293 HD
ENDBRANCH   2  22
BRANCH   6  24
ATOM     24  O   UNL     1     -24.589  18.785 -40.789  1.00  0.00    -0.507 OA
ATOM     25  H   UNL     1     -24.201  19.669 -40.498  1.00  0.00     0.293 HD
ENDBRANCH   6  24
BRANCH   8  26
ATOM     26  O   UNL     1     -27.112  16.482 -37.415  1.00  0.00    -0.508 OA
ATOM     27  H   UNL     1     -27.494  15.597 -37.100  1.00  0.00     0.293 HD
ENDBRANCH   8  26
TORSDOF 6
ENDMDL
MODEL 2
REMARK VINA RESULT:    -6.847      3.257      5.904
REMARK INTER + INTRA:          -8.523
REMARK INTER:                  -8.406
REMARK INTRA:                  -0.117
REMARK UNBOUND:                -0.275
REMARK SMILES O=c1c(O)c(-c2ccc(O)c(O)c2)oc2cc(O)cc(O)c12
REMARK SMILES IDX 5 1 3 2 2 3 1 4 22 5 20 6 19 7 17 8 16 9 15 10 14 11 6 12
REMARK SMILES IDX 7 13 8 14 9 15 13 16 11 17 10 18 12 20 4 22 21 24 18 26
REMARK H PARENT 10 19 12 21 4 23 21 25 18 27
REMARK Flexibility Score: inf
ROOT
ATOM      1  C   UNL     1     -24.659  16.341 -37.341  1.00  0.00     0.180 A 
ATOM      2  C   UNL     1     -24.941  17.702 -37.547  1.00  0.00     0.208 A 
ATOM      3  C   UNL     1     -24.454  18.330 -38.705  1.00  0.00     0.238 A 
ATOM      4  O   UNL     1     -24.663  19.562 -38.858  1.00  0.00    -0.285 OA
ATOM      5  C   UNL     1     -23.707  17.584 -39.650  1.00  0.00     0.111 A 
ATOM      6  C   UNL     1     -23.200  18.108 -40.877  1.00  0.00     0.134 A 
ATOM      7  C   UNL     1     -22.364  17.316 -41.673  1.00  0.00     0.093 A 
ATOM      8  C   UNL     1     -22.069  15.998 -41.317  1.00  0.00     0.123 A 
ATOM      9  C   UNL     1     -22.608  15.458 -40.152  1.00  0.00     0.094 A 
ATOM     10  C   UNL     1     -23.416  16.236 -39.318  1.00  0.00     0.146 A 
ATOM     11  O   UNL     1     -23.901  15.685 -38.211  1.00  0.00    -0.452 OA
ENDROOT
BRANCH   1  12
ATOM     12  C   UNL     1     -25.158  15.603 -36.156  1.00  0.00     0.025 A 
ATOM     13  C   UNL     1     -26.001  14.487 -36.292  1.00  0.00     0.016 A 
ATOM     14  C   UNL     1     -26.440  13.792 -35.161  1.00  0.00     0.051 A 
ATOM     15  C   UNL     1     -26.033  14.194 -33.882  1.00  0.00     0.157 A 
ATOM     16  C   UNL     1     -24.737  15.989 -34.874  1.00  0.00     0.062 A 
ATOM     17  C   UNL     1     -25.174  15.297 -33.739  1.00  0.00     0.158 A 
BRANCH  15  18
ATOM     18  O   UNL     1     -26.475  13.499 -32.757  1.00  0.00    -0.504 OA
ATOM     19  H   UNL     1     -26.967  12.617 -32.837  1.00  0.00     0.293 HD
ENDBRANCH  15  18
BRANCH  17  20
ATOM     20  O   UNL     1     -24.746  15.717 -32.480  1.00  0.00    -0.504 OA
ATOM     21  H   UNL     1     -25.313  16.311 -31.889  1.00  0.00     0.293 HD
ENDBRANCH  17  20
ENDBRANCH   1  12
BRANCH   2  22
ATOM     22  O   UNL     1     -25.662  18.424 -36.592  1.00  0.00    -0.502 OA
ATOM     23  H   UNL     1     -25.263  19.208 -36.088  1.00  0.00     0.293 HD
ENDBRANCH   2  22
BRANCH   6  24
ATOM     24  O   UNL     1     -23.508  19.380 -41.369  1.00  0.00    -0.507 OA
ATOM     25  H   UNL     1     -24.240  19.974 -41.009  1.00  0.00     0.293 HD
ENDBRANCH   6  24
BRANCH   8  26
ATOM     26  O   UNL     1     -21.248  15.211 -42.123  1.00  0.00    -0.508 OA
ATOM     27  H   UNL     1     -21.563  14.320 -42.491  1.00  0.00     0.293 HD
ENDBRANCH   8  26
TORSDOF 6
ENDMDL
MODEL 3
REMARK VINA RESULT:    -6.772      4.404      7.149
REMARK INTER + INTRA:          -8.433
REMARK INTER:                  -8.236
REMARK INTRA:                  -0.197
REMARK UNBOUND:                -0.275
REMARK SMILES O=c1c(O)c(-c2ccc(O)c(O)c2)oc2cc(O)cc(O)c12
REMARK SMILES IDX 5 1 3 2 2 3 1 4 22 5 20 6 19 7 17 8 16 9 15 10 14 11 6 12
REMARK SMILES IDX 7 13 8 14 9 15 13 16 11 17 10 18 12 20 4 22 21 24 18 26
REMARK H PARENT 10 19 12 21 4 23 21 25 18 27
REMARK Flexibility Score: inf
ROOT
ATOM      1  C   UNL     1     -24.160  18.345 -38.702  1.00  0.00     0.180 A 
ATOM      2  C   UNL     1     -25.460  17.816 -38.770  1.00  0.00     0.208 A 
ATOM      3  C   UNL     1     -25.861  16.869 -37.813  1.00  0.00     0.238 A 
ATOM      4  O   UNL     1     -27.007  16.358 -37.911  1.00  0.00    -0.285 OA
ATOM      5  C   UNL     1     -24.963  16.477 -36.790  1.00  0.00     0.111 A 
ATOM      6  C   UNL     1     -25.277  15.557 -35.745  1.00  0.00     0.134 A 
ATOM      7  C   UNL     1     -24.270  15.144 -34.864  1.00  0.00     0.093 A 
ATOM      8  C   UNL     1     -22.978  15.666 -34.951  1.00  0.00     0.123 A 
ATOM      9  C   UNL     1     -22.677  16.609 -35.930  1.00  0.00     0.094 A 
ATOM     10  C   UNL     1     -23.651  17.015 -36.847  1.00  0.00     0.146 A 
ATOM     11  O   UNL     1     -23.319  17.909 -37.771  1.00  0.00    -0.452 OA
ENDROOT
BRANCH   1  12
ATOM     12  C   UNL     1     -23.672  19.364 -39.660  1.00  0.00     0.025 A 
ATOM     13  C   UNL     1     -23.461  19.052 -41.014  1.00  0.00     0.016 A 
ATOM     14  C   UNL     1     -23.024  20.036 -41.906  1.00  0.00     0.051 A 
ATOM     15  C   UNL     1     -22.805  21.346 -41.461  1.00  0.00     0.157 A 
ATOM     16  C   UNL     1     -23.472  20.683 -39.224  1.00  0.00     0.062 A 
ATOM     17  C   UNL     1     -23.033  21.671 -40.113  1.00  0.00     0.158 A 
BRANCH  15  18
ATOM     18  O   UNL     1     -22.367  22.325 -42.353  1.00  0.00    -0.504 OA
ATOM     19  H   UNL     1     -22.438  23.311 -42.134  1.00  0.00     0.293 HD
ENDBRANCH  15  18
BRANCH  17  20
ATOM     20  O   UNL     1     -22.832  22.968 -39.641  1.00  0.00    -0.504 OA
ATOM     21  H   UNL     1     -22.177  23.175 -38.898  1.00  0.00     0.293 HD
ENDBRANCH  17  20
ENDBRANCH   1  12
BRANCH   2  22
ATOM     22  O   UNL     1     -26.323  18.200 -39.800  1.00  0.00    -0.502 OA
ATOM     23  H   UNL     1     -26.374  19.153 -40.139  1.00  0.00     0.293 HD
ENDBRANCH   2  22
BRANCH   6  24
ATOM     24  O   UNL     1     -26.557  15.046 -35.514  1.00  0.00    -0.507 OA
ATOM     25  H   UNL     1     -26.935  14.831 -34.603  1.00  0.00     0.293 HD
ENDBRANCH   6  24
BRANCH   8  26
ATOM     26  O   UNL     1     -21.986  15.261 -34.060  1.00  0.00    -0.508 OA
ATOM     27  H   UNL     1     -21.938  15.628 -33.117  1.00  0.00     0.293 HD
ENDBRANCH   8  26
TORSDOF 6
ENDMDL
MODEL 4
REMARK VINA RESULT:    -6.767      1.233      2.932
REMARK INTER + INTRA:          -8.427
REMARK INTER:                  -8.113
REMARK INTRA:                  -0.313
REMARK UNBOUND:                -0.275
REMARK SMILES O=c1c(O)c(-c2ccc(O)c(O)c2)oc2cc(O)cc(O)c12
REMARK SMILES IDX 5 1 3 2 2 3 1 4 22 5 20 6 19 7 17 8 16 9 15 10 14 11 6 12
REMARK SMILES IDX 7 13 8 14 9 15 13 16 11 17 10 18 12 20 4 22 21 24 18 26
REMARK H PARENT 10 19 12 21 4 23 21 25 18 27
REMARK Flexibility Score: inf
ROOT
ATOM      1  C   UNL     1     -22.132  14.685 -39.396  1.00  0.00     0.180 A 
ATOM      2  C   UNL     1     -23.311  14.740 -38.633  1.00  0.00     0.208 A 
ATOM      3  C   UNL     1     -24.210  15.799 -38.844  1.00  0.00     0.238 A 
ATOM      4  O   UNL     1     -25.237  15.872 -38.120  1.00  0.00    -0.285 OA
ATOM      5  C   UNL     1     -23.926  16.778 -39.826  1.00  0.00     0.111 A 
ATOM      6  C   UNL     1     -24.785  17.871 -40.152  1.00  0.00     0.134 A 
ATOM      7  C   UNL     1     -24.344  18.851 -41.049  1.00  0.00     0.093 A 
ATOM      8  C   UNL     1     -23.102  18.746 -41.679  1.00  0.00     0.123 A 
ATOM      9  C   UNL     1     -22.282  17.652 -41.413  1.00  0.00     0.094 A 
ATOM     10  C   UNL     1     -22.679  16.675 -40.495  1.00  0.00     0.146 A 
ATOM     11  O   UNL     1     -21.863  15.654 -40.263  1.00  0.00    -0.452 OA
ENDROOT
BRANCH   1  12
ATOM     12  C   UNL     1     -21.148  13.588 -39.248  1.00  0.00     0.025 A 
ATOM     13  C   UNL     1     -21.153  12.480 -40.113  1.00  0.00     0.016 A 
ATOM     14  C   UNL     1     -20.199  11.468 -39.970  1.00  0.00     0.051 A 
ATOM     15  C   UNL     1     -19.221  11.554 -38.970  1.00  0.00     0.157 A 
ATOM     16  C   UNL     1     -20.153  13.679 -38.261  1.00  0.00     0.062 A 
ATOM     17  C   UNL     1     -19.198  12.668 -38.114  1.00  0.00     0.158 A 
BRANCH  15  18
ATOM     18  O   UNL     1     -18.273  10.542 -38.829  1.00  0.00    -0.504 OA
ATOM     19  H   UNL     1     -17.389  10.570 -39.323  1.00  0.00     0.293 HD
ENDBRANCH  15  18
BRANCH  17  20
ATOM     20  O   UNL     1     -18.233  12.786 -37.114  1.00  0.00    -0.504 OA
ATOM     21  H   UNL     1     -18.014  13.673 -36.679  1.00  0.00     0.293 HD
ENDBRANCH  17  20
ENDBRANCH   1  12
BRANCH   2  22
ATOM     22  O   UNL     1     -23.560  13.775 -37.653  1.00  0.00    -0.502 OA
ATOM     23  H   UNL     1     -23.267  12.810 -37.753  1.00  0.00     0.293 HD
ENDBRANCH   2  22
BRANCH   6  24
ATOM     24  O   UNL     1     -26.081  18.022 -39.649  1.00  0.00    -0.507 OA
ATOM     25  H   UNL     1     -26.735  17.267 -39.509  1.00  0.00     0.293 HD
ENDBRANCH   6  24
BRANCH   8  26
ATOM     26  O   UNL     1     -22.678  19.718 -42.582  1.00  0.00    -0.508 OA
ATOM     27  H   UNL     1     -22.786  19.596 -43.583  1.00  0.00     0.293 HD
ENDBRANCH   8  26
TORSDOF 6
ENDMDL
MODEL 5
REMARK VINA RESULT:    -6.762      2.122      3.689
REMARK INTER + INTRA:          -8.421
REMARK INTER:                  -8.238
REMARK INTRA:                  -0.183
REMARK UNBOUND:                -0.275
REMARK SMILES O=c1c(O)c(-c2ccc(O)c(O)c2)oc2cc(O)cc(O)c12
REMARK SMILES IDX 5 1 3 2 2 3 1 4 22 5 20 6 19 7 17 8 16 9 15 10 14 11 6 12
REMARK SMILES IDX 7 13 8 14 9 15 13 16 11 17 10 18 12 20 4 22 21 24 18 26
REMARK H PARENT 10 19 12 21 4 23 21 25 18 27
REMARK Flexibility Score: inf
ROOT
ATOM      1  C   UNL     1     -23.215  15.469 -39.408  1.00  0.00     0.180 A 
ATOM      2  C   UNL     1     -23.813  15.969 -38.239  1.00  0.00     0.208 A 
ATOM      3  C   UNL     1     -24.216  17.314 -38.201  1.00  0.00     0.238 A 
ATOM      4  O   UNL     1     -24.701  17.770 -37.133  1.00  0.00    -0.285 OA
ATOM      5  C   UNL     1     -24.031  18.137 -39.340  1.00  0.00     0.111 A 
ATOM      6  C   UNL     1     -24.438  19.502 -39.427  1.00  0.00     0.134 A 
ATOM      7  C   UNL     1     -24.088  20.255 -40.554  1.00  0.00     0.093 A 
ATOM      8  C   UNL     1     -23.402  19.676 -41.624  1.00  0.00     0.123 A 
ATOM      9  C   UNL     1     -23.052  18.329 -41.573  1.00  0.00     0.094 A 
ATOM     10  C   UNL     1     -23.356  17.559 -40.446  1.00  0.00     0.146 A 
ATOM     11  O   UNL     1     -22.995  16.281 -40.435  1.00  0.00    -0.452 OA
ENDROOT
BRANCH   1  12
ATOM     12  C   UNL     1     -22.786  14.056 -39.531  1.00  0.00     0.025 A 
ATOM     13  C   UNL     1     -23.716  13.003 -39.482  1.00  0.00     0.016 A 
ATOM     14  C   UNL     1     -23.291  11.679 -39.626  1.00  0.00     0.051 A 
ATOM     15  C   UNL     1     -21.936  11.390 -39.832  1.00  0.00     0.157 A 
ATOM     16  C   UNL     1     -21.432  13.762 -39.760  1.00  0.00     0.062 A 
ATOM     17  C   UNL     1     -21.003  12.438 -39.903  1.00  0.00     0.158 A 
BRANCH  15  18
ATOM     18  O   UNL     1     -21.516  10.067 -39.973  1.00  0.00    -0.504 OA
ATOM     19  H   UNL     1     -20.670   9.729 -39.528  1.00  0.00     0.293 HD
ENDBRANCH  15  18
BRANCH  17  20
ATOM     20  O   UNL     1     -19.648  12.183 -40.115  1.00  0.00    -0.504 OA
ATOM     21  H   UNL     1     -18.946  12.907 -40.041  1.00  0.00     0.293 HD
ENDBRANCH  17  20
ENDBRANCH   1  12
BRANCH   2  22
ATOM     22  O   UNL     1     -23.966  15.146 -37.119  1.00  0.00    -0.502 OA
ATOM     23  H   UNL     1     -24.725  15.263 -36.458  1.00  0.00     0.293 HD
ENDBRANCH   2  22
BRANCH   6  24
ATOM     24  O   UNL     1     -25.207  20.151 -38.456  1.00  0.00    -0.507 OA
ATOM     25  H   UNL     1     -25.359  19.808 -37.520  1.00  0.00     0.293 HD
ENDBRANCH   6  24
BRANCH   8  26
ATOM     26  O   UNL     1     -23.070  20.429 -42.748  1.00  0.00    -0.508 OA
ATOM     27  H   UNL     1     -23.693  21.141 -43.111  1.00  0.00     0.293 HD
ENDBRANCH   8  26
TORSDOF 6
ENDMDL
MODEL 6
REMARK VINA RESULT:    -6.747      5.056      8.647
REMARK INTER + INTRA:          -8.403
REMARK INTER:                  -8.206
REMARK INTRA:                  -0.197
REMARK UNBOUND:                -0.275
REMARK SMILES O=c1c(O)c(-c2ccc(O)c(O)c2)oc2cc(O)cc(O)c12
REMARK SMILES IDX 5 1 3 2 2 3 1 4 22 5 20 6 19 7 17 8 16 9 15 10 14 11 6 12
REMARK SMILES IDX 7 13 8 14 9 15 13 16 11 17 10 18 12 20 4 22 21 24 18 26
REMARK H PARENT 10 19 12 21 4 23 21 25 18 27
REMARK Flexibility Score: inf
ROOT
ATOM      1  C   UNL     1     -21.893  12.110 -34.587  1.00  0.00     0.180 A 
ATOM      2  C   UNL     1     -21.592  11.895 -35.943  1.00  0.00     0.208 A 
ATOM      3  C   UNL     1     -20.258  11.661 -36.315  1.00  0.00     0.238 A 
ATOM      4  O   UNL     1     -19.987  11.523 -37.537  1.00  0.00    -0.285 OA
ATOM      5  C   UNL     1     -19.246  11.627 -35.325  1.00  0.00     0.111 A 
ATOM      6  C   UNL     1     -17.868  11.358 -35.584  1.00  0.00     0.134 A 
ATOM      7  C   UNL     1     -16.935  11.479 -34.547  1.00  0.00     0.093 A 
ATOM      8  C   UNL     1     -17.338  11.796 -33.248  1.00  0.00     0.123 A 
ATOM      9  C   UNL     1     -18.688  12.002 -32.973  1.00  0.00     0.094 A 
ATOM     10  C   UNL     1     -19.639  11.924 -33.994  1.00  0.00     0.146 A 
ATOM     11  O   UNL     1     -20.914  12.138 -33.691  1.00  0.00    -0.452 OA
ENDROOT
BRANCH   1  12
ATOM     12  C   UNL     1     -23.278  12.340 -34.115  1.00  0.00     0.025 A 
ATOM     13  C   UNL     1     -23.978  13.514 -34.444  1.00  0.00     0.016 A 
ATOM     14  C   UNL     1     -25.293  13.699 -34.008  1.00  0.00     0.051 A 
ATOM     15  C   UNL     1     -25.931  12.710 -33.247  1.00  0.00     0.157 A 
ATOM     16  C   UNL     1     -23.930  11.343 -33.370  1.00  0.00     0.062 A 
ATOM     17  C   UNL     1     -25.245  11.525 -32.930  1.00  0.00     0.158 A 
BRANCH  15  18
ATOM     18  O   UNL     1     -27.242  12.898 -32.812  1.00  0.00    -0.504 OA
ATOM     19  H   UNL     1     -27.462  13.522 -32.044  1.00  0.00     0.293 HD
ENDBRANCH  15  18
BRANCH  17  20
ATOM     20  O   UNL     1     -25.855  10.519 -32.182  1.00  0.00    -0.504 OA
ATOM     21  H   UNL     1     -25.632   9.540 -32.311  1.00  0.00     0.293 HD
ENDBRANCH  17  20
ENDBRANCH   1  12
BRANCH   2  22
ATOM     22  O   UNL     1     -22.603  11.955 -36.906  1.00  0.00    -0.502 OA
ATOM     23  H   UNL     1     -23.532  11.584 -36.743  1.00  0.00     0.293 HD
ENDBRANCH   2  22
BRANCH   6  24
ATOM     24  O   UNL     1     -17.373  10.944 -36.824  1.00  0.00    -0.507 OA
ATOM     25  H   UNL     1     -16.395  10.849 -37.050  1.00  0.00     0.293 HD
ENDBRANCH   6  24
BRANCH   8  26
ATOM     26  O   UNL     1     -16.404  11.900 -32.219  1.00  0.00    -0.508 OA
ATOM     27  H   UNL     1     -16.336  12.734 -31.647  1.00  0.00     0.293 HD
ENDBRANCH   8  26
TORSDOF 6
ENDMDL
MODEL 7
REMARK VINA RESULT:    -6.639      3.182      7.686
REMARK INTER + INTRA:          -8.273
REMARK INTER:                  -7.946
REMARK INTRA:                  -0.327
REMARK UNBOUND:                -0.275
REMARK SMILES O=c1c(O)c(-c2ccc(O)c(O)c2)oc2cc(O)cc(O)c12
REMARK SMILES IDX 5 1 3 2 2 3 1 4 22 5 20 6 19 7 17 8 16 9 15 10 14 11 6 12
REMARK SMILES IDX 7 13 8 14 9 15 13 16 11 17 10 18 12 20 4 22 21 24 18 26
REMARK H PARENT 10 19 12 21 4 23 21 25 18 27
REMARK Flexibility Score: inf
ROOT
ATOM      1  C   UNL     1     -22.283  13.466 -36.457  1.00  0.00     0.180 A 
ATOM      2  C   UNL     1     -21.676  12.685 -35.459  1.00  0.00     0.208 A 
ATOM      3  C   UNL     1     -20.631  11.816 -35.816  1.00  0.00     0.238 A 
ATOM      4  O   UNL     1     -20.129  11.079 -34.928  1.00  0.00    -0.285 OA
ATOM      5  C   UNL     1     -20.196  11.754 -37.162  1.00  0.00     0.111 A 
ATOM      6  C   UNL     1     -19.120  10.941 -37.628  1.00  0.00     0.134 A 
ATOM      7  C   UNL     1     -18.860  10.861 -39.002  1.00  0.00     0.093 A 
ATOM      8  C   UNL     1     -19.597  11.613 -39.920  1.00  0.00     0.123 A 
ATOM      9  C   UNL     1     -20.610  12.456 -39.469  1.00  0.00     0.094 A 
ATOM     10  C   UNL     1     -20.916  12.530 -38.107  1.00  0.00     0.146 A 
ATOM     11  O   UNL     1     -21.897  13.338 -37.720  1.00  0.00    -0.452 OA
ENDROOT
BRANCH   1  12
ATOM     12  C   UNL     1     -23.374  14.423 -36.154  1.00  0.00     0.025 A 
ATOM     13  C   UNL     1     -23.105  15.773 -35.871  1.00  0.00     0.016 A 
ATOM     14  C   UNL     1     -24.151  16.662 -35.613  1.00  0.00     0.051 A 
ATOM     15  C   UNL     1     -25.480  16.219 -35.645  1.00  0.00     0.157 A 
ATOM     16  C   UNL     1     -24.708  13.989 -36.206  1.00  0.00     0.062 A 
ATOM     17  C   UNL     1     -25.759  14.875 -35.947  1.00  0.00     0.158 A 
BRANCH  15  18
ATOM     18  O   UNL     1     -26.522  17.109 -35.385  1.00  0.00    -0.504 OA
ATOM     19  H   UNL     1     -26.820  17.792 -36.071  1.00  0.00     0.293 HD
ENDBRANCH  15  18
BRANCH  17  20
ATOM     20  O   UNL     1     -27.071  14.406 -35.995  1.00  0.00    -0.504 OA
ATOM     21  H   UNL     1     -27.668  14.392 -35.178  1.00  0.00     0.293 HD
ENDBRANCH  17  20
ENDBRANCH   1  12
BRANCH   2  22
ATOM     22  O   UNL     1     -22.137  12.745 -34.141  1.00  0.00    -0.502 OA
ATOM     23  H   UNL     1     -21.670  13.292 -33.427  1.00  0.00     0.293 HD
ENDBRANCH   2  22
BRANCH   6  24
ATOM     24  O   UNL     1     -18.265  10.221 -36.789  1.00  0.00    -0.507 OA
ATOM     25  H   UNL     1     -17.721   9.419 -37.072  1.00  0.00     0.293 HD
ENDBRANCH   6  24
BRANCH   8  26
ATOM     26  O   UNL     1     -19.322  11.539 -41.283  1.00  0.00    -0.508 OA
ATOM     27  H   UNL     1     -19.946  11.064 -41.925  1.00  0.00     0.293 HD
ENDBRANCH   8  26
TORSDOF 6
ENDMDL
MODEL 8
REMARK VINA RESULT:    -6.634      6.345      8.009
REMARK INTER + INTRA:          -8.267
REMARK INTER:                  -8.192
REMARK INTRA:                  -0.075
REMARK UNBOUND:                -0.275
REMARK SMILES O=c1c(O)c(-c2ccc(O)c(O)c2)oc2cc(O)cc(O)c12
REMARK SMILES IDX 5 1 3 2 2 3 1 4 22 5 20 6 19 7 17 8 16 9 15 10 14 11 6 12
REMARK SMILES IDX 7 13 8 14 9 15 13 16 11 17 10 18 12 20 4 22 21 24 18 26
REMARK H PARENT 10 19 12 21 4 23 21 25 18 27
REMARK Flexibility Score: inf
ROOT
ATOM      1  C   UNL     1     -17.694  12.313 -34.427  1.00  0.00     0.180 A 
ATOM      2  C   UNL     1     -17.491  11.503 -35.556  1.00  0.00     0.208 A 
ATOM      3  C   UNL     1     -18.593  10.852 -36.135  1.00  0.00     0.238 A 
ATOM      4  O   UNL     1     -18.397  10.084 -37.113  1.00  0.00    -0.285 OA
ATOM      5  C   UNL     1     -19.886  11.035 -35.587  1.00  0.00     0.111 A 
ATOM      6  C   UNL     1     -21.079  10.458 -36.117  1.00  0.00     0.134 A 
ATOM      7  C   UNL     1     -22.284  10.602 -35.418  1.00  0.00     0.093 A 
ATOM      8  C   UNL     1     -22.351  11.354 -34.243  1.00  0.00     0.123 A 
ATOM      9  C   UNL     1     -21.204  11.971 -33.750  1.00  0.00     0.094 A 
ATOM     10  C   UNL     1     -19.978  11.817 -34.406  1.00  0.00     0.146 A 
ATOM     11  O   UNL     1     -18.907  12.413 -33.897  1.00  0.00    -0.452 OA
ENDROOT
BRANCH   1  12
ATOM     12  C   UNL     1     -16.585  13.050 -33.775  1.00  0.00     0.025 A 
ATOM     13  C   UNL     1     -15.756  13.917 -34.506  1.00  0.00     0.016 A 
ATOM     14  C   UNL     1     -14.731  14.621 -33.867  1.00  0.00     0.051 A 
ATOM     15  C   UNL     1     -14.529  14.478 -32.488  1.00  0.00     0.157 A 
ATOM     16  C   UNL     1     -16.392  12.926 -32.390  1.00  0.00     0.062 A 
ATOM     17  C   UNL     1     -15.368  13.628 -31.746  1.00  0.00     0.158 A 
BRANCH  15  18
ATOM     18  O   UNL     1     -13.505  15.180 -31.853  1.00  0.00    -0.504 OA
ATOM     19  H   UNL     1     -12.737  14.701 -31.398  1.00  0.00     0.293 HD
ENDBRANCH  15  18
BRANCH  17  20
ATOM     20  O   UNL     1     -15.197  13.469 -30.371  1.00  0.00    -0.504 OA
ATOM     21  H   UNL     1     -15.943  13.649 -29.712  1.00  0.00     0.293 HD
ENDBRANCH  17  20
ENDBRANCH   1  12
BRANCH   2  22
ATOM     22  O   UNL     1     -16.203  11.318 -36.067  1.00  0.00    -0.502 OA
ATOM     23  H   UNL     1     -16.034  10.949 -36.996  1.00  0.00     0.293 HD
ENDBRANCH   2  22
BRANCH   6  24
ATOM     24  O   UNL     1     -21.140   9.766 -37.329  1.00  0.00    -0.507 OA
ATOM     25  H   UNL     1     -20.695  10.064 -38.184  1.00  0.00     0.293 HD
ENDBRANCH   6  24
BRANCH   8  26
ATOM     26  O   UNL     1     -23.557  11.504 -33.562  1.00  0.00    -0.508 OA
ATOM     27  H   UNL     1     -23.824  12.388 -33.145  1.00  0.00     0.293 HD
ENDBRANCH   8  26
TORSDOF 6
ENDMDL
MODEL 9
REMARK VINA RESULT:    -6.508      5.104      8.608
REMARK INTER + INTRA:          -8.115
REMARK INTER:                  -7.887
REMARK INTRA:                  -0.228
REMARK UNBOUND:                -0.275
REMARK SMILES O=c1c(O)c(-c2ccc(O)c(O)c2)oc2cc(O)cc(O)c12
REMARK SMILES IDX 5 1 3 2 2 3 1 4 22 5 20 6 19 7 17 8 16 9 15 10 14 11 6 12
REMARK SMILES IDX 7 13 8 14 9 15 13 16 11 17 10 18 12 20 4 22 21 24 18 26
REMARK H PARENT 10 19 12 21 4 23 21 25 18 27
REMARK Flexibility Score: inf
ROOT
ATOM      1  C   UNL     1     -17.214  12.522 -34.653  1.00  0.00     0.180 A 
ATOM      2  C   UNL     1     -17.494  11.204 -34.253  1.00  0.00     0.208 A 
ATOM      3  C   UNL     1     -18.218  10.369 -35.120  1.00  0.00     0.238 A 
ATOM      4  O   UNL     1     -18.512   9.208 -34.734  1.00  0.00    -0.285 OA
ATOM      5  C   UNL     1     -18.638  10.857 -36.381  1.00  0.00     0.111 A 
ATOM      6  C   UNL     1     -19.341  10.086 -37.355  1.00  0.00     0.134 A 
ATOM      7  C   UNL     1     -19.820  10.709 -38.514  1.00  0.00     0.093 A 
ATOM      8  C   UNL     1     -19.566  12.060 -38.763  1.00  0.00     0.123 A 
ATOM      9  C   UNL     1     -18.828  12.806 -37.847  1.00  0.00     0.094 A 
ATOM     10  C   UNL     1     -18.368  12.221 -36.664  1.00  0.00     0.146 A 
ATOM     11  O   UNL     1     -17.678  12.971 -35.813  1.00  0.00    -0.452 OA
ENDROOT
BRANCH   1  12
ATOM     12  C   UNL     1     -16.435  13.454 -33.804  1.00  0.00     0.025 A 
ATOM     13  C   UNL     1     -16.976  13.993 -32.624  1.00  0.00     0.016 A 
ATOM     14  C   UNL     1     -16.214  14.851 -31.826  1.00  0.00     0.051 A 
ATOM     15  C   UNL     1     -14.900  15.174 -32.189  1.00  0.00     0.157 A 
ATOM     16  C   UNL     1     -15.111  13.764 -34.152  1.00  0.00     0.062 A 
ATOM     17  C   UNL     1     -14.345  14.624 -33.357  1.00  0.00     0.158 A 
BRANCH  15  18
ATOM     18  O   UNL     1     -14.144  16.032 -31.391  1.00  0.00    -0.504 OA
ATOM     19  H   UNL     1     -14.180  17.038 -31.512  1.00  0.00     0.293 HD
ENDBRANCH  15  18
BRANCH  17  20
ATOM     20  O   UNL     1     -13.038  14.919 -33.741  1.00  0.00    -0.504 OA
ATOM     21  H   UNL     1     -12.825  15.646 -34.412  1.00  0.00     0.293 HD
ENDBRANCH  17  20
ENDBRANCH   1  12
BRANCH   2  22
ATOM     22  O   UNL     1     -17.089  10.750 -32.995  1.00  0.00    -0.502 OA
ATOM     23  H   UNL     1     -16.894   9.773 -32.806  1.00  0.00     0.293 HD
ENDBRANCH   2  22
BRANCH   6  24
ATOM     24  O   UNL     1     -19.569   8.711 -37.246  1.00  0.00    -0.507 OA
ATOM     25  H   UNL     1     -20.087   8.272 -36.500  1.00  0.00     0.293 HD
ENDBRANCH   6  24
BRANCH   8  26
ATOM     26  O   UNL     1     -20.033  12.668 -39.926  1.00  0.00    -0.508 OA
ATOM     27  H   UNL     1     -20.128  12.152 -40.794  1.00  0.00     0.293 HD
ENDBRANCH   8  26
TORSDOF 6
ENDMDL
