MODEL 1
REMARK VINA RESULT:    -2.959      0.000      0.000
REMARK INTER + INTRA:          -3.233
REMARK INTER:                  -3.219
REMARK INTRA:                  -0.014
REMARK UNBOUND:                -0.014
REMARK SMILES OCc1ccco1
REMARK SMILES IDX 2 1 3 2 5 3 6 4 4 5 7 6 1 7
REMARK H PARENT 1 8
REMARK Flexibility Score: inf
ROOT
ATOM      1  C   UNL     1     -35.084 -13.223  25.040  1.00  0.00     0.231 C 
ENDROOT
BRANCH   1   2
ATOM      2  C   UNL     1     -35.919 -13.574  23.850  1.00  0.00     0.129 A 
ATOM      3  C   UNL     1     -36.959 -13.492  21.918  1.00  0.00     0.042 A 
ATOM      4  C   UNL     1     -37.113 -14.728  22.515  1.00  0.00     0.195 A 
ATOM      5  C   UNL     1     -36.185 -12.746  22.778  1.00  0.00     0.048 A 
ATOM      6  O   UNL     1     -36.478 -14.746  23.664  1.00  0.00    -0.467 OA
ENDBRANCH   1   2
BRANCH   1   7
ATOM      7  O   UNL     1     -35.897 -13.081  26.172  1.00  0.00    -0.388 OA
ATOM      8  H   UNL     1     -35.512 -12.337  26.706  1.00  0.00     0.211 HD
ENDBRANCH   1   7
TORSDOF 2
ENDMDL
MODEL 2
REMARK VINA RESULT:    -2.924      1.048      1.414
REMARK INTER + INTRA:          -3.194
REMARK INTER:                  -3.180
REMARK INTRA:                  -0.014
REMARK UNBOUND:                -0.014
REMARK SMILES OCc1ccco1
REMARK SMILES IDX 2 1 3 2 5 3 6 4 4 5 7 6 1 7
REMARK H PARENT 1 8
REMARK Flexibility Score: inf
ROOT
ATOM      1  C   UNL     1     -35.080 -13.198  25.012  1.00  0.00     0.231 C 
ENDROOT
BRANCH   1   2
ATOM      2  C   UNL     1     -35.873 -13.419  23.764  1.00  0.00     0.129 A 
ATOM      3  C   UNL     1     -37.205 -14.286  22.249  1.00  0.00     0.042 A 
ATOM      4  C   UNL     1     -36.752 -13.042  21.860  1.00  0.00     0.195 A 
ATOM      5  C   UNL     1     -36.641 -14.531  23.482  1.00  0.00     0.048 A 
ATOM      6  O   UNL     1     -35.962 -12.549  22.785  1.00  0.00    -0.467 OA
ENDBRANCH   1   2
BRANCH   1   7
ATOM      7  O   UNL     1     -35.938 -13.086  26.114  1.00  0.00    -0.388 OA
ATOM      8  H   UNL     1     -36.782 -13.546  25.864  1.00  0.00     0.211 HD
ENDBRANCH   1   7
TORSDOF 2
ENDMDL
MODEL 3
REMARK VINA RESULT:    -2.797     11.668     12.517
REMARK INTER + INTRA:          -3.056
REMARK INTER:                  -3.042
REMARK INTRA:                  -0.014
REMARK UNBOUND:                -0.014
REMARK SMILES OCc1ccco1
REMARK SMILES IDX 2 1 3 2 5 3 6 4 4 5 7 6 1 7
REMARK H PARENT 1 8
REMARK Flexibility Score: inf
ROOT
ATOM      1  C   UNL     1     -48.114 -20.351  27.458  1.00  0.00     0.231 C 
ENDROOT
BRANCH   1   2
ATOM      2  C   UNL     1     -46.947 -19.578  26.933  1.00  0.00     0.129 A 
ATOM      3  C   UNL     1     -45.621 -17.942  26.311  1.00  0.00     0.042 A 
ATOM      4  C   UNL     1     -44.996 -19.166  26.180  1.00  0.00     0.195 A 
ATOM      5  C   UNL     1     -46.881 -18.206  26.801  1.00  0.00     0.048 A 
ATOM      6  O   UNL     1     -45.811 -20.122  26.562  1.00  0.00    -0.467 OA
ENDBRANCH   1   2
BRANCH   1   7
ATOM      7  O   UNL     1     -48.098 -20.354  28.859  1.00  0.00    -0.388 OA
ATOM      8  H   UNL     1     -47.969 -19.412  29.143  1.00  0.00     0.211 HD
ENDBRANCH   1   7
TORSDOF 2
ENDMDL
MODEL 4
REMARK VINA RESULT:    -2.741     12.945     13.639
REMARK INTER + INTRA:          -2.996
REMARK INTER:                  -2.977
REMARK INTRA:                  -0.019
REMARK UNBOUND:                -0.014
REMARK SMILES OCc1ccco1
REMARK SMILES IDX 2 1 3 2 5 3 6 4 4 5 7 6 1 7
REMARK H PARENT 1 8
REMARK Flexibility Score: inf
ROOT
ATOM      1  C   UNL     1     -47.846 -20.417  27.607  1.00  0.00     0.231 C 
ENDROOT
BRANCH   1   2
ATOM      2  C   UNL     1     -46.613 -21.254  27.733  1.00  0.00     0.129 A 
ATOM      3  C   UNL     1     -44.594 -22.072  27.459  1.00  0.00     0.042 A 
ATOM      4  C   UNL     1     -45.262 -22.725  28.474  1.00  0.00     0.195 A 
ATOM      5  C   UNL     1     -45.464 -21.117  26.980  1.00  0.00     0.048 A 
ATOM      6  O   UNL     1     -46.463 -22.213  28.615  1.00  0.00    -0.467 OA
ENDBRANCH   1   2
BRANCH   1   7
ATOM      7  O   UNL     1     -48.317 -20.060  28.877  1.00  0.00    -0.388 OA
ATOM      8  H   UNL     1     -48.962 -20.765  29.148  1.00  0.00     0.211 HD
ENDBRANCH   1   7
TORSDOF 2
ENDMDL
MODEL 5
REMARK VINA RESULT:    -2.735     11.794     12.640
REMARK INTER + INTRA:          -2.989
REMARK INTER:                  -2.977
REMARK INTRA:                  -0.012
REMARK UNBOUND:                -0.014
REMARK SMILES OCc1ccco1
REMARK SMILES IDX 2 1 3 2 5 3 6 4 4 5 7 6 1 7
REMARK H PARENT 1 8
REMARK Flexibility Score: inf
ROOT
ATOM      1  C   UNL     1     -46.847 -17.689  26.495  1.00  0.00     0.231 C 
ENDROOT
BRANCH   1   2
ATOM      2  C   UNL     1     -46.774 -19.122  26.915  1.00  0.00     0.129 A 
ATOM      3  C   UNL     1     -47.276 -21.101  27.723  1.00  0.00     0.042 A 
ATOM      4  C   UNL     1     -46.019 -21.101  27.151  1.00  0.00     0.195 A 
ATOM      5  C   UNL     1     -47.767 -19.824  27.568  1.00  0.00     0.048 A 
ATOM      6  O   UNL     1     -45.750 -19.907  26.675  1.00  0.00    -0.467 OA
ENDBRANCH   1   2
BRANCH   1   7
ATOM      7  O   UNL     1     -46.637 -16.853  27.599  1.00  0.00    -0.388 OA
ATOM      8  H   UNL     1     -47.420 -16.243  27.646  1.00  0.00     0.211 HD
ENDBRANCH   1   7
TORSDOF 2
ENDMDL
MODEL 6
REMARK VINA RESULT:    -2.697      7.555      8.318
REMARK INTER + INTRA:          -2.947
REMARK INTER:                  -2.928
REMARK INTRA:                  -0.020
REMARK UNBOUND:                -0.014
REMARK SMILES OCc1ccco1
REMARK SMILES IDX 2 1 3 2 5 3 6 4 4 5 7 6 1 7
REMARK H PARENT 1 8
REMARK Flexibility Score: inf
ROOT
ATOM      1  C   UNL     1     -39.517 -18.561  26.162  1.00  0.00     0.231 C 
ENDROOT
BRANCH   1   2
ATOM      2  C   UNL     1     -39.410 -19.605  27.227  1.00  0.00     0.129 A 
ATOM      3  C   UNL     1     -38.676 -21.234  28.504  1.00  0.00     0.042 A 
ATOM      4  C   UNL     1     -39.891 -20.758  28.953  1.00  0.00     0.195 A 
ATOM      5  C   UNL     1     -38.361 -20.488  27.389  1.00  0.00     0.048 A 
ATOM      6  O   UNL     1     -40.301 -19.785  28.173  1.00  0.00    -0.467 OA
ENDBRANCH   1   2
BRANCH   1   7
ATOM      7  O   UNL     1     -40.132 -17.411  26.675  1.00  0.00    -0.388 OA
ATOM      8  H   UNL     1     -39.971 -17.417  27.655  1.00  0.00     0.211 HD
ENDBRANCH   1   7
TORSDOF 2
ENDMDL
MODEL 7
REMARK VINA RESULT:    -2.591      9.895     10.605
REMARK INTER + INTRA:          -2.833
REMARK INTER:                  -2.819
REMARK INTRA:                  -0.014
REMARK UNBOUND:                -0.014
REMARK SMILES OCc1ccco1
REMARK SMILES IDX 2 1 3 2 5 3 6 4 4 5 7 6 1 7
REMARK H PARENT 1 8
REMARK Flexibility Score: inf
ROOT
ATOM      1  C   UNL     1     -41.923 -22.303  28.633  1.00  0.00     0.231 C 
ENDROOT
BRANCH   1   2
ATOM      2  C   UNL     1     -40.484 -21.925  28.485  1.00  0.00     0.129 A 
ATOM      3  C   UNL     1     -38.595 -20.805  28.498  1.00  0.00     0.042 A 
ATOM      4  C   UNL     1     -38.394 -22.117  28.117  1.00  0.00     0.195 A 
ATOM      5  C   UNL     1     -39.946 -20.680  28.739  1.00  0.00     0.048 A 
ATOM      6  O   UNL     1     -39.539 -22.760  28.122  1.00  0.00    -0.467 OA
ENDBRANCH   1   2
BRANCH   1   7
ATOM      7  O   UNL     1     -42.293 -22.268  29.985  1.00  0.00    -0.388 OA
ATOM      8  H   UNL     1     -41.816 -23.019  30.428  1.00  0.00     0.211 HD
ENDBRANCH   1   7
TORSDOF 2
ENDMDL
MODEL 8
REMARK VINA RESULT:    -2.452     12.481     13.116
REMARK INTER + INTRA:          -2.681
REMARK INTER:                  -2.667
REMARK INTRA:                  -0.014
REMARK UNBOUND:                -0.014
REMARK SMILES OCc1ccco1
REMARK SMILES IDX 2 1 3 2 5 3 6 4 4 5 7 6 1 7
REMARK H PARENT 1 8
REMARK Flexibility Score: inf
ROOT
ATOM      1  C   UNL     1     -44.776 -21.972  27.265  1.00  0.00     0.231 C 
ENDROOT
BRANCH   1   2
ATOM      2  C   UNL     1     -45.985 -21.095  27.347  1.00  0.00     0.129 A 
ATOM      3  C   UNL     1     -47.952 -20.276  27.878  1.00  0.00     0.042 A 
ATOM      4  C   UNL     1     -47.260 -19.414  27.051  1.00  0.00     0.195 A 
ATOM      5  C   UNL     1     -47.128 -21.362  28.073  1.00  0.00     0.048 A 
ATOM      6  O   UNL     1     -46.089 -19.929  26.754  1.00  0.00    -0.467 OA
ENDBRANCH   1   2
BRANCH   1   7
ATOM      7  O   UNL     1     -44.291 -22.243  28.552  1.00  0.00    -0.388 OA
ATOM      8  H   UNL     1     -43.544 -21.609  28.712  1.00  0.00     0.211 HD
ENDBRANCH   1   7
TORSDOF 2
ENDMDL
MODEL 9
REMARK VINA RESULT:    -2.442      7.600      8.168
REMARK INTER + INTRA:          -2.670
REMARK INTER:                  -2.655
REMARK INTRA:                  -0.015
REMARK UNBOUND:                -0.014
REMARK SMILES OCc1ccco1
REMARK SMILES IDX 2 1 3 2 5 3 6 4 4 5 7 6 1 7
REMARK H PARENT 1 8
REMARK Flexibility Score: inf
ROOT
ATOM      1  C   UNL     1     -39.700 -20.645  28.969  1.00  0.00     0.231 C 
ENDROOT
BRANCH   1   2
ATOM      2  C   UNL     1     -40.074 -19.814  27.785  1.00  0.00     0.129 A 
ATOM      3  C   UNL     1     -40.041 -18.330  26.166  1.00  0.00     0.042 A 
ATOM      4  C   UNL     1     -41.173 -19.119  26.096  1.00  0.00     0.195 A 
ATOM      5  C   UNL     1     -39.328 -18.780  27.255  1.00  0.00     0.048 A 
ATOM      6  O   UNL     1     -41.162 -19.996  27.073  1.00  0.00    -0.467 OA
ENDBRANCH   1   2
BRANCH   1   7
ATOM      7  O   UNL     1     -38.352 -21.022  28.887  1.00  0.00    -0.388 OA
ATOM      8  H   UNL     1     -38.203 -21.699  29.597  1.00  0.00     0.211 HD
ENDBRANCH   1   7
TORSDOF 2
ENDMDL
