MODEL 1
REMARK VINA RESULT:    -3.944      0.000      0.000
REMARK INTER + INTRA:          -4.262
REMARK INTER:                  -4.175
REMARK INTRA:                  -0.087
REMARK UNBOUND:                -0.087
REMARK SMILES C=C(C)[C@@H]1CC=C(C)C(=O)C1
REMARK SMILES IDX 8 1 7 2 6 3 5 4 4 5 11 6 9 7 10 8 2 9 1 10 3 11
REMARK H PARENT
REMARK Flexibility Score: inf
ROOT
ATOM      1  C   UNL     1      -8.675  -6.013  -0.064  1.00  0.00     0.048 C 
ATOM      2  C   UNL     1      -8.567  -5.899  -1.559  1.00  0.00    -0.012 C 
ATOM      3  C   UNL     1      -9.116  -6.842  -2.344  1.00  0.00    -0.019 C 
ATOM      4  C   UNL     1      -9.053  -6.767  -3.846  1.00  0.00     0.036 C 
ATOM      5  C   UNL     1      -7.751  -6.091  -4.313  1.00  0.00     0.025 C 
ATOM      6  C   UNL     1      -7.599  -4.707  -3.653  1.00  0.00     0.089 C 
ATOM      7  C   UNL     1      -7.751  -4.815  -2.160  1.00  0.00     0.158 C 
ATOM      8  O   UNL     1      -7.206  -3.949  -1.425  1.00  0.00    -0.295 OA
ENDROOT
BRANCH   5   9
ATOM      9  C   UNL     1      -7.686  -5.993  -5.831  1.00  0.00    -0.077 C 
ATOM     10  C   UNL     1      -6.873  -6.805  -6.524  1.00  0.00     0.008 C 
ATOM     11  C   UNL     1      -8.522  -4.992  -6.590  1.00  0.00     0.039 C 
ENDBRANCH   5   9
TORSDOF 1
ENDMDL
MODEL 2
REMARK VINA RESULT:    -3.585      1.946      4.596
REMARK INTER + INTRA:          -3.882
REMARK INTER:                  -3.784
REMARK INTRA:                  -0.097
REMARK UNBOUND:                -0.087
REMARK SMILES C=C(C)[C@@H]1CC=C(C)C(=O)C1
REMARK SMILES IDX 8 1 7 2 6 3 5 4 4 5 11 6 9 7 10 8 2 9 1 10 3 11
REMARK H PARENT
REMARK Flexibility Score: inf
ROOT
ATOM      1  C   UNL     1      -8.649  -3.749  -8.153  1.00  0.00     0.048 C 
ATOM      2  C   UNL     1      -8.287  -4.111  -6.739  1.00  0.00    -0.012 C 
ATOM      3  C   UNL     1      -8.046  -5.394  -6.418  1.00  0.00    -0.019 C 
ATOM      4  C   UNL     1      -7.662  -5.809  -5.023  1.00  0.00     0.036 C 
ATOM      5  C   UNL     1      -8.328  -4.902  -3.972  1.00  0.00     0.025 C 
ATOM      6  C   UNL     1      -7.996  -3.424  -4.252  1.00  0.00     0.089 C 
ATOM      7  C   UNL     1      -8.318  -3.073  -5.679  1.00  0.00     0.158 C 
ATOM      8  O   UNL     1      -8.578  -1.875  -5.971  1.00  0.00    -0.295 OA
ENDROOT
BRANCH   5   9
ATOM      9  C   UNL     1      -7.930  -5.302  -2.558  1.00  0.00    -0.077 C 
ATOM     10  C   UNL     1      -6.829  -4.778  -1.994  1.00  0.00     0.008 C 
ATOM     11  C   UNL     1      -8.748  -6.287  -1.760  1.00  0.00     0.039 C 
ENDBRANCH   5   9
TORSDOF 1
ENDMDL
MODEL 3
REMARK VINA RESULT:    -3.476     22.296     23.008
REMARK INTER + INTRA:          -3.766
REMARK INTER:                  -3.673
REMARK INTRA:                  -0.093
REMARK UNBOUND:                -0.087
REMARK SMILES C=C(C)[C@@H]1CC=C(C)C(=O)C1
REMARK SMILES IDX 8 1 7 2 6 3 5 4 4 5 11 6 9 7 10 8 2 9 1 10 3 11
REMARK H PARENT
REMARK Flexibility Score: inf
ROOT
ATOM      1  C   UNL     1      -4.204 -22.032 -17.932  1.00  0.00     0.048 C 
ATOM      2  C   UNL     1      -2.850 -21.651 -18.461  1.00  0.00    -0.012 C 
ATOM      3  C   UNL     1      -1.741 -22.123 -17.864  1.00  0.00    -0.019 C 
ATOM      4  C   UNL     1      -0.361 -21.789 -18.364  1.00  0.00     0.036 C 
ATOM      5  C   UNL     1      -0.320 -20.376 -18.976  1.00  0.00     0.025 C 
ATOM      6  C   UNL     1      -1.388 -20.239 -20.077  1.00  0.00     0.089 C 
ATOM      7  C   UNL     1      -2.737 -20.661 -19.560  1.00  0.00     0.158 C 
ATOM      8  O   UNL     1      -3.774 -20.190 -20.099  1.00  0.00    -0.295 OA
ENDROOT
BRANCH   5   9
ATOM      9  C   UNL     1       1.067 -20.036 -19.502  1.00  0.00    -0.077 C 
ATOM     10  C   UNL     1       1.377 -18.767 -19.815  1.00  0.00     0.008 C 
ATOM     11  C   UNL     1       2.121 -21.100 -19.686  1.00  0.00     0.039 C 
ENDBRANCH   5   9
TORSDOF 1
ENDMDL
MODEL 4
REMARK VINA RESULT:    -3.458      2.030      4.721
REMARK INTER + INTRA:          -3.747
REMARK INTER:                  -3.658
REMARK INTRA:                  -0.089
REMARK UNBOUND:                -0.087
REMARK SMILES C=C(C)[C@@H]1CC=C(C)C(=O)C1
REMARK SMILES IDX 8 1 7 2 6 3 5 4 4 5 11 6 9 7 10 8 2 9 1 10 3 11
REMARK H PARENT
REMARK Flexibility Score: inf
ROOT
ATOM      1  C   UNL     1      -8.339  -4.139  -7.426  1.00  0.00     0.048 C 
ATOM      2  C   UNL     1      -8.363  -4.435  -5.953  1.00  0.00    -0.012 C 
ATOM      3  C   UNL     1      -8.363  -3.423  -5.067  1.00  0.00    -0.019 C 
ATOM      4  C   UNL     1      -8.405  -3.663  -3.581  1.00  0.00     0.036 C 
ATOM      5  C   UNL     1      -7.671  -4.964  -3.208  1.00  0.00     0.025 C 
ATOM      6  C   UNL     1      -8.246  -6.150  -4.006  1.00  0.00     0.089 C 
ATOM      7  C   UNL     1      -8.262  -5.837  -5.478  1.00  0.00     0.158 C 
ATOM      8  O   UNL     1      -8.227  -6.786  -6.307  1.00  0.00    -0.295 OA
ENDROOT
BRANCH   5   9
ATOM      9  C   UNL     1      -7.725  -5.225  -1.710  1.00  0.00    -0.077 C 
ATOM     10  C   UNL     1      -6.875  -4.592  -0.885  1.00  0.00     0.008 C 
ATOM     11  C   UNL     1      -8.720  -6.191  -1.115  1.00  0.00     0.039 C 
ENDBRANCH   5   9
TORSDOF 1
ENDMDL
MODEL 5
REMARK VINA RESULT:    -3.427     23.085     24.019
REMARK INTER + INTRA:          -3.715
REMARK INTER:                  -3.616
REMARK INTRA:                  -0.098
REMARK UNBOUND:                -0.087
REMARK SMILES C=C(C)[C@@H]1CC=C(C)C(=O)C1
REMARK SMILES IDX 8 1 7 2 6 3 5 4 4 5 11 6 9 7 10 8 2 9 1 10 3 11
REMARK H PARENT
REMARK Flexibility Score: inf
ROOT
ATOM      1  C   UNL     1       4.131 -19.406 -19.895  1.00  0.00     0.048 C 
ATOM      2  C   UNL     1       2.684 -19.814 -19.891  1.00  0.00    -0.012 C 
ATOM      3  C   UNL     1       1.728 -18.887 -19.702  1.00  0.00    -0.019 C 
ATOM      4  C   UNL     1       0.264 -19.238 -19.707  1.00  0.00     0.036 C 
ATOM      5  C   UNL     1       0.032 -20.655 -19.151  1.00  0.00     0.025 C 
ATOM      6  C   UNL     1       0.879 -21.681 -19.927  1.00  0.00     0.089 C 
ATOM      7  C   UNL     1       2.320 -21.251 -19.970  1.00  0.00     0.158 C 
ATOM      8  O   UNL     1       3.217 -22.125 -20.111  1.00  0.00    -0.295 OA
ENDROOT
BRANCH   5   9
ATOM      9  C   UNL     1      -1.445 -21.027 -19.169  1.00  0.00    -0.077 C 
ATOM     10  C   UNL     1      -2.267 -20.474 -20.075  1.00  0.00     0.008 C 
ATOM     11  C   UNL     1      -2.020 -22.012 -18.182  1.00  0.00     0.039 C 
ENDBRANCH   5   9
TORSDOF 1
ENDMDL
MODEL 6
REMARK VINA RESULT:    -3.379     22.465     23.508
REMARK INTER + INTRA:          -3.664
REMARK INTER:                  -3.570
REMARK INTRA:                  -0.094
REMARK UNBOUND:                -0.087
REMARK SMILES C=C(C)[C@@H]1CC=C(C)C(=O)C1
REMARK SMILES IDX 8 1 7 2 6 3 5 4 4 5 11 6 9 7 10 8 2 9 1 10 3 11
REMARK H PARENT
REMARK Flexibility Score: inf
ROOT
ATOM      1  C   UNL     1       3.677 -20.631 -19.725  1.00  0.00     0.048 C 
ATOM      2  C   UNL     1       2.211 -20.675 -19.394  1.00  0.00    -0.012 C 
ATOM      3  C   UNL     1       1.654 -21.825 -18.977  1.00  0.00    -0.019 C 
ATOM      4  C   UNL     1       0.195 -21.919 -18.615  1.00  0.00     0.036 C 
ATOM      5  C   UNL     1      -0.652 -20.962 -19.473  1.00  0.00     0.025 C 
ATOM      6  C   UNL     1      -0.116 -19.523 -19.358  1.00  0.00     0.089 C 
ATOM      7  C   UNL     1       1.360 -19.485 -19.646  1.00  0.00     0.158 C 
ATOM      8  O   UNL     1       1.875 -18.416 -20.071  1.00  0.00    -0.295 OA
ENDROOT
BRANCH   5   9
ATOM      9  C   UNL     1      -2.127 -21.036 -19.101  1.00  0.00    -0.077 C 
ATOM     10  C   UNL     1      -3.044 -20.406 -19.853  1.00  0.00     0.008 C 
ATOM     11  C   UNL     1      -2.595 -21.809 -17.893  1.00  0.00     0.039 C 
ENDBRANCH   5   9
TORSDOF 1
ENDMDL
MODEL 7
REMARK VINA RESULT:    -3.309     22.080     22.989
REMARK INTER + INTRA:          -3.590
REMARK INTER:                  -3.491
REMARK INTRA:                  -0.099
REMARK UNBOUND:                -0.087
REMARK SMILES C=C(C)[C@@H]1CC=C(C)C(=O)C1
REMARK SMILES IDX 8 1 7 2 6 3 5 4 4 5 11 6 9 7 10 8 2 9 1 10 3 11
REMARK H PARENT
REMARK Flexibility Score: inf
ROOT
ATOM      1  C   UNL     1      -5.365 -20.347 -19.703  1.00  0.00     0.048 C 
ATOM      2  C   UNL     1      -3.934 -20.628 -19.340  1.00  0.00    -0.012 C 
ATOM      3  C   UNL     1      -2.943 -20.165 -20.122  1.00  0.00    -0.019 C 
ATOM      4  C   UNL     1      -1.492 -20.402 -19.795  1.00  0.00     0.036 C 
ATOM      5  C   UNL     1      -1.297 -21.755 -19.086  1.00  0.00     0.025 C 
ATOM      6  C   UNL     1      -2.196 -21.840 -17.839  1.00  0.00     0.089 C 
ATOM      7  C   UNL     1      -3.622 -21.517 -18.193  1.00  0.00     0.158 C 
ATOM      8  O   UNL     1      -4.551 -21.981 -17.479  1.00  0.00    -0.295 OA
ENDROOT
BRANCH   5   9
ATOM      9  C   UNL     1       0.165 -21.995 -18.735  1.00  0.00    -0.077 C 
ATOM     10  C   UNL     1       0.537 -22.125 -17.451  1.00  0.00     0.008 C 
ATOM     11  C   UNL     1       1.225 -22.090 -19.804  1.00  0.00     0.039 C 
ENDBRANCH   5   9
TORSDOF 1
ENDMDL
MODEL 8
REMARK VINA RESULT:    -3.125     22.514     23.541
REMARK INTER + INTRA:          -3.395
REMARK INTER:                  -3.298
REMARK INTRA:                  -0.097
REMARK UNBOUND:                -0.087
REMARK SMILES C=C(C)[C@@H]1CC=C(C)C(=O)C1
REMARK SMILES IDX 8 1 7 2 6 3 5 4 4 5 11 6 9 7 10 8 2 9 1 10 3 11
REMARK H PARENT
REMARK Flexibility Score: inf
ROOT
ATOM      1  C   UNL     1      -2.815 -20.475 -19.434  1.00  0.00     0.048 C 
ATOM      2  C   UNL     1      -1.323 -20.364 -19.285  1.00  0.00    -0.012 C 
ATOM      3  C   UNL     1      -0.636 -19.502 -20.055  1.00  0.00    -0.019 C 
ATOM      4  C   UNL     1       0.855 -19.339 -19.935  1.00  0.00     0.036 C 
ATOM      5  C   UNL     1       1.529 -20.666 -19.539  1.00  0.00     0.025 C 
ATOM      6  C   UNL     1       0.898 -21.221 -18.248  1.00  0.00     0.089 C 
ATOM      7  C   UNL     1      -0.599 -21.292 -18.381  1.00  0.00     0.158 C 
ATOM      8  O   UNL     1      -1.238 -22.125 -17.683  1.00  0.00    -0.295 OA
ENDROOT
BRANCH   5   9
ATOM      9  C   UNL     1       3.036 -20.505 -19.396  1.00  0.00    -0.077 C 
ATOM     10  C   UNL     1       3.539 -19.538 -18.612  1.00  0.00     0.008 C 
ATOM     11  C   UNL     1       3.995 -21.415 -20.123  1.00  0.00     0.039 C 
ENDBRANCH   5   9
TORSDOF 1
ENDMDL
MODEL 9
REMARK VINA RESULT:    -2.985      1.931      3.325
REMARK INTER + INTRA:          -3.247
REMARK INTER:                  -3.151
REMARK INTRA:                  -0.096
REMARK UNBOUND:                -0.087
REMARK SMILES C=C(C)[C@@H]1CC=C(C)C(=O)C1
REMARK SMILES IDX 8 1 7 2 6 3 5 4 4 5 11 6 9 7 10 8 2 9 1 10 3 11
REMARK H PARENT
REMARK Flexibility Score: inf
ROOT
ATOM      1  C   UNL     1      -8.679  -7.077  -3.670  1.00  0.00     0.048 C 
ATOM      2  C   UNL     1      -8.693  -5.966  -4.682  1.00  0.00    -0.012 C 
ATOM      3  C   UNL     1      -8.991  -6.233  -5.965  1.00  0.00    -0.019 C 
ATOM      4  C   UNL     1      -9.037  -5.155  -7.016  1.00  0.00     0.036 C 
ATOM      5  C   UNL     1      -8.012  -4.045  -6.716  1.00  0.00     0.025 C 
ATOM      6  C   UNL     1      -8.229  -3.486  -5.297  1.00  0.00     0.089 C 
ATOM      7  C   UNL     1      -8.258  -4.602  -4.289  1.00  0.00     0.158 C 
ATOM      8  O   UNL     1      -7.945  -4.357  -3.093  1.00  0.00    -0.295 OA
ENDROOT
BRANCH   5   9
ATOM      9  C   UNL     1      -8.065  -2.941  -7.763  1.00  0.00    -0.077 C 
ATOM     10  C   UNL     1      -7.252  -1.876  -7.660  1.00  0.00     0.008 C 
ATOM     11  C   UNL     1      -9.018  -3.008  -8.929  1.00  0.00     0.039 C 
ENDBRANCH   5   9
TORSDOF 1
ENDMDL
