MODEL 1
REMARK VINA RESULT:    -3.259      0.000      0.000
REMARK INTER + INTRA:          -3.878
REMARK INTER:                  -3.831
REMARK INTRA:                  -0.047
REMARK UNBOUND:                -0.047
REMARK SMILES CCCCC(=O)[O-]
REMARK SMILES IDX 4 1 5 2 6 3 7 4 3 5 2 6 1 7
REMARK H PARENT
REMARK Flexibility Score: inf
ROOT
ATOM      1  C   UNL     1      -7.979 -15.220  16.617  1.00  0.00     0.053 C 
ENDROOT
BRANCH   1   2
ATOM      2  C   UNL     1      -7.582 -14.036  17.444  1.00  0.00     0.041 C 
ATOM      3  O   UNL     1      -6.996 -14.200  18.546  1.00  0.00    -0.550 OA
ATOM      4  O   UNL     1      -7.891 -12.752  17.013  1.00  0.00    -0.550 OA
ENDBRANCH   1   2
BRANCH   1   5
ATOM      5  C   UNL     1      -8.640 -14.797  15.300  1.00  0.00     0.006 C 
BRANCH   5   6
ATOM      6  C   UNL     1      -7.718 -15.015  14.090  1.00  0.00    -0.003 C 
ATOM      7  C   UNL     1      -8.439 -15.773  12.979  1.00  0.00     0.004 C 
ENDBRANCH   5   6
ENDBRANCH   1   5
TORSDOF 3
ENDMDL
MODEL 2
REMARK VINA RESULT:    -3.179      1.337      1.762
REMARK INTER + INTRA:          -3.783
REMARK INTER:                  -3.700
REMARK INTRA:                  -0.083
REMARK UNBOUND:                -0.047
REMARK SMILES CCCCC(=O)[O-]
REMARK SMILES IDX 4 1 5 2 6 3 7 4 3 5 2 6 1 7
REMARK H PARENT
REMARK Flexibility Score: inf
ROOT
ATOM      1  C   UNL     1      -8.046 -15.188  16.415  1.00  0.00     0.053 C 
ENDROOT
BRANCH   1   2
ATOM      2  C   UNL     1      -7.842 -14.383  17.662  1.00  0.00     0.041 C 
ATOM      3  O   UNL     1      -8.537 -14.615  18.687  1.00  0.00    -0.550 OA
ATOM      4  O   UNL     1      -6.908 -13.355  17.682  1.00  0.00    -0.550 OA
ENDBRANCH   1   2
BRANCH   1   5
ATOM      5  C   UNL     1      -7.660 -14.396  15.159  1.00  0.00     0.006 C 
BRANCH   5   6
ATOM      6  C   UNL     1      -8.882 -14.036  14.301  1.00  0.00    -0.003 C 
ATOM      7  C   UNL     1      -9.486 -12.704  14.736  1.00  0.00     0.004 C 
ENDBRANCH   5   6
ENDBRANCH   1   5
TORSDOF 3
ENDMDL
MODEL 3
REMARK VINA RESULT:    -3.160      2.364      3.836
REMARK INTER + INTRA:          -3.762
REMARK INTER:                  -3.665
REMARK INTRA:                  -0.097
REMARK UNBOUND:                -0.047
REMARK SMILES CCCCC(=O)[O-]
REMARK SMILES IDX 4 1 5 2 6 3 7 4 3 5 2 6 1 7
REMARK H PARENT
REMARK Flexibility Score: inf
ROOT
ATOM      1  C   UNL     1      -7.832 -15.014  15.201  1.00  0.00     0.053 C 
ENDROOT
BRANCH   1   2
ATOM      2  C   UNL     1      -8.742 -14.432  14.164  1.00  0.00     0.041 C 
ATOM      3  O   UNL     1      -9.406 -13.392  14.413  1.00  0.00    -0.550 OA
ATOM      4  O   UNL     1      -8.882 -15.059  12.931  1.00  0.00    -0.550 OA
ENDBRANCH   1   2
BRANCH   1   5
ATOM      5  C   UNL     1      -8.587 -15.354  16.493  1.00  0.00     0.006 C 
BRANCH   5   6
ATOM      6  C   UNL     1      -7.866 -14.826  17.743  1.00  0.00    -0.003 C 
ATOM      7  C   UNL     1      -7.234 -13.462  17.479  1.00  0.00     0.004 C 
ENDBRANCH   5   6
ENDBRANCH   1   5
TORSDOF 3
ENDMDL
MODEL 4
REMARK VINA RESULT:    -3.092      1.470      1.626
REMARK INTER + INTRA:          -3.682
REMARK INTER:                  -3.546
REMARK INTRA:                  -0.136
REMARK UNBOUND:                -0.047
REMARK SMILES CCCCC(=O)[O-]
REMARK SMILES IDX 4 1 5 2 6 3 7 4 3 5 2 6 1 7
REMARK H PARENT
REMARK Flexibility Score: inf
ROOT
ATOM      1  C   UNL     1      -8.187 -12.703  16.339  1.00  0.00     0.053 C 
ENDROOT
BRANCH   1   2
ATOM      2  C   UNL     1      -8.291 -13.897  17.237  1.00  0.00     0.041 C 
ATOM      3  O   UNL     1      -7.318 -14.231  17.964  1.00  0.00    -0.550 OA
ATOM      4  O   UNL     1      -9.451 -14.662  17.247  1.00  0.00    -0.550 OA
ENDBRANCH   1   2
BRANCH   1   5
ATOM      5  C   UNL     1      -8.452 -13.069  14.874  1.00  0.00     0.006 C 
BRANCH   5   6
ATOM      6  C   UNL     1      -7.461 -14.119  14.349  1.00  0.00    -0.003 C 
ATOM      7  C   UNL     1      -8.189 -15.252  13.630  1.00  0.00     0.004 C 
ENDBRANCH   5   6
ENDBRANCH   1   5
TORSDOF 3
ENDMDL
MODEL 5
REMARK VINA RESULT:    -3.088      2.176      2.843
REMARK INTER + INTRA:          -3.677
REMARK INTER:                  -3.565
REMARK INTRA:                  -0.112
REMARK UNBOUND:                -0.047
REMARK SMILES CCCCC(=O)[O-]
REMARK SMILES IDX 4 1 5 2 6 3 7 4 3 5 2 6 1 7
REMARK H PARENT
REMARK Flexibility Score: inf
ROOT
ATOM      1  C   UNL     1      -8.233 -12.738  15.790  1.00  0.00     0.053 C 
ENDROOT
BRANCH   1   2
ATOM      2  C   UNL     1      -9.704 -12.517  15.615  1.00  0.00     0.041 C 
ATOM      3  O   UNL     1     -10.175 -12.249  14.478  1.00  0.00    -0.550 OA
ATOM      4  O   UNL     1     -10.552 -12.575  16.715  1.00  0.00    -0.550 OA
ENDBRANCH   1   2
BRANCH   1   5
ATOM      5  C   UNL     1      -7.856 -14.215  15.618  1.00  0.00     0.006 C 
BRANCH   5   6
ATOM      6  C   UNL     1      -7.353 -14.524  14.200  1.00  0.00    -0.003 C 
ATOM      7  C   UNL     1      -8.391 -15.315  13.408  1.00  0.00     0.004 C 
ENDBRANCH   5   6
ENDBRANCH   1   5
TORSDOF 3
ENDMDL
MODEL 6
REMARK VINA RESULT:    -3.071     14.117     15.368
REMARK INTER + INTRA:          -3.657
REMARK INTER:                  -3.625
REMARK INTRA:                  -0.033
REMARK UNBOUND:                -0.047
REMARK SMILES CCCCC(=O)[O-]
REMARK SMILES IDX 4 1 5 2 6 3 7 4 3 5 2 6 1 7
REMARK H PARENT
REMARK Flexibility Score: inf
ROOT
ATOM      1  C   UNL     1     -11.289  -7.513  29.142  1.00  0.00     0.053 C 
ENDROOT
BRANCH   1   2
ATOM      2  C   UNL     1     -11.396  -7.077  30.571  1.00  0.00     0.041 C 
ATOM      3  O   UNL     1     -11.284  -7.919  31.501  1.00  0.00    -0.550 OA
ATOM      4  O   UNL     1     -11.653  -5.746  30.875  1.00  0.00    -0.550 OA
ENDBRANCH   1   2
BRANCH   1   5
ATOM      5  C   UNL     1     -11.601  -9.006  28.979  1.00  0.00     0.006 C 
BRANCH   5   6
ATOM      6  C   UNL     1     -12.070  -9.349  27.556  1.00  0.00    -0.003 C 
ATOM      7  C   UNL     1     -11.493  -8.371  26.536  1.00  0.00     0.004 C 
ENDBRANCH   5   6
ENDBRANCH   1   5
TORSDOF 3
ENDMDL
MODEL 7
REMARK VINA RESULT:    -3.056      2.146      3.602
REMARK INTER + INTRA:          -3.639
REMARK INTER:                  -3.543
REMARK INTRA:                  -0.097
REMARK UNBOUND:                -0.047
REMARK SMILES CCCCC(=O)[O-]
REMARK SMILES IDX 4 1 5 2 6 3 7 4 3 5 2 6 1 7
REMARK H PARENT
REMARK Flexibility Score: inf
ROOT
ATOM      1  C   UNL     1      -9.001 -13.603  14.585  1.00  0.00     0.053 C 
ENDROOT
BRANCH   1   2
ATOM      2  C   UNL     1      -9.712 -12.396  15.114  1.00  0.00     0.041 C 
ATOM      3  O   UNL     1     -10.447 -11.710  14.356  1.00  0.00    -0.550 OA
ATOM      4  O   UNL     1      -9.536 -12.009  16.437  1.00  0.00    -0.550 OA
ENDBRANCH   1   2
BRANCH   1   5
ATOM      5  C   UNL     1      -7.782 -13.965  15.442  1.00  0.00     0.006 C 
BRANCH   5   6
ATOM      6  C   UNL     1      -8.040 -15.192  16.331  1.00  0.00    -0.003 C 
ATOM      7  C   UNL     1      -7.818 -14.860  17.804  1.00  0.00     0.004 C 
ENDBRANCH   5   6
ENDBRANCH   1   5
TORSDOF 3
ENDMDL
MODEL 8
REMARK VINA RESULT:    -2.934      9.334     11.274
REMARK INTER + INTRA:          -3.496
REMARK INTER:                  -3.460
REMARK INTRA:                  -0.037
REMARK UNBOUND:                -0.047
REMARK SMILES CCCCC(=O)[O-]
REMARK SMILES IDX 4 1 5 2 6 3 7 4 3 5 2 6 1 7
REMARK H PARENT
REMARK Flexibility Score: inf
ROOT
ATOM      1  C   UNL     1      -3.786 -15.389  25.738  1.00  0.00     0.053 C 
ENDROOT
BRANCH   1   2
ATOM      2  C   UNL     1      -3.790 -14.982  24.296  1.00  0.00     0.041 C 
ATOM      3  O   UNL     1      -4.385 -15.689  23.440  1.00  0.00    -0.550 OA
ATOM      4  O   UNL     1      -3.109 -13.840  23.893  1.00  0.00    -0.550 OA
ENDBRANCH   1   2
BRANCH   1   5
ATOM      5  C   UNL     1      -2.364 -15.435  26.310  1.00  0.00     0.006 C 
BRANCH   5   6
ATOM      6  C   UNL     1      -1.821 -16.869  26.402  1.00  0.00    -0.003 C 
ATOM      7  C   UNL     1      -0.799 -17.000  27.528  1.00  0.00     0.004 C 
ENDBRANCH   5   6
ENDBRANCH   1   5
TORSDOF 3
ENDMDL
MODEL 9
REMARK VINA RESULT:    -2.829     17.966     18.566
REMARK INTER + INTRA:          -3.372
REMARK INTER:                  -3.316
REMARK INTRA:                  -0.057
REMARK UNBOUND:                -0.047
REMARK SMILES CCCCC(=O)[O-]
REMARK SMILES IDX 4 1 5 2 6 3 7 4 3 5 2 6 1 7
REMARK H PARENT
REMARK Flexibility Score: inf
ROOT
ATOM      1  C   UNL     1       2.629 -10.579  30.981  1.00  0.00     0.053 C 
ENDROOT
BRANCH   1   2
ATOM      2  C   UNL     1       1.555  -9.570  31.251  1.00  0.00     0.041 C 
ATOM      3  O   UNL     1       0.396  -9.947  31.569  1.00  0.00    -0.550 OA
ATOM      4  O   UNL     1       1.826  -8.214  31.121  1.00  0.00    -0.550 OA
ENDBRANCH   1   2
BRANCH   1   5
ATOM      5  C   UNL     1       2.419 -11.864  31.792  1.00  0.00     0.006 C 
BRANCH   5   6
ATOM      6  C   UNL     1       2.389 -13.115  30.902  1.00  0.00    -0.003 C 
ATOM      7  C   UNL     1       1.218 -14.023  31.268  1.00  0.00     0.004 C 
ENDBRANCH   5   6
ENDBRANCH   1   5
TORSDOF 3
ENDMDL
