MODEL 1
REMARK VINA RESULT:    -4.229      0.000      0.000
REMARK INTER + INTRA:          -6.235
REMARK INTER:                  -5.712
REMARK INTRA:                  -0.523
REMARK UNBOUND:                -0.523
REMARK SMILES CCCCCCC=CC(=O)[O-]
REMARK SMILES IDX 5 1 6 2 7 3 8 4 9 5 10 6 11 7 4 8 3 9 2 10 1 11
REMARK H PARENT
REMARK Flexibility Score: inf
ROOT
ATOM      1  C   UNL     1     -27.342  -5.465  26.438  1.00  0.00     0.004 C 
ENDROOT
BRANCH   1   2
ATOM      2  C   UNL     1     -28.367  -6.184  27.325  1.00  0.00     0.027 C 
BRANCH   2   3
ATOM      3  C   UNL     1     -29.316  -7.015  26.509  1.00  0.00    -0.025 C 
ATOM      4  C   UNL     1     -30.383  -7.607  27.058  1.00  0.00     0.020 C 
BRANCH   4   5
ATOM      5  C   UNL     1     -31.341  -8.396  26.268  1.00  0.00     0.064 C 
ATOM      6  O   UNL     1     -32.379  -8.879  26.797  1.00  0.00    -0.545 OA
ATOM      7  O   UNL     1     -31.099  -8.613  24.919  1.00  0.00    -0.545 OA
ENDBRANCH   4   5
ENDBRANCH   2   3
ENDBRANCH   1   2
BRANCH   1   8
ATOM      8  C   UNL     1     -27.512  -5.817  24.952  1.00  0.00     0.000 C 
BRANCH   8   9
ATOM      9  C   UNL     1     -27.613  -4.549  24.096  1.00  0.00    -0.000 C 
BRANCH   9  10
ATOM     10  C   UNL     1     -28.714  -4.686  23.039  1.00  0.00    -0.003 C 
ATOM     11  C   UNL     1     -29.223  -6.123  22.956  1.00  0.00     0.004 C 
ENDBRANCH   9  10
ENDBRANCH   8   9
ENDBRANCH   1   8
TORSDOF 6
ENDMDL
MODEL 2
REMARK VINA RESULT:    -4.111      1.892      3.906
REMARK INTER + INTRA:          -6.077
REMARK INTER:                  -5.596
REMARK INTRA:                  -0.481
REMARK UNBOUND:                -0.523
REMARK SMILES CCCCCCC=CC(=O)[O-]
REMARK SMILES IDX 5 1 6 2 7 3 8 4 9 5 10 6 11 7 4 8 3 9 2 10 1 11
REMARK H PARENT
REMARK Flexibility Score: inf
ROOT
ATOM      1  C   UNL     1     -27.730  -4.797  24.330  1.00  0.00     0.004 C 
ENDROOT
BRANCH   1   2
ATOM      2  C   UNL     1     -28.713  -5.253  23.243  1.00  0.00     0.027 C 
BRANCH   2   3
ATOM      3  C   UNL     1     -28.643  -6.738  23.023  1.00  0.00    -0.025 C 
ATOM      4  C   UNL     1     -29.591  -7.393  22.345  1.00  0.00     0.020 C 
BRANCH   4   5
ATOM      5  C   UNL     1     -29.522  -8.841  22.090  1.00  0.00     0.064 C 
ATOM      6  O   UNL     1     -29.649  -9.674  23.028  1.00  0.00    -0.545 OA
ATOM      7  O   UNL     1     -29.312  -9.297  20.796  1.00  0.00    -0.545 OA
ENDBRANCH   4   5
ENDBRANCH   2   3
ENDBRANCH   1   2
BRANCH   1   8
ATOM      8  C   UNL     1     -27.357  -5.937  25.290  1.00  0.00     0.000 C 
BRANCH   8   9
ATOM      9  C   UNL     1     -27.333  -5.446  26.742  1.00  0.00    -0.000 C 
BRANCH   9  10
ATOM     10  C   UNL     1     -28.417  -6.140  27.574  1.00  0.00    -0.003 C 
ATOM     11  C   UNL     1     -29.294  -7.034  26.702  1.00  0.00     0.004 C 
ENDBRANCH   9  10
ENDBRANCH   8   9
ENDBRANCH   1   8
TORSDOF 6
ENDMDL
MODEL 3
REMARK VINA RESULT:    -4.084      3.412      5.320
REMARK INTER + INTRA:          -6.040
REMARK INTER:                  -5.691
REMARK INTRA:                  -0.349
REMARK UNBOUND:                -0.523
REMARK SMILES CCCCCCC=CC(=O)[O-]
REMARK SMILES IDX 5 1 6 2 7 3 8 4 9 5 10 6 11 7 4 8 3 9 2 10 1 11
REMARK H PARENT
REMARK Flexibility Score: inf
ROOT
ATOM      1  C   UNL     1     -29.243  -6.569  23.414  1.00  0.00     0.004 C 
ENDROOT
BRANCH   1   2
ATOM      2  C   UNL     1     -28.431  -7.829  23.085  1.00  0.00     0.027 C 
BRANCH   2   3
ATOM      3  C   UNL     1     -28.963  -8.527  21.867  1.00  0.00    -0.025 C 
ATOM      4  C   UNL     1     -28.341  -8.449  20.684  1.00  0.00     0.020 C 
BRANCH   4   5
ATOM      5  C   UNL     1     -28.829  -9.155  19.489  1.00  0.00     0.064 C 
ATOM      6  O   UNL     1     -28.425  -8.841  18.337  1.00  0.00    -0.545 OA
ATOM      7  O   UNL     1     -29.751 -10.183  19.631  1.00  0.00    -0.545 OA
ENDBRANCH   4   5
ENDBRANCH   2   3
ENDBRANCH   1   2
BRANCH   1   8
ATOM      8  C   UNL     1     -28.361  -5.433  23.950  1.00  0.00     0.000 C 
BRANCH   8   9
ATOM      9  C   UNL     1     -27.241  -5.982  24.843  1.00  0.00    -0.000 C 
BRANCH   9  10
ATOM     10  C   UNL     1     -27.387  -5.473  26.282  1.00  0.00    -0.003 C 
ATOM     11  C   UNL     1     -28.432  -6.278  27.048  1.00  0.00     0.004 C 
ENDBRANCH   9  10
ENDBRANCH   8   9
ENDBRANCH   1   8
TORSDOF 6
ENDMDL
MODEL 4
REMARK VINA RESULT:    -3.973     12.248     14.296
REMARK INTER + INTRA:          -5.890
REMARK INTER:                  -5.239
REMARK INTRA:                  -0.651
REMARK UNBOUND:                -0.523
REMARK SMILES CCCCCCC=CC(=O)[O-]
REMARK SMILES IDX 5 1 6 2 7 3 8 4 9 5 10 6 11 7 4 8 3 9 2 10 1 11
REMARK H PARENT
REMARK Flexibility Score: inf
ROOT
ATOM      1  C   UNL     1     -35.968   1.024  15.051  1.00  0.00     0.004 C 
ENDROOT
BRANCH   1   2
ATOM      2  C   UNL     1     -34.583   0.857  15.688  1.00  0.00     0.027 C 
BRANCH   2   3
ATOM      3  C   UNL     1     -34.607   1.182  17.155  1.00  0.00    -0.025 C 
ATOM      4  C   UNL     1     -33.871   2.175  17.667  1.00  0.00     0.020 C 
BRANCH   4   5
ATOM      5  C   UNL     1     -33.909   2.530  19.095  1.00  0.00     0.064 C 
ATOM      6  O   UNL     1     -32.897   2.378  19.830  1.00  0.00    -0.545 OA
ATOM      7  O   UNL     1     -35.079   3.039  19.641  1.00  0.00    -0.545 OA
ENDBRANCH   4   5
ENDBRANCH   2   3
ENDBRANCH   1   2
BRANCH   1   8
ATOM      8  C   UNL     1     -37.014   1.526  16.058  1.00  0.00     0.000 C 
BRANCH   8   9
ATOM      9  C   UNL     1     -37.641   2.843  15.588  1.00  0.00    -0.000 C 
BRANCH   9  10
ATOM     10  C   UNL     1     -36.874   4.047  16.149  1.00  0.00    -0.003 C 
ATOM     11  C   UNL     1     -36.025   4.711  15.069  1.00  0.00     0.004 C 
ENDBRANCH   9  10
ENDBRANCH   8   9
ENDBRANCH   1   8
TORSDOF 6
ENDMDL
MODEL 5
REMARK VINA RESULT:    -3.965      2.353      3.843
REMARK INTER + INTRA:          -5.879
REMARK INTER:                  -5.522
REMARK INTRA:                  -0.356
REMARK UNBOUND:                -0.523
REMARK SMILES CCCCCCC=CC(=O)[O-]
REMARK SMILES IDX 5 1 6 2 7 3 8 4 9 5 10 6 11 7 4 8 3 9 2 10 1 11
REMARK H PARENT
REMARK Flexibility Score: inf
ROOT
ATOM      1  C   UNL     1     -28.776  -6.732  23.704  1.00  0.00     0.004 C 
ENDROOT
BRANCH   1   2
ATOM      2  C   UNL     1     -28.065  -7.811  22.877  1.00  0.00     0.027 C 
BRANCH   2   3
ATOM      3  C   UNL     1     -28.967  -8.982  22.605  1.00  0.00    -0.025 C 
ATOM      4  C   UNL     1     -30.073  -9.199  23.326  1.00  0.00     0.020 C 
BRANCH   4   5
ATOM      5  C   UNL     1     -30.986 -10.320  23.051  1.00  0.00     0.064 C 
ATOM      6  O   UNL     1     -31.123 -10.777  21.885  1.00  0.00    -0.545 OA
ATOM      7  O   UNL     1     -31.708 -10.883  24.094  1.00  0.00    -0.545 OA
ENDBRANCH   4   5
ENDBRANCH   2   3
ENDBRANCH   1   2
BRANCH   1   8
ATOM      8  C   UNL     1     -27.849  -5.554  24.040  1.00  0.00     0.000 C 
BRANCH   8   9
ATOM      9  C   UNL     1     -27.341  -5.650  25.483  1.00  0.00    -0.000 C 
BRANCH   9  10
ATOM     10  C   UNL     1     -28.395  -6.289  26.395  1.00  0.00    -0.003 C 
ATOM     11  C   UNL     1     -28.156  -5.920  27.856  1.00  0.00     0.004 C 
ENDBRANCH   9  10
ENDBRANCH   8   9
ENDBRANCH   1   8
TORSDOF 6
ENDMDL
MODEL 6
REMARK VINA RESULT:    -3.784     12.668     14.345
REMARK INTER + INTRA:          -5.634
REMARK INTER:                  -4.929
REMARK INTRA:                  -0.705
REMARK UNBOUND:                -0.523
REMARK SMILES CCCCCCC=CC(=O)[O-]
REMARK SMILES IDX 5 1 6 2 7 3 8 4 9 5 10 6 11 7 4 8 3 9 2 10 1 11
REMARK H PARENT
REMARK Flexibility Score: inf
ROOT
ATOM      1  C   UNL     1     -34.617  -0.159  16.593  1.00  0.00     0.004 C 
ENDROOT
BRANCH   1   2
ATOM      2  C   UNL     1     -35.425   0.204  15.341  1.00  0.00     0.027 C 
BRANCH   2   3
ATOM      3  C   UNL     1     -35.578   1.691  15.195  1.00  0.00    -0.025 C 
ATOM      4  C   UNL     1     -36.451   2.384  15.935  1.00  0.00     0.020 C 
BRANCH   4   5
ATOM      5  C   UNL     1     -36.590   3.845  15.830  1.00  0.00     0.064 C 
ATOM      6  O   UNL     1     -37.473   4.464  16.482  1.00  0.00    -0.545 OA
ATOM      7  O   UNL     1     -35.734   4.554  14.999  1.00  0.00    -0.545 OA
ENDBRANCH   4   5
ENDBRANCH   2   3
ENDBRANCH   1   2
BRANCH   1   8
ATOM      8  C   UNL     1     -33.244   0.529  16.618  1.00  0.00     0.000 C 
BRANCH   8   9
ATOM      9  C   UNL     1     -32.939   1.097  18.009  1.00  0.00    -0.000 C 
BRANCH   9  10
ATOM     10  C   UNL     1     -33.435   2.542  18.132  1.00  0.00    -0.003 C 
ATOM     11  C   UNL     1     -34.523   2.662  19.196  1.00  0.00     0.004 C 
ENDBRANCH   9  10
ENDBRANCH   8   9
ENDBRANCH   1   8
TORSDOF 6
ENDMDL
MODEL 7
REMARK VINA RESULT:    -3.748      3.820      5.200
REMARK INTER + INTRA:          -5.586
REMARK INTER:                  -5.286
REMARK INTRA:                  -0.300
REMARK UNBOUND:                -0.523
REMARK SMILES CCCCCCC=CC(=O)[O-]
REMARK SMILES IDX 5 1 6 2 7 3 8 4 9 5 10 6 11 7 4 8 3 9 2 10 1 11
REMARK H PARENT
REMARK Flexibility Score: inf
ROOT
ATOM      1  C   UNL     1     -28.830  -8.942  22.699  1.00  0.00     0.004 C 
ENDROOT
BRANCH   1   2
ATOM      2  C   UNL     1     -29.811  -8.397  23.746  1.00  0.00     0.027 C 
BRANCH   2   3
ATOM      3  C   UNL     1     -29.362  -7.068  24.284  1.00  0.00    -0.025 C 
ATOM      4  C   UNL     1     -28.099  -6.647  24.154  1.00  0.00     0.020 C 
BRANCH   4   5
ATOM      5  C   UNL     1     -27.651  -5.334  24.644  1.00  0.00     0.064 C 
ATOM      6  O   UNL     1     -27.645  -4.325  23.889  1.00  0.00    -0.545 OA
ATOM      7  O   UNL     1     -27.228  -5.205  25.959  1.00  0.00    -0.545 OA
ENDBRANCH   4   5
ENDBRANCH   2   3
ENDBRANCH   1   2
BRANCH   1   8
ATOM      8  C   UNL     1     -29.395  -8.851  21.273  1.00  0.00     0.000 C 
BRANCH   8   9
ATOM      9  C   UNL     1     -28.295  -8.485  20.270  1.00  0.00    -0.000 C 
BRANCH   9  10
ATOM     10  C   UNL     1     -28.825  -8.538  18.832  1.00  0.00    -0.003 C 
ATOM     11  C   UNL     1     -29.140  -9.971  18.413  1.00  0.00     0.004 C 
ENDBRANCH   9  10
ENDBRANCH   8   9
ENDBRANCH   1   8
TORSDOF 6
ENDMDL
MODEL 8
REMARK VINA RESULT:    -3.738     13.434     14.030
REMARK INTER + INTRA:          -5.572
REMARK INTER:                  -5.014
REMARK INTRA:                  -0.559
REMARK UNBOUND:                -0.523
REMARK SMILES CCCCCCC=CC(=O)[O-]
REMARK SMILES IDX 5 1 6 2 7 3 8 4 9 5 10 6 11 7 4 8 3 9 2 10 1 11
REMARK H PARENT
REMARK Flexibility Score: inf
ROOT
ATOM      1  C   UNL     1     -39.559   0.568  26.437  1.00  0.00     0.004 C 
ENDROOT
BRANCH   1   2
ATOM      2  C   UNL     1     -40.001  -0.518  25.447  1.00  0.00     0.027 C 
BRANCH   2   3
ATOM      3  C   UNL     1     -40.261   0.053  24.082  1.00  0.00    -0.025 C 
ATOM      4  C   UNL     1     -41.286   0.880  23.850  1.00  0.00     0.020 C 
BRANCH   4   5
ATOM      5  C   UNL     1     -41.536   1.476  22.527  1.00  0.00     0.064 C 
ATOM      6  O   UNL     1     -42.677   1.423  21.994  1.00  0.00    -0.545 OA
ATOM      7  O   UNL     1     -40.497   2.106  21.855  1.00  0.00    -0.545 OA
ENDBRANCH   4   5
ENDBRANCH   2   3
ENDBRANCH   1   2
BRANCH   1   8
ATOM      8  C   UNL     1     -38.209   1.191  26.051  1.00  0.00     0.000 C 
BRANCH   8   9
ATOM      9  C   UNL     1     -38.273   2.721  26.114  1.00  0.00    -0.000 C 
BRANCH   9  10
ATOM     10  C   UNL     1     -39.716   3.203  26.302  1.00  0.00    -0.003 C 
ATOM     11  C   UNL     1     -39.807   4.251  27.408  1.00  0.00     0.004 C 
ENDBRANCH   9  10
ENDBRANCH   8   9
ENDBRANCH   1   8
TORSDOF 6
ENDMDL
MODEL 9
REMARK VINA RESULT:    -3.729     12.714     13.956
REMARK INTER + INTRA:          -5.561
REMARK INTER:                  -5.045
REMARK INTRA:                  -0.515
REMARK UNBOUND:                -0.523
REMARK SMILES CCCCCCC=CC(=O)[O-]
REMARK SMILES IDX 5 1 6 2 7 3 8 4 9 5 10 6 11 7 4 8 3 9 2 10 1 11
REMARK H PARENT
REMARK Flexibility Score: inf
ROOT
ATOM      1  C   UNL     1     -33.119   1.004  17.485  1.00  0.00     0.004 C 
ENDROOT
BRANCH   1   2
ATOM      2  C   UNL     1     -33.990   0.745  16.249  1.00  0.00     0.027 C 
BRANCH   2   3
ATOM      3  C   UNL     1     -35.373   1.306  16.420  1.00  0.00    -0.025 C 
ATOM      4  C   UNL     1     -35.837   2.285  15.634  1.00  0.00     0.020 C 
BRANCH   4   5
ATOM      5  C   UNL     1     -37.200   2.823  15.766  1.00  0.00     0.064 C 
ATOM      6  O   UNL     1     -38.192   2.204  15.295  1.00  0.00    -0.545 OA
ATOM      7  O   UNL     1     -37.397   4.032  16.418  1.00  0.00    -0.545 OA
ENDBRANCH   4   5
ENDBRANCH   2   3
ENDBRANCH   1   2
BRANCH   1   8
ATOM      8  C   UNL     1     -33.225   2.456  17.974  1.00  0.00     0.000 C 
BRANCH   8   9
ATOM      9  C   UNL     1     -33.653   2.510  19.445  1.00  0.00    -0.000 C 
BRANCH   9  10
ATOM     10  C   UNL     1     -35.102   2.994  19.578  1.00  0.00    -0.003 C 
ATOM     11  C   UNL     1     -35.997   1.903  20.159  1.00  0.00     0.004 C 
ENDBRANCH   9  10
ENDBRANCH   8   9
ENDBRANCH   1   8
TORSDOF 6
ENDMDL
