MODEL 1
REMARK VINA RESULT:    -6.886      0.000      0.000
REMARK INTER + INTRA:         -11.668
REMARK INTER:                 -10.911
REMARK INTRA:                  -0.757
REMARK UNBOUND:                -0.757
REMARK SMILES CCCCCCCCCCCC(=O)[O-]
REMARK SMILES IDX 7 1 8 2 9 3 10 4 11 5 12 6 13 7 14 8 6 9 5 10 4 11 3 12 2 13
REMARK SMILES IDX 1 14
REMARK H PARENT
REMARK Flexibility Score: inf
ROOT
ATOM      1  C   UNL     1      -7.848  -2.962 -19.679  1.00  0.00     0.000 C 
ENDROOT
BRANCH   1   2
ATOM      2  C   UNL     1      -7.149  -2.509 -20.972  1.00  0.00     0.000 C 
BRANCH   2   3
ATOM      3  C   UNL     1      -5.803  -3.234 -21.192  1.00  0.00     0.000 C 
BRANCH   3   4
ATOM      4  C   UNL     1      -4.576  -2.336 -20.949  1.00  0.00     0.006 C 
BRANCH   4   5
ATOM      5  C   UNL     1      -4.138  -2.260 -19.479  1.00  0.00     0.053 C 
BRANCH   5   6
ATOM      6  C   UNL     1      -4.382  -0.903 -18.894  1.00  0.00     0.041 C 
ATOM      7  O   UNL     1      -5.528  -0.590 -18.475  1.00  0.00    -0.550 OA
ATOM      8  O   UNL     1      -3.351   0.025 -18.826  1.00  0.00    -0.550 OA
ENDBRANCH   5   6
ENDBRANCH   4   5
ENDBRANCH   3   4
ENDBRANCH   2   3
ENDBRANCH   1   2
BRANCH   1   9
ATOM      9  C   UNL     1      -7.138  -4.145 -18.998  1.00  0.00     0.000 C 
BRANCH   9  10
ATOM     10  C   UNL     1      -8.076  -5.211 -18.395  1.00  0.00    -0.000 C 
BRANCH  10  11
ATOM     11  C   UNL     1      -8.861  -6.047 -19.422  1.00  0.00    -0.000 C 
BRANCH  11  12
ATOM     12  C   UNL     1      -8.030  -7.191 -20.020  1.00  0.00    -0.000 C 
BRANCH  12  13
ATOM     13  C   UNL     1      -8.500  -8.548 -19.484  1.00  0.00    -0.003 C 
ATOM     14  C   UNL     1      -8.067  -9.685 -20.406  1.00  0.00     0.004 C 
ENDBRANCH  12  13
ENDBRANCH  11  12
ENDBRANCH  10  11
ENDBRANCH   9  10
ENDBRANCH   1   9
TORSDOF 10
ENDMDL
MODEL 2
REMARK VINA RESULT:    -6.691      1.199      1.452
REMARK INTER + INTRA:         -11.360
REMARK INTER:                 -10.826
REMARK INTRA:                  -0.533
REMARK UNBOUND:                -0.757
REMARK SMILES CCCCCCCCCCCC(=O)[O-]
REMARK SMILES IDX 7 1 8 2 9 3 10 4 11 5 12 6 13 7 14 8 6 9 5 10 4 11 3 12 2 13
REMARK SMILES IDX 1 14
REMARK H PARENT
REMARK Flexibility Score: inf
ROOT
ATOM      1  C   UNL     1      -7.452  -3.769 -20.794  1.00  0.00     0.000 C 
ENDROOT
BRANCH   1   2
ATOM      2  C   UNL     1      -7.030  -2.290 -20.838  1.00  0.00     0.000 C 
BRANCH   2   3
ATOM      3  C   UNL     1      -7.141  -1.610 -19.455  1.00  0.00     0.000 C 
BRANCH   3   4
ATOM      4  C   UNL     1      -5.963  -0.672 -19.137  1.00  0.00     0.006 C 
BRANCH   4   5
ATOM      5  C   UNL     1      -4.735  -1.387 -18.554  1.00  0.00     0.053 C 
BRANCH   5   6
ATOM      6  C   UNL     1      -3.573  -0.455 -18.390  1.00  0.00     0.041 C 
ATOM      7  O   UNL     1      -3.711   0.775 -18.619  1.00  0.00    -0.550 OA
ATOM      8  O   UNL     1      -2.333  -0.946 -18.001  1.00  0.00    -0.550 OA
ENDBRANCH   5   6
ENDBRANCH   4   5
ENDBRANCH   3   4
ENDBRANCH   2   3
ENDBRANCH   1   2
BRANCH   1   9
ATOM      9  C   UNL     1      -7.308  -4.391 -19.394  1.00  0.00     0.000 C 
BRANCH   9  10
ATOM     10  C   UNL     1      -8.574  -5.086 -18.854  1.00  0.00    -0.000 C 
BRANCH  10  11
ATOM     11  C   UNL     1      -9.058  -6.293 -19.678  1.00  0.00    -0.000 C 
BRANCH  11  12
ATOM     12  C   UNL     1      -7.985  -7.382 -19.827  1.00  0.00    -0.000 C 
BRANCH  12  13
ATOM     13  C   UNL     1      -8.569  -8.769 -19.536  1.00  0.00    -0.003 C 
ATOM     14  C   UNL     1      -7.978  -9.822 -20.470  1.00  0.00     0.004 C 
ENDBRANCH  12  13
ENDBRANCH  11  12
ENDBRANCH  10  11
ENDBRANCH   9  10
ENDBRANCH   1   9
TORSDOF 10
ENDMDL
MODEL 3
REMARK VINA RESULT:    -6.660      1.333      2.375
REMARK INTER + INTRA:         -11.310
REMARK INTER:                 -10.445
REMARK INTRA:                  -0.866
REMARK UNBOUND:                -0.757
REMARK SMILES CCCCCCCCCCCC(=O)[O-]
REMARK SMILES IDX 7 1 8 2 9 3 10 4 11 5 12 6 13 7 14 8 6 9 5 10 4 11 3 12 2 13
REMARK SMILES IDX 1 14
REMARK H PARENT
REMARK Flexibility Score: inf
ROOT
ATOM      1  C   UNL     1      -7.510  -1.712 -19.724  1.00  0.00     0.000 C 
ENDROOT
BRANCH   1   2
ATOM      2  C   UNL     1      -6.321  -0.962 -19.099  1.00  0.00     0.000 C 
BRANCH   2   3
ATOM      3  C   UNL     1      -4.964  -1.463 -19.642  1.00  0.00     0.000 C 
BRANCH   3   4
ATOM      4  C   UNL     1      -4.062  -2.084 -18.560  1.00  0.00     0.006 C 
BRANCH   4   5
ATOM      5  C   UNL     1      -2.808  -1.256 -18.243  1.00  0.00     0.053 C 
BRANCH   5   6
ATOM      6  C   UNL     1      -3.151   0.149 -17.852  1.00  0.00     0.041 C 
ATOM      7  O   UNL     1      -2.726   1.118 -18.534  1.00  0.00    -0.550 OA
ATOM      8  O   UNL     1      -3.925   0.392 -16.724  1.00  0.00    -0.550 OA
ENDBRANCH   5   6
ENDBRANCH   4   5
ENDBRANCH   3   4
ENDBRANCH   2   3
ENDBRANCH   1   2
BRANCH   1   9
ATOM      9  C   UNL     1      -7.120  -2.509 -20.981  1.00  0.00     0.000 C 
BRANCH   9  10
ATOM     10  C   UNL     1      -7.355  -4.030 -20.889  1.00  0.00    -0.000 C 
BRANCH  10  11
ATOM     11  C   UNL     1      -6.859  -4.691 -19.589  1.00  0.00    -0.000 C 
BRANCH  11  12
ATOM     12  C   UNL     1      -7.977  -5.408 -18.820  1.00  0.00    -0.000 C 
BRANCH  12  13
ATOM     13  C   UNL     1      -8.799  -6.302 -19.756  1.00  0.00    -0.003 C 
ATOM     14  C   UNL     1      -8.319  -7.750 -19.697  1.00  0.00     0.004 C 
ENDBRANCH  12  13
ENDBRANCH  11  12
ENDBRANCH  10  11
ENDBRANCH   9  10
ENDBRANCH   1   9
TORSDOF 10
ENDMDL
MODEL 4
REMARK VINA RESULT:    -6.569      1.905      2.279
REMARK INTER + INTRA:         -11.166
REMARK INTER:                 -10.710
REMARK INTRA:                  -0.456
REMARK UNBOUND:                -0.757
REMARK SMILES CCCCCCCCCCCC(=O)[O-]
REMARK SMILES IDX 7 1 8 2 9 3 10 4 11 5 12 6 13 7 14 8 6 9 5 10 4 11 3 12 2 13
REMARK SMILES IDX 1 14
REMARK H PARENT
REMARK Flexibility Score: inf
ROOT
ATOM      1  C   UNL     1      -6.358  -4.417 -19.185  1.00  0.00     0.000 C 
ENDROOT
BRANCH   1   2
ATOM      2  C   UNL     1      -5.393  -3.594 -18.314  1.00  0.00     0.000 C 
BRANCH   2   3
ATOM      3  C   UNL     1      -4.337  -2.847 -19.159  1.00  0.00     0.000 C 
BRANCH   3   4
ATOM      4  C   UNL     1      -4.820  -1.478 -19.671  1.00  0.00     0.006 C 
BRANCH   4   5
ATOM      5  C   UNL     1      -5.936  -0.851 -18.822  1.00  0.00     0.053 C 
BRANCH   5   6
ATOM      6  C   UNL     1      -7.200  -0.672 -19.607  1.00  0.00     0.041 C 
ATOM      7  O   UNL     1      -7.998   0.257 -19.318  1.00  0.00    -0.550 OA
ATOM      8  O   UNL     1      -7.506  -1.542 -20.646  1.00  0.00    -0.550 OA
ENDBRANCH   5   6
ENDBRANCH   4   5
ENDBRANCH   3   4
ENDBRANCH   2   3
ENDBRANCH   1   2
BRANCH   1   9
ATOM      9  C   UNL     1      -7.566  -4.953 -18.397  1.00  0.00     0.000 C 
BRANCH   9  10
ATOM     10  C   UNL     1      -8.878  -5.055 -19.201  1.00  0.00    -0.000 C 
BRANCH  10  11
ATOM     11  C   UNL     1      -9.069  -6.372 -19.975  1.00  0.00    -0.000 C 
BRANCH  11  12
ATOM     12  C   UNL     1      -7.964  -7.399 -19.687  1.00  0.00    -0.000 C 
BRANCH  12  13
ATOM     13  C   UNL     1      -8.553  -8.805 -19.523  1.00  0.00    -0.003 C 
ATOM     14  C   UNL     1      -7.970  -9.769 -20.552  1.00  0.00     0.004 C 
ENDBRANCH  12  13
ENDBRANCH  11  12
ENDBRANCH  10  11
ENDBRANCH   9  10
ENDBRANCH   1   9
TORSDOF 10
ENDMDL
MODEL 5
REMARK VINA RESULT:    -6.529      0.910      1.647
REMARK INTER + INTRA:         -11.103
REMARK INTER:                 -10.452
REMARK INTRA:                  -0.650
REMARK UNBOUND:                -0.757
REMARK SMILES CCCCCCCCCCCC(=O)[O-]
REMARK SMILES IDX 7 1 8 2 9 3 10 4 11 5 12 6 13 7 14 8 6 9 5 10 4 11 3 12 2 13
REMARK SMILES IDX 1 14
REMARK H PARENT
REMARK Flexibility Score: inf
ROOT
ATOM      1  C   UNL     1      -7.066  -4.091 -18.897  1.00  0.00     0.000 C 
ENDROOT
BRANCH   1   2
ATOM      2  C   UNL     1      -7.878  -2.989 -19.600  1.00  0.00     0.000 C 
BRANCH   2   3
ATOM      3  C   UNL     1      -7.093  -2.335 -20.759  1.00  0.00     0.000 C 
BRANCH   3   4
ATOM      4  C   UNL     1      -5.858  -3.144 -21.196  1.00  0.00     0.006 C 
BRANCH   4   5
ATOM      5  C   UNL     1      -4.537  -2.367 -21.100  1.00  0.00     0.053 C 
BRANCH   5   6
ATOM      6  C   UNL     1      -4.253  -1.920 -19.698  1.00  0.00     0.041 C 
ATOM      7  O   UNL     1      -3.844  -2.747 -18.841  1.00  0.00    -0.550 OA
ATOM      8  O   UNL     1      -4.457  -0.596 -19.331  1.00  0.00    -0.550 OA
ENDBRANCH   5   6
ENDBRANCH   4   5
ENDBRANCH   3   4
ENDBRANCH   2   3
ENDBRANCH   1   2
BRANCH   1   9
ATOM      9  C   UNL     1      -7.941  -5.260 -18.411  1.00  0.00     0.000 C 
BRANCH   9  10
ATOM     10  C   UNL     1      -8.668  -6.041 -19.525  1.00  0.00    -0.000 C 
BRANCH  10  11
ATOM     11  C   UNL     1      -7.932  -7.296 -20.029  1.00  0.00    -0.000 C 
BRANCH  11  12
ATOM     12  C   UNL     1      -8.570  -8.601 -19.532  1.00  0.00    -0.000 C 
BRANCH  12  13
ATOM     13  C   UNL     1      -7.858  -9.820 -20.128  1.00  0.00    -0.003 C 
ATOM     14  C   UNL     1      -8.224 -10.008 -21.598  1.00  0.00     0.004 C 
ENDBRANCH  12  13
ENDBRANCH  11  12
ENDBRANCH  10  11
ENDBRANCH   9  10
ENDBRANCH   1   9
TORSDOF 10
ENDMDL
MODEL 6
REMARK VINA RESULT:    -6.334      3.350      7.299
REMARK INTER + INTRA:         -10.794
REMARK INTER:                 -10.253
REMARK INTRA:                  -0.542
REMARK UNBOUND:                -0.757
REMARK SMILES CCCCCCCCCCCC(=O)[O-]
REMARK SMILES IDX 7 1 8 2 9 3 10 4 11 5 12 6 13 7 14 8 6 9 5 10 4 11 3 12 2 13
REMARK SMILES IDX 1 14
REMARK H PARENT
REMARK Flexibility Score: inf
ROOT
ATOM      1  C   UNL     1      -7.036  -1.697 -19.348  1.00  0.00     0.000 C 
ENDROOT
BRANCH   1   2
ATOM      2  C   UNL     1      -7.219  -2.012 -20.843  1.00  0.00     0.000 C 
BRANCH   2   3
ATOM      3  C   UNL     1      -7.234  -3.531 -21.122  1.00  0.00     0.000 C 
BRANCH   3   4
ATOM      4  C   UNL     1      -7.369  -4.387 -19.849  1.00  0.00     0.006 C 
BRANCH   4   5
ATOM      5  C   UNL     1      -7.096  -5.882 -20.071  1.00  0.00     0.053 C 
BRANCH   5   6
ATOM      6  C   UNL     1      -8.299  -6.720 -19.762  1.00  0.00     0.041 C 
ATOM      7  O   UNL     1      -9.454  -6.227 -19.853  1.00  0.00    -0.550 OA
ATOM      8  O   UNL     1      -8.146  -8.040 -19.357  1.00  0.00    -0.550 OA
ENDBRANCH   5   6
ENDBRANCH   4   5
ENDBRANCH   3   4
ENDBRANCH   2   3
ENDBRANCH   1   2
BRANCH   1   9
ATOM      9  C   UNL     1      -5.782  -0.852 -19.064  1.00  0.00     0.000 C 
BRANCH   9  10
ATOM     10  C   UNL     1      -4.453  -1.635 -19.059  1.00  0.00    -0.000 C 
BRANCH  10  11
ATOM     11  C   UNL     1      -3.252  -0.879 -18.463  1.00  0.00    -0.000 C 
BRANCH  11  12
ATOM     12  C   UNL     1      -3.500   0.631 -18.339  1.00  0.00    -0.000 C 
BRANCH  12  13
ATOM     13  C   UNL     1      -2.207   1.370 -17.972  1.00  0.00    -0.003 C 
ATOM     14  C   UNL     1      -2.490   2.821 -17.594  1.00  0.00     0.004 C 
ENDBRANCH  12  13
ENDBRANCH  11  12
ENDBRANCH  10  11
ENDBRANCH   9  10
ENDBRANCH   1   9
TORSDOF 10
ENDMDL
MODEL 7
REMARK VINA RESULT:    -6.274      4.016      6.704
REMARK INTER + INTRA:         -10.698
REMARK INTER:                  -9.981
REMARK INTRA:                  -0.717
REMARK UNBOUND:                -0.757
REMARK SMILES CCCCCCCCCCCC(=O)[O-]
REMARK SMILES IDX 7 1 8 2 9 3 10 4 11 5 12 6 13 7 14 8 6 9 5 10 4 11 3 12 2 13
REMARK SMILES IDX 1 14
REMARK H PARENT
REMARK Flexibility Score: inf
ROOT
ATOM      1  C   UNL     1      -7.263  -4.326 -20.544  1.00  0.00     0.000 C 
ENDROOT
BRANCH   1   2
ATOM      2  C   UNL     1      -8.335  -4.279 -19.442  1.00  0.00     0.000 C 
BRANCH   2   3
ATOM      3  C   UNL     1      -9.137  -5.597 -19.350  1.00  0.00     0.000 C 
BRANCH   3   4
ATOM      4  C   UNL     1      -8.248  -6.845 -19.199  1.00  0.00     0.006 C 
BRANCH   4   5
ATOM      5  C   UNL     1      -8.239  -7.757 -20.435  1.00  0.00     0.053 C 
BRANCH   5   6
ATOM      6  C   UNL     1      -8.262  -9.207 -20.057  1.00  0.00     0.041 C 
ATOM      7  O   UNL     1      -7.901 -10.083 -20.886  1.00  0.00    -0.550 OA
ATOM      8  O   UNL     1      -8.699  -9.595 -18.797  1.00  0.00    -0.550 OA
ENDBRANCH   5   6
ENDBRANCH   4   5
ENDBRANCH   3   4
ENDBRANCH   2   3
ENDBRANCH   1   2
BRANCH   1   9
ATOM      9  C   UNL     1      -7.078  -2.975 -21.257  1.00  0.00     0.000 C 
BRANCH   9  10
ATOM     10  C   UNL     1      -7.367  -1.733 -20.389  1.00  0.00    -0.000 C 
BRANCH  10  11
ATOM     11  C   UNL     1      -6.278  -1.392 -19.355  1.00  0.00    -0.000 C 
BRANCH  11  12
ATOM     12  C   UNL     1      -4.859  -1.463 -19.937  1.00  0.00    -0.000 C 
BRANCH  12  13
ATOM     13  C   UNL     1      -4.022  -2.522 -19.211  1.00  0.00    -0.003 C 
ATOM     14  C   UNL     1      -4.870  -3.307 -18.214  1.00  0.00     0.004 C 
ENDBRANCH  12  13
ENDBRANCH  11  12
ENDBRANCH  10  11
ENDBRANCH   9  10
ENDBRANCH   1   9
TORSDOF 10
ENDMDL
MODEL 8
REMARK VINA RESULT:    -6.135      3.178      6.005
REMARK INTER + INTRA:         -10.479
REMARK INTER:                  -9.474
REMARK INTRA:                  -1.005
REMARK UNBOUND:                -0.757
REMARK SMILES CCCCCCCCCCCC(=O)[O-]
REMARK SMILES IDX 7 1 8 2 9 3 10 4 11 5 12 6 13 7 14 8 6 9 5 10 4 11 3 12 2 13
REMARK SMILES IDX 1 14
REMARK H PARENT
REMARK Flexibility Score: inf
ROOT
ATOM      1  C   UNL     1      -7.640  -1.659 -19.679  1.00  0.00     0.000 C 
ENDROOT
BRANCH   1   2
ATOM      2  C   UNL     1      -7.377  -2.094 -21.131  1.00  0.00     0.000 C 
BRANCH   2   3
ATOM      3  C   UNL     1      -7.171  -3.620 -21.255  1.00  0.00     0.000 C 
BRANCH   3   4
ATOM      4  C   UNL     1      -7.127  -4.345 -19.898  1.00  0.00     0.006 C 
BRANCH   4   5
ATOM      5  C   UNL     1      -6.980  -5.870 -20.009  1.00  0.00     0.053 C 
BRANCH   5   6
ATOM      6  C   UNL     1      -8.271  -6.576 -19.724  1.00  0.00     0.041 C 
ATOM      7  O   UNL     1      -8.312  -7.835 -19.699  1.00  0.00    -0.550 OA
ATOM      8  O   UNL     1      -9.432  -5.848 -19.502  1.00  0.00    -0.550 OA
ENDBRANCH   5   6
ENDBRANCH   4   5
ENDBRANCH   3   4
ENDBRANCH   2   3
ENDBRANCH   1   2
BRANCH   1   9
ATOM      9  C   UNL     1      -6.892  -0.370 -19.296  1.00  0.00     0.000 C 
BRANCH   9  10
ATOM     10  C   UNL     1      -5.856  -0.527 -18.164  1.00  0.00    -0.000 C 
BRANCH  10  11
ATOM     11  C   UNL     1      -4.439  -0.030 -18.503  1.00  0.00    -0.000 C 
BRANCH  11  12
ATOM     12  C   UNL     1      -3.398  -1.160 -18.512  1.00  0.00    -0.000 C 
BRANCH  12  13
ATOM     13  C   UNL     1      -3.982  -2.438 -19.124  1.00  0.00    -0.003 C 
ATOM     14  C   UNL     1      -3.958  -2.380 -20.649  1.00  0.00     0.004 C 
ENDBRANCH  12  13
ENDBRANCH  11  12
ENDBRANCH  10  11
ENDBRANCH   9  10
ENDBRANCH   1   9
TORSDOF 10
ENDMDL
MODEL 9
REMARK VINA RESULT:    -6.122      3.948      7.572
REMARK INTER + INTRA:         -10.458
REMARK INTER:                 -10.101
REMARK INTRA:                  -0.357
REMARK UNBOUND:                -0.757
REMARK SMILES CCCCCCCCCCCC(=O)[O-]
REMARK SMILES IDX 7 1 8 2 9 3 10 4 11 5 12 6 13 7 14 8 6 9 5 10 4 11 3 12 2 13
REMARK SMILES IDX 1 14
REMARK H PARENT
REMARK Flexibility Score: inf
ROOT
ATOM      1  C   UNL     1      -6.396  -4.439 -19.488  1.00  0.00     0.000 C 
ENDROOT
BRANCH   1   2
ATOM      2  C   UNL     1      -7.857  -3.972 -19.599  1.00  0.00     0.000 C 
BRANCH   2   3
ATOM      3  C   UNL     1      -8.849  -5.026 -19.057  1.00  0.00     0.000 C 
BRANCH   3   4
ATOM      4  C   UNL     1      -8.260  -6.447 -18.995  1.00  0.00     0.006 C 
BRANCH   4   5
ATOM      5  C   UNL     1      -8.676  -7.346 -20.169  1.00  0.00     0.053 C 
BRANCH   5   6
ATOM      6  C   UNL     1      -8.355  -8.786 -19.909  1.00  0.00     0.041 C 
ATOM      7  O   UNL     1      -8.718  -9.332 -18.833  1.00  0.00    -0.550 OA
ATOM      8  O   UNL     1      -7.640  -9.523 -20.843  1.00  0.00    -0.550 OA
ENDBRANCH   5   6
ENDBRANCH   4   5
ENDBRANCH   3   4
ENDBRANCH   2   3
ENDBRANCH   1   2
BRANCH   1   9
ATOM      9  C   UNL     1      -5.535  -3.506 -18.618  1.00  0.00     0.000 C 
BRANCH   9  10
ATOM     10  C   UNL     1      -4.800  -2.389 -19.386  1.00  0.00    -0.000 C 
BRANCH  10  11
ATOM     11  C   UNL     1      -4.670  -1.053 -18.632  1.00  0.00    -0.000 C 
BRANCH  11  12
ATOM     12  C   UNL     1      -3.219  -0.559 -18.540  1.00  0.00    -0.000 C 
BRANCH  12  13
ATOM     13  C   UNL     1      -3.046   0.415 -17.369  1.00  0.00    -0.003 C 
ATOM     14  C   UNL     1      -2.863   1.847 -17.865  1.00  0.00     0.004 C 
ENDBRANCH  12  13
ENDBRANCH  11  12
ENDBRANCH  10  11
ENDBRANCH   9  10
ENDBRANCH   1   9
TORSDOF 10
ENDMDL
