MODEL 1
REMARK VINA RESULT:    -3.276      0.000      0.000
REMARK INTER + INTRA:          -3.046
REMARK INTER:                  -3.659
REMARK INTRA:                   0.613
REMARK UNBOUND:                 0.613
REMARK SMILES O=C([O-])c1ccccc1C(=O)[O-]
REMARK SMILES IDX 4 1 9 2 5 3 8 4 6 5 7 6 2 7 1 8 3 9 10 10 11 11 12 12
REMARK H PARENT
REMARK Flexibility Score: inf
ROOT
ATOM      1  C   UNL     1       5.429 -36.079  21.773  1.00  0.00     0.006 A 
ATOM      2  C   UNL     1       5.749 -37.336  22.359  1.00  0.00     0.006 A 
ATOM      3  C   UNL     1       5.423 -34.928  22.583  1.00  0.00     0.010 A 
ATOM      4  C   UNL     1       6.115 -37.384  23.716  1.00  0.00     0.010 A 
ATOM      5  C   UNL     1       5.768 -35.003  23.933  1.00  0.00     0.001 A 
ATOM      6  C   UNL     1       6.124 -36.227  24.496  1.00  0.00     0.001 A 
ENDROOT
BRANCH   1   7
ATOM      7  C   UNL     1       5.168 -35.915  20.324  1.00  0.00     0.072 C 
ATOM      8  O   UNL     1       4.065 -36.276  19.834  1.00  0.00    -0.545 OA
ATOM      9  O   UNL     1       6.105 -35.303  19.500  1.00  0.00    -0.545 OA
ENDBRANCH   1   7
BRANCH   2  10
ATOM     10  C   UNL     1       5.649 -38.617  21.622  1.00  0.00     0.072 C 
ATOM     11  O   UNL     1       5.747 -38.649  20.368  1.00  0.00    -0.545 OA
ATOM     12  O   UNL     1       5.376 -39.795  22.308  1.00  0.00    -0.545 OA
ENDBRANCH   2  10
TORSDOF 2
ENDMDL
MODEL 2
REMARK VINA RESULT:    -3.105      0.128      3.052
REMARK INTER + INTRA:          -2.855
REMARK INTER:                  -3.369
REMARK INTRA:                   0.513
REMARK UNBOUND:                 0.613
REMARK SMILES O=C([O-])c1ccccc1C(=O)[O-]
REMARK SMILES IDX 4 1 9 2 5 3 8 4 6 5 7 6 2 7 1 8 3 9 10 10 11 11 12 12
REMARK H PARENT
REMARK Flexibility Score: inf
ROOT
ATOM      1  C   UNL     1       5.748 -37.387  22.447  1.00  0.00     0.006 A 
ATOM      2  C   UNL     1       5.478 -36.139  21.817  1.00  0.00     0.006 A 
ATOM      3  C   UNL     1       6.091 -37.404  23.812  1.00  0.00     0.010 A 
ATOM      4  C   UNL     1       5.497 -34.965  22.590  1.00  0.00     0.010 A 
ATOM      5  C   UNL     1       6.125 -36.223  24.554  1.00  0.00     0.001 A 
ATOM      6  C   UNL     1       5.818 -35.007  23.948  1.00  0.00     0.001 A 
ENDROOT
BRANCH   1   7
ATOM      7  C   UNL     1       5.615 -38.684  21.745  1.00  0.00     0.072 C 
ATOM      8  O   UNL     1       5.780 -38.748  20.497  1.00  0.00    -0.545 OA
ATOM      9  O   UNL     1       5.372 -39.853  22.454  1.00  0.00    -0.545 OA
ENDBRANCH   1   7
BRANCH   2  10
ATOM     10  C   UNL     1       5.245 -36.007  20.360  1.00  0.00     0.072 C 
ATOM     11  O   UNL     1       6.124 -35.509  19.610  1.00  0.00    -0.545 OA
ATOM     12  O   UNL     1       4.020 -36.373  19.815  1.00  0.00    -0.545 OA
ENDBRANCH   2  10
TORSDOF 2
ENDMDL
MODEL 3
REMARK VINA RESULT:    -2.859      3.989      6.011
REMARK INTER + INTRA:          -2.580
REMARK INTER:                  -2.476
REMARK INTRA:                  -0.104
REMARK UNBOUND:                 0.613
REMARK SMILES O=C([O-])c1ccccc1C(=O)[O-]
REMARK SMILES IDX 4 1 9 2 5 3 8 4 6 5 7 6 2 7 1 8 3 9 10 10 11 11 12 12
REMARK H PARENT
REMARK Flexibility Score: inf
ROOT
ATOM      1  C   UNL     1       3.339 -37.036  17.982  1.00  0.00     0.006 A 
ATOM      2  C   UNL     1       1.969 -37.409  17.872  1.00  0.00     0.006 A 
ATOM      3  C   UNL     1       3.991 -36.490  16.861  1.00  0.00     0.010 A 
ATOM      4  C   UNL     1       1.288 -37.162  16.667  1.00  0.00     0.010 A 
ATOM      5  C   UNL     1       3.301 -36.275  15.668  1.00  0.00     0.001 A 
ATOM      6  C   UNL     1       1.949 -36.599  15.575  1.00  0.00     0.001 A 
ENDROOT
BRANCH   1   7
ATOM      7  C   UNL     1       4.094 -37.131  19.253  1.00  0.00     0.072 C 
ATOM      8  O   UNL     1       4.682 -38.202  19.561  1.00  0.00    -0.545 OA
ATOM      9  O   UNL     1       4.220 -36.028  20.087  1.00  0.00    -0.545 OA
ENDBRANCH   1   7
BRANCH   2  10
ATOM     10  C   UNL     1       1.238 -38.115  18.950  1.00  0.00     0.072 C 
ATOM     11  O   UNL     1       0.796 -39.280  18.773  1.00  0.00    -0.545 OA
ATOM     12  O   UNL     1       0.973 -37.468  20.151  1.00  0.00    -0.545 OA
ENDBRANCH   2  10
TORSDOF 2
ENDMDL
MODEL 4
REMARK VINA RESULT:    -2.761      4.000      6.091
REMARK INTER + INTRA:          -2.471
REMARK INTER:                  -2.397
REMARK INTRA:                  -0.073
REMARK UNBOUND:                 0.613
REMARK SMILES O=C([O-])c1ccccc1C(=O)[O-]
REMARK SMILES IDX 4 1 9 2 5 3 8 4 6 5 7 6 2 7 1 8 3 9 10 10 11 11 12 12
REMARK H PARENT
REMARK Flexibility Score: inf
ROOT
ATOM      1  C   UNL     1       1.959 -37.389  17.845  1.00  0.00     0.006 A 
ATOM      2  C   UNL     1       3.336 -37.041  17.947  1.00  0.00     0.006 A 
ATOM      3  C   UNL     1       1.275 -37.131  16.642  1.00  0.00     0.010 A 
ATOM      4  C   UNL     1       3.991 -36.510  16.821  1.00  0.00     0.010 A 
ATOM      5  C   UNL     1       1.942 -36.583  15.546  1.00  0.00     0.001 A 
ATOM      6  C   UNL     1       3.299 -36.283  15.631  1.00  0.00     0.001 A 
ENDROOT
BRANCH   1   7
ATOM      7  C   UNL     1       1.226 -38.080  18.931  1.00  0.00     0.072 C 
ATOM      8  O   UNL     1       0.807 -39.256  18.763  1.00  0.00    -0.545 OA
ATOM      9  O   UNL     1       1.048 -37.469  20.166  1.00  0.00    -0.545 OA
ENDBRANCH   1   7
BRANCH   2  10
ATOM     10  C   UNL     1       4.102 -37.147  19.210  1.00  0.00     0.072 C 
ATOM     11  O   UNL     1       4.616 -38.240  19.563  1.00  0.00    -0.545 OA
ATOM     12  O   UNL     1       4.204 -36.049  20.056  1.00  0.00    -0.545 OA
ENDBRANCH   2  10
TORSDOF 2
ENDMDL
MODEL 5
REMARK VINA RESULT:    -2.755      3.876      5.684
REMARK INTER + INTRA:          -2.464
REMARK INTER:                  -2.356
REMARK INTRA:                  -0.108
REMARK UNBOUND:                 0.613
REMARK SMILES O=C([O-])c1ccccc1C(=O)[O-]
REMARK SMILES IDX 4 1 9 2 5 3 8 4 6 5 7 6 2 7 1 8 3 9 10 10 11 11 12 12
REMARK H PARENT
REMARK Flexibility Score: inf
ROOT
ATOM      1  C   UNL     1       3.088 -37.365  18.903  1.00  0.00     0.006 A 
ATOM      2  C   UNL     1       2.546 -37.451  17.590  1.00  0.00     0.006 A 
ATOM      3  C   UNL     1       2.238 -37.554  20.009  1.00  0.00     0.010 A 
ATOM      4  C   UNL     1       1.189 -37.786  17.432  1.00  0.00     0.010 A 
ATOM      5  C   UNL     1       0.890 -37.864  19.828  1.00  0.00     0.001 A 
ATOM      6  C   UNL     1       0.369 -37.991  18.542  1.00  0.00     0.001 A 
ENDROOT
BRANCH   1   7
ATOM      7  C   UNL     1       4.532 -37.156  19.160  1.00  0.00     0.072 C 
ATOM      8  O   UNL     1       5.028 -36.000  19.082  1.00  0.00    -0.545 OA
ATOM      9  O   UNL     1       5.343 -38.213  19.552  1.00  0.00    -0.545 OA
ENDBRANCH   1   7
BRANCH   2  10
ATOM     10  C   UNL     1       3.328 -37.134  16.373  1.00  0.00     0.072 C 
ATOM     11  O   UNL     1       3.646 -35.947  16.103  1.00  0.00    -0.545 OA
ATOM     12  O   UNL     1       3.662 -38.143  15.478  1.00  0.00    -0.545 OA
ENDBRANCH   2  10
TORSDOF 2
ENDMDL
MODEL 6
REMARK VINA RESULT:    -2.708      3.849      5.322
REMARK INTER + INTRA:          -2.412
REMARK INTER:                  -2.245
REMARK INTRA:                  -0.167
REMARK UNBOUND:                 0.613
REMARK SMILES O=C([O-])c1ccccc1C(=O)[O-]
REMARK SMILES IDX 4 1 9 2 5 3 8 4 6 5 7 6 2 7 1 8 3 9 10 10 11 11 12 12
REMARK H PARENT
REMARK Flexibility Score: inf
ROOT
ATOM      1  C   UNL     1       2.519 -37.458  17.647  1.00  0.00     0.006 A 
ATOM      2  C   UNL     1       3.087 -37.353  18.948  1.00  0.00     0.006 A 
ATOM      3  C   UNL     1       1.162 -37.807  17.518  1.00  0.00     0.010 A 
ATOM      4  C   UNL     1       2.261 -37.537  20.071  1.00  0.00     0.010 A 
ATOM      5  C   UNL     1       0.367 -38.008  18.647  1.00  0.00     0.001 A 
ATOM      6  C   UNL     1       0.912 -37.862  19.921  1.00  0.00     0.001 A 
ENDROOT
BRANCH   1   7
ATOM      7  C   UNL     1       3.279 -37.144  16.415  1.00  0.00     0.072 C 
ATOM      8  O   UNL     1       3.587 -38.062  15.609  1.00  0.00    -0.545 OA
ATOM      9  O   UNL     1       3.605 -35.831  16.098  1.00  0.00    -0.545 OA
ENDBRANCH   1   7
BRANCH   2  10
ATOM     10  C   UNL     1       4.532 -37.126  19.180  1.00  0.00     0.072 C 
ATOM     11  O   UNL     1       5.284 -38.070  19.536  1.00  0.00    -0.545 OA
ATOM     12  O   UNL     1       5.062 -35.845  19.071  1.00  0.00    -0.545 OA
ENDBRANCH   2  10
TORSDOF 2
ENDMDL
MODEL 7
REMARK VINA RESULT:    -2.394      1.894      3.886
REMARK INTER + INTRA:          -2.061
REMARK INTER:                  -2.440
REMARK INTRA:                   0.379
REMARK UNBOUND:                 0.613
REMARK SMILES O=C([O-])c1ccccc1C(=O)[O-]
REMARK SMILES IDX 4 1 9 2 5 3 8 4 6 5 7 6 2 7 1 8 3 9 10 10 11 11 12 12
REMARK H PARENT
REMARK Flexibility Score: inf
ROOT
ATOM      1  C   UNL     1       5.618 -37.313  22.716  1.00  0.00     0.006 A 
ATOM      2  C   UNL     1       5.405 -37.259  21.310  1.00  0.00     0.006 A 
ATOM      3  C   UNL     1       5.761 -38.567  23.340  1.00  0.00     0.010 A 
ATOM      4  C   UNL     1       5.407 -38.456  20.572  1.00  0.00     0.010 A 
ATOM      5  C   UNL     1       5.738 -39.743  22.589  1.00  0.00     0.001 A 
ATOM      6  C   UNL     1       5.573 -39.688  21.208  1.00  0.00     0.001 A 
ENDROOT
BRANCH   1   7
ATOM      7  C   UNL     1       5.769 -36.098  23.550  1.00  0.00     0.072 C 
ATOM      8  O   UNL     1       6.125 -35.009  23.024  1.00  0.00    -0.545 OA
ATOM      9  O   UNL     1       5.459 -36.124  24.904  1.00  0.00    -0.545 OA
ENDBRANCH   1   7
BRANCH   2  10
ATOM     10  C   UNL     1       5.107 -36.000  20.588  1.00  0.00     0.072 C 
ATOM     11  O   UNL     1       3.970 -35.467  20.665  1.00  0.00    -0.545 OA
ATOM     12  O   UNL     1       6.067 -35.429  19.761  1.00  0.00    -0.545 OA
ENDBRANCH   2  10
TORSDOF 2
ENDMDL
MODEL 8
REMARK VINA RESULT:    -2.371      1.916      3.131
REMARK INTER + INTRA:          -2.035
REMARK INTER:                  -2.414
REMARK INTRA:                   0.380
REMARK UNBOUND:                 0.613
REMARK SMILES O=C([O-])c1ccccc1C(=O)[O-]
REMARK SMILES IDX 4 1 9 2 5 3 8 4 6 5 7 6 2 7 1 8 3 9 10 10 11 11 12 12
REMARK H PARENT
REMARK Flexibility Score: inf
ROOT
ATOM      1  C   UNL     1       5.376 -37.143  21.303  1.00  0.00     0.006 A 
ATOM      2  C   UNL     1       5.590 -37.231  22.708  1.00  0.00     0.006 A 
ATOM      3  C   UNL     1       5.399 -38.320  20.532  1.00  0.00     0.010 A 
ATOM      4  C   UNL     1       5.754 -38.498  23.296  1.00  0.00     0.010 A 
ATOM      5  C   UNL     1       5.587 -39.565  21.136  1.00  0.00     0.001 A 
ATOM      6  C   UNL     1       5.752 -39.654  22.516  1.00  0.00     0.001 A 
ENDROOT
BRANCH   1   7
ATOM      7  C   UNL     1       5.056 -35.868  20.621  1.00  0.00     0.072 C 
ATOM      8  O   UNL     1       3.954 -35.295  20.834  1.00  0.00    -0.545 OA
ATOM      9  O   UNL     1       5.987 -35.254  19.792  1.00  0.00    -0.545 OA
ENDBRANCH   1   7
BRANCH   2  10
ATOM     10  C   UNL     1       5.719 -36.040  23.579  1.00  0.00     0.072 C 
ATOM     11  O   UNL     1       6.124 -34.942  23.114  1.00  0.00    -0.545 OA
ATOM     12  O   UNL     1       5.455 -36.140  24.940  1.00  0.00    -0.545 OA
ENDBRANCH   2  10
TORSDOF 2
ENDMDL
