MODEL 1
REMARK VINA RESULT:    -1.786      0.000      0.000
REMARK INTER + INTRA:          -3.457
REMARK INTER:                  -3.247
REMARK INTRA:                  -0.210
REMARK UNBOUND:                -0.210
REMARK SMILES CCCCCCCCCCCCCC[C@H](C)C(=O)[O-]
REMARK SMILES IDX 9 1 10 2 11 3 12 4 13 5 14 6 15 7 16 8 17 9 18 10 19 11 8 12
REMARK SMILES IDX 7 13 6 14 5 15 4 16 3 17 2 18 1 19
REMARK H PARENT
REMARK Flexibility Score: inf
ROOT
ATOM      1  C   UNL     1      32.672  36.728   1.726  1.00  0.00     0.000 C 
ENDROOT
BRANCH   1   2
ATOM      2  C   UNL     1      33.068  36.667   0.241  1.00  0.00     0.000 C 
BRANCH   2   3
ATOM      3  C   UNL     1      34.520  37.113  -0.012  1.00  0.00     0.000 C 
BRANCH   3   4
ATOM      4  C   UNL     1      34.727  38.057  -1.217  1.00  0.00     0.000 C 
BRANCH   4   5
ATOM      5  C   UNL     1      33.607  39.092  -1.444  1.00  0.00     0.001 C 
BRANCH   5   6
ATOM      6  C   UNL     1      32.521  38.630  -2.447  1.00  0.00     0.009 C 
BRANCH   6   7
ATOM      7  C   UNL     1      32.953  37.489  -3.396  1.00  0.00     0.032 C 
ATOM      8  C   UNL     1      32.921  37.903  -4.874  1.00  0.00     0.014 C 
BRANCH   7   9
ATOM      9  C   UNL     1      32.161  36.230  -3.148  1.00  0.00     0.044 C 
ATOM     10  O   UNL     1      32.403  35.530  -2.129  1.00  0.00    -0.550 OA
ATOM     11  O   UNL     1      31.135  35.851  -4.005  1.00  0.00    -0.550 OA
ENDBRANCH   7   9
ENDBRANCH   6   7
ENDBRANCH   5   6
ENDBRANCH   4   5
ENDBRANCH   3   4
ENDBRANCH   2   3
ENDBRANCH   1   2
BRANCH   1  12
ATOM     12  C   UNL     1      33.893  36.755   2.661  1.00  0.00     0.000 C 
BRANCH  12  13
ATOM     13  C   UNL     1      33.939  38.013   3.541  1.00  0.00    -0.000 C 
BRANCH  13  14
ATOM     14  C   UNL     1      34.087  37.643   5.021  1.00  0.00    -0.000 C 
BRANCH  14  15
ATOM     15  C   UNL     1      35.100  38.561   5.721  1.00  0.00    -0.000 C 
BRANCH  15  16
ATOM     16  C   UNL     1      34.577  39.124   7.053  1.00  0.00    -0.000 C 
BRANCH  16  17
ATOM     17  C   UNL     1      33.063  38.949   7.289  1.00  0.00    -0.000 C 
BRANCH  17  18
ATOM     18  C   UNL     1      32.687  38.240   8.601  1.00  0.00    -0.003 C 
ATOM     19  C   UNL     1      33.282  38.917   9.834  1.00  0.00     0.004 C 
ENDBRANCH  17  18
ENDBRANCH  16  17
ENDBRANCH  15  16
ENDBRANCH  14  15
ENDBRANCH  13  14
ENDBRANCH  12  13
ENDBRANCH   1  12
TORSDOF 14
ENDMDL
MODEL 2
REMARK VINA RESULT:     0.396      1.726      2.425
REMARK INTER + INTRA:           0.511
REMARK INTER:                   0.227
REMARK INTRA:                   0.284
REMARK UNBOUND:                -0.210
REMARK SMILES CCCCCCCCCCCCCC[C@H](C)C(=O)[O-]
REMARK SMILES IDX 9 1 10 2 11 3 12 4 13 5 14 6 15 7 16 8 17 9 18 10 19 11 8 12
REMARK SMILES IDX 7 13 6 14 5 15 4 16 3 17 2 18 1 19
REMARK H PARENT
REMARK Flexibility Score: inf
ROOT
ATOM      1  C   UNL     1      31.878  35.661   1.403  1.00  0.00     0.000 C 
ENDROOT
BRANCH   1   2
ATOM      2  C   UNL     1      32.234  35.608  -0.093  1.00  0.00     0.000 C 
BRANCH   2   3
ATOM      3  C   UNL     1      33.637  36.165  -0.396  1.00  0.00     0.000 C 
BRANCH   3   4
ATOM      4  C   UNL     1      34.017  36.240  -1.890  1.00  0.00     0.000 C 
BRANCH   4   5
ATOM      5  C   UNL     1      32.848  36.526  -2.854  1.00  0.00     0.001 C 
BRANCH   5   6
ATOM      6  C   UNL     1      32.891  37.938  -3.489  1.00  0.00     0.009 C 
BRANCH   6   7
ATOM      7  C   UNL     1      33.285  39.076  -2.520  1.00  0.00     0.032 C 
ATOM      8  C   UNL     1      34.764  39.022  -2.113  1.00  0.00     0.014 C 
BRANCH   7   9
ATOM      9  C   UNL     1      32.374  39.125  -1.320  1.00  0.00     0.044 C 
ATOM     10  O   UNL     1      31.125  39.125  -1.484  1.00  0.00    -0.550 OA
ATOM     11  O   UNL     1      32.890  39.125  -0.030  1.00  0.00    -0.550 OA
ENDBRANCH   7   9
ENDBRANCH   6   7
ENDBRANCH   5   6
ENDBRANCH   4   5
ENDBRANCH   3   4
ENDBRANCH   2   3
ENDBRANCH   1   2
BRANCH   1  12
ATOM     12  C   UNL     1      33.119  35.799   2.300  1.00  0.00     0.000 C 
BRANCH  12  13
ATOM     13  C   UNL     1      33.335  37.235   2.798  1.00  0.00    -0.000 C 
BRANCH  13  14
ATOM     14  C   UNL     1      34.709  37.384   3.463  1.00  0.00    -0.000 C 
BRANCH  14  15
ATOM     15  C   UNL     1      34.902  38.804   4.015  1.00  0.00    -0.000 C 
BRANCH  15  16
ATOM     16  C   UNL     1      34.994  38.841   5.551  1.00  0.00    -0.000 C 
BRANCH  16  17
ATOM     17  C   UNL     1      33.714  38.406   6.293  1.00  0.00    -0.000 C 
BRANCH  17  18
ATOM     18  C   UNL     1      33.586  38.934   7.732  1.00  0.00    -0.003 C 
ATOM     19  C   UNL     1      34.697  38.432   8.652  1.00  0.00     0.004 C 
ENDBRANCH  17  18
ENDBRANCH  16  17
ENDBRANCH  15  16
ENDBRANCH  14  15
ENDBRANCH  13  14
ENDBRANCH  12  13
ENDBRANCH   1  12
TORSDOF 14
ENDMDL
