MODEL 1
REMARK VINA RESULT:    -2.305      0.000      0.000
REMARK INTER + INTRA:          -2.373
REMARK INTER:                  -2.373
REMARK INTRA:                   0.000
REMARK UNBOUND:                 0.000
REMARK SMILES Nc1ncnc2nc[nH]c12
REMARK SMILES IDX 8 1 7 2 6 3 5 4 4 5 3 6 2 7 10 8 9 9 1 11
REMARK H PARENT 9 10 1 12 1 13
REMARK Flexibility Score: inf
ROOT
ATOM      1  C   UNL     1      47.194  42.260  41.875  1.00  0.00     0.199 A 
ATOM      2  N   UNL     1      48.519  41.948  41.875  1.00  0.00    -0.217 NA
ATOM      3  C   UNL     1      48.810  41.947  40.563  1.00  0.00     0.182 A 
ATOM      4  N   UNL     1      50.017  41.691  40.004  1.00  0.00    -0.215 NA
ATOM      5  C   UNL     1      50.120  41.737  38.641  1.00  0.00     0.226 A 
ATOM      6  N   UNL     1      49.024  42.035  37.870  1.00  0.00    -0.217 NA
ATOM      7  C   UNL     1      47.807  42.295  38.433  1.00  0.00     0.152 A 
ATOM      8  C   UNL     1      47.719  42.243  39.821  1.00  0.00     0.127 A 
ATOM      9  N   UNL     1      46.676  42.448  40.635  1.00  0.00    -0.340 N 
ATOM     10  H   UNL     1      45.692  42.692  40.388  1.00  0.00     0.168 HD
ENDROOT
BRANCH   7  11
ATOM     11  N   UNL     1      46.680  42.603  37.610  1.00  0.00    -0.382 N 
ATOM     12  H   UNL     1      45.713  42.507  37.992  1.00  0.00     0.158 HD
ATOM     13  H   UNL     1      46.799  42.924  36.625  1.00  0.00     0.158 HD
ENDBRANCH   7  11
TORSDOF 1
ENDMDL
MODEL 2
REMARK VINA RESULT:    -2.145      1.412      3.396
REMARK INTER + INTRA:          -2.208
REMARK INTER:                  -2.208
REMARK INTRA:                   0.000
REMARK UNBOUND:                 0.000
REMARK SMILES Nc1ncnc2nc[nH]c12
REMARK SMILES IDX 8 1 7 2 6 3 5 4 4 5 3 6 2 7 10 8 9 9 1 11
REMARK H PARENT 9 10 1 12 1 13
REMARK Flexibility Score: inf
ROOT
ATOM      1  C   UNL     1      47.130  42.520  39.360  1.00  0.00     0.199 A 
ATOM      2  N   UNL     1      48.441  42.164  39.281  1.00  0.00    -0.217 NA
ATOM      3  C   UNL     1      48.770  41.998  40.573  1.00  0.00     0.182 A 
ATOM      4  N   UNL     1      49.982  41.637  41.059  1.00  0.00    -0.215 NA
ATOM      5  C   UNL     1      50.125  41.517  42.414  1.00  0.00     0.226 A 
ATOM      6  N   UNL     1      49.064  41.759  43.249  1.00  0.00    -0.217 NA
ATOM      7  C   UNL     1      47.841  42.123  42.761  1.00  0.00     0.152 A 
ATOM      8  C   UNL     1      47.712  42.240  41.380  1.00  0.00     0.127 A 
ATOM      9  N   UNL     1      46.654  42.574  40.630  1.00  0.00    -0.340 N 
ATOM     10  H   UNL     1      45.688  42.822  40.937  1.00  0.00     0.168 HD
ENDROOT
BRANCH   7  11
ATOM     11  N   UNL     1      46.750  42.370  43.651  1.00  0.00    -0.382 N 
ATOM     12  H   UNL     1      46.075  43.140  43.448  1.00  0.00     0.158 HD
ATOM     13  H   UNL     1      46.610  41.795  44.510  1.00  0.00     0.158 HD
ENDBRANCH   7  11
TORSDOF 1
ENDMDL
MODEL 3
REMARK VINA RESULT:    -2.077      1.243      2.745
REMARK INTER + INTRA:          -2.138
REMARK INTER:                  -2.138
REMARK INTRA:                   0.000
REMARK UNBOUND:                 0.000
REMARK SMILES Nc1ncnc2nc[nH]c12
REMARK SMILES IDX 8 1 7 2 6 3 5 4 4 5 3 6 2 7 10 8 9 9 1 11
REMARK H PARENT 9 10 1 12 1 13
REMARK Flexibility Score: inf
ROOT
ATOM      1  C   UNL     1      48.009  41.988  43.407  1.00  0.00     0.199 A 
ATOM      2  N   UNL     1      46.904  42.602  42.901  1.00  0.00    -0.217 NA
ATOM      3  C   UNL     1      47.159  42.603  41.582  1.00  0.00     0.182 A 
ATOM      4  N   UNL     1      46.365  43.105  40.606  1.00  0.00    -0.215 NA
ATOM      5  C   UNL     1      46.796  43.014  39.311  1.00  0.00     0.226 A 
ATOM      6  N   UNL     1      48.003  42.428  39.020  1.00  0.00    -0.217 NA
ATOM      7  C   UNL     1      48.804  41.920  40.003  1.00  0.00     0.152 A 
ATOM      8  C   UNL     1      48.351  42.022  41.315  1.00  0.00     0.127 A 
ATOM      9  N   UNL     1      48.911  41.621  42.463  1.00  0.00    -0.340 N 
ATOM     10  H   UNL     1      49.826  41.140  42.610  1.00  0.00     0.168 HD
ENDROOT
BRANCH   7  11
ATOM     11  N   UNL     1      50.056  41.315  39.675  1.00  0.00    -0.382 N 
ATOM     12  H   UNL     1      50.599  40.807  40.409  1.00  0.00     0.158 HD
ATOM     13  H   UNL     1      50.449  41.368  38.710  1.00  0.00     0.158 HD
ENDBRANCH   7  11
TORSDOF 1
ENDMDL
MODEL 4
REMARK VINA RESULT:    -2.037      6.284      8.805
REMARK INTER + INTRA:          -2.097
REMARK INTER:                  -2.097
REMARK INTRA:                   0.000
REMARK UNBOUND:                 0.000
REMARK SMILES Nc1ncnc2nc[nH]c12
REMARK SMILES IDX 8 1 7 2 6 3 5 4 4 5 3 6 2 7 10 8 9 9 1 11
REMARK H PARENT 9 10 1 12 1 13
REMARK Flexibility Score: inf
ROOT
ATOM      1  C   UNL     1      49.440  40.788  45.372  1.00  0.00     0.199 A 
ATOM      2  N   UNL     1      48.814  41.979  45.582  1.00  0.00    -0.217 NA
ATOM      3  C   UNL     1      48.789  42.055  46.923  1.00  0.00     0.182 A 
ATOM      4  N   UNL     1      48.267  43.060  47.666  1.00  0.00    -0.215 NA
ATOM      5  C   UNL     1      48.336  42.959  49.028  1.00  0.00     0.226 A 
ATOM      6  N   UNL     1      48.919  41.865  49.616  1.00  0.00    -0.217 NA
ATOM      7  C   UNL     1      49.446  40.851  48.868  1.00  0.00     0.152 A 
ATOM      8  C   UNL     1      49.368  40.969  47.484  1.00  0.00     0.127 A 
ATOM      9  N   UNL     1      49.791  40.147  46.515  1.00  0.00    -0.340 N 
ATOM     10  H   UNL     1      50.277  39.227  46.604  1.00  0.00     0.168 HD
ENDROOT
BRANCH   7  11
ATOM     11  N   UNL     1      50.048  39.721  49.503  1.00  0.00    -0.382 N 
ATOM     12  H   UNL     1      49.604  39.300  50.350  1.00  0.00     0.158 HD
ATOM     13  H   UNL     1      50.931  39.300  49.140  1.00  0.00     0.158 HD
ENDBRANCH   7  11
TORSDOF 1
ENDMDL
MODEL 5
REMARK VINA RESULT:    -2.035      1.960      2.754
REMARK INTER + INTRA:          -2.094
REMARK INTER:                  -2.094
REMARK INTRA:                   0.000
REMARK UNBOUND:                 0.000
REMARK SMILES Nc1ncnc2nc[nH]c12
REMARK SMILES IDX 8 1 7 2 6 3 5 4 4 5 3 6 2 7 10 8 9 9 1 11
REMARK H PARENT 9 10 1 12 1 13
REMARK Flexibility Score: inf
ROOT
ATOM      1  C   UNL     1      47.421  42.299  44.718  1.00  0.00     0.199 A 
ATOM      2  N   UNL     1      48.723  41.926  44.585  1.00  0.00    -0.217 NA
ATOM      3  C   UNL     1      48.877  41.900  43.250  1.00  0.00     0.182 A 
ATOM      4  N   UNL     1      50.007  41.584  42.573  1.00  0.00    -0.215 NA
ATOM      5  C   UNL     1      49.970  41.614  41.206  1.00  0.00     0.226 A 
ATOM      6  N   UNL     1      48.815  41.955  40.549  1.00  0.00    -0.217 NA
ATOM      7  C   UNL     1      47.675  42.275  41.231  1.00  0.00     0.152 A 
ATOM      8  C   UNL     1      47.729  42.239  42.621  1.00  0.00     0.127 A 
ATOM      9  N   UNL     1      46.786  42.499  43.535  1.00  0.00    -0.340 N 
ATOM     10  H   UNL     1      45.794  42.787  43.387  1.00  0.00     0.168 HD
ENDROOT
BRANCH   7  11
ATOM     11  N   UNL     1      46.484  42.627  40.524  1.00  0.00    -0.382 N 
ATOM     12  H   UNL     1      46.305  43.623  40.266  1.00  0.00     0.158 HD
ATOM     13  H   UNL     1      45.778  41.907  40.255  1.00  0.00     0.158 HD
ENDBRANCH   7  11
TORSDOF 1
ENDMDL
MODEL 6
REMARK VINA RESULT:    -2.032      1.191      2.608
REMARK INTER + INTRA:          -2.091
REMARK INTER:                  -2.091
REMARK INTRA:                   0.000
REMARK UNBOUND:                 0.000
REMARK SMILES Nc1ncnc2nc[nH]c12
REMARK SMILES IDX 8 1 7 2 6 3 5 4 4 5 3 6 2 7 10 8 9 9 1 11
REMARK H PARENT 9 10 1 12 1 13
REMARK Flexibility Score: inf
ROOT
ATOM      1  C   UNL     1      46.177  43.023  40.513  1.00  0.00     0.199 A 
ATOM      2  N   UNL     1      46.254  43.125  39.158  1.00  0.00    -0.217 NA
ATOM      3  C   UNL     1      47.491  42.663  38.908  1.00  0.00     0.182 A 
ATOM      4  N   UNL     1      48.082  42.549  37.694  1.00  0.00    -0.215 NA
ATOM      5  C   UNL     1      49.356  42.053  37.640  1.00  0.00     0.226 A 
ATOM      6  N   UNL     1      50.008  41.685  38.789  1.00  0.00    -0.217 NA
ATOM      7  C   UNL     1      49.413  41.798  40.014  1.00  0.00     0.152 A 
ATOM      8  C   UNL     1      48.118  42.305  40.052  1.00  0.00     0.127 A 
ATOM      9  N   UNL     1      47.299  42.525  41.089  1.00  0.00    -0.340 N 
ATOM     10  H   UNL     1      47.472  42.358  42.104  1.00  0.00     0.168 HD
ENDROOT
BRANCH   7  11
ATOM     11  N   UNL     1      50.113  41.408  41.197  1.00  0.00    -0.382 N 
ATOM     12  H   UNL     1      50.786  42.068  41.647  1.00  0.00     0.158 HD
ATOM     13  H   UNL     1      49.969  40.469  41.629  1.00  0.00     0.158 HD
ENDBRANCH   7  11
TORSDOF 1
ENDMDL
MODEL 7
REMARK VINA RESULT:    -1.976      4.168      6.065
REMARK INTER + INTRA:          -2.034
REMARK INTER:                  -2.034
REMARK INTRA:                   0.000
REMARK UNBOUND:                 0.000
REMARK SMILES Nc1ncnc2nc[nH]c12
REMARK SMILES IDX 8 1 7 2 6 3 5 4 4 5 3 6 2 7 10 8 9 9 1 11
REMARK H PARENT 9 10 1 12 1 13
REMARK Flexibility Score: inf
ROOT
ATOM      1  C   UNL     1      46.747  42.895  43.561  1.00  0.00     0.199 A 
ATOM      2  N   UNL     1      47.646  42.035  43.009  1.00  0.00    -0.217 NA
ATOM      3  C   UNL     1      48.409  41.705  44.065  1.00  0.00     0.182 A 
ATOM      4  N   UNL     1      49.468  40.860  44.064  1.00  0.00    -0.215 NA
ATOM      5  C   UNL     1      50.125  40.647  45.245  1.00  0.00     0.226 A 
ATOM      6  N   UNL     1      49.714  41.276  46.393  1.00  0.00    -0.217 NA
ATOM      7  C   UNL     1      48.645  42.127  46.395  1.00  0.00     0.152 A 
ATOM      8  C   UNL     1      47.988  42.333  45.186  1.00  0.00     0.127 A 
ATOM      9  N   UNL     1      46.929  43.098  44.890  1.00  0.00    -0.340 N 
ATOM     10  H   UNL     1      46.369  43.711  45.522  1.00  0.00     0.168 HD
ENDROOT
BRANCH   7  11
ATOM     11  N   UNL     1      48.235  42.771  47.604  1.00  0.00    -0.382 N 
ATOM     12  H   UNL     1      48.899  43.396  48.113  1.00  0.00     0.158 HD
ATOM     13  H   UNL     1      47.279  42.630  47.997  1.00  0.00     0.158 HD
ENDBRANCH   7  11
TORSDOF 1
ENDMDL
MODEL 8
REMARK VINA RESULT:    -1.926      0.931      2.396
REMARK INTER + INTRA:          -1.983
REMARK INTER:                  -1.983
REMARK INTRA:                   0.000
REMARK UNBOUND:                 0.000
REMARK SMILES Nc1ncnc2nc[nH]c12
REMARK SMILES IDX 8 1 7 2 6 3 5 4 4 5 3 6 2 7 10 8 9 9 1 11
REMARK H PARENT 9 10 1 12 1 13
REMARK Flexibility Score: inf
ROOT
ATOM      1  C   UNL     1      46.051  43.125  38.857  1.00  0.00     0.199 A 
ATOM      2  N   UNL     1      46.355  42.993  40.178  1.00  0.00    -0.217 NA
ATOM      3  C   UNL     1      47.610  42.516  40.134  1.00  0.00     0.182 A 
ATOM      4  N   UNL     1      48.394  42.205  41.195  1.00  0.00    -0.215 NA
ATOM      5  C   UNL     1      49.653  41.730  40.951  1.00  0.00     0.226 A 
ATOM      6  N   UNL     1      50.100  41.576  39.663  1.00  0.00    -0.217 NA
ATOM      7  C   UNL     1      49.312  41.890  38.593  1.00  0.00     0.152 A 
ATOM      8  C   UNL     1      48.033  42.372  38.858  1.00  0.00     0.127 A 
ATOM      9  N   UNL     1      47.057  42.754  38.026  1.00  0.00    -0.340 N 
ATOM     10  H   UNL     1      47.056  42.767  36.982  1.00  0.00     0.168 HD
ENDROOT
BRANCH   7  11
ATOM     11  N   UNL     1      49.800  41.721  37.260  1.00  0.00    -0.382 N 
ATOM     12  H   UNL     1      50.347  40.868  37.009  1.00  0.00     0.158 HD
ATOM     13  H   UNL     1      49.624  42.438  36.522  1.00  0.00     0.158 HD
ENDBRANCH   7  11
TORSDOF 1
ENDMDL
MODEL 9
REMARK VINA RESULT:    -1.879      1.030      3.877
REMARK INTER + INTRA:          -1.934
REMARK INTER:                  -1.934
REMARK INTRA:                   0.000
REMARK UNBOUND:                 0.000
REMARK SMILES Nc1ncnc2nc[nH]c12
REMARK SMILES IDX 8 1 7 2 6 3 5 4 4 5 3 6 2 7 10 8 9 9 1 11
REMARK H PARENT 9 10 1 12 1 13
REMARK Flexibility Score: inf
ROOT
ATOM      1  C   UNL     1      48.894  42.092  38.146  1.00  0.00     0.199 A 
ATOM      2  N   UNL     1      47.669  42.640  38.378  1.00  0.00    -0.217 NA
ATOM      3  C   UNL     1      47.619  42.666  39.720  1.00  0.00     0.182 A 
ATOM      4  N   UNL     1      46.597  43.125  40.482  1.00  0.00    -0.215 NA
ATOM      5  C   UNL     1      46.730  43.069  41.842  1.00  0.00     0.226 A 
ATOM      6  N   UNL     1      47.871  42.560  42.409  1.00  0.00    -0.217 NA
ATOM      7  C   UNL     1      48.903  42.098  41.642  1.00  0.00     0.152 A 
ATOM      8  C   UNL     1      48.752  42.161  40.260  1.00  0.00     0.127 A 
ATOM      9  N   UNL     1      49.580  41.789  39.276  1.00  0.00    -0.340 N 
ATOM     10  H   UNL     1      50.531  41.364  39.348  1.00  0.00     0.168 HD
ENDROOT
BRANCH   7  11
ATOM     11  N   UNL     1      50.082  41.573  42.256  1.00  0.00    -0.382 N 
ATOM     12  H   UNL     1      50.053  41.246  43.247  1.00  0.00     0.158 HD
ATOM     13  H   UNL     1      50.983  41.506  41.734  1.00  0.00     0.158 HD
ENDBRANCH   7  11
TORSDOF 1
ENDMDL
