MODEL 1
REMARK VINA RESULT:    -7.522      0.000      0.000
REMARK INTER + INTRA:          -8.363
REMARK INTER:                  -8.181
REMARK INTRA:                  -0.182
REMARK UNBOUND:                -0.182
REMARK SMILES CC(=O)[C@H]1CC[C@@H]2[C@H]3CC=C4C[C@H](O)CC[C@]4(C)[C@H]3CC[C@]12C
REMARK SMILES IDX 4 1 5 2 6 3 7 4 22 5 21 6 20 7 19 8 8 9 9 10 10 11 11 12
REMARK SMILES IDX 17 13 16 14 15 15 13 16 12 17 18 18 23 19 2 20 1 21 3 22
REMARK SMILES IDX 14 23
REMARK H PARENT 14 24
REMARK Flexibility Score: inf
ROOT
ATOM      1  C   UNL     1      -5.148  25.575  47.806  1.00  0.00     0.062 C 
ATOM      2  C   UNL     1      -4.132  26.358  46.962  1.00  0.00     0.012 C 
ATOM      3  C   UNL     1      -2.839  25.535  46.969  1.00  0.00     0.005 C 
ATOM      4  C   UNL     1      -3.147  24.221  47.717  1.00  0.00    -0.001 C 
ATOM      5  C   UNL     1      -4.301  24.609  48.673  1.00  0.00    -0.020 C 
ATOM      6  C   UNL     1      -5.097  23.388  49.197  1.00  0.00     0.008 C 
ATOM      7  C   UNL     1      -5.502  22.386  48.123  1.00  0.00     0.005 C 
ATOM      8  C   UNL     1      -4.333  21.902  47.236  1.00  0.00     0.003 C 
ATOM      9  C   UNL     1      -3.480  23.086  46.682  1.00  0.00     0.000 C 
ATOM     10  C   UNL     1      -2.175  22.609  45.971  1.00  0.00     0.031 C 
ATOM     11  C   UNL     1      -2.130  21.136  45.665  1.00  0.00    -0.027 C 
ATOM     12  C   UNL     1      -2.653  20.216  46.500  1.00  0.00    -0.065 C 
ATOM     13  C   UNL     1      -3.485  20.655  47.710  1.00  0.00    -0.008 C 
ATOM     14  C   UNL     1      -4.425  19.481  48.127  1.00  0.00     0.014 C 
ATOM     15  C   UNL     1      -3.715  18.123  48.323  1.00  0.00     0.033 C 
ATOM     16  C   UNL     1      -2.549  17.863  47.339  1.00  0.00     0.118 C 
ATOM     17  C   UNL     1      -2.607  18.759  46.096  1.00  0.00     0.063 C 
ATOM     18  C   UNL     1      -2.534  20.974  48.887  1.00  0.00     0.016 C 
ATOM     19  C   UNL     1      -3.711  25.336  49.917  1.00  0.00     0.012 C 
ENDROOT
BRANCH   1  20
ATOM     20  C   UNL     1      -6.112  26.463  48.576  1.00  0.00     0.133 C 
ATOM     21  C   UNL     1      -5.896  27.945  48.657  1.00  0.00     0.088 C 
ATOM     22  O   UNL     1      -7.079  25.978  49.146  1.00  0.00    -0.300 OA
ENDBRANCH   1  20
BRANCH  16  23
ATOM     23  O   UNL     1      -2.498  16.508  46.973  1.00  0.00    -0.393 OA
ATOM     24  H   UNL     1      -2.528  15.970  47.806  1.00  0.00     0.210 HD
ENDBRANCH  16  23
TORSDOF 2
ENDMDL
MODEL 2
REMARK VINA RESULT:    -7.344      1.801      3.121
REMARK INTER + INTRA:          -8.170
REMARK INTER:                  -7.984
REMARK INTRA:                  -0.186
REMARK UNBOUND:                -0.182
REMARK SMILES CC(=O)[C@H]1CC[C@@H]2[C@H]3CC=C4C[C@H](O)CC[C@]4(C)[C@H]3CC[C@]12C
REMARK SMILES IDX 4 1 5 2 6 3 7 4 22 5 21 6 20 7 19 8 8 9 9 10 10 11 11 12
REMARK SMILES IDX 17 13 16 14 15 15 13 16 12 17 18 18 23 19 2 20 1 21 3 22
REMARK SMILES IDX 14 23
REMARK H PARENT 14 24
REMARK Flexibility Score: inf
ROOT
ATOM      1  C   UNL     1      -3.610  24.332  49.753  1.00  0.00     0.062 C 
ATOM      2  C   UNL     1      -5.143  24.322  49.662  1.00  0.00     0.012 C 
ATOM      3  C   UNL     1      -5.500  23.381  48.506  1.00  0.00     0.005 C 
ATOM      4  C   UNL     1      -4.179  22.757  48.010  1.00  0.00    -0.001 C 
ATOM      5  C   UNL     1      -3.114  23.819  48.377  1.00  0.00    -0.020 C 
ATOM      6  C   UNL     1      -1.673  23.254  48.410  1.00  0.00     0.008 C 
ATOM      7  C   UNL     1      -1.521  21.945  49.175  1.00  0.00     0.005 C 
ATOM      8  C   UNL     1      -2.503  20.836  48.734  1.00  0.00     0.003 C 
ATOM      9  C   UNL     1      -3.978  21.344  48.670  1.00  0.00     0.000 C 
ATOM     10  C   UNL     1      -4.944  20.306  48.017  1.00  0.00     0.031 C 
ATOM     11  C   UNL     1      -4.372  18.922  47.871  1.00  0.00    -0.027 C 
ATOM     12  C   UNL     1      -3.076  18.713  47.566  1.00  0.00    -0.065 C 
ATOM     13  C   UNL     1      -2.089  19.885  47.542  1.00  0.00    -0.008 C 
ATOM     14  C   UNL     1      -0.646  19.331  47.760  1.00  0.00     0.014 C 
ATOM     15  C   UNL     1      -0.251  18.170  46.822  1.00  0.00     0.033 C 
ATOM     16  C   UNL     1      -1.406  17.196  46.488  1.00  0.00     0.118 C 
ATOM     17  C   UNL     1      -2.570  17.290  47.481  1.00  0.00     0.063 C 
ATOM     18  C   UNL     1      -2.155  20.573  46.158  1.00  0.00     0.016 C 
ATOM     19  C   UNL     1      -3.135  24.953  47.310  1.00  0.00     0.012 C 
ENDROOT
BRANCH   1  20
ATOM     20  C   UNL     1      -3.036  25.669  50.193  1.00  0.00     0.133 C 
ATOM     21  C   UNL     1      -3.886  26.905  50.205  1.00  0.00     0.088 C 
ATOM     22  O   UNL     1      -1.867  25.756  50.541  1.00  0.00    -0.300 OA
ENDBRANCH   1  20
BRANCH  16  23
ATOM     23  O   UNL     1      -0.935  15.875  46.398  1.00  0.00    -0.393 OA
ATOM     24  H   UNL     1      -0.628  15.603  47.302  1.00  0.00     0.210 HD
ENDBRANCH  16  23
TORSDOF 2
ENDMDL
MODEL 3
REMARK VINA RESULT:    -7.310      1.721      3.007
REMARK INTER + INTRA:          -8.133
REMARK INTER:                  -8.070
REMARK INTRA:                  -0.063
REMARK UNBOUND:                -0.182
REMARK SMILES CC(=O)[C@H]1CC[C@@H]2[C@H]3CC=C4C[C@H](O)CC[C@]4(C)[C@H]3CC[C@]12C
REMARK SMILES IDX 4 1 5 2 6 3 7 4 22 5 21 6 20 7 19 8 8 9 9 10 10 11 11 12
REMARK SMILES IDX 17 13 16 14 15 15 13 16 12 17 18 18 23 19 2 20 1 21 3 22
REMARK SMILES IDX 14 23
REMARK H PARENT 14 24
REMARK Flexibility Score: inf
ROOT
ATOM      1  C   UNL     1      -4.450  25.330  50.772  1.00  0.00     0.062 C 
ATOM      2  C   UNL     1      -5.916  25.505  50.349  1.00  0.00     0.012 C 
ATOM      3  C   UNL     1      -6.026  24.938  48.929  1.00  0.00     0.005 C 
ATOM      4  C   UNL     1      -4.652  24.328  48.581  1.00  0.00    -0.001 C 
ATOM      5  C   UNL     1      -3.662  25.141  49.451  1.00  0.00    -0.020 C 
ATOM      6  C   UNL     1      -2.295  24.439  49.640  1.00  0.00     0.008 C 
ATOM      7  C   UNL     1      -2.385  22.968  50.028  1.00  0.00     0.005 C 
ATOM      8  C   UNL     1      -3.279  22.121  49.095  1.00  0.00     0.003 C 
ATOM      9  C   UNL     1      -4.674  22.780  48.853  1.00  0.00     0.000 C 
ATOM     10  C   UNL     1      -5.499  22.053  47.745  1.00  0.00     0.031 C 
ATOM     11  C   UNL     1      -4.967  20.702  47.350  1.00  0.00    -0.027 C 
ATOM     12  C   UNL     1      -3.645  20.444  47.291  1.00  0.00    -0.065 C 
ATOM     13  C   UNL     1      -2.633  21.472  47.807  1.00  0.00    -0.008 C 
ATOM     14  C   UNL     1      -1.308  20.733  48.173  1.00  0.00     0.014 C 
ATOM     15  C   UNL     1      -0.749  19.819  47.061  1.00  0.00     0.033 C 
ATOM     16  C   UNL     1      -1.831  19.091  46.227  1.00  0.00     0.118 C 
ATOM     17  C   UNL     1      -3.194  19.046  46.929  1.00  0.00     0.063 C 
ATOM     18  C   UNL     1      -2.338  22.497  46.687  1.00  0.00     0.016 C 
ATOM     19  C   UNL     1      -3.381  26.508  48.760  1.00  0.00     0.012 C 
ENDROOT
BRANCH   1  20
ATOM     20  C   UNL     1      -3.942  26.439  51.678  1.00  0.00     0.133 C 
ATOM     21  C   UNL     1      -3.027  26.136  52.828  1.00  0.00     0.088 C 
ATOM     22  O   UNL     1      -4.276  27.600  51.484  1.00  0.00    -0.300 OA
ENDBRANCH   1  20
BRANCH  16  23
ATOM     23  O   UNL     1      -1.408  17.796  45.881  1.00  0.00    -0.393 OA
ATOM     24  H   UNL     1      -1.971  17.152  46.384  1.00  0.00     0.210 HD
ENDBRANCH  16  23
TORSDOF 2
ENDMDL
MODEL 4
REMARK VINA RESULT:    -7.281      1.393      6.697
REMARK INTER + INTRA:          -8.101
REMARK INTER:                  -7.946
REMARK INTRA:                  -0.155
REMARK UNBOUND:                -0.182
REMARK SMILES CC(=O)[C@H]1CC[C@@H]2[C@H]3CC=C4C[C@H](O)CC[C@]4(C)[C@H]3CC[C@]12C
REMARK SMILES IDX 4 1 5 2 6 3 7 4 22 5 21 6 20 7 19 8 8 9 9 10 10 11 11 12
REMARK SMILES IDX 17 13 16 14 15 15 13 16 12 17 18 18 23 19 2 20 1 21 3 22
REMARK SMILES IDX 14 23
REMARK H PARENT 14 24
REMARK Flexibility Score: inf
ROOT
ATOM      1  C   UNL     1      -2.090  19.785  47.704  1.00  0.00     0.062 C 
ATOM      2  C   UNL     1      -0.654  20.118  47.275  1.00  0.00     0.012 C 
ATOM      3  C   UNL     1      -0.701  21.524  46.667  1.00  0.00     0.005 C 
ATOM      4  C   UNL     1      -2.141  22.047  46.854  1.00  0.00    -0.001 C 
ATOM      5  C   UNL     1      -2.993  20.756  46.902  1.00  0.00    -0.020 C 
ATOM      6  C   UNL     1      -4.390  20.969  47.535  1.00  0.00     0.008 C 
ATOM      7  C   UNL     1      -4.381  21.745  48.846  1.00  0.00     0.005 C 
ATOM      8  C   UNL     1      -3.631  23.094  48.778  1.00  0.00     0.003 C 
ATOM      9  C   UNL     1      -2.214  22.952  48.137  1.00  0.00     0.000 C 
ATOM     10  C   UNL     1      -1.537  24.331  47.860  1.00  0.00     0.031 C 
ATOM     11  C   UNL     1      -2.200  25.502  48.534  1.00  0.00    -0.027 C 
ATOM     12  C   UNL     1      -3.537  25.581  48.678  1.00  0.00    -0.065 C 
ATOM     13  C   UNL     1      -4.425  24.383  48.323  1.00  0.00    -0.008 C 
ATOM     14  C   UNL     1      -5.768  24.503  49.109  1.00  0.00     0.014 C 
ATOM     15  C   UNL     1      -6.482  25.865  48.965  1.00  0.00     0.033 C 
ATOM     16  C   UNL     1      -5.528  27.081  48.883  1.00  0.00     0.118 C 
ATOM     17  C   UNL     1      -4.120  26.771  49.408  1.00  0.00     0.063 C 
ATOM     18  C   UNL     1      -4.730  24.411  46.808  1.00  0.00     0.016 C 
ATOM     19  C   UNL     1      -3.225  20.244  45.449  1.00  0.00     0.012 C 
ENDROOT
BRANCH   1  20
ATOM     20  C   UNL     1      -2.439  18.311  47.567  1.00  0.00     0.133 C 
ATOM     21  C   UNL     1      -3.598  17.722  48.317  1.00  0.00     0.088 C 
ATOM     22  O   UNL     1      -1.776  17.582  46.843  1.00  0.00    -0.300 OA
ENDBRANCH   1  20
BRANCH  16  23
ATOM     23  O   UNL     1      -6.074  28.190  49.551  1.00  0.00    -0.393 OA
ATOM     24  H   UNL     1      -6.909  28.444  49.079  1.00  0.00     0.210 HD
ENDBRANCH  16  23
TORSDOF 2
ENDMDL
MODEL 5
REMARK VINA RESULT:    -7.216      2.101      6.983
REMARK INTER + INTRA:          -8.031
REMARK INTER:                  -7.853
REMARK INTRA:                  -0.177
REMARK UNBOUND:                -0.182
REMARK SMILES CC(=O)[C@H]1CC[C@@H]2[C@H]3CC=C4C[C@H](O)CC[C@]4(C)[C@H]3CC[C@]12C
REMARK SMILES IDX 4 1 5 2 6 3 7 4 22 5 21 6 20 7 19 8 8 9 9 10 10 11 11 12
REMARK SMILES IDX 17 13 16 14 15 15 13 16 12 17 18 18 23 19 2 20 1 21 3 22
REMARK SMILES IDX 14 23
REMARK H PARENT 14 24
REMARK Flexibility Score: inf
ROOT
ATOM      1  C   UNL     1      -2.600  20.832  47.073  1.00  0.00     0.062 C 
ATOM      2  C   UNL     1      -3.995  20.544  46.499  1.00  0.00     0.012 C 
ATOM      3  C   UNL     1      -5.002  21.082  47.522  1.00  0.00     0.005 C 
ATOM      4  C   UNL     1      -4.187  21.786  48.628  1.00  0.00    -0.001 C 
ATOM      5  C   UNL     1      -2.821  21.060  48.590  1.00  0.00    -0.020 C 
ATOM      6  C   UNL     1      -1.683  21.863  49.267  1.00  0.00     0.008 C 
ATOM      7  C   UNL     1      -1.608  23.328  48.857  1.00  0.00     0.005 C 
ATOM      8  C   UNL     1      -2.942  24.095  49.002  1.00  0.00     0.003 C 
ATOM      9  C   UNL     1      -4.137  23.332  48.347  1.00  0.00     0.000 C 
ATOM     10  C   UNL     1      -5.518  23.981  48.676  1.00  0.00     0.031 C 
ATOM     11  C   UNL     1      -5.438  25.362  49.269  1.00  0.00    -0.027 C 
ATOM     12  C   UNL     1      -4.462  25.715  50.127  1.00  0.00    -0.065 C 
ATOM     13  C   UNL     1      -3.283  24.771  50.389  1.00  0.00    -0.008 C 
ATOM     14  C   UNL     1      -2.070  25.611  50.900  1.00  0.00     0.014 C 
ATOM     15  C   UNL     1      -2.387  26.548  52.086  1.00  0.00     0.033 C 
ATOM     16  C   UNL     1      -3.798  27.183  52.040  1.00  0.00     0.118 C 
ATOM     17  C   UNL     1      -4.427  27.137  50.642  1.00  0.00     0.063 C 
ATOM     18  C   UNL     1      -3.682  23.755  51.484  1.00  0.00     0.016 C 
ATOM     19  C   UNL     1      -2.940  19.707  49.354  1.00  0.00     0.012 C 
ENDROOT
BRANCH   1  20
ATOM     20  C   UNL     1      -1.567  19.775  46.719  1.00  0.00     0.133 C 
ATOM     21  C   UNL     1      -1.988  18.416  46.242  1.00  0.00     0.088 C 
ATOM     22  O   UNL     1      -0.372  20.018  46.821  1.00  0.00    -0.300 OA
ENDBRANCH   1  20
BRANCH  16  23
ATOM     23  O   UNL     1      -3.768  28.500  52.528  1.00  0.00    -0.393 OA
ATOM     24  H   UNL     1      -4.052  29.101  51.791  1.00  0.00     0.210 HD
ENDBRANCH  16  23
TORSDOF 2
ENDMDL
MODEL 6
REMARK VINA RESULT:    -7.148      1.525      1.810
REMARK INTER + INTRA:          -7.957
REMARK INTER:                  -7.772
REMARK INTRA:                  -0.185
REMARK UNBOUND:                -0.182
REMARK SMILES CC(=O)[C@H]1CC[C@@H]2[C@H]3CC=C4C[C@H](O)CC[C@]4(C)[C@H]3CC[C@]12C
REMARK SMILES IDX 4 1 5 2 6 3 7 4 22 5 21 6 20 7 19 8 8 9 9 10 10 11 11 12
REMARK SMILES IDX 17 13 16 14 15 15 13 16 12 17 18 18 23 19 2 20 1 21 3 22
REMARK SMILES IDX 14 23
REMARK H PARENT 14 24
REMARK Flexibility Score: inf
ROOT
ATOM      1  C   UNL     1      -3.872  24.843  48.404  1.00  0.00     0.062 C 
ATOM      2  C   UNL     1      -2.549  25.521  48.791  1.00  0.00     0.012 C 
ATOM      3  C   UNL     1      -1.651  24.419  49.363  1.00  0.00     0.005 C 
ATOM      4  C   UNL     1      -2.411  23.087  49.196  1.00  0.00    -0.001 C 
ATOM      5  C   UNL     1      -3.899  23.514  49.202  1.00  0.00    -0.020 C 
ATOM      6  C   UNL     1      -4.844  22.448  48.595  1.00  0.00     0.008 C 
ATOM      7  C   UNL     1      -4.379  21.870  47.265  1.00  0.00     0.005 C 
ATOM      8  C   UNL     1      -2.931  21.332  47.280  1.00  0.00     0.003 C 
ATOM      9  C   UNL     1      -1.924  22.357  47.891  1.00  0.00     0.000 C 
ATOM     10  C   UNL     1      -0.505  21.748  48.116  1.00  0.00     0.031 C 
ATOM     11  C   UNL     1      -0.272  20.430  47.427  1.00  0.00    -0.027 C 
ATOM     12  C   UNL     1      -1.241  19.502  47.312  1.00  0.00    -0.065 C 
ATOM     13  C   UNL     1      -2.682  19.834  47.719  1.00  0.00    -0.008 C 
ATOM     14  C   UNL     1      -3.652  18.874  46.962  1.00  0.00     0.014 C 
ATOM     15  C   UNL     1      -3.304  17.374  47.087  1.00  0.00     0.033 C 
ATOM     16  C   UNL     1      -1.787  17.070  47.115  1.00  0.00     0.118 C 
ATOM     17  C   UNL     1      -0.937  18.222  46.566  1.00  0.00     0.063 C 
ATOM     18  C   UNL     1      -2.842  19.608  49.240  1.00  0.00     0.016 C 
ATOM     19  C   UNL     1      -4.357  23.746  50.672  1.00  0.00     0.012 C 
ENDROOT
BRANCH   1  20
ATOM     20  C   UNL     1      -5.089  25.736  48.588  1.00  0.00     0.133 C 
ATOM     21  C   UNL     1      -4.983  27.039  49.325  1.00  0.00     0.088 C 
ATOM     22  O   UNL     1      -6.176  25.401  48.140  1.00  0.00    -0.300 OA
ENDBRANCH   1  20
BRANCH  16  23
ATOM     23  O   UNL     1      -1.505  15.875  46.431  1.00  0.00    -0.393 OA
ATOM     24  H   UNL     1      -2.156  15.794  45.686  1.00  0.00     0.210 HD
ENDBRANCH  16  23
TORSDOF 2
ENDMDL
MODEL 7
REMARK VINA RESULT:    -7.060      2.869      4.564
REMARK INTER + INTRA:          -7.861
REMARK INTER:                  -7.705
REMARK INTRA:                  -0.156
REMARK UNBOUND:                -0.182
REMARK SMILES CC(=O)[C@H]1CC[C@@H]2[C@H]3CC=C4C[C@H](O)CC[C@]4(C)[C@H]3CC[C@]12C
REMARK SMILES IDX 4 1 5 2 6 3 7 4 22 5 21 6 20 7 19 8 8 9 9 10 10 11 11 12
REMARK SMILES IDX 17 13 16 14 15 15 13 16 12 17 18 18 23 19 2 20 1 21 3 22
REMARK SMILES IDX 14 23
REMARK H PARENT 14 24
REMARK Flexibility Score: inf
ROOT
ATOM      1  C   UNL     1      -2.295  25.341  52.638  1.00  0.00     0.062 C 
ATOM      2  C   UNL     1      -3.643  26.068  52.754  1.00  0.00     0.012 C 
ATOM      3  C   UNL     1      -4.237  26.105  51.342  1.00  0.00     0.005 C 
ATOM      4  C   UNL     1      -3.288  25.294  50.434  1.00  0.00    -0.001 C 
ATOM      5  C   UNL     1      -1.915  25.421  51.138  1.00  0.00    -0.020 C 
ATOM      6  C   UNL     1      -0.900  24.338  50.698  1.00  0.00     0.008 C 
ATOM      7  C   UNL     1      -1.451  22.918  50.685  1.00  0.00     0.005 C 
ATOM      8  C   UNL     1      -2.763  22.756  49.885  1.00  0.00     0.003 C 
ATOM      9  C   UNL     1      -3.830  23.827  50.274  1.00  0.00     0.000 C 
ATOM     10  C   UNL     1      -5.070  23.815  49.325  1.00  0.00     0.031 C 
ATOM     11  C   UNL     1      -5.169  22.604  48.438  1.00  0.00    -0.027 C 
ATOM     12  C   UNL     1      -4.080  22.017  47.904  1.00  0.00    -0.065 C 
ATOM     13  C   UNL     1      -2.676  22.456  48.335  1.00  0.00    -0.008 C 
ATOM     14  C   UNL     1      -1.678  21.289  48.060  1.00  0.00     0.014 C 
ATOM     15  C   UNL     1      -1.733  20.715  46.627  1.00  0.00     0.033 C 
ATOM     16  C   UNL     1      -3.151  20.677  46.008  1.00  0.00     0.118 C 
ATOM     17  C   UNL     1      -4.263  20.776  47.059  1.00  0.00     0.063 C 
ATOM     18  C   UNL     1      -2.250  23.684  47.497  1.00  0.00     0.016 C 
ATOM     19  C   UNL     1      -1.288  26.803  50.787  1.00  0.00     0.012 C 
ENDROOT
BRANCH   1  20
ATOM     20  C   UNL     1      -1.241  25.856  53.604  1.00  0.00     0.133 C 
ATOM     21  C   UNL     1      -0.039  25.025  53.947  1.00  0.00     0.088 C 
ATOM     22  O   UNL     1      -1.359  26.959  54.119  1.00  0.00    -0.300 OA
ENDBRANCH   1  20
BRANCH  16  23
ATOM     23  O   UNL     1      -3.319  19.530  45.214  1.00  0.00    -0.393 OA
ATOM     24  H   UNL     1      -2.943  19.727  44.317  1.00  0.00     0.210 HD
ENDBRANCH  16  23
TORSDOF 2
ENDMDL
MODEL 8
REMARK VINA RESULT:    -6.856      1.494      2.100
REMARK INTER + INTRA:          -7.639
REMARK INTER:                  -7.456
REMARK INTRA:                  -0.183
REMARK UNBOUND:                -0.182
REMARK SMILES CC(=O)[C@H]1CC[C@@H]2[C@H]3CC=C4C[C@H](O)CC[C@]4(C)[C@H]3CC[C@]12C
REMARK SMILES IDX 4 1 5 2 6 3 7 4 22 5 21 6 20 7 19 8 8 9 9 10 10 11 11 12
REMARK SMILES IDX 17 13 16 14 15 15 13 16 12 17 18 18 23 19 2 20 1 21 3 22
REMARK SMILES IDX 14 23
REMARK H PARENT 14 24
REMARK Flexibility Score: inf
ROOT
ATOM      1  C   UNL     1      -4.390  25.961  48.496  1.00  0.00     0.062 C 
ATOM      2  C   UNL     1      -3.391  26.614  49.463  1.00  0.00     0.012 C 
ATOM      3  C   UNL     1      -2.670  25.466  50.178  1.00  0.00     0.005 C 
ATOM      4  C   UNL     1      -3.168  24.154  49.537  1.00  0.00    -0.001 C 
ATOM      5  C   UNL     1      -4.581  24.515  49.020  1.00  0.00    -0.020 C 
ATOM      6  C   UNL     1      -5.109  23.533  47.946  1.00  0.00     0.008 C 
ATOM      7  C   UNL     1      -4.116  23.210  46.837  1.00  0.00     0.005 C 
ATOM      8  C   UNL     1      -2.735  22.735  47.342  1.00  0.00     0.003 C 
ATOM      9  C   UNL     1      -2.148  23.679  48.439  1.00  0.00     0.000 C 
ATOM     10  C   UNL     1      -0.867  23.096  49.113  1.00  0.00     0.031 C 
ATOM     11  C   UNL     1      -0.254  21.927  48.391  1.00  0.00    -0.027 C 
ATOM     12  C   UNL     1      -1.006  20.994  47.773  1.00  0.00    -0.065 C 
ATOM     13  C   UNL     1      -2.519  21.195  47.625  1.00  0.00    -0.008 C 
ATOM     14  C   UNL     1      -3.023  20.341  46.420  1.00  0.00     0.014 C 
ATOM     15  C   UNL     1      -2.597  18.858  46.455  1.00  0.00     0.033 C 
ATOM     16  C   UNL     1      -1.182  18.613  47.033  1.00  0.00     0.118 C 
ATOM     17  C   UNL     1      -0.311  19.875  47.032  1.00  0.00     0.063 C 
ATOM     18  C   UNL     1      -3.222  20.704  48.912  1.00  0.00     0.016 C 
ATOM     19  C   UNL     1      -5.586  24.473  50.210  1.00  0.00     0.012 C 
ENDROOT
BRANCH   1  20
ATOM     20  C   UNL     1      -5.670  26.760  48.313  1.00  0.00     0.133 C 
ATOM     21  C   UNL     1      -6.032  27.863  49.265  1.00  0.00     0.088 C 
ATOM     22  O   UNL     1      -6.428  26.512  47.386  1.00  0.00    -0.300 OA
ENDBRANCH   1  20
BRANCH  16  23
ATOM     23  O   UNL     1      -0.539  17.565  46.351  1.00  0.00    -0.393 OA
ATOM     24  H   UNL     1       0.413  17.563  46.632  1.00  0.00     0.210 HD
ENDBRANCH  16  23
TORSDOF 2
ENDMDL
MODEL 9
REMARK VINA RESULT:    -6.554      2.140      7.443
REMARK INTER + INTRA:          -7.311
REMARK INTER:                  -7.124
REMARK INTRA:                  -0.187
REMARK UNBOUND:                -0.182
REMARK SMILES CC(=O)[C@H]1CC[C@@H]2[C@H]3CC=C4C[C@H](O)CC[C@]4(C)[C@H]3CC[C@]12C
REMARK SMILES IDX 4 1 5 2 6 3 7 4 22 5 21 6 20 7 19 8 8 9 9 10 10 11 11 12
REMARK SMILES IDX 17 13 16 14 15 15 13 16 12 17 18 18 23 19 2 20 1 21 3 22
REMARK SMILES IDX 14 23
REMARK H PARENT 14 24
REMARK Flexibility Score: inf
ROOT
ATOM      1  C   UNL     1      -3.585  22.174  47.418  1.00  0.00     0.062 C 
ATOM      2  C   UNL     1      -4.000  21.603  48.782  1.00  0.00     0.012 C 
ATOM      3  C   UNL     1      -4.246  22.808  49.697  1.00  0.00     0.005 C 
ATOM      4  C   UNL     1      -4.090  24.073  48.827  1.00  0.00    -0.001 C 
ATOM      5  C   UNL     1      -3.122  23.625  47.705  1.00  0.00    -0.020 C 
ATOM      6  C   UNL     1      -3.160  24.544  46.460  1.00  0.00     0.008 C 
ATOM      7  C   UNL     1      -4.560  24.880  45.962  1.00  0.00     0.005 C 
ATOM      8  C   UNL     1      -5.503  25.440  47.051  1.00  0.00     0.003 C 
ATOM      9  C   UNL     1      -5.503  24.562  48.342  1.00  0.00     0.000 C 
ATOM     10  C   UNL     1      -6.273  25.230  49.524  1.00  0.00     0.031 C 
ATOM     11  C   UNL     1      -7.128  26.404  49.133  1.00  0.00    -0.027 C 
ATOM     12  C   UNL     1      -6.750  27.278  48.179  1.00  0.00    -0.065 C 
ATOM     13  C   UNL     1      -5.510  26.997  47.322  1.00  0.00    -0.008 C 
ATOM     14  C   UNL     1      -5.637  27.785  45.981  1.00  0.00     0.014 C 
ATOM     15  C   UNL     1      -5.950  29.289  46.142  1.00  0.00     0.033 C 
ATOM     16  C   UNL     1      -6.893  29.623  47.323  1.00  0.00     0.118 C 
ATOM     17  C   UNL     1      -7.688  28.406  47.813  1.00  0.00     0.063 C 
ATOM     18  C   UNL     1      -4.253  27.493  48.075  1.00  0.00     0.016 C 
ATOM     19  C   UNL     1      -1.662  23.655  48.249  1.00  0.00     0.012 C 
ENDROOT
BRANCH   1  20
ATOM     20  C   UNL     1      -2.581  21.306  46.676  1.00  0.00     0.133 C 
ATOM     21  C   UNL     1      -1.872  20.183  47.372  1.00  0.00     0.088 C 
ATOM     22  O   UNL     1      -2.335  21.516  45.496  1.00  0.00    -0.300 OA
ENDBRANCH   1  20
BRANCH  16  23
ATOM     23  O   UNL     1      -7.758  30.678  46.988  1.00  0.00    -0.393 OA
ATOM     24  H   UNL     1      -7.197  31.459  46.740  1.00  0.00     0.210 HD
ENDBRANCH  16  23
TORSDOF 2
ENDMDL
