MODEL 1
REMARK VINA RESULT:    -1.862      0.000      0.000
REMARK INTER + INTRA:          -2.661
REMARK INTER:                  -2.406
REMARK INTRA:                  -0.255
REMARK UNBOUND:                -0.255
REMARK SMILES CCCCCCC(=O)[O-]
REMARK SMILES IDX 5 1 6 2 7 3 8 4 9 5 4 6 3 7 2 8 1 9
REMARK H PARENT
REMARK Flexibility Score: inf
ROOT
ATOM      1  C   UNL     1     115.821  14.241  27.189  1.00  0.00     0.006 C 
ENDROOT
BRANCH   1   2
ATOM      2  C   UNL     1     116.385  14.000  25.785  1.00  0.00     0.053 C 
BRANCH   2   3
ATOM      3  C   UNL     1     115.860  12.718  25.222  1.00  0.00     0.041 C 
ATOM      4  O   UNL     1     116.484  12.128  24.302  1.00  0.00    -0.550 OA
ATOM      5  O   UNL     1     114.706  12.148  25.747  1.00  0.00    -0.550 OA
ENDBRANCH   2   3
ENDBRANCH   1   2
BRANCH   1   6
ATOM      6  C   UNL     1     116.939  14.228  28.241  1.00  0.00     0.000 C 
BRANCH   6   7
ATOM      7  C   UNL     1     117.332  15.639  28.717  1.00  0.00    -0.000 C 
BRANCH   7   8
ATOM      8  C   UNL     1     118.742  16.093  28.300  1.00  0.00    -0.003 C 
ATOM      9  C   UNL     1     118.815  16.557  26.847  1.00  0.00     0.004 C 
ENDBRANCH   7   8
ENDBRANCH   6   7
ENDBRANCH   1   6
TORSDOF 5
ENDMDL
MODEL 2
REMARK VINA RESULT:    -1.796     19.020     20.686
REMARK INTER + INTRA:          -2.576
REMARK INTER:                  -2.376
REMARK INTRA:                  -0.200
REMARK UNBOUND:                -0.255
REMARK SMILES CCCCCCC(=O)[O-]
REMARK SMILES IDX 5 1 6 2 7 3 8 4 9 5 4 6 3 7 2 8 1 9
REMARK H PARENT
REMARK Flexibility Score: inf
ROOT
ATOM      1  C   UNL     1     100.877  13.403  12.801  1.00  0.00     0.006 C 
ENDROOT
BRANCH   1   2
ATOM      2  C   UNL     1     101.446  14.670  12.155  1.00  0.00     0.053 C 
BRANCH   2   3
ATOM      3  C   UNL     1     101.934  14.380  10.771  1.00  0.00     0.041 C 
ATOM      4  O   UNL     1     103.053  13.833  10.595  1.00  0.00    -0.550 OA
ATOM      5  O   UNL     1     101.128  14.669   9.676  1.00  0.00    -0.550 OA
ENDBRANCH   2   3
ENDBRANCH   1   2
BRANCH   1   6
ATOM      6  C   UNL     1     101.767  12.929  13.960  1.00  0.00     0.000 C 
BRANCH   6   7
ATOM      7  C   UNL     1     101.037  11.979  14.927  1.00  0.00    -0.000 C 
BRANCH   7   8
ATOM      8  C   UNL     1     100.982  12.461  16.388  1.00  0.00    -0.003 C 
ATOM      9  C   UNL     1     101.581  13.853  16.581  1.00  0.00     0.004 C 
ENDBRANCH   7   8
ENDBRANCH   6   7
ENDBRANCH   1   6
TORSDOF 5
ENDMDL
MODEL 3
REMARK VINA RESULT:    -1.777      1.593      3.278
REMARK INTER + INTRA:          -2.552
REMARK INTER:                  -2.169
REMARK INTRA:                  -0.382
REMARK UNBOUND:                -0.255
REMARK SMILES CCCCCCC(=O)[O-]
REMARK SMILES IDX 5 1 6 2 7 3 8 4 9 5 4 6 3 7 2 8 1 9
REMARK H PARENT
REMARK Flexibility Score: inf
ROOT
ATOM      1  C   UNL     1     116.042  14.757  27.187  1.00  0.00     0.006 C 
ENDROOT
BRANCH   1   2
ATOM      2  C   UNL     1     116.563  14.406  25.790  1.00  0.00     0.053 C 
BRANCH   2   3
ATOM      3  C   UNL     1     115.885  13.179  25.270  1.00  0.00     0.041 C 
ATOM      4  O   UNL     1     114.650  13.014  25.446  1.00  0.00    -0.550 OA
ATOM      5  O   UNL     1     116.609  12.238  24.547  1.00  0.00    -0.550 OA
ENDBRANCH   2   3
ENDBRANCH   1   2
BRANCH   1   6
ATOM      6  C   UNL     1     116.888  14.082  28.275  1.00  0.00     0.000 C 
BRANCH   6   7
ATOM      7  C   UNL     1     116.103  13.029  29.079  1.00  0.00    -0.000 C 
BRANCH   7   8
ATOM      8  C   UNL     1     114.573  13.195  29.040  1.00  0.00    -0.003 C 
ATOM      9  C   UNL     1     113.834  11.875  28.833  1.00  0.00     0.004 C 
ENDBRANCH   7   8
ENDBRANCH   6   7
ENDBRANCH   1   6
TORSDOF 5
ENDMDL
MODEL 4
REMARK VINA RESULT:    -1.777      2.530      4.590
REMARK INTER + INTRA:          -2.551
REMARK INTER:                  -2.272
REMARK INTRA:                  -0.278
REMARK UNBOUND:                -0.255
REMARK SMILES CCCCCCC(=O)[O-]
REMARK SMILES IDX 5 1 6 2 7 3 8 4 9 5 4 6 3 7 2 8 1 9
REMARK H PARENT
REMARK Flexibility Score: inf
ROOT
ATOM      1  C   UNL     1     114.941  13.023  25.419  1.00  0.00     0.006 C 
ENDROOT
BRANCH   1   2
ATOM      2  C   UNL     1     116.246  13.751  25.756  1.00  0.00     0.053 C 
BRANCH   2   3
ATOM      3  C   UNL     1     116.300  14.085  27.212  1.00  0.00     0.041 C 
ATOM      4  O   UNL     1     117.144  14.914  27.641  1.00  0.00    -0.550 OA
ATOM      5  O   UNL     1     115.384  13.518  28.090  1.00  0.00    -0.550 OA
ENDBRANCH   2   3
ENDBRANCH   1   2
BRANCH   1   6
ATOM      6  C   UNL     1     115.175  11.933  24.363  1.00  0.00     0.000 C 
BRANCH   6   7
ATOM      7  C   UNL     1     116.634  11.876  23.873  1.00  0.00    -0.000 C 
BRANCH   7   8
ATOM      8  C   UNL     1     116.819  12.112  22.364  1.00  0.00    -0.003 C 
ATOM      9  C   UNL     1     117.286  13.529  22.034  1.00  0.00     0.004 C 
ENDBRANCH   7   8
ENDBRANCH   6   7
ENDBRANCH   1   6
TORSDOF 5
ENDMDL
MODEL 5
REMARK VINA RESULT:    -1.775      3.037      4.798
REMARK INTER + INTRA:          -2.549
REMARK INTER:                  -2.397
REMARK INTRA:                  -0.152
REMARK UNBOUND:                -0.255
REMARK SMILES CCCCCCC(=O)[O-]
REMARK SMILES IDX 5 1 6 2 7 3 8 4 9 5 4 6 3 7 2 8 1 9
REMARK H PARENT
REMARK Flexibility Score: inf
ROOT
ATOM      1  C   UNL     1     116.641  14.704  26.232  1.00  0.00     0.006 C 
ENDROOT
BRANCH   1   2
ATOM      2  C   UNL     1     117.065  15.145  27.636  1.00  0.00     0.053 C 
BRANCH   2   3
ATOM      3  C   UNL     1     118.346  15.915  27.580  1.00  0.00     0.041 C 
ATOM      4  O   UNL     1     118.994  16.144  28.634  1.00  0.00    -0.550 OA
ATOM      5  O   UNL     1     118.850  16.338  26.355  1.00  0.00    -0.550 OA
ENDBRANCH   2   3
ENDBRANCH   1   2
BRANCH   1   6
ATOM      6  C   UNL     1     115.798  13.422  26.289  1.00  0.00     0.000 C 
BRANCH   6   7
ATOM      7  C   UNL     1     115.811  12.635  24.966  1.00  0.00    -0.000 C 
BRANCH   7   8
ATOM      8  C   UNL     1     116.402  13.398  23.766  1.00  0.00    -0.003 C 
ATOM      9  C   UNL     1     116.958  12.473  22.685  1.00  0.00     0.004 C 
ENDBRANCH   7   8
ENDBRANCH   6   7
ENDBRANCH   1   6
TORSDOF 5
ENDMDL
MODEL 6
REMARK VINA RESULT:    -1.740     16.864     18.669
REMARK INTER + INTRA:          -2.504
REMARK INTER:                  -2.198
REMARK INTRA:                  -0.306
REMARK UNBOUND:                -0.255
REMARK SMILES CCCCCCC(=O)[O-]
REMARK SMILES IDX 5 1 6 2 7 3 8 4 9 5 4 6 3 7 2 8 1 9
REMARK H PARENT
REMARK Flexibility Score: inf
ROOT
ATOM      1  C   UNL     1     101.733  11.876  15.306  1.00  0.00     0.006 C 
ENDROOT
BRANCH   1   2
ATOM      2  C   UNL     1     100.951  12.615  14.216  1.00  0.00     0.053 C 
BRANCH   2   3
ATOM      3  C   UNL     1     101.635  13.895  13.856  1.00  0.00     0.041 C 
ATOM      4  O   UNL     1     101.272  14.545  12.842  1.00  0.00    -0.550 OA
ATOM      5  O   UNL     1     102.644  14.397  14.670  1.00  0.00    -0.550 OA
ENDBRANCH   2   3
ENDBRANCH   1   2
BRANCH   1   6
ATOM      6  C   UNL     1     100.961  11.876  16.633  1.00  0.00     0.000 C 
BRANCH   6   7
ATOM      7  C   UNL     1     101.882  11.989  17.863  1.00  0.00    -0.000 C 
BRANCH   7   8
ATOM      8  C   UNL     1     103.366  12.232  17.538  1.00  0.00    -0.003 C 
ATOM      9  C   UNL     1     103.867  13.593  18.016  1.00  0.00     0.004 C 
ENDBRANCH   7   8
ENDBRANCH   6   7
ENDBRANCH   1   6
TORSDOF 5
ENDMDL
MODEL 7
REMARK VINA RESULT:    -1.731      2.756      4.544
REMARK INTER + INTRA:          -2.492
REMARK INTER:                  -2.271
REMARK INTRA:                  -0.221
REMARK UNBOUND:                -0.255
REMARK SMILES CCCCCCC(=O)[O-]
REMARK SMILES IDX 5 1 6 2 7 3 8 4 9 5 4 6 3 7 2 8 1 9
REMARK H PARENT
REMARK Flexibility Score: inf
ROOT
ATOM      1  C   UNL     1     116.066  12.274  24.547  1.00  0.00     0.006 C 
ENDROOT
BRANCH   1   2
ATOM      2  C   UNL     1     116.328  13.620  25.229  1.00  0.00     0.053 C 
BRANCH   2   3
ATOM      3  C   UNL     1     116.007  13.541  26.687  1.00  0.00     0.041 C 
ATOM      4  O   UNL     1     115.100  12.771  27.096  1.00  0.00    -0.550 OA
ATOM      5  O   UNL     1     116.745  14.284  27.602  1.00  0.00    -0.550 OA
ENDBRANCH   2   3
ENDBRANCH   1   2
BRANCH   1   6
ATOM      6  C   UNL     1     116.643  12.255  23.124  1.00  0.00     0.000 C 
BRANCH   6   7
ATOM      7  C   UNL     1     116.504  13.608  22.403  1.00  0.00    -0.000 C 
BRANCH   7   8
ATOM      8  C   UNL     1     117.726  14.024  21.565  1.00  0.00    -0.003 C 
ATOM      9  C   UNL     1     118.493  15.198  22.169  1.00  0.00     0.004 C 
ENDBRANCH   7   8
ENDBRANCH   6   7
ENDBRANCH   1   6
TORSDOF 5
ENDMDL
MODEL 8
REMARK VINA RESULT:    -1.707     18.670     20.068
REMARK INTER + INTRA:          -2.460
REMARK INTER:                  -2.136
REMARK INTRA:                  -0.324
REMARK UNBOUND:                -0.255
REMARK SMILES CCCCCCC(=O)[O-]
REMARK SMILES IDX 5 1 6 2 7 3 8 4 9 5 4 6 3 7 2 8 1 9
REMARK H PARENT
REMARK Flexibility Score: inf
ROOT
ATOM      1  C   UNL     1     103.746  14.069  12.789  1.00  0.00     0.006 C 
ENDROOT
BRANCH   1   2
ATOM      2  C   UNL     1     103.386  13.510  11.409  1.00  0.00     0.053 C 
BRANCH   2   3
ATOM      3  C   UNL     1     101.955  13.797  11.083  1.00  0.00     0.041 C 
ATOM      4  O   UNL     1     101.065  13.661  11.962  1.00  0.00    -0.550 OA
ATOM      5  O   UNL     1     101.609  14.262   9.820  1.00  0.00    -0.550 OA
ENDBRANCH   2   3
ENDBRANCH   1   2
BRANCH   1   6
ATOM      6  C   UNL     1     104.427  13.000  13.655  1.00  0.00     0.000 C 
BRANCH   6   7
ATOM      7  C   UNL     1     103.691  12.744  14.983  1.00  0.00    -0.000 C 
BRANCH   7   8
ATOM      8  C   UNL     1     102.426  11.877  14.864  1.00  0.00    -0.003 C 
ATOM      9  C   UNL     1     101.158  12.604  15.310  1.00  0.00     0.004 C 
ENDBRANCH   7   8
ENDBRANCH   6   7
ENDBRANCH   1   6
TORSDOF 5
ENDMDL
MODEL 9
REMARK VINA RESULT:    -1.688      2.980      4.548
REMARK INTER + INTRA:          -2.436
REMARK INTER:                  -2.043
REMARK INTRA:                  -0.393
REMARK UNBOUND:                -0.255
REMARK SMILES CCCCCCC(=O)[O-]
REMARK SMILES IDX 5 1 6 2 7 3 8 4 9 5 4 6 3 7 2 8 1 9
REMARK H PARENT
REMARK Flexibility Score: inf
ROOT
ATOM      1  C   UNL     1     116.595  16.673  26.366  1.00  0.00     0.006 C 
ENDROOT
BRANCH   1   2
ATOM      2  C   UNL     1     118.003  16.113  26.591  1.00  0.00     0.053 C 
BRANCH   2   3
ATOM      3  C   UNL     1     118.169  15.665  28.009  1.00  0.00     0.041 C 
ATOM      4  O   UNL     1     117.542  14.661  28.434  1.00  0.00    -0.550 OA
ATOM      5  O   UNL     1     119.057  16.329  28.847  1.00  0.00    -0.550 OA
ENDBRANCH   2   3
ENDBRANCH   1   2
BRANCH   1   6
ATOM      6  C   UNL     1     115.737  15.694  25.552  1.00  0.00     0.000 C 
BRANCH   6   7
ATOM      7  C   UNL     1     116.578  14.703  24.726  1.00  0.00    -0.000 C 
BRANCH   7   8
ATOM      8  C   UNL     1     116.245  13.219  24.963  1.00  0.00    -0.003 C 
ATOM      9  C   UNL     1     115.370  12.993  26.195  1.00  0.00     0.004 C 
ENDBRANCH   7   8
ENDBRANCH   6   7
ENDBRANCH   1   6
TORSDOF 5
ENDMDL
