MODEL 1
REMARK VINA RESULT:    -4.271      0.000      0.000
REMARK INTER + INTRA:         -12.679
REMARK INTER:                  -9.763
REMARK INTRA:                  -2.916
REMARK UNBOUND:                -2.916
REMARK SMILES CCCCCCCCCCCCCCCCCCCCCCCC(=O)[O-]
REMARK SMILES IDX 13 1 14 2 15 3 16 4 17 5 18 6 19 7 20 8 21 9 22 10 23 11
REMARK SMILES IDX 24 12 25 13 26 14 12 15 11 16 10 17 9 18 8 19 7 20 6 21 5 22
REMARK SMILES IDX 4 23 3 24 2 25 1 26
REMARK H PARENT
REMARK Flexibility Score: inf
ROOT
ATOM      1  C   UNL     1      34.461  12.397  49.303  1.00  0.00     0.000 C 
ENDROOT
BRANCH   1   2
ATOM      2  C   UNL     1      35.328  11.145  49.531  1.00  0.00     0.000 C 
BRANCH   2   3
ATOM      3  C   UNL     1      34.542   9.837  49.366  1.00  0.00     0.000 C 
BRANCH   3   4
ATOM      4  C   UNL     1      33.034  10.079  49.536  1.00  0.00     0.000 C 
BRANCH   4   5
ATOM      5  C   UNL     1      32.236   8.772  49.670  1.00  0.00     0.000 C 
BRANCH   5   6
ATOM      6  C   UNL     1      30.914   8.804  48.888  1.00  0.00     0.000 C 
BRANCH   6   7
ATOM      7  C   UNL     1      30.418   7.384  48.591  1.00  0.00     0.000 C 
BRANCH   7   8
ATOM      8  C   UNL     1      31.595   6.406  48.459  1.00  0.00     0.000 C 
BRANCH   8   9
ATOM      9  C   UNL     1      32.098   6.266  47.011  1.00  0.00     0.000 C 
BRANCH   9  10
ATOM     10  C   UNL     1      33.526   6.793  46.762  1.00  0.00     0.006 C 
BRANCH  10  11
ATOM     11  C   UNL     1      34.289   6.066  45.643  1.00  0.00     0.053 C 
BRANCH  11  12
ATOM     12  C   UNL     1      35.000   4.850  46.148  1.00  0.00     0.041 C 
ATOM     13  O   UNL     1      35.488   4.019  45.338  1.00  0.00    -0.550 OA
ATOM     14  O   UNL     1      35.157   4.651  47.514  1.00  0.00    -0.550 OA
ENDBRANCH  11  12
ENDBRANCH  10  11
ENDBRANCH   9  10
ENDBRANCH   8   9
ENDBRANCH   7   8
ENDBRANCH   6   7
ENDBRANCH   5   6
ENDBRANCH   4   5
ENDBRANCH   3   4
ENDBRANCH   2   3
ENDBRANCH   1   2
BRANCH   1  15
ATOM     15  C   UNL     1      35.158  13.738  49.607  1.00  0.00     0.000 C 
BRANCH  15  16
ATOM     16  C   UNL     1      34.211  14.920  49.897  1.00  0.00     0.000 C 
BRANCH  16  17
ATOM     17  C   UNL     1      34.356  16.124  48.948  1.00  0.00     0.000 C 
BRANCH  17  18
ATOM     18  C   UNL     1      35.712  16.154  48.224  1.00  0.00    -0.000 C 
BRANCH  18  19
ATOM     19  C   UNL     1      35.578  16.360  46.704  1.00  0.00    -0.000 C 
BRANCH  19  20
ATOM     20  C   UNL     1      36.151  15.229  45.830  1.00  0.00    -0.000 C 
BRANCH  20  21
ATOM     21  C   UNL     1      37.170  14.349  46.576  1.00  0.00    -0.000 C 
BRANCH  21  22
ATOM     22  C   UNL     1      36.879  12.848  46.421  1.00  0.00    -0.000 C 
BRANCH  22  23
ATOM     23  C   UNL     1      35.500  12.569  45.804  1.00  0.00    -0.000 C 
BRANCH  23  24
ATOM     24  C   UNL     1      35.228  11.059  45.733  1.00  0.00    -0.000 C 
BRANCH  24  25
ATOM     25  C   UNL     1      34.396  10.664  44.504  1.00  0.00    -0.003 C 
ATOM     26  C   UNL     1      34.652   9.227  44.052  1.00  0.00     0.004 C 
ENDBRANCH  24  25
ENDBRANCH  23  24
ENDBRANCH  22  23
ENDBRANCH  21  22
ENDBRANCH  20  21
ENDBRANCH  19  20
ENDBRANCH  18  19
ENDBRANCH  17  18
ENDBRANCH  16  17
ENDBRANCH  15  16
ENDBRANCH   1  15
TORSDOF 22
ENDMDL
MODEL 2
REMARK VINA RESULT:    -4.269      1.293      3.800
REMARK INTER + INTRA:         -12.674
REMARK INTER:                 -10.434
REMARK INTRA:                  -2.240
REMARK UNBOUND:                -2.916
REMARK SMILES CCCCCCCCCCCCCCCCCCCCCCCC(=O)[O-]
REMARK SMILES IDX 13 1 14 2 15 3 16 4 17 5 18 6 19 7 20 8 21 9 22 10 23 11
REMARK SMILES IDX 24 12 25 13 26 14 12 15 11 16 10 17 9 18 8 19 7 20 6 21 5 22
REMARK SMILES IDX 4 23 3 24 2 25 1 26
REMARK H PARENT
REMARK Flexibility Score: inf
ROOT
ATOM      1  C   UNL     1      33.865   9.914  46.588  1.00  0.00     0.000 C 
ENDROOT
BRANCH   1   2
ATOM      2  C   UNL     1      34.164  10.067  48.091  1.00  0.00     0.000 C 
BRANCH   2   3
ATOM      3  C   UNL     1      32.914  10.401  48.917  1.00  0.00     0.000 C 
BRANCH   3   4
ATOM      4  C   UNL     1      31.702   9.592  48.428  1.00  0.00     0.000 C 
BRANCH   4   5
ATOM      5  C   UNL     1      31.151   8.642  49.504  1.00  0.00     0.000 C 
BRANCH   5   6
ATOM      6  C   UNL     1      30.105   7.664  48.950  1.00  0.00     0.000 C 
BRANCH   6   7
ATOM      7  C   UNL     1      30.687   6.829  47.804  1.00  0.00     0.000 C 
BRANCH   7   8
ATOM      8  C   UNL     1      31.239   5.493  48.322  1.00  0.00     0.000 C 
BRANCH   8   9
ATOM      9  C   UNL     1      32.704   5.252  47.918  1.00  0.00     0.000 C 
BRANCH   9  10
ATOM     10  C   UNL     1      33.390   6.436  47.206  1.00  0.00     0.006 C 
BRANCH  10  11
ATOM     11  C   UNL     1      34.229   6.045  45.980  1.00  0.00     0.053 C 
BRANCH  11  12
ATOM     12  C   UNL     1      35.156   4.907  46.274  1.00  0.00     0.041 C 
ATOM     13  O   UNL     1      35.823   4.893  47.342  1.00  0.00    -0.550 OA
ATOM     14  O   UNL     1      35.258   3.843  45.386  1.00  0.00    -0.550 OA
ENDBRANCH  11  12
ENDBRANCH  10  11
ENDBRANCH   9  10
ENDBRANCH   8   9
ENDBRANCH   7   8
ENDBRANCH   6   7
ENDBRANCH   5   6
ENDBRANCH   4   5
ENDBRANCH   3   4
ENDBRANCH   2   3
ENDBRANCH   1   2
BRANCH   1  15
ATOM     15  C   UNL     1      34.951  10.470  45.646  1.00  0.00     0.000 C 
BRANCH  15  16
ATOM     16  C   UNL     1      35.612  11.785  46.109  1.00  0.00     0.000 C 
BRANCH  16  17
ATOM     17  C   UNL     1      35.323  13.011  45.224  1.00  0.00     0.000 C 
BRANCH  17  18
ATOM     18  C   UNL     1      35.868  14.319  45.818  1.00  0.00    -0.000 C 
BRANCH  18  19
ATOM     19  C   UNL     1      37.358  14.233  46.198  1.00  0.00    -0.000 C 
BRANCH  19  20
ATOM     20  C   UNL     1      38.307  15.106  45.357  1.00  0.00    -0.000 C 
BRANCH  20  21
ATOM     21  C   UNL     1      37.645  16.398  44.849  1.00  0.00    -0.000 C 
BRANCH  21  22
ATOM     22  C   UNL     1      37.663  17.523  45.896  1.00  0.00    -0.000 C 
BRANCH  22  23
ATOM     23  C   UNL     1      36.266  18.101  46.173  1.00  0.00    -0.000 C 
BRANCH  23  24
ATOM     24  C   UNL     1      35.827  17.804  47.614  1.00  0.00    -0.000 C 
BRANCH  24  25
ATOM     25  C   UNL     1      34.546  16.959  47.680  1.00  0.00    -0.003 C 
ATOM     26  C   UNL     1      34.414  16.186  48.992  1.00  0.00     0.004 C 
ENDBRANCH  24  25
ENDBRANCH  23  24
ENDBRANCH  22  23
ENDBRANCH  21  22
ENDBRANCH  20  21
ENDBRANCH  19  20
ENDBRANCH  18  19
ENDBRANCH  17  18
ENDBRANCH  16  17
ENDBRANCH  15  16
ENDBRANCH   1  15
TORSDOF 22
ENDMDL
MODEL 3
REMARK VINA RESULT:    -4.226      4.225      8.847
REMARK INTER + INTRA:         -12.576
REMARK INTER:                 -10.022
REMARK INTRA:                  -2.554
REMARK UNBOUND:                -2.916
REMARK SMILES CCCCCCCCCCCCCCCCCCCCCCCC(=O)[O-]
REMARK SMILES IDX 13 1 14 2 15 3 16 4 17 5 18 6 19 7 20 8 21 9 22 10 23 11
REMARK SMILES IDX 24 12 25 13 26 14 12 15 11 16 10 17 9 18 8 19 7 20 6 21 5 22
REMARK SMILES IDX 4 23 3 24 2 25 1 26
REMARK H PARENT
REMARK Flexibility Score: inf
ROOT
ATOM      1  C   UNL     1      34.003   7.757  44.266  1.00  0.00     0.000 C 
ENDROOT
BRANCH   1   2
ATOM      2  C   UNL     1      34.945   8.942  43.990  1.00  0.00     0.000 C 
BRANCH   2   3
ATOM      3  C   UNL     1      34.193  10.259  43.746  1.00  0.00     0.000 C 
BRANCH   3   4
ATOM      4  C   UNL     1      34.698  11.360  44.692  1.00  0.00     0.000 C 
BRANCH   4   5
ATOM      5  C   UNL     1      35.118  10.813  46.066  1.00  0.00     0.000 C 
BRANCH   5   6
ATOM      6  C   UNL     1      35.662  11.908  46.997  1.00  0.00     0.000 C 
BRANCH   6   7
ATOM      7  C   UNL     1      37.193  11.864  47.060  1.00  0.00     0.000 C 
BRANCH   7   8
ATOM      8  C   UNL     1      37.768  13.240  47.425  1.00  0.00     0.000 C 
BRANCH   8   9
ATOM      9  C   UNL     1      38.612  13.857  46.295  1.00  0.00     0.000 C 
BRANCH   9  10
ATOM     10  C   UNL     1      37.901  14.950  45.471  1.00  0.00     0.006 C 
BRANCH  10  11
ATOM     11  C   UNL     1      37.155  15.998  46.311  1.00  0.00     0.053 C 
BRANCH  11  12
ATOM     12  C   UNL     1      36.988  17.291  45.575  1.00  0.00     0.041 C 
ATOM     13  O   UNL     1      36.101  18.112  45.930  1.00  0.00    -0.550 OA
ATOM     14  O   UNL     1      37.834  17.608  44.519  1.00  0.00    -0.550 OA
ENDBRANCH  11  12
ENDBRANCH  10  11
ENDBRANCH   9  10
ENDBRANCH   8   9
ENDBRANCH   7   8
ENDBRANCH   6   7
ENDBRANCH   5   6
ENDBRANCH   4   5
ENDBRANCH   3   4
ENDBRANCH   2   3
ENDBRANCH   1   2
BRANCH   1  15
ATOM     15  C   UNL     1      33.875   7.356  45.749  1.00  0.00     0.000 C 
BRANCH  15  16
ATOM     16  C   UNL     1      34.348   5.927  46.086  1.00  0.00     0.000 C 
BRANCH  16  17
ATOM     17  C   UNL     1      33.986   5.433  47.498  1.00  0.00     0.000 C 
BRANCH  17  18
ATOM     18  C   UNL     1      34.872   6.050  48.592  1.00  0.00    -0.000 C 
BRANCH  18  19
ATOM     19  C   UNL     1      34.107   7.023  49.508  1.00  0.00    -0.000 C 
BRANCH  19  20
ATOM     20  C   UNL     1      34.224   8.513  49.136  1.00  0.00    -0.000 C 
BRANCH  20  21
ATOM     21  C   UNL     1      32.905   9.108  48.613  1.00  0.00    -0.000 C 
BRANCH  21  22
ATOM     22  C   UNL     1      31.788   9.088  49.668  1.00  0.00    -0.000 C 
BRANCH  22  23
ATOM     23  C   UNL     1      30.530   8.347  49.190  1.00  0.00    -0.000 C 
BRANCH  23  24
ATOM     24  C   UNL     1      30.871   7.367  48.057  1.00  0.00    -0.000 C 
BRANCH  24  25
ATOM     25  C   UNL     1      30.494   5.917  48.395  1.00  0.00    -0.003 C 
ATOM     26  C   UNL     1      28.990   5.729  48.600  1.00  0.00     0.004 C 
ENDBRANCH  24  25
ENDBRANCH  23  24
ENDBRANCH  22  23
ENDBRANCH  21  22
ENDBRANCH  20  21
ENDBRANCH  19  20
ENDBRANCH  18  19
ENDBRANCH  17  18
ENDBRANCH  16  17
ENDBRANCH  15  16
ENDBRANCH   1  15
TORSDOF 22
ENDMDL
MODEL 4
REMARK VINA RESULT:    -4.211      3.825      9.058
REMARK INTER + INTRA:         -12.542
REMARK INTER:                 -10.255
REMARK INTRA:                  -2.287
REMARK UNBOUND:                -2.916
REMARK SMILES CCCCCCCCCCCCCCCCCCCCCCCC(=O)[O-]
REMARK SMILES IDX 13 1 14 2 15 3 16 4 17 5 18 6 19 7 20 8 21 9 22 10 23 11
REMARK SMILES IDX 24 12 25 13 26 14 12 15 11 16 10 17 9 18 8 19 7 20 6 21 5 22
REMARK SMILES IDX 4 23 3 24 2 25 1 26
REMARK H PARENT
REMARK Flexibility Score: inf
ROOT
ATOM      1  C   UNL     1      34.585  10.426  45.814  1.00  0.00     0.000 C 
ENDROOT
BRANCH   1   2
ATOM      2  C   UNL     1      35.682  11.340  46.387  1.00  0.00     0.000 C 
BRANCH   2   3
ATOM      3  C   UNL     1      35.657  12.753  45.786  1.00  0.00     0.000 C 
BRANCH   3   4
ATOM      4  C   UNL     1      35.961  13.809  46.859  1.00  0.00     0.000 C 
BRANCH   4   5
ATOM      5  C   UNL     1      37.462  13.921  47.172  1.00  0.00     0.000 C 
BRANCH   5   6
ATOM      6  C   UNL     1      38.335  13.865  45.909  1.00  0.00     0.000 C 
BRANCH   6   7
ATOM      7  C   UNL     1      38.939  15.240  45.599  1.00  0.00     0.000 C 
BRANCH   7   8
ATOM      8  C   UNL     1      38.009  16.057  44.691  1.00  0.00     0.000 C 
BRANCH   8   9
ATOM      9  C   UNL     1      37.657  17.436  45.278  1.00  0.00     0.000 C 
BRANCH   9  10
ATOM     10  C   UNL     1      36.248  17.542  45.897  1.00  0.00     0.006 C 
BRANCH  10  11
ATOM     11  C   UNL     1      36.225  18.046  47.349  1.00  0.00     0.053 C 
BRANCH  11  12
ATOM     12  C   UNL     1      35.199  17.334  48.174  1.00  0.00     0.041 C 
ATOM     13  O   UNL     1      34.202  16.799  47.622  1.00  0.00    -0.550 OA
ATOM     14  O   UNL     1      35.361  17.229  49.550  1.00  0.00    -0.550 OA
ENDBRANCH  11  12
ENDBRANCH  10  11
ENDBRANCH   9  10
ENDBRANCH   8   9
ENDBRANCH   7   8
ENDBRANCH   6   7
ENDBRANCH   5   6
ENDBRANCH   4   5
ENDBRANCH   3   4
ENDBRANCH   2   3
ENDBRANCH   1   2
BRANCH   1  15
ATOM     15  C   UNL     1      33.811   9.600  46.860  1.00  0.00     0.000 C 
BRANCH  15  16
ATOM     16  C   UNL     1      33.435  10.359  48.150  1.00  0.00     0.000 C 
BRANCH  16  17
ATOM     17  C   UNL     1      31.977  10.186  48.611  1.00  0.00     0.000 C 
BRANCH  17  18
ATOM     18  C   UNL     1      31.715   8.819  49.265  1.00  0.00    -0.000 C 
BRANCH  18  19
ATOM     19  C   UNL     1      30.273   8.321  49.060  1.00  0.00    -0.000 C 
BRANCH  19  20
ATOM     20  C   UNL     1      30.137   6.855  48.610  1.00  0.00    -0.000 C 
BRANCH  20  21
ATOM     21  C   UNL     1      31.160   6.459  47.531  1.00  0.00    -0.000 C 
BRANCH  21  22
ATOM     22  C   UNL     1      32.185   5.431  48.036  1.00  0.00    -0.000 C 
BRANCH  22  23
ATOM     23  C   UNL     1      33.634   5.922  47.905  1.00  0.00    -0.000 C 
BRANCH  23  24
ATOM     24  C   UNL     1      34.514   4.857  47.234  1.00  0.00    -0.000 C 
BRANCH  24  25
ATOM     25  C   UNL     1      34.866   5.209  45.780  1.00  0.00    -0.003 C 
ATOM     26  C   UNL     1      34.158   6.472  45.290  1.00  0.00     0.004 C 
ENDBRANCH  24  25
ENDBRANCH  23  24
ENDBRANCH  22  23
ENDBRANCH  21  22
ENDBRANCH  20  21
ENDBRANCH  19  20
ENDBRANCH  18  19
ENDBRANCH  17  18
ENDBRANCH  16  17
ENDBRANCH  15  16
ENDBRANCH   1  15
TORSDOF 22
ENDMDL
MODEL 5
REMARK VINA RESULT:    -4.202      3.732      8.121
REMARK INTER + INTRA:         -12.522
REMARK INTER:                  -9.765
REMARK INTRA:                  -2.757
REMARK UNBOUND:                -2.916
REMARK SMILES CCCCCCCCCCCCCCCCCCCCCCCC(=O)[O-]
REMARK SMILES IDX 13 1 14 2 15 3 16 4 17 5 18 6 19 7 20 8 21 9 22 10 23 11
REMARK SMILES IDX 24 12 25 13 26 14 12 15 11 16 10 17 9 18 8 19 7 20 6 21 5 22
REMARK SMILES IDX 4 23 3 24 2 25 1 26
REMARK H PARENT
REMARK Flexibility Score: inf
ROOT
ATOM      1  C   UNL     1      31.639   9.674  48.555  1.00  0.00     0.000 C 
ENDROOT
BRANCH   1   2
ATOM      2  C   UNL     1      33.123  10.077  48.485  1.00  0.00     0.000 C 
BRANCH   2   3
ATOM      3  C   UNL     1      34.047   9.082  49.200  1.00  0.00     0.000 C 
BRANCH   3   4
ATOM      4  C   UNL     1      35.375   9.750  49.588  1.00  0.00     0.000 C 
BRANCH   4   5
ATOM      5  C   UNL     1      35.749  10.912  48.653  1.00  0.00     0.000 C 
BRANCH   5   6
ATOM      6  C   UNL     1      36.342  12.112  49.408  1.00  0.00     0.000 C 
BRANCH   6   7
ATOM      7  C   UNL     1      37.419  12.810  48.569  1.00  0.00     0.000 C 
BRANCH   7   8
ATOM      8  C   UNL     1      37.384  12.323  47.113  1.00  0.00     0.000 C 
BRANCH   8   9
ATOM      9  C   UNL     1      37.375  13.476  46.094  1.00  0.00     0.000 C 
BRANCH   9  10
ATOM     10  C   UNL     1      36.002  14.145  45.876  1.00  0.00     0.006 C 
BRANCH  10  11
ATOM     11  C   UNL     1      35.860  15.534  46.518  1.00  0.00     0.053 C 
BRANCH  11  12
ATOM     12  C   UNL     1      36.429  16.614  45.653  1.00  0.00     0.041 C 
ATOM     13  O   UNL     1      37.306  16.341  44.793  1.00  0.00    -0.550 OA
ATOM     14  O   UNL     1      35.965  17.919  45.771  1.00  0.00    -0.550 OA
ENDBRANCH  11  12
ENDBRANCH  10  11
ENDBRANCH   9  10
ENDBRANCH   8   9
ENDBRANCH   7   8
ENDBRANCH   6   7
ENDBRANCH   5   6
ENDBRANCH   4   5
ENDBRANCH   3   4
ENDBRANCH   2   3
ENDBRANCH   1   2
BRANCH   1  15
ATOM     15  C   UNL     1      31.264   8.772  49.747  1.00  0.00     0.000 C 
BRANCH  15  16
ATOM     16  C   UNL     1      29.872   8.112  49.659  1.00  0.00     0.000 C 
BRANCH  16  17
ATOM     17  C   UNL     1      29.844   6.601  49.952  1.00  0.00     0.000 C 
BRANCH  17  18
ATOM     18  C   UNL     1      29.838   5.744  48.675  1.00  0.00    -0.000 C 
BRANCH  18  19
ATOM     19  C   UNL     1      31.253   5.368  48.198  1.00  0.00    -0.000 C 
BRANCH  19  20
ATOM     20  C   UNL     1      31.863   6.301  47.136  1.00  0.00    -0.000 C 
BRANCH  20  21
ATOM     21  C   UNL     1      33.398   6.217  47.072  1.00  0.00    -0.000 C 
BRANCH  21  22
ATOM     22  C   UNL     1      33.955   6.601  45.692  1.00  0.00    -0.000 C 
BRANCH  22  23
ATOM     23  C   UNL     1      34.063   8.121  45.495  1.00  0.00    -0.000 C 
BRANCH  23  24
ATOM     24  C   UNL     1      34.346   8.463  44.024  1.00  0.00    -0.000 C 
BRANCH  24  25
ATOM     25  C   UNL     1      34.622   9.959  43.807  1.00  0.00    -0.003 C 
ATOM     26  C   UNL     1      34.641  10.752  45.114  1.00  0.00     0.004 C 
ENDBRANCH  24  25
ENDBRANCH  23  24
ENDBRANCH  22  23
ENDBRANCH  21  22
ENDBRANCH  20  21
ENDBRANCH  19  20
ENDBRANCH  18  19
ENDBRANCH  17  18
ENDBRANCH  16  17
ENDBRANCH  15  16
ENDBRANCH   1  15
TORSDOF 22
ENDMDL
MODEL 6
REMARK VINA RESULT:    -4.166      1.755      2.702
REMARK INTER + INTRA:         -12.440
REMARK INTER:                  -9.532
REMARK INTRA:                  -2.908
REMARK UNBOUND:                -2.916
REMARK SMILES CCCCCCCCCCCCCCCCCCCCCCCC(=O)[O-]
REMARK SMILES IDX 13 1 14 2 15 3 16 4 17 5 18 6 19 7 20 8 21 9 22 10 23 11
REMARK SMILES IDX 24 12 25 13 26 14 12 15 11 16 10 17 9 18 8 19 7 20 6 21 5 22
REMARK SMILES IDX 4 23 3 24 2 25 1 26
REMARK H PARENT
REMARK Flexibility Score: inf
ROOT
ATOM      1  C   UNL     1      34.091  10.462  48.553  1.00  0.00     0.000 C 
ENDROOT
BRANCH   1   2
ATOM      2  C   UNL     1      32.741  10.718  49.248  1.00  0.00     0.000 C 
BRANCH   2   3
ATOM      3  C   UNL     1      31.618   9.812  48.724  1.00  0.00     0.000 C 
BRANCH   3   4
ATOM      4  C   UNL     1      31.197   8.790  49.792  1.00  0.00     0.000 C 
BRANCH   4   5
ATOM      5  C   UNL     1      29.875   8.085  49.448  1.00  0.00     0.000 C 
BRANCH   5   6
ATOM      6  C   UNL     1      29.893   6.590  49.801  1.00  0.00     0.000 C 
BRANCH   6   7
ATOM      7  C   UNL     1      29.929   5.727  48.534  1.00  0.00     0.000 C 
BRANCH   7   8
ATOM      8  C   UNL     1      31.374   5.388  48.141  1.00  0.00     0.000 C 
BRANCH   8   9
ATOM      9  C   UNL     1      31.977   6.394  47.144  1.00  0.00     0.000 C 
BRANCH   9  10
ATOM     10  C   UNL     1      33.439   6.796  47.425  1.00  0.00     0.006 C 
BRANCH  10  11
ATOM     11  C   UNL     1      34.069   6.101  48.642  1.00  0.00     0.053 C 
BRANCH  11  12
ATOM     12  C   UNL     1      35.128   5.121  48.243  1.00  0.00     0.041 C 
ATOM     13  O   UNL     1      35.381   4.922  47.026  1.00  0.00    -0.550 OA
ATOM     14  O   UNL     1      35.861   4.451  49.216  1.00  0.00    -0.550 OA
ENDBRANCH  11  12
ENDBRANCH  10  11
ENDBRANCH   9  10
ENDBRANCH   8   9
ENDBRANCH   7   8
ENDBRANCH   6   7
ENDBRANCH   5   6
ENDBRANCH   4   5
ENDBRANCH   3   4
ENDBRANCH   2   3
ENDBRANCH   1   2
BRANCH   1  15
ATOM     15  C   UNL     1      35.232  10.016  49.488  1.00  0.00     0.000 C 
BRANCH  15  16
ATOM     16  C   UNL     1      36.045  11.163  50.125  1.00  0.00     0.000 C 
BRANCH  16  17
ATOM     17  C   UNL     1      37.555  11.139  49.827  1.00  0.00     0.000 C 
BRANCH  17  18
ATOM     18  C   UNL     1      37.896  11.664  48.423  1.00  0.00    -0.000 C 
BRANCH  18  19
ATOM     19  C   UNL     1      37.966  13.200  48.356  1.00  0.00    -0.000 C 
BRANCH  19  20
ATOM     20  C   UNL     1      36.854  13.878  47.533  1.00  0.00    -0.000 C 
BRANCH  20  21
ATOM     21  C   UNL     1      36.828  13.420  46.065  1.00  0.00    -0.000 C 
BRANCH  21  22
ATOM     22  C   UNL     1      35.488  12.781  45.668  1.00  0.00    -0.000 C 
BRANCH  22  23
ATOM     23  C   UNL     1      35.522  11.246  45.717  1.00  0.00    -0.000 C 
BRANCH  23  24
ATOM     24  C   UNL     1      34.425  10.645  44.826  1.00  0.00    -0.000 C 
BRANCH  24  25
ATOM     25  C   UNL     1      34.945   9.508  43.933  1.00  0.00    -0.003 C 
ATOM     26  C   UNL     1      34.188   8.197  44.144  1.00  0.00     0.004 C 
ENDBRANCH  24  25
ENDBRANCH  23  24
ENDBRANCH  22  23
ENDBRANCH  21  22
ENDBRANCH  20  21
ENDBRANCH  19  20
ENDBRANCH  18  19
ENDBRANCH  17  18
ENDBRANCH  16  17
ENDBRANCH  15  16
ENDBRANCH   1  15
TORSDOF 22
ENDMDL
MODEL 7
REMARK VINA RESULT:    -4.166      1.346      3.780
REMARK INTER + INTRA:         -12.440
REMARK INTER:                  -9.561
REMARK INTRA:                  -2.879
REMARK UNBOUND:                -2.916
REMARK SMILES CCCCCCCCCCCCCCCCCCCCCCCC(=O)[O-]
REMARK SMILES IDX 13 1 14 2 15 3 16 4 17 5 18 6 19 7 20 8 21 9 22 10 23 11
REMARK SMILES IDX 24 12 25 13 26 14 12 15 11 16 10 17 9 18 8 19 7 20 6 21 5 22
REMARK SMILES IDX 4 23 3 24 2 25 1 26
REMARK H PARENT
REMARK Flexibility Score: inf
ROOT
ATOM      1  C   UNL     1      34.475  10.238  45.671  1.00  0.00     0.000 C 
ENDROOT
BRANCH   1   2
ATOM      2  C   UNL     1      33.710   9.494  46.779  1.00  0.00     0.000 C 
BRANCH   2   3
ATOM      3  C   UNL     1      33.959  10.082  48.175  1.00  0.00     0.000 C 
BRANCH   3   4
ATOM      4  C   UNL     1      32.718   9.920  49.067  1.00  0.00     0.000 C 
BRANCH   4   5
ATOM      5  C   UNL     1      31.571   9.182  48.357  1.00  0.00     0.000 C 
BRANCH   5   6
ATOM      6  C   UNL     1      30.682   8.393  49.330  1.00  0.00     0.000 C 
BRANCH   6   7
ATOM      7  C   UNL     1      30.275   7.042  48.730  1.00  0.00     0.000 C 
BRANCH   7   8
ATOM      8  C   UNL     1      31.201   6.656  47.567  1.00  0.00     0.000 C 
BRANCH   8   9
ATOM      9  C   UNL     1      32.232   5.580  47.952  1.00  0.00     0.000 C 
BRANCH   9  10
ATOM     10  C   UNL     1      33.649   6.111  48.252  1.00  0.00     0.006 C 
BRANCH  10  11
ATOM     11  C   UNL     1      34.787   5.227  47.719  1.00  0.00     0.053 C 
BRANCH  11  12
ATOM     12  C   UNL     1      34.799   5.168  46.223  1.00  0.00     0.041 C 
ATOM     13  O   UNL     1      34.397   6.150  45.547  1.00  0.00    -0.550 OA
ATOM     14  O   UNL     1      35.289   4.041  45.574  1.00  0.00    -0.550 OA
ENDBRANCH  11  12
ENDBRANCH  10  11
ENDBRANCH   9  10
ENDBRANCH   8   9
ENDBRANCH   7   8
ENDBRANCH   6   7
ENDBRANCH   5   6
ENDBRANCH   4   5
ENDBRANCH   3   4
ENDBRANCH   2   3
ENDBRANCH   1   2
BRANCH   1  15
ATOM     15  C   UNL     1      35.523  11.254  46.169  1.00  0.00     0.000 C 
BRANCH  15  16
ATOM     16  C   UNL     1      35.417  12.663  45.551  1.00  0.00     0.000 C 
BRANCH  16  17
ATOM     17  C   UNL     1      36.533  13.642  45.957  1.00  0.00     0.000 C 
BRANCH  17  18
ATOM     18  C   UNL     1      37.336  13.161  47.176  1.00  0.00    -0.000 C 
BRANCH  18  19
ATOM     19  C   UNL     1      37.064  13.993  48.443  1.00  0.00    -0.000 C 
BRANCH  19  20
ATOM     20  C   UNL     1      35.588  14.082  48.872  1.00  0.00    -0.000 C 
BRANCH  20  21
ATOM     21  C   UNL     1      35.098  15.530  49.049  1.00  0.00    -0.000 C 
BRANCH  21  22
ATOM     22  C   UNL     1      35.865  16.526  48.163  1.00  0.00    -0.000 C 
BRANCH  22  23
ATOM     23  C   UNL     1      35.120  16.861  46.862  1.00  0.00    -0.000 C 
BRANCH  23  24
ATOM     24  C   UNL     1      36.024  17.649  45.902  1.00  0.00    -0.000 C 
BRANCH  24  25
ATOM     25  C   UNL     1      37.513  17.321  46.088  1.00  0.00    -0.003 C 
ATOM     26  C   UNL     1      38.126  16.643  44.863  1.00  0.00     0.004 C 
ENDBRANCH  24  25
ENDBRANCH  23  24
ENDBRANCH  22  23
ENDBRANCH  21  22
ENDBRANCH  20  21
ENDBRANCH  19  20
ENDBRANCH  18  19
ENDBRANCH  17  18
ENDBRANCH  16  17
ENDBRANCH  15  16
ENDBRANCH   1  15
TORSDOF 22
ENDMDL
MODEL 8
REMARK VINA RESULT:    -4.160      1.996      4.993
REMARK INTER + INTRA:         -12.426
REMARK INTER:                  -9.884
REMARK INTRA:                  -2.542
REMARK UNBOUND:                -2.916
REMARK SMILES CCCCCCCCCCCCCCCCCCCCCCCC(=O)[O-]
REMARK SMILES IDX 13 1 14 2 15 3 16 4 17 5 18 6 19 7 20 8 21 9 22 10 23 11
REMARK SMILES IDX 24 12 25 13 26 14 12 15 11 16 10 17 9 18 8 19 7 20 6 21 5 22
REMARK SMILES IDX 4 23 3 24 2 25 1 26
REMARK H PARENT
REMARK Flexibility Score: inf
ROOT
ATOM      1  C   UNL     1      34.166  10.371  43.930  1.00  0.00     0.000 C 
ENDROOT
BRANCH   1   2
ATOM      2  C   UNL     1      34.955   9.055  44.054  1.00  0.00     0.000 C 
BRANCH   2   3
ATOM      3  C   UNL     1      34.056   7.844  44.339  1.00  0.00     0.000 C 
BRANCH   3   4
ATOM      4  C   UNL     1      33.842   7.666  45.850  1.00  0.00     0.000 C 
BRANCH   4   5
ATOM      5  C   UNL     1      34.112   6.228  46.321  1.00  0.00     0.000 C 
BRANCH   5   6
ATOM      6  C   UNL     1      33.166   5.786  47.448  1.00  0.00     0.000 C 
BRANCH   6   7
ATOM      7  C   UNL     1      31.741   6.294  47.198  1.00  0.00     0.000 C 
BRANCH   7   8
ATOM      8  C   UNL     1      30.898   6.221  48.479  1.00  0.00     0.000 C 
BRANCH   8   9
ATOM      9  C   UNL     1      30.124   7.521  48.763  1.00  0.00     0.000 C 
BRANCH   9  10
ATOM     10  C   UNL     1      30.932   8.619  49.485  1.00  0.00     0.006 C 
BRANCH  10  11
ATOM     11  C   UNL     1      31.745   9.530  48.553  1.00  0.00     0.053 C 
BRANCH  11  12
ATOM     12  C   UNL     1      33.122   9.787  49.079  1.00  0.00     0.041 C 
ATOM     13  O   UNL     1      33.977   8.863  49.094  1.00  0.00    -0.550 OA
ATOM     14  O   UNL     1      33.475  11.056  49.521  1.00  0.00    -0.550 OA
ENDBRANCH  11  12
ENDBRANCH  10  11
ENDBRANCH   9  10
ENDBRANCH   8   9
ENDBRANCH   7   8
ENDBRANCH   6   7
ENDBRANCH   5   6
ENDBRANCH   4   5
ENDBRANCH   3   4
ENDBRANCH   2   3
ENDBRANCH   1   2
BRANCH   1  15
ATOM     15  C   UNL     1      34.672  11.523  44.821  1.00  0.00     0.000 C 
BRANCH  15  16
ATOM     16  C   UNL     1      35.129  11.107  46.235  1.00  0.00     0.000 C 
BRANCH  16  17
ATOM     17  C   UNL     1      36.296  11.926  46.814  1.00  0.00     0.000 C 
BRANCH  17  18
ATOM     18  C   UNL     1      36.675  13.130  45.936  1.00  0.00    -0.000 C 
BRANCH  18  19
ATOM     19  C   UNL     1      37.909  13.889  46.456  1.00  0.00    -0.000 C 
BRANCH  19  20
ATOM     20  C   UNL     1      38.449  14.991  45.526  1.00  0.00    -0.000 C 
BRANCH  20  21
ATOM     21  C   UNL     1      38.320  16.402  46.126  1.00  0.00    -0.000 C 
BRANCH  21  22
ATOM     22  C   UNL     1      37.511  17.353  45.229  1.00  0.00    -0.000 C 
BRANCH  22  23
ATOM     23  C   UNL     1      36.214  17.839  45.893  1.00  0.00    -0.000 C 
BRANCH  23  24
ATOM     24  C   UNL     1      35.362  16.650  46.362  1.00  0.00    -0.000 C 
BRANCH  24  25
ATOM     25  C   UNL     1      35.012  16.726  47.856  1.00  0.00    -0.003 C 
ATOM     26  C   UNL     1      35.331  15.432  48.605  1.00  0.00     0.004 C 
ENDBRANCH  24  25
ENDBRANCH  23  24
ENDBRANCH  22  23
ENDBRANCH  21  22
ENDBRANCH  20  21
ENDBRANCH  19  20
ENDBRANCH  18  19
ENDBRANCH  17  18
ENDBRANCH  16  17
ENDBRANCH  15  16
ENDBRANCH   1  15
TORSDOF 22
ENDMDL
MODEL 9
REMARK VINA RESULT:    -4.011      3.964      9.097
REMARK INTER + INTRA:         -12.086
REMARK INTER:                  -9.909
REMARK INTRA:                  -2.177
REMARK UNBOUND:                -2.916
REMARK SMILES CCCCCCCCCCCCCCCCCCCCCCCC(=O)[O-]
REMARK SMILES IDX 13 1 14 2 15 3 16 4 17 5 18 6 19 7 20 8 21 9 22 10 23 11
REMARK SMILES IDX 24 12 25 13 26 14 12 15 11 16 10 17 9 18 8 19 7 20 6 21 5 22
REMARK SMILES IDX 4 23 3 24 2 25 1 26
REMARK H PARENT
REMARK Flexibility Score: inf
ROOT
ATOM      1  C   UNL     1      35.441  12.830  45.524  1.00  0.00     0.000 C 
ENDROOT
BRANCH   1   2
ATOM      2  C   UNL     1      35.857  14.305  45.664  1.00  0.00     0.000 C 
BRANCH   2   3
ATOM      3  C   UNL     1      37.380  14.497  45.676  1.00  0.00     0.000 C 
BRANCH   3   4
ATOM      4  C   UNL     1      37.753  15.880  46.233  1.00  0.00     0.000 C 
BRANCH   4   5
ATOM      5  C   UNL     1      37.266  17.030  45.337  1.00  0.00     0.000 C 
BRANCH   5   6
ATOM      6  C   UNL     1      36.156  17.864  45.995  1.00  0.00     0.000 C 
BRANCH   6   7
ATOM      7  C   UNL     1      36.541  18.260  47.425  1.00  0.00     0.000 C 
BRANCH   7   8
ATOM      8  C   UNL     1      35.363  18.056  48.388  1.00  0.00     0.000 C 
BRANCH   8   9
ATOM      9  C   UNL     1      34.629  16.722  48.165  1.00  0.00     0.000 C 
BRANCH   9  10
ATOM     10  C   UNL     1      33.392  16.500  49.059  1.00  0.00     0.006 C 
BRANCH  10  11
ATOM     11  C   UNL     1      32.286  17.554  48.892  1.00  0.00     0.053 C 
BRANCH  11  12
ATOM     12  C   UNL     1      30.936  17.013  49.249  1.00  0.00     0.041 C 
ATOM     13  O   UNL     1      29.927  17.764  49.225  1.00  0.00    -0.550 OA
ATOM     14  O   UNL     1      30.787  15.671  49.575  1.00  0.00    -0.550 OA
ENDBRANCH  11  12
ENDBRANCH  10  11
ENDBRANCH   9  10
ENDBRANCH   8   9
ENDBRANCH   7   8
ENDBRANCH   6   7
ENDBRANCH   5   6
ENDBRANCH   4   5
ENDBRANCH   3   4
ENDBRANCH   2   3
ENDBRANCH   1   2
BRANCH   1  15
ATOM     15  C   UNL     1      34.633  12.497  44.254  1.00  0.00     0.000 C 
BRANCH  15  16
ATOM     16  C   UNL     1      34.176  11.028  44.132  1.00  0.00     0.000 C 
BRANCH  16  17
ATOM     17  C   UNL     1      34.818  10.057  45.139  1.00  0.00     0.000 C 
BRANCH  17  18
ATOM     18  C   UNL     1      33.833   9.577  46.217  1.00  0.00    -0.000 C 
BRANCH  18  19
ATOM     19  C   UNL     1      34.101  10.203  47.598  1.00  0.00    -0.000 C 
BRANCH  19  20
ATOM     20  C   UNL     1      33.274   9.623  48.760  1.00  0.00    -0.000 C 
BRANCH  20  21
ATOM     21  C   UNL     1      31.768   9.557  48.453  1.00  0.00    -0.000 C 
BRANCH  21  22
ATOM     22  C   UNL     1      31.115   8.264  48.968  1.00  0.00    -0.000 C 
BRANCH  22  23
ATOM     23  C   UNL     1      30.940   7.206  47.867  1.00  0.00    -0.000 C 
BRANCH  23  24
ATOM     24  C   UNL     1      31.521   5.855  48.309  1.00  0.00    -0.000 C 
BRANCH  24  25
ATOM     25  C   UNL     1      33.057   5.853  48.338  1.00  0.00    -0.003 C 
ATOM     26  C   UNL     1      33.675   6.170  46.976  1.00  0.00     0.004 C 
ENDBRANCH  24  25
ENDBRANCH  23  24
ENDBRANCH  22  23
ENDBRANCH  21  22
ENDBRANCH  20  21
ENDBRANCH  19  20
ENDBRANCH  18  19
ENDBRANCH  17  18
ENDBRANCH  16  17
ENDBRANCH  15  16
ENDBRANCH   1  15
TORSDOF 22
ENDMDL
