MODEL 1
REMARK VINA RESULT:    -4.720      0.000      0.000
REMARK INTER + INTRA:          -5.244
REMARK INTER:                  -4.996
REMARK INTRA:                  -0.249
REMARK UNBOUND:                -0.249
REMARK SMILES C=C(C)[C@@H]1CC=C(C)CC1
REMARK SMILES IDX 8 1 7 2 6 3 5 4 4 5 10 6 9 7 2 8 1 9 3 10
REMARK H PARENT
REMARK Flexibility Score: inf
ROOT
ATOM      1  C   UNL     1     -46.478  25.649 -13.659  1.00  0.00     0.039 C 
ATOM      2  C   UNL     1     -46.226  26.555 -14.832  1.00  0.00    -0.077 C 
ATOM      3  C   UNL     1     -44.970  26.905 -15.156  1.00  0.00    -0.027 C 
ATOM      4  C   UNL     1     -44.722  27.795 -16.346  1.00  0.00     0.035 C 
ATOM      5  C   UNL     1     -45.605  27.410 -17.568  1.00  0.00     0.018 C 
ATOM      6  C   UNL     1     -46.980  26.778 -17.187  1.00  0.00     0.013 C 
ATOM      7  C   UNL     1     -47.356  27.021 -15.719  1.00  0.00     0.031 C 
ENDROOT
BRANCH   5   8
ATOM      8  C   UNL     1     -44.844  26.525 -18.545  1.00  0.00    -0.077 C 
ATOM      9  C   UNL     1     -45.316  25.316 -18.897  1.00  0.00     0.008 C 
ATOM     10  C   UNL     1     -43.530  27.013 -19.097  1.00  0.00     0.039 C 
ENDBRANCH   5   8
TORSDOF 1
ENDMDL
MODEL 2
REMARK VINA RESULT:    -4.670      0.180      1.120
REMARK INTER + INTRA:          -5.191
REMARK INTER:                  -4.936
REMARK INTRA:                  -0.255
REMARK UNBOUND:                -0.249
REMARK SMILES C=C(C)[C@@H]1CC=C(C)CC1
REMARK SMILES IDX 8 1 7 2 6 3 5 4 4 5 10 6 9 7 2 8 1 9 3 10
REMARK H PARENT
REMARK Flexibility Score: inf
ROOT
ATOM      1  C   UNL     1     -46.668  25.750 -13.801  1.00  0.00     0.039 C 
ATOM      2  C   UNL     1     -46.280  26.661 -14.932  1.00  0.00    -0.077 C 
ATOM      3  C   UNL     1     -44.984  26.911 -15.183  1.00  0.00    -0.027 C 
ATOM      4  C   UNL     1     -44.602  27.808 -16.332  1.00  0.00     0.035 C 
ATOM      5  C   UNL     1     -45.450  27.533 -17.607  1.00  0.00     0.018 C 
ATOM      6  C   UNL     1     -46.891  27.011 -17.313  1.00  0.00     0.013 C 
ATOM      7  C   UNL     1     -47.320  27.246 -15.858  1.00  0.00     0.031 C 
ENDROOT
BRANCH   5   8
ATOM      8  C   UNL     1     -44.718  26.612 -18.572  1.00  0.00    -0.077 C 
ATOM      9  C   UNL     1     -43.554  26.982 -19.135  1.00  0.00     0.008 C 
ATOM     10  C   UNL     1     -45.331  25.279 -18.913  1.00  0.00     0.039 C 
ENDBRANCH   5   8
TORSDOF 1
ENDMDL
MODEL 3
REMARK VINA RESULT:    -4.558      1.844      3.252
REMARK INTER + INTRA:          -5.073
REMARK INTER:                  -4.934
REMARK INTRA:                  -0.139
REMARK UNBOUND:                -0.249
REMARK SMILES C=C(C)[C@@H]1CC=C(C)CC1
REMARK SMILES IDX 8 1 7 2 6 3 5 4 4 5 10 6 9 7 2 8 1 9 3 10
REMARK H PARENT
REMARK Flexibility Score: inf
ROOT
ATOM      1  C   UNL     1     -48.188  27.637 -18.057  1.00  0.00     0.039 C 
ATOM      2  C   UNL     1     -46.745  27.248 -17.890  1.00  0.00    -0.077 C 
ATOM      3  C   UNL     1     -46.163  26.420 -18.774  1.00  0.00    -0.027 C 
ATOM      4  C   UNL     1     -44.712  26.052 -18.614  1.00  0.00     0.035 C 
ATOM      5  C   UNL     1     -43.830  27.271 -18.217  1.00  0.00     0.018 C 
ATOM      6  C   UNL     1     -44.582  28.355 -17.383  1.00  0.00     0.013 C 
ATOM      7  C   UNL     1     -45.898  27.836 -16.787  1.00  0.00     0.031 C 
ENDROOT
BRANCH   5   8
ATOM      8  C   UNL     1     -43.153  27.885 -19.433  1.00  0.00    -0.077 C 
ATOM      9  C   UNL     1     -42.335  28.946 -19.311  1.00  0.00     0.008 C 
ATOM     10  C   UNL     1     -43.432  27.302 -20.794  1.00  0.00     0.039 C 
ENDBRANCH   5   8
TORSDOF 1
ENDMDL
MODEL 4
REMARK VINA RESULT:    -4.536      1.488      4.072
REMARK INTER + INTRA:          -5.050
REMARK INTER:                  -4.797
REMARK INTRA:                  -0.252
REMARK UNBOUND:                -0.249
REMARK SMILES C=C(C)[C@@H]1CC=C(C)CC1
REMARK SMILES IDX 8 1 7 2 6 3 5 4 4 5 10 6 9 7 2 8 1 9 3 10
REMARK H PARENT
REMARK Flexibility Score: inf
ROOT
ATOM      1  C   UNL     1     -43.131  28.386 -19.685  1.00  0.00     0.039 C 
ATOM      2  C   UNL     1     -43.884  27.633 -18.624  1.00  0.00    -0.077 C 
ATOM      3  C   UNL     1     -44.231  28.246 -17.480  1.00  0.00    -0.027 C 
ATOM      4  C   UNL     1     -45.004  27.492 -16.429  1.00  0.00     0.035 C 
ATOM      5  C   UNL     1     -46.132  26.612 -17.041  1.00  0.00     0.018 C 
ATOM      6  C   UNL     1     -45.825  26.092 -18.480  1.00  0.00     0.013 C 
ATOM      7  C   UNL     1     -44.339  26.211 -18.847  1.00  0.00     0.031 C 
ENDROOT
BRANCH   5   8
ATOM      8  C   UNL     1     -47.478  27.320 -16.989  1.00  0.00    -0.077 C 
ATOM      9  C   UNL     1     -48.063  27.783 -18.108  1.00  0.00     0.008 C 
ATOM     10  C   UNL     1     -48.142  27.522 -15.652  1.00  0.00     0.039 C 
ENDBRANCH   5   8
TORSDOF 1
ENDMDL
MODEL 5
REMARK VINA RESULT:    -4.498      1.124      4.287
REMARK INTER + INTRA:          -5.010
REMARK INTER:                  -4.793
REMARK INTRA:                  -0.217
REMARK UNBOUND:                -0.249
REMARK SMILES C=C(C)[C@@H]1CC=C(C)CC1
REMARK SMILES IDX 8 1 7 2 6 3 5 4 4 5 10 6 9 7 2 8 1 9 3 10
REMARK H PARENT
REMARK Flexibility Score: inf
ROOT
ATOM      1  C   UNL     1     -44.639  25.939 -19.021  1.00  0.00     0.039 C 
ATOM      2  C   UNL     1     -45.491  26.573 -17.957  1.00  0.00    -0.077 C 
ATOM      3  C   UNL     1     -46.819  26.370 -17.948  1.00  0.00    -0.027 C 
ATOM      4  C   UNL     1     -47.665  26.990 -16.866  1.00  0.00     0.035 C 
ATOM      5  C   UNL     1     -47.001  26.889 -15.463  1.00  0.00     0.018 C 
ATOM      6  C   UNL     1     -45.441  26.886 -15.495  1.00  0.00     0.013 C 
ATOM      7  C   UNL     1     -44.877  27.375 -16.836  1.00  0.00     0.031 C 
ENDROOT
BRANCH   5   8
ATOM      8  C   UNL     1     -47.537  25.699 -14.680  1.00  0.00    -0.077 C 
ATOM      9  C   UNL     1     -46.868  25.206 -13.623  1.00  0.00     0.008 C 
ATOM     10  C   UNL     1     -48.826  25.057 -15.123  1.00  0.00     0.039 C 
ENDBRANCH   5   8
TORSDOF 1
ENDMDL
MODEL 6
REMARK VINA RESULT:    -4.385      4.401      6.241
REMARK INTER + INTRA:          -4.890
REMARK INTER:                  -4.679
REMARK INTRA:                  -0.211
REMARK UNBOUND:                -0.249
REMARK SMILES C=C(C)[C@@H]1CC=C(C)CC1
REMARK SMILES IDX 8 1 7 2 6 3 5 4 4 5 10 6 9 7 2 8 1 9 3 10
REMARK H PARENT
REMARK Flexibility Score: inf
ROOT
ATOM      1  C   UNL     1     -52.732  23.186 -13.131  1.00  0.00     0.039 C 
ATOM      2  C   UNL     1     -52.057  23.965 -14.225  1.00  0.00    -0.077 C 
ATOM      3  C   UNL     1     -52.339  25.267 -14.399  1.00  0.00    -0.027 C 
ATOM      4  C   UNL     1     -51.643  26.048 -15.483  1.00  0.00     0.035 C 
ATOM      5  C   UNL     1     -50.126  25.714 -15.573  1.00  0.00     0.018 C 
ATOM      6  C   UNL     1     -49.767  24.259 -15.140  1.00  0.00     0.013 C 
ATOM      7  C   UNL     1     -50.994  23.336 -15.094  1.00  0.00     0.031 C 
ENDROOT
BRANCH   5   8
ATOM      8  C   UNL     1     -49.288  26.735 -14.819  1.00  0.00    -0.077 C 
ATOM      9  C   UNL     1     -49.775  27.955 -14.529  1.00  0.00     0.008 C 
ATOM     10  C   UNL     1     -47.882  26.370 -14.418  1.00  0.00     0.039 C 
ENDBRANCH   5   8
TORSDOF 1
ENDMDL
MODEL 7
REMARK VINA RESULT:    -4.377     15.176     16.539
REMARK INTER + INTRA:          -4.881
REMARK INTER:                  -4.630
REMARK INTRA:                  -0.251
REMARK UNBOUND:                -0.249
REMARK SMILES C=C(C)[C@@H]1CC=C(C)CC1
REMARK SMILES IDX 8 1 7 2 6 3 5 4 4 5 10 6 9 7 2 8 1 9 3 10
REMARK H PARENT
REMARK Flexibility Score: inf
ROOT
ATOM      1  C   UNL     1     -49.112   9.929 -11.336  1.00  0.00     0.039 C 
ATOM      2  C   UNL     1     -48.500   9.808 -12.704  1.00  0.00    -0.077 C 
ATOM      3  C   UNL     1     -48.970  10.550 -13.721  1.00  0.00    -0.027 C 
ATOM      4  C   UNL     1     -48.338  10.440 -15.084  1.00  0.00     0.035 C 
ATOM      5  C   UNL     1     -46.785  10.376 -15.015  1.00  0.00     0.018 C 
ATOM      6  C   UNL     1     -46.232   9.721 -13.711  1.00  0.00     0.013 C 
ATOM      7  C   UNL     1     -47.301   8.923 -12.950  1.00  0.00     0.031 C 
ENDROOT
BRANCH   5   8
ATOM      8  C   UNL     1     -46.163  11.744 -15.249  1.00  0.00    -0.077 C 
ATOM      9  C   UNL     1     -45.445  12.354 -14.289  1.00  0.00     0.008 C 
ATOM     10  C   UNL     1     -46.384  12.427 -16.574  1.00  0.00     0.039 C 
ENDBRANCH   5   8
TORSDOF 1
ENDMDL
MODEL 8
REMARK VINA RESULT:    -4.251      1.506      2.205
REMARK INTER + INTRA:          -4.749
REMARK INTER:                  -4.556
REMARK INTRA:                  -0.193
REMARK UNBOUND:                -0.249
REMARK SMILES C=C(C)[C@@H]1CC=C(C)CC1
REMARK SMILES IDX 8 1 7 2 6 3 5 4 4 5 10 6 9 7 2 8 1 9 3 10
REMARK H PARENT
REMARK Flexibility Score: inf
ROOT
ATOM      1  C   UNL     1     -48.278  25.004 -14.826  1.00  0.00     0.039 C 
ATOM      2  C   UNL     1     -47.973  25.871 -16.015  1.00  0.00    -0.077 C 
ATOM      3  C   UNL     1     -47.561  27.138 -15.840  1.00  0.00    -0.027 C 
ATOM      4  C   UNL     1     -47.235  27.994 -17.035  1.00  0.00     0.035 C 
ATOM      5  C   UNL     1     -46.438  27.216 -18.123  1.00  0.00     0.018 C 
ATOM      6  C   UNL     1     -46.748  25.687 -18.167  1.00  0.00     0.013 C 
ATOM      7  C   UNL     1     -48.039  25.323 -17.421  1.00  0.00     0.031 C 
ENDROOT
BRANCH   5   8
ATOM      8  C   UNL     1     -44.944  27.472 -18.003  1.00  0.00    -0.077 C 
ATOM      9  C   UNL     1     -44.470  28.480 -17.250  1.00  0.00     0.008 C 
ATOM     10  C   UNL     1     -43.991  26.590 -18.768  1.00  0.00     0.039 C 
ENDBRANCH   5   8
TORSDOF 1
ENDMDL
MODEL 9
REMARK VINA RESULT:    -4.213      1.365      2.939
REMARK INTER + INTRA:          -4.708
REMARK INTER:                  -4.465
REMARK INTRA:                  -0.243
REMARK UNBOUND:                -0.249
REMARK SMILES C=C(C)[C@@H]1CC=C(C)CC1
REMARK SMILES IDX 8 1 7 2 6 3 5 4 4 5 10 6 9 7 2 8 1 9 3 10
REMARK H PARENT
REMARK Flexibility Score: inf
ROOT
ATOM      1  C   UNL     1     -49.372  27.701 -16.703  1.00  0.00     0.039 C 
ATOM      2  C   UNL     1     -48.015  27.109 -16.967  1.00  0.00    -0.077 C 
ATOM      3  C   UNL     1     -47.415  27.299 -18.153  1.00  0.00    -0.027 C 
ATOM      4  C   UNL     1     -46.046  26.722 -18.403  1.00  0.00     0.035 C 
ATOM      5  C   UNL     1     -45.097  26.896 -17.182  1.00  0.00     0.018 C 
ATOM      6  C   UNL     1     -45.830  26.913 -15.804  1.00  0.00     0.013 C 
ATOM      7  C   UNL     1     -47.262  26.366 -15.889  1.00  0.00     0.031 C 
ENDROOT
BRANCH   5   8
ATOM      8  C   UNL     1     -44.202  28.115 -17.344  1.00  0.00    -0.077 C 
ATOM      9  C   UNL     1     -43.544  28.345 -18.495  1.00  0.00     0.008 C 
ATOM     10  C   UNL     1     -44.037  29.057 -16.180  1.00  0.00     0.039 C 
ENDBRANCH   5   8
TORSDOF 1
ENDMDL
