MODEL 1
REMARK VINA RESULT:    -6.257      0.000      0.000
REMARK INTER + INTRA:          -9.074
REMARK INTER:                  -8.452
REMARK INTRA:                  -0.622
REMARK UNBOUND:                -0.622
REMARK SMILES C=CC(C)=CCC=C(C)CCC=C(C)C
REMARK SMILES IDX 8 1 7 2 9 3 10 4 11 5 12 6 14 7 13 8 15 9 6 10 5 11 3 12
REMARK SMILES IDX 4 13 2 14 1 15
REMARK H PARENT
REMARK Flexibility Score: inf
ROOT
ATOM      1  C   UNL     1       4.306   7.193  12.544  1.00  0.00    -0.077 C 
ATOM      2  C   UNL     1       3.955   8.028  13.548  1.00  0.00    -0.024 C 
ATOM      3  C   UNL     1       4.750   7.715  11.197  1.00  0.00     0.039 C 
ENDROOT
BRANCH   1   4
ATOM      4  C   UNL     1       4.262   5.699  12.778  1.00  0.00     0.034 C 
BRANCH   4   5
ATOM      5  C   UNL     1       5.672   5.147  13.022  1.00  0.00     0.032 C 
BRANCH   5   6
ATOM      6  C   UNL     1       6.524   6.158  13.747  1.00  0.00    -0.028 C 
ATOM      7  C   UNL     1       8.320   7.811  14.037  1.00  0.00     0.039 C 
ATOM      8  C   UNL     1       7.587   6.791  13.203  1.00  0.00    -0.080 C 
ATOM      9  C   UNL     1       8.063   6.495  11.800  1.00  0.00     0.039 C 
ENDBRANCH   5   6
ENDBRANCH   4   5
ENDBRANCH   1   4
BRANCH   2  10
ATOM     10  C   UNL     1       3.936   9.531  13.430  1.00  0.00     0.055 C 
BRANCH  10  11
ATOM     11  C   UNL     1       2.648  10.013  12.813  1.00  0.00    -0.020 C 
ATOM     12  C   UNL     1       2.586  10.731  11.673  1.00  0.00    -0.055 C 
ATOM     13  C   UNL     1       3.834  11.127  10.916  1.00  0.00     0.044 C 
BRANCH  12  14
ATOM     14  C   UNL     1       1.250  11.193  11.213  1.00  0.00    -0.005 C 
ATOM     15  C   UNL     1       0.112  10.900  11.843  1.00  0.00     0.009 C 
ENDBRANCH  12  14
ENDBRANCH  10  11
ENDBRANCH   2  10
TORSDOF 6
ENDMDL
MODEL 2
REMARK VINA RESULT:    -5.356      0.745      1.491
REMARK INTER + INTRA:          -7.856
REMARK INTER:                  -8.767
REMARK INTRA:                   0.911
REMARK UNBOUND:                -0.622
REMARK SMILES C=CC(C)=CCC=C(C)CCC=C(C)C
REMARK SMILES IDX 8 1 7 2 9 3 10 4 11 5 12 6 14 7 13 8 15 9 6 10 5 11 3 12
REMARK SMILES IDX 4 13 2 14 1 15
REMARK H PARENT
REMARK Flexibility Score: inf
ROOT
ATOM      1  C   UNL     1       4.305   7.041  12.619  1.00  0.00    -0.077 C 
ATOM      2  C   UNL     1       3.895   7.504  13.822  1.00  0.00    -0.024 C 
ATOM      3  C   UNL     1       4.747   7.977  11.518  1.00  0.00     0.039 C 
ENDROOT
BRANCH   1   4
ATOM      4  C   UNL     1       4.331   5.549  12.373  1.00  0.00     0.034 C 
BRANCH   4   5
ATOM      5  C   UNL     1       5.643   4.938  12.879  1.00  0.00     0.032 C 
BRANCH   5   6
ATOM      6  C   UNL     1       6.448   5.959  13.644  1.00  0.00    -0.028 C 
ATOM      7  C   UNL     1       8.197   7.646  14.014  1.00  0.00     0.039 C 
ATOM      8  C   UNL     1       7.516   6.620  13.144  1.00  0.00    -0.080 C 
ATOM      9  C   UNL     1       8.047   6.350  11.756  1.00  0.00     0.039 C 
ENDBRANCH   5   6
ENDBRANCH   4   5
ENDBRANCH   1   4
BRANCH   2  10
ATOM     10  C   UNL     1       3.804   8.967  14.178  1.00  0.00     0.055 C 
BRANCH  10  11
ATOM     11  C   UNL     1       3.738   9.825  12.941  1.00  0.00    -0.020 C 
ATOM     12  C   UNL     1       2.603  10.381  12.474  1.00  0.00    -0.055 C 
ATOM     13  C   UNL     1       1.274  10.171  13.167  1.00  0.00     0.044 C 
BRANCH  12  14
ATOM     14  C   UNL     1       2.675  11.154  11.207  1.00  0.00    -0.005 C 
ATOM     15  C   UNL     1       3.706  11.931  10.875  1.00  0.00     0.009 C 
ENDBRANCH  12  14
ENDBRANCH  10  11
ENDBRANCH   2  10
TORSDOF 6
ENDMDL
MODEL 3
REMARK VINA RESULT:    -4.620      0.976      6.509
REMARK INTER + INTRA:          -6.862
REMARK INTER:                  -6.800
REMARK INTRA:                  -0.063
REMARK UNBOUND:                -0.622
REMARK SMILES C=CC(C)=CCC=C(C)CCC=C(C)C
REMARK SMILES IDX 8 1 7 2 9 3 10 4 11 5 12 6 14 7 13 8 15 9 6 10 5 11 3 12
REMARK SMILES IDX 4 13 2 14 1 15
REMARK H PARENT
REMARK Flexibility Score: inf
ROOT
ATOM      1  C   UNL     1       4.196   8.439  12.087  1.00  0.00    -0.077 C 
ATOM      2  C   UNL     1       4.563   7.157  11.855  1.00  0.00    -0.024 C 
ATOM      3  C   UNL     1       4.259   9.043  13.470  1.00  0.00     0.039 C 
ENDROOT
BRANCH   1   4
ATOM      4  C   UNL     1       3.722   9.290  10.931  1.00  0.00     0.034 C 
BRANCH   4   5
ATOM      5  C   UNL     1       3.642  10.766  11.341  1.00  0.00     0.032 C 
BRANCH   5   6
ATOM      6  C   UNL     1       2.346  11.380  10.875  1.00  0.00    -0.028 C 
ATOM      7  C   UNL     1      -0.059  11.888  10.911  1.00  0.00     0.039 C 
ATOM      8  C   UNL     1       1.146  11.171  11.463  1.00  0.00    -0.080 C 
ATOM      9  C   UNL     1       0.983  10.235  12.637  1.00  0.00     0.039 C 
ENDBRANCH   5   6
ENDBRANCH   4   5
ENDBRANCH   1   4
BRANCH   2  10
ATOM     10  C   UNL     1       5.029   6.205  12.927  1.00  0.00     0.055 C 
BRANCH  10  11
ATOM     11  C   UNL     1       6.145   6.806  13.741  1.00  0.00    -0.020 C 
ATOM     12  C   UNL     1       7.430   6.852  13.334  1.00  0.00    -0.055 C 
ATOM     13  C   UNL     1       7.860   6.279  12.002  1.00  0.00     0.044 C 
BRANCH  12  14
ATOM     14  C   UNL     1       8.437   7.419  14.268  1.00  0.00    -0.005 C 
ATOM     15  C   UNL     1       9.338   8.335  13.914  1.00  0.00     0.009 C 
ENDBRANCH  12  14
ENDBRANCH  10  11
ENDBRANCH   2  10
TORSDOF 6
ENDMDL
MODEL 4
REMARK VINA RESULT:    -3.796      1.538      2.283
REMARK INTER + INTRA:          -5.748
REMARK INTER:                  -4.855
REMARK INTRA:                  -0.894
REMARK UNBOUND:                -0.622
REMARK SMILES C=CC(C)=CCC=C(C)CCC=C(C)C
REMARK SMILES IDX 8 1 7 2 9 3 10 4 11 5 12 6 14 7 13 8 15 9 6 10 5 11 3 12
REMARK SMILES IDX 4 13 2 14 1 15
REMARK H PARENT
REMARK Flexibility Score: inf
ROOT
ATOM      1  C   UNL     1       5.020   5.865  12.185  1.00  0.00    -0.077 C 
ATOM      2  C   UNL     1       5.407   7.036  11.627  1.00  0.00    -0.024 C 
ATOM      3  C   UNL     1       3.561   5.518  12.366  1.00  0.00     0.039 C 
ENDROOT
BRANCH   1   4
ATOM      4  C   UNL     1       6.075   4.876  12.628  1.00  0.00     0.034 C 
BRANCH   4   5
ATOM      5  C   UNL     1       6.634   5.260  14.004  1.00  0.00     0.032 C 
BRANCH   5   6
ATOM      6  C   UNL     1       7.751   6.264  13.865  1.00  0.00    -0.028 C 
ATOM      7  C   UNL     1       8.884   8.433  14.095  1.00  0.00     0.039 C 
ATOM      8  C   UNL     1       7.670   7.555  14.258  1.00  0.00    -0.080 C 
ATOM      9  C   UNL     1       6.402   8.138  14.836  1.00  0.00     0.039 C 
ENDBRANCH   5   6
ENDBRANCH   4   5
ENDBRANCH   1   4
BRANCH   2  10
ATOM     10  C   UNL     1       4.453   8.109  11.168  1.00  0.00     0.055 C 
BRANCH  10  11
ATOM     11  C   UNL     1       3.983   8.952  12.325  1.00  0.00    -0.020 C 
ATOM     12  C   UNL     1       3.632  10.249  12.214  1.00  0.00    -0.055 C 
ATOM     13  C   UNL     1       3.695  10.976  10.889  1.00  0.00     0.044 C 
BRANCH  12  14
ATOM     14  C   UNL     1       3.247  10.975  13.452  1.00  0.00    -0.005 C 
ATOM     15  C   UNL     1       2.902  10.366  14.587  1.00  0.00     0.009 C 
ENDBRANCH  12  14
ENDBRANCH  10  11
ENDBRANCH   2  10
TORSDOF 6
ENDMDL
