MODEL 1
REMARK VINA RESULT:    -3.558      0.000      0.000
REMARK INTER + INTRA:          -6.014
REMARK INTER:                  -5.430
REMARK INTRA:                  -0.584
REMARK UNBOUND:                -0.584
REMARK SMILES O=C([O-])CCCCCCCCC(=O)[O-]
REMARK SMILES IDX 7 1 6 2 5 3 4 4 2 5 1 6 3 7 8 8 9 9 10 10 11 11 12 12 13 13
REMARK SMILES IDX 14 14
REMARK H PARENT
REMARK Flexibility Score: inf
ROOT
ATOM      1  C   UNL     1      61.089  32.649  59.700  1.00  0.00     0.000 C 
ENDROOT
BRANCH   1   2
ATOM      2  C   UNL     1      60.463  31.434  60.408  1.00  0.00     0.000 C 
BRANCH   2   3
ATOM      3  C   UNL     1      61.127  31.043  61.746  1.00  0.00     0.006 C 
BRANCH   3   4
ATOM      4  C   UNL     1      61.859  29.693  61.722  1.00  0.00     0.053 C 
BRANCH   4   5
ATOM      5  C   UNL     1      63.311  29.847  61.387  1.00  0.00     0.041 C 
ATOM      6  O   UNL     1      63.870  30.969  61.493  1.00  0.00    -0.550 OA
ATOM      7  O   UNL     1      64.037  28.757  60.923  1.00  0.00    -0.550 OA
ENDBRANCH   4   5
ENDBRANCH   3   4
ENDBRANCH   2   3
ENDBRANCH   1   2
BRANCH   1   8
ATOM      8  C   UNL     1      61.863  33.566  60.657  1.00  0.00     0.000 C 
BRANCH   8   9
ATOM      9  C   UNL     1      61.457  35.032  60.460  1.00  0.00     0.000 C 
BRANCH   9  10
ATOM     10  C   UNL     1      62.495  35.979  61.074  1.00  0.00     0.006 C 
BRANCH  10  11
ATOM     11  C   UNL     1      63.802  35.240  61.378  1.00  0.00     0.053 C 
BRANCH  11  12
ATOM     12  C   UNL     1      64.947  35.890  60.669  1.00  0.00     0.041 C 
ATOM     13  O   UNL     1      64.923  36.027  59.418  1.00  0.00    -0.550 OA
ATOM     14  O   UNL     1      66.065  36.300  61.385  1.00  0.00    -0.550 OA
ENDBRANCH  11  12
ENDBRANCH  10  11
ENDBRANCH   9  10
ENDBRANCH   8   9
ENDBRANCH   1   8
TORSDOF 9
ENDMDL
MODEL 2
REMARK VINA RESULT:    -3.512      1.341      5.065
REMARK INTER + INTRA:          -5.944
REMARK INTER:                  -4.971
REMARK INTRA:                  -0.973
REMARK UNBOUND:                -0.584
REMARK SMILES O=C([O-])CCCCCCCCC(=O)[O-]
REMARK SMILES IDX 7 1 6 2 5 3 4 4 2 5 1 6 3 7 8 8 9 9 10 10 11 11 12 12 13 13
REMARK SMILES IDX 14 14
REMARK H PARENT
REMARK Flexibility Score: inf
ROOT
ATOM      1  C   UNL     1      60.754  32.583  59.632  1.00  0.00     0.000 C 
ENDROOT
BRANCH   1   2
ATOM      2  C   UNL     1      61.470  33.510  60.631  1.00  0.00     0.000 C 
BRANCH   2   3
ATOM      3  C   UNL     1      62.692  34.263  60.066  1.00  0.00     0.006 C 
BRANCH   3   4
ATOM      4  C   UNL     1      63.883  34.362  61.031  1.00  0.00     0.053 C 
BRANCH   4   5
ATOM      5  C   UNL     1      64.061  35.750  61.564  1.00  0.00     0.041 C 
ATOM      6  O   UNL     1      65.128  36.073  62.148  1.00  0.00    -0.550 OA
ATOM      7  O   UNL     1      63.033  36.678  61.447  1.00  0.00    -0.550 OA
ENDBRANCH   4   5
ENDBRANCH   3   4
ENDBRANCH   2   3
ENDBRANCH   1   2
BRANCH   1   8
ATOM      8  C   UNL     1      60.364  31.230  60.245  1.00  0.00     0.000 C 
BRANCH   8   9
ATOM      9  C   UNL     1      60.965  31.069  61.647  1.00  0.00     0.000 C 
BRANCH   9  10
ATOM     10  C   UNL     1      62.036  29.972  61.665  1.00  0.00     0.006 C 
BRANCH  10  11
ATOM     11  C   UNL     1      63.443  30.576  61.618  1.00  0.00     0.053 C 
BRANCH  11  12
ATOM     12  C   UNL     1      63.997  30.506  60.231  1.00  0.00     0.041 C 
ATOM     13  O   UNL     1      63.440  29.786  59.361  1.00  0.00    -0.550 OA
ATOM     14  O   UNL     1      65.159  31.197  59.910  1.00  0.00    -0.550 OA
ENDBRANCH  11  12
ENDBRANCH  10  11
ENDBRANCH   9  10
ENDBRANCH   8   9
ENDBRANCH   1   8
TORSDOF 9
ENDMDL
MODEL 3
REMARK VINA RESULT:    -3.455     12.228     14.404
REMARK INTER + INTRA:          -5.856
REMARK INTER:                  -5.150
REMARK INTRA:                  -0.707
REMARK UNBOUND:                -0.584
REMARK SMILES O=C([O-])CCCCCCCCC(=O)[O-]
REMARK SMILES IDX 7 1 6 2 5 3 4 4 2 5 1 6 3 7 8 8 9 9 10 10 11 11 12 12 13 13
REMARK SMILES IDX 14 14
REMARK H PARENT
REMARK Flexibility Score: inf
ROOT
ATOM      1  C   UNL     1      57.833  28.814  51.426  1.00  0.00     0.000 C 
ENDROOT
BRANCH   1   2
ATOM      2  C   UNL     1      58.047  29.529  50.081  1.00  0.00     0.000 C 
BRANCH   2   3
ATOM      3  C   UNL     1      59.066  28.857  49.136  1.00  0.00     0.006 C 
BRANCH   3   4
ATOM      4  C   UNL     1      59.361  27.385  49.462  1.00  0.00     0.053 C 
BRANCH   4   5
ATOM      5  C   UNL     1      60.817  27.149  49.726  1.00  0.00     0.041 C 
ATOM      6  O   UNL     1      61.211  26.031  50.148  1.00  0.00    -0.550 OA
ATOM      7  O   UNL     1      61.733  28.176  49.539  1.00  0.00    -0.550 OA
ENDBRANCH   4   5
ENDBRANCH   3   4
ENDBRANCH   2   3
ENDBRANCH   1   2
BRANCH   1   8
ATOM      8  C   UNL     1      56.357  28.495  51.706  1.00  0.00     0.000 C 
BRANCH   8   9
ATOM      9  C   UNL     1      55.443  29.195  50.692  1.00  0.00     0.000 C 
BRANCH   9  10
ATOM     10  C   UNL     1      54.468  28.200  50.051  1.00  0.00     0.006 C 
BRANCH  10  11
ATOM     11  C   UNL     1      55.027  26.775  50.097  1.00  0.00     0.053 C 
BRANCH  11  12
ATOM     12  C   UNL     1      53.954  25.782  49.782  1.00  0.00     0.041 C 
ATOM     13  O   UNL     1      53.479  25.709  48.619  1.00  0.00    -0.550 OA
ATOM     14  O   UNL     1      53.443  24.969  50.786  1.00  0.00    -0.550 OA
ENDBRANCH  11  12
ENDBRANCH  10  11
ENDBRANCH   9  10
ENDBRANCH   8   9
ENDBRANCH   1   8
TORSDOF 9
ENDMDL
MODEL 4
REMARK VINA RESULT:    -3.439      1.803      2.712
REMARK INTER + INTRA:          -5.832
REMARK INTER:                  -5.071
REMARK INTRA:                  -0.762
REMARK UNBOUND:                -0.584
REMARK SMILES O=C([O-])CCCCCCCCC(=O)[O-]
REMARK SMILES IDX 7 1 6 2 5 3 4 4 2 5 1 6 3 7 8 8 9 9 10 10 11 11 12 12 13 13
REMARK SMILES IDX 14 14
REMARK H PARENT
REMARK Flexibility Score: inf
ROOT
ATOM      1  C   UNL     1      61.399  30.681  61.897  1.00  0.00     0.000 C 
ENDROOT
BRANCH   1   2
ATOM      2  C   UNL     1      62.426  30.033  60.952  1.00  0.00     0.000 C 
BRANCH   2   3
ATOM      3  C   UNL     1      63.895  30.132  61.414  1.00  0.00     0.006 C 
BRANCH   3   4
ATOM      4  C   UNL     1      64.883  30.549  60.314  1.00  0.00     0.053 C 
BRANCH   4   5
ATOM      5  C   UNL     1      66.100  29.677  60.291  1.00  0.00     0.041 C 
ATOM      6  O   UNL     1      67.031  29.909  59.477  1.00  0.00    -0.550 OA
ATOM      7  O   UNL     1      66.189  28.585  61.146  1.00  0.00    -0.550 OA
ENDBRANCH   4   5
ENDBRANCH   3   4
ENDBRANCH   2   3
ENDBRANCH   1   2
BRANCH   1   8
ATOM      8  C   UNL     1      60.519  31.727  61.197  1.00  0.00     0.000 C 
BRANCH   8   9
ATOM      9  C   UNL     1      61.323  32.510  60.152  1.00  0.00     0.000 C 
BRANCH   9  10
ATOM     10  C   UNL     1      61.768  33.869  60.704  1.00  0.00     0.006 C 
BRANCH  10  11
ATOM     11  C   UNL     1      63.296  33.957  60.783  1.00  0.00     0.053 C 
BRANCH  11  12
ATOM     12  C   UNL     1      63.715  35.281  61.339  1.00  0.00     0.041 C 
ATOM     13  O   UNL     1      64.814  35.395  61.943  1.00  0.00    -0.550 OA
ATOM     14  O   UNL     1      62.871  36.378  61.234  1.00  0.00    -0.550 OA
ENDBRANCH  11  12
ENDBRANCH  10  11
ENDBRANCH   9  10
ENDBRANCH   8   9
ENDBRANCH   1   8
TORSDOF 9
ENDMDL
MODEL 5
REMARK VINA RESULT:    -3.400      1.962      5.268
REMARK INTER + INTRA:          -5.772
REMARK INTER:                  -5.133
REMARK INTRA:                  -0.639
REMARK UNBOUND:                -0.584
REMARK SMILES O=C([O-])CCCCCCCCC(=O)[O-]
REMARK SMILES IDX 7 1 6 2 5 3 4 4 2 5 1 6 3 7 8 8 9 9 10 10 11 11 12 12 13 13
REMARK SMILES IDX 14 14
REMARK H PARENT
REMARK Flexibility Score: inf
ROOT
ATOM      1  C   UNL     1      60.825  31.173  61.760  1.00  0.00     0.000 C 
ENDROOT
BRANCH   1   2
ATOM      2  C   UNL     1      60.896  31.981  60.453  1.00  0.00     0.000 C 
BRANCH   2   3
ATOM      3  C   UNL     1      61.267  33.469  60.622  1.00  0.00     0.006 C 
BRANCH   3   4
ATOM      4  C   UNL     1      62.726  33.805  60.279  1.00  0.00     0.053 C 
BRANCH   4   5
ATOM      5  C   UNL     1      63.259  34.922  61.124  1.00  0.00     0.041 C 
ATOM      6  O   UNL     1      64.354  34.791  61.729  1.00  0.00    -0.550 OA
ATOM      7  O   UNL     1      62.526  36.093  61.272  1.00  0.00    -0.550 OA
ENDBRANCH   4   5
ENDBRANCH   3   4
ENDBRANCH   2   3
ENDBRANCH   1   2
BRANCH   1   8
ATOM      8  C   UNL     1      61.802  29.988  61.785  1.00  0.00     0.000 C 
BRANCH   8   9
ATOM      9  C   UNL     1      63.251  30.469  61.634  1.00  0.00     0.000 C 
BRANCH   9  10
ATOM     10  C   UNL     1      63.903  29.869  60.383  1.00  0.00     0.006 C 
BRANCH  10  11
ATOM     11  C   UNL     1      65.268  30.509  60.114  1.00  0.00     0.053 C 
BRANCH  11  12
ATOM     12  C   UNL     1      66.363  29.507  60.304  1.00  0.00     0.041 C 
ATOM     13  O   UNL     1      67.421  29.588  59.628  1.00  0.00    -0.550 OA
ATOM     14  O   UNL     1      66.194  28.454  61.195  1.00  0.00    -0.550 OA
ENDBRANCH  11  12
ENDBRANCH  10  11
ENDBRANCH   9  10
ENDBRANCH   8   9
ENDBRANCH   1   8
TORSDOF 9
ENDMDL
MODEL 6
REMARK VINA RESULT:    -3.384     12.265     14.120
REMARK INTER + INTRA:          -5.748
REMARK INTER:                  -4.972
REMARK INTRA:                  -0.776
REMARK UNBOUND:                -0.584
REMARK SMILES O=C([O-])CCCCCCCCC(=O)[O-]
REMARK SMILES IDX 7 1 6 2 5 3 4 4 2 5 1 6 3 7 8 8 9 9 10 10 11 11 12 12 13 13
REMARK SMILES IDX 14 14
REMARK H PARENT
REMARK Flexibility Score: inf
ROOT
ATOM      1  C   UNL     1      58.139  29.698  50.817  1.00  0.00     0.000 C 
ENDROOT
BRANCH   1   2
ATOM      2  C   UNL     1      57.015  28.818  51.393  1.00  0.00     0.000 C 
BRANCH   2   3
ATOM      3  C   UNL     1      55.848  28.532  50.425  1.00  0.00     0.006 C 
BRANCH   3   4
ATOM      4  C   UNL     1      55.628  27.043  50.115  1.00  0.00     0.053 C 
BRANCH   4   5
ATOM      5  C   UNL     1      54.201  26.746  49.768  1.00  0.00     0.041 C 
ATOM      6  O   UNL     1      53.269  27.385  50.321  1.00  0.00    -0.550 OA
ATOM      7  O   UNL     1      53.901  25.738  48.861  1.00  0.00    -0.550 OA
ENDBRANCH   4   5
ENDBRANCH   3   4
ENDBRANCH   2   3
ENDBRANCH   1   2
BRANCH   1   8
ATOM      8  C   UNL     1      58.579  29.264  49.412  1.00  0.00     0.000 C 
BRANCH   8   9
ATOM      9  C   UNL     1      59.768  28.298  49.482  1.00  0.00     0.000 C 
BRANCH   9  10
ATOM     10  C   UNL     1      59.306  26.843  49.341  1.00  0.00     0.006 C 
BRANCH  10  11
ATOM     11  C   UNL     1      59.726  26.012  50.558  1.00  0.00     0.053 C 
BRANCH  11  12
ATOM     12  C   UNL     1      60.922  25.176  50.233  1.00  0.00     0.041 C 
ATOM     13  O   UNL     1      60.794  23.941  50.021  1.00  0.00    -0.550 OA
ATOM     14  O   UNL     1      62.187  25.750  50.212  1.00  0.00    -0.550 OA
ENDBRANCH  11  12
ENDBRANCH  10  11
ENDBRANCH   9  10
ENDBRANCH   8   9
ENDBRANCH   1   8
TORSDOF 9
ENDMDL
MODEL 7
REMARK VINA RESULT:    -3.378      1.520      2.007
REMARK INTER + INTRA:          -5.739
REMARK INTER:                  -5.248
REMARK INTRA:                  -0.491
REMARK UNBOUND:                -0.584
REMARK SMILES O=C([O-])CCCCCCCCC(=O)[O-]
REMARK SMILES IDX 7 1 6 2 5 3 4 4 2 5 1 6 3 7 8 8 9 9 10 10 11 11 12 12 13 13
REMARK SMILES IDX 14 14
REMARK H PARENT
REMARK Flexibility Score: inf
ROOT
ATOM      1  C   UNL     1      60.872  32.158  60.641  1.00  0.00     0.000 C 
ENDROOT
BRANCH   1   2
ATOM      2  C   UNL     1      61.008  31.096  61.747  1.00  0.00     0.000 C 
BRANCH   2   3
ATOM      3  C   UNL     1      62.339  30.315  61.745  1.00  0.00     0.006 C 
BRANCH   3   4
ATOM      4  C   UNL     1      62.426  29.208  60.683  1.00  0.00     0.053 C 
BRANCH   4   5
ATOM      5  C   UNL     1      61.488  28.077  60.970  1.00  0.00     0.041 C 
ATOM      6  O   UNL     1      60.495  27.873  60.225  1.00  0.00    -0.550 OA
ATOM      7  O   UNL     1      61.690  27.271  62.084  1.00  0.00    -0.550 OA
ENDBRANCH   4   5
ENDBRANCH   3   4
ENDBRANCH   2   3
ENDBRANCH   1   2
BRANCH   1   8
ATOM      8  C   UNL     1      62.032  33.164  60.633  1.00  0.00     0.000 C 
BRANCH   8   9
ATOM      9  C   UNL     1      61.518  34.591  60.403  1.00  0.00     0.000 C 
BRANCH   9  10
ATOM     10  C   UNL     1      62.453  35.623  61.044  1.00  0.00     0.006 C 
BRANCH  10  11
ATOM     11  C   UNL     1      63.811  35.000  61.384  1.00  0.00     0.053 C 
BRANCH  11  12
ATOM     12  C   UNL     1      64.919  35.786  60.760  1.00  0.00     0.041 C 
ATOM     13  O   UNL     1      65.849  36.247  61.473  1.00  0.00    -0.550 OA
ATOM     14  O   UNL     1      64.900  36.053  59.397  1.00  0.00    -0.550 OA
ENDBRANCH  11  12
ENDBRANCH  10  11
ENDBRANCH   9  10
ENDBRANCH   8   9
ENDBRANCH   1   8
TORSDOF 9
ENDMDL
MODEL 8
REMARK VINA RESULT:    -3.262     12.384     13.855
REMARK INTER + INTRA:          -5.562
REMARK INTER:                  -4.964
REMARK INTRA:                  -0.598
REMARK UNBOUND:                -0.584
REMARK SMILES O=C([O-])CCCCCCCCC(=O)[O-]
REMARK SMILES IDX 7 1 6 2 5 3 4 4 2 5 1 6 3 7 8 8 9 9 10 10 11 11 12 12 13 13
REMARK SMILES IDX 14 14
REMARK H PARENT
REMARK Flexibility Score: inf
ROOT
ATOM      1  C   UNL     1      56.416  28.579  51.670  1.00  0.00     0.000 C 
ENDROOT
BRANCH   1   2
ATOM      2  C   UNL     1      54.927  28.960  51.589  1.00  0.00     0.000 C 
BRANCH   2   3
ATOM      3  C   UNL     1      54.292  28.828  50.189  1.00  0.00     0.006 C 
BRANCH   3   4
ATOM      4  C   UNL     1      53.277  27.683  50.055  1.00  0.00     0.053 C 
BRANCH   4   5
ATOM      5  C   UNL     1      53.944  26.343  50.012  1.00  0.00     0.041 C 
ATOM      6  O   UNL     1      54.448  25.920  48.939  1.00  0.00    -0.550 OA
ATOM      7  O   UNL     1      53.978  25.545  51.149  1.00  0.00    -0.550 OA
ENDBRANCH   4   5
ENDBRANCH   3   4
ENDBRANCH   2   3
ENDBRANCH   1   2
BRANCH   1   8
ATOM      8  C   UNL     1      57.056  28.373  50.289  1.00  0.00     0.000 C 
BRANCH   8   9
ATOM      9  C   UNL     1      58.044  29.502  49.968  1.00  0.00     0.000 C 
BRANCH   9  10
ATOM     10  C   UNL     1      59.219  28.984  49.130  1.00  0.00     0.006 C 
BRANCH  10  11
ATOM     11  C   UNL     1      59.509  27.512  49.439  1.00  0.00     0.053 C 
BRANCH  11  12
ATOM     12  C   UNL     1      60.969  27.307  49.688  1.00  0.00     0.041 C 
ATOM     13  O   UNL     1      61.361  26.358  50.415  1.00  0.00    -0.550 OA
ATOM     14  O   UNL     1      61.896  28.194  49.155  1.00  0.00    -0.550 OA
ENDBRANCH  11  12
ENDBRANCH  10  11
ENDBRANCH   9  10
ENDBRANCH   8   9
ENDBRANCH   1   8
TORSDOF 9
ENDMDL
MODEL 9
REMARK VINA RESULT:    -3.225      1.775      5.920
REMARK INTER + INTRA:          -5.506
REMARK INTER:                  -4.756
REMARK INTRA:                  -0.749
REMARK UNBOUND:                -0.584
REMARK SMILES O=C([O-])CCCCCCCCC(=O)[O-]
REMARK SMILES IDX 7 1 6 2 5 3 4 4 2 5 1 6 3 7 8 8 9 9 10 10 11 11 12 12 13 13
REMARK SMILES IDX 14 14
REMARK H PARENT
REMARK Flexibility Score: inf
ROOT
ATOM      1  C   UNL     1      63.063  33.252  59.903  1.00  0.00     0.000 C 
ENDROOT
BRANCH   1   2
ATOM      2  C   UNL     1      62.019  34.135  60.609  1.00  0.00     0.000 C 
BRANCH   2   3
ATOM      3  C   UNL     1      62.193  35.654  60.395  1.00  0.00     0.006 C 
BRANCH   3   4
ATOM      4  C   UNL     1      63.132  36.335  61.402  1.00  0.00     0.053 C 
BRANCH   4   5
ATOM      5  C   UNL     1      64.537  36.424  60.889  1.00  0.00     0.041 C 
ATOM      6  O   UNL     1      65.495  36.005  61.589  1.00  0.00    -0.550 OA
ATOM      7  O   UNL     1      64.791  37.002  59.651  1.00  0.00    -0.550 OA
ENDBRANCH   4   5
ENDBRANCH   3   4
ENDBRANCH   2   3
ENDBRANCH   1   2
BRANCH   1   8
ATOM      8  C   UNL     1      64.105  32.669  60.869  1.00  0.00     0.000 C 
BRANCH   8   9
ATOM      9  C   UNL     1      64.221  31.149  60.698  1.00  0.00     0.000 C 
BRANCH   9  10
ATOM     10  C   UNL     1      63.360  30.412  61.731  1.00  0.00     0.006 C 
BRANCH  10  11
ATOM     11  C   UNL     1      62.214  29.656  61.052  1.00  0.00     0.053 C 
BRANCH  11  12
ATOM     12  C   UNL     1      60.944  30.441  61.139  1.00  0.00     0.041 C 
ATOM     13  O   UNL     1      60.738  31.206  62.117  1.00  0.00    -0.550 OA
ATOM     14  O   UNL     1      59.967  30.293  60.163  1.00  0.00    -0.550 OA
ENDBRANCH  11  12
ENDBRANCH  10  11
ENDBRANCH   9  10
ENDBRANCH   8   9
ENDBRANCH   1   8
TORSDOF 9
ENDMDL
