MODEL 1
REMARK VINA RESULT:    -7.183      0.000      0.000
REMARK INTER + INTRA:          -9.678
REMARK INTER:                  -9.073
REMARK INTRA:                  -0.605
REMARK UNBOUND:                -0.605
REMARK SMILES O=C(C=Cc1ccc(O)cc1)c1ccc(O)cc1O
REMARK SMILES IDX 4 1 3 2 5 3 6 4 7 5 8 6 11 7 10 8 9 9 2 11 1 12 12 13 18 14
REMARK SMILES IDX 13 15 17 16 14 17 15 18 19 19 16 21
REMARK H PARENT 9 10 19 20 16 22
REMARK Flexibility Score: inf
ROOT
ATOM      1  C   UNL     1      31.867  20.323  12.861  1.00  0.00     0.012 C 
ATOM      2  C   UNL     1      32.161  19.652  11.736  1.00  0.00     0.053 C 
ENDROOT
BRANCH   1   3
ATOM      3  C   UNL     1      32.887  20.925  13.754  1.00  0.00    -0.025 A 
ATOM      4  C   UNL     1      34.164  20.355  13.944  1.00  0.00     0.012 A 
ATOM      5  C   UNL     1      35.094  20.969  14.789  1.00  0.00     0.047 A 
ATOM      6  C   UNL     1      34.768  22.161  15.449  1.00  0.00     0.115 A 
ATOM      7  C   UNL     1      32.579  22.129  14.409  1.00  0.00     0.012 A 
ATOM      8  C   UNL     1      33.511  22.738  15.254  1.00  0.00     0.047 A 
BRANCH   6   9
ATOM      9  O   UNL     1      35.687  22.779  16.294  1.00  0.00    -0.508 OA
ATOM     10  H   UNL     1      36.389  23.416  15.937  1.00  0.00     0.293 HD
ENDBRANCH   6   9
ENDBRANCH   1   3
BRANCH   2  11
ATOM     11  C   UNL     1      31.128  19.058  10.861  1.00  0.00     0.189 C 
ATOM     12  O   UNL     1      31.435  18.048  10.174  1.00  0.00    -0.289 OA
BRANCH  11  13
ATOM     13  C   UNL     1      29.742  19.573  10.795  1.00  0.00     0.064 A 
ATOM     14  C   UNL     1      28.717  19.052  11.620  1.00  0.00     0.130 A 
ATOM     15  C   UNL     1      29.449  20.638   9.926  1.00  0.00     0.020 A 
ATOM     16  C   UNL     1      27.434  19.610  11.566  1.00  0.00     0.093 A 
ATOM     17  C   UNL     1      28.162  21.178   9.875  1.00  0.00     0.047 A 
ATOM     18  C   UNL     1      27.153  20.668  10.695  1.00  0.00     0.119 A 
BRANCH  14  19
ATOM     19  O   UNL     1      28.935  17.974  12.481  1.00  0.00    -0.507 OA
ATOM     20  H   UNL     1      29.358  17.106  12.183  1.00  0.00     0.293 HD
ENDBRANCH  14  19
BRANCH  18  21
ATOM     21  O   UNL     1      25.875  21.221  10.636  1.00  0.00    -0.508 OA
ATOM     22  H   UNL     1      25.114  20.855  11.196  1.00  0.00     0.293 HD
ENDBRANCH  18  21
ENDBRANCH  11  13
ENDBRANCH   2  11
TORSDOF 6
ENDMDL
MODEL 2
REMARK VINA RESULT:    -6.221     17.006     18.563
REMARK INTER + INTRA:          -8.462
REMARK INTER:                  -7.819
REMARK INTRA:                  -0.643
REMARK UNBOUND:                -0.605
REMARK SMILES O=C(C=Cc1ccc(O)cc1)c1ccc(O)cc1O
REMARK SMILES IDX 4 1 3 2 5 3 6 4 7 5 8 6 11 7 10 8 9 9 2 11 1 12 12 13 18 14
REMARK SMILES IDX 13 15 17 16 14 17 15 18 19 19 16 21
REMARK H PARENT 9 10 19 20 16 22
REMARK Flexibility Score: inf
ROOT
ATOM      1  C   UNL     1      39.606  11.638  26.466  1.00  0.00     0.012 C 
ATOM      2  C   UNL     1      38.370  11.195  26.188  1.00  0.00     0.053 C 
ENDROOT
BRANCH   1   3
ATOM      3  C   UNL     1      40.212  12.840  25.842  1.00  0.00    -0.025 A 
ATOM      4  C   UNL     1      40.662  12.859  24.506  1.00  0.00     0.012 A 
ATOM      5  C   UNL     1      41.216  14.022  23.962  1.00  0.00     0.047 A 
ATOM      6  C   UNL     1      41.320  15.183  24.739  1.00  0.00     0.115 A 
ATOM      7  C   UNL     1      40.308  14.016  26.605  1.00  0.00     0.012 A 
ATOM      8  C   UNL     1      40.863  15.177  26.058  1.00  0.00     0.047 A 
BRANCH   6   9
ATOM      9  O   UNL     1      41.872  16.347  24.207  1.00  0.00    -0.508 OA
ATOM     10  H   UNL     1      41.831  16.547  23.214  1.00  0.00     0.293 HD
ENDBRANCH   6   9
ENDBRANCH   1   3
BRANCH   2  11
ATOM     11  C   UNL     1      37.787   9.993  26.820  1.00  0.00     0.189 C 
ATOM     12  O   UNL     1      38.420   8.907  26.740  1.00  0.00    -0.289 OA
BRANCH  11  13
ATOM     13  C   UNL     1      36.516  10.024  27.578  1.00  0.00     0.064 A 
ATOM     14  C   UNL     1      35.549   9.000  27.448  1.00  0.00     0.130 A 
ATOM     15  C   UNL     1      36.287  11.073  28.486  1.00  0.00     0.020 A 
ATOM     16  C   UNL     1      34.388   9.040  28.230  1.00  0.00     0.093 A 
ATOM     17  C   UNL     1      35.120  11.106  29.251  1.00  0.00     0.047 A 
ATOM     18  C   UNL     1      34.169  10.090  29.128  1.00  0.00     0.119 A 
BRANCH  14  19
ATOM     19  O   UNL     1      35.701   7.948  26.542  1.00  0.00    -0.507 OA
ATOM     20  H   UNL     1      35.140   7.107  26.574  1.00  0.00     0.293 HD
ENDBRANCH  14  19
BRANCH  18  21
ATOM     21  O   UNL     1      33.012  10.135  29.903  1.00  0.00    -0.508 OA
ATOM     22  H   UNL     1      32.194   9.585  29.665  1.00  0.00     0.293 HD
ENDBRANCH  18  21
ENDBRANCH  11  13
ENDBRANCH   2  11
TORSDOF 6
ENDMDL
MODEL 3
REMARK VINA RESULT:    -5.882     15.696     18.218
REMARK INTER + INTRA:          -8.034
REMARK INTER:                  -7.435
REMARK INTRA:                  -0.599
REMARK UNBOUND:                -0.605
REMARK SMILES O=C(C=Cc1ccc(O)cc1)c1ccc(O)cc1O
REMARK SMILES IDX 4 1 3 2 5 3 6 4 7 5 8 6 11 7 10 8 9 9 2 11 1 12 12 13 18 14
REMARK SMILES IDX 13 15 17 16 14 17 15 18 19 19 16 21
REMARK H PARENT 9 10 19 20 16 22
REMARK Flexibility Score: inf
ROOT
ATOM      1  C   UNL     1      40.506  13.405  25.471  1.00  0.00     0.012 C 
ATOM      2  C   UNL     1      41.136  13.646  24.310  1.00  0.00     0.053 C 
ENDROOT
BRANCH   1   3
ATOM      3  C   UNL     1      39.944  12.084  25.846  1.00  0.00    -0.025 A 
ATOM      4  C   UNL     1      40.754  10.963  26.122  1.00  0.00     0.012 A 
ATOM      5  C   UNL     1      40.174   9.743  26.483  1.00  0.00     0.047 A 
ATOM      6  C   UNL     1      38.782   9.626  26.583  1.00  0.00     0.115 A 
ATOM      7  C   UNL     1      38.550  11.957  25.966  1.00  0.00     0.012 A 
ATOM      8  C   UNL     1      37.974  10.735  26.326  1.00  0.00     0.047 A 
BRANCH   6   9
ATOM      9  O   UNL     1      38.195   8.414  26.940  1.00  0.00    -0.508 OA
ATOM     10  H   UNL     1      38.718   7.694  27.425  1.00  0.00     0.293 HD
ENDBRANCH   6   9
ENDBRANCH   1   3
BRANCH   2  11
ATOM     11  C   UNL     1      41.686  14.970  23.954  1.00  0.00     0.189 C 
ATOM     12  O   UNL     1      41.258  15.982  24.571  1.00  0.00    -0.289 OA
BRANCH  11  13
ATOM     13  C   UNL     1      42.748  15.149  22.939  1.00  0.00     0.064 A 
ATOM     14  C   UNL     1      42.601  16.054  21.862  1.00  0.00     0.130 A 
ATOM     15  C   UNL     1      43.953  14.436  23.077  1.00  0.00     0.020 A 
ATOM     16  C   UNL     1      43.656  16.234  20.959  1.00  0.00     0.093 A 
ATOM     17  C   UNL     1      44.993  14.618  22.163  1.00  0.00     0.047 A 
ATOM     18  C   UNL     1      44.849  15.518  21.105  1.00  0.00     0.119 A 
BRANCH  14  19
ATOM     19  O   UNL     1      41.420  16.768  21.651  1.00  0.00    -0.507 OA
ATOM     20  H   UNL     1      40.747  16.950  22.383  1.00  0.00     0.293 HD
ENDBRANCH  14  19
BRANCH  18  21
ATOM     21  O   UNL     1      45.898  15.691  20.204  1.00  0.00    -0.508 OA
ATOM     22  H   UNL     1      46.218  16.615  19.935  1.00  0.00     0.293 HD
ENDBRANCH  18  21
ENDBRANCH  11  13
ENDBRANCH   2  11
TORSDOF 6
ENDMDL
MODEL 4
REMARK VINA RESULT:    -5.733     16.317     18.405
REMARK INTER + INTRA:          -7.845
REMARK INTER:                  -7.264
REMARK INTRA:                  -0.582
REMARK UNBOUND:                -0.605
REMARK SMILES O=C(C=Cc1ccc(O)cc1)c1ccc(O)cc1O
REMARK SMILES IDX 4 1 3 2 5 3 6 4 7 5 8 6 11 7 10 8 9 9 2 11 1 12 12 13 18 14
REMARK SMILES IDX 13 15 17 16 14 17 15 18 19 19 16 21
REMARK H PARENT 9 10 19 20 16 22
REMARK Flexibility Score: inf
ROOT
ATOM      1  C   UNL     1      40.400  11.954  25.763  1.00  0.00     0.012 C 
ATOM      2  C   UNL     1      39.135  11.718  26.142  1.00  0.00     0.053 C 
ENDROOT
BRANCH   1   3
ATOM      3  C   UNL     1      40.818  13.134  24.966  1.00  0.00    -0.025 A 
ATOM      4  C   UNL     1      40.940  14.423  25.524  1.00  0.00     0.012 A 
ATOM      5  C   UNL     1      41.349  15.501  24.732  1.00  0.00     0.047 A 
ATOM      6  C   UNL     1      41.648  15.306  23.377  1.00  0.00     0.115 A 
ATOM      7  C   UNL     1      41.136  12.949  23.610  1.00  0.00     0.012 A 
ATOM      8  C   UNL     1      41.543  14.029  22.821  1.00  0.00     0.047 A 
BRANCH   6   9
ATOM      9  O   UNL     1      42.054  16.374  22.579  1.00  0.00    -0.508 OA
ATOM     10  H   UNL     1      41.682  16.509  21.646  1.00  0.00     0.293 HD
ENDBRANCH   6   9
ENDBRANCH   1   3
BRANCH   2  11
ATOM     11  C   UNL     1      38.739  10.534  26.934  1.00  0.00     0.189 C 
ATOM     12  O   UNL     1      39.613   9.660  27.181  1.00  0.00    -0.289 OA
BRANCH  11  13
ATOM     13  C   UNL     1      37.377  10.358  27.484  1.00  0.00     0.064 A 
ATOM     14  C   UNL     1      36.619   9.190  27.230  1.00  0.00     0.130 A 
ATOM     15  C   UNL     1      36.842  11.355  28.318  1.00  0.00     0.020 A 
ATOM     16  C   UNL     1      35.358   9.041  27.820  1.00  0.00     0.093 A 
ATOM     17  C   UNL     1      35.579  11.197  28.891  1.00  0.00     0.047 A 
ATOM     18  C   UNL     1      34.835  10.041  28.647  1.00  0.00     0.119 A 
BRANCH  14  19
ATOM     19  O   UNL     1      37.080   8.178  26.385  1.00  0.00    -0.507 OA
ATOM     20  H   UNL     1      37.868   7.587  26.611  1.00  0.00     0.293 HD
ENDBRANCH  14  19
BRANCH  18  21
ATOM     21  O   UNL     1      33.578   9.896  29.230  1.00  0.00    -0.508 OA
ATOM     22  H   UNL     1      33.385   9.158  29.897  1.00  0.00     0.293 HD
ENDBRANCH  18  21
ENDBRANCH  11  13
ENDBRANCH   2  11
TORSDOF 6
ENDMDL
MODEL 5
REMARK VINA RESULT:    -5.416     18.259     20.066
REMARK INTER + INTRA:          -7.446
REMARK INTER:                  -6.772
REMARK INTRA:                  -0.674
REMARK UNBOUND:                -0.605
REMARK SMILES O=C(C=Cc1ccc(O)cc1)c1ccc(O)cc1O
REMARK SMILES IDX 4 1 3 2 5 3 6 4 7 5 8 6 11 7 10 8 9 9 2 11 1 12 12 13 18 14
REMARK SMILES IDX 13 15 17 16 14 17 15 18 19 19 16 21
REMARK H PARENT 9 10 19 20 16 22
REMARK Flexibility Score: inf
ROOT
ATOM      1  C   UNL     1      41.167  11.134  25.584  1.00  0.00     0.012 C 
ATOM      2  C   UNL     1      42.215  10.338  25.848  1.00  0.00     0.053 C 
ENDROOT
BRANCH   1   3
ATOM      3  C   UNL     1      39.795  10.889  26.094  1.00  0.00    -0.025 A 
ATOM      4  C   UNL     1      38.791  11.879  26.079  1.00  0.00     0.012 A 
ATOM      5  C   UNL     1      37.509  11.594  26.561  1.00  0.00     0.047 A 
ATOM      6  C   UNL     1      37.210  10.319  27.057  1.00  0.00     0.115 A 
ATOM      7  C   UNL     1      39.478   9.610  26.579  1.00  0.00     0.012 A 
ATOM      8  C   UNL     1      38.196   9.329  27.062  1.00  0.00     0.047 A 
BRANCH   6   9
ATOM      9  O   UNL     1      35.938  10.025  27.542  1.00  0.00    -0.508 OA
ATOM     10  H   UNL     1      35.463  10.642  28.192  1.00  0.00     0.293 HD
ENDBRANCH   6   9
ENDBRANCH   1   3
BRANCH   2  11
ATOM     11  C   UNL     1      43.574  10.599  25.327  1.00  0.00     0.189 C 
ATOM     12  O   UNL     1      44.454  11.008  26.130  1.00  0.00    -0.289 OA
BRANCH  11  13
ATOM     13  C   UNL     1      43.950  10.355  23.917  1.00  0.00     0.064 A 
ATOM     14  C   UNL     1      44.363  11.407  23.066  1.00  0.00     0.130 A 
ATOM     15  C   UNL     1      43.944   9.038  23.426  1.00  0.00     0.020 A 
ATOM     16  C   UNL     1      44.767  11.122  21.757  1.00  0.00     0.093 A 
ATOM     17  C   UNL     1      44.340   8.768  22.114  1.00  0.00     0.047 A 
ATOM     18  C   UNL     1      44.755   9.807  21.277  1.00  0.00     0.119 A 
BRANCH  14  19
ATOM     19  O   UNL     1      44.362  12.740  23.483  1.00  0.00    -0.507 OA
ATOM     20  H   UNL     1      43.651  13.129  24.088  1.00  0.00     0.293 HD
ENDBRANCH  14  19
BRANCH  18  21
ATOM     21  O   UNL     1      45.151   9.521  19.972  1.00  0.00    -0.508 OA
ATOM     22  H   UNL     1      45.364  10.259  19.310  1.00  0.00     0.293 HD
ENDBRANCH  18  21
ENDBRANCH  11  13
ENDBRANCH   2  11
TORSDOF 6
ENDMDL
MODEL 6
REMARK VINA RESULT:    -5.360     16.782     18.063
REMARK INTER + INTRA:          -7.375
REMARK INTER:                  -6.674
REMARK INTRA:                  -0.700
REMARK UNBOUND:                -0.605
REMARK SMILES O=C(C=Cc1ccc(O)cc1)c1ccc(O)cc1O
REMARK SMILES IDX 4 1 3 2 5 3 6 4 7 5 8 6 11 7 10 8 9 9 2 11 1 12 12 13 18 14
REMARK SMILES IDX 13 15 17 16 14 17 15 18 19 19 16 21
REMARK H PARENT 9 10 19 20 16 22
REMARK Flexibility Score: inf
ROOT
ATOM      1  C   UNL     1      40.488  14.533  26.274  1.00  0.00     0.012 C 
ATOM      2  C   UNL     1      40.094  14.043  27.460  1.00  0.00     0.053 C 
ENDROOT
BRANCH   1   3
ATOM      3  C   UNL     1      41.241  13.748  25.265  1.00  0.00    -0.025 A 
ATOM      4  C   UNL     1      41.701  12.437  25.510  1.00  0.00     0.012 A 
ATOM      5  C   UNL     1      42.396  11.735  24.520  1.00  0.00     0.047 A 
ATOM      6  C   UNL     1      42.634  12.326  23.272  1.00  0.00     0.115 A 
ATOM      7  C   UNL     1      41.472  14.322  24.004  1.00  0.00     0.012 A 
ATOM      8  C   UNL     1      42.169  13.618  23.017  1.00  0.00     0.047 A 
BRANCH   6   9
ATOM      9  O   UNL     1      43.328  11.636  22.280  1.00  0.00    -0.508 OA
ATOM     10  H   UNL     1      43.531  10.647  22.366  1.00  0.00     0.293 HD
ENDBRANCH   6   9
ENDBRANCH   1   3
BRANCH   2  11
ATOM     11  C   UNL     1      39.347  14.844  28.452  1.00  0.00     0.189 C 
ATOM     12  O   UNL     1      39.979  15.329  29.429  1.00  0.00    -0.289 OA
BRANCH  11  13
ATOM     13  C   UNL     1      37.903  15.136  28.321  1.00  0.00     0.064 A 
ATOM     14  C   UNL     1      37.402  16.457  28.405  1.00  0.00     0.130 A 
ATOM     15  C   UNL     1      37.012  14.080  28.059  1.00  0.00     0.020 A 
ATOM     16  C   UNL     1      36.035  16.693  28.215  1.00  0.00     0.093 A 
ATOM     17  C   UNL     1      35.650  14.328  27.882  1.00  0.00     0.047 A 
ATOM     18  C   UNL     1      35.157  15.633  27.957  1.00  0.00     0.119 A 
BRANCH  14  19
ATOM     19  O   UNL     1      38.228  17.545  28.693  1.00  0.00    -0.507 OA
ATOM     20  H   UNL     1      38.543  17.766  29.628  1.00  0.00     0.293 HD
ENDBRANCH  14  19
BRANCH  18  21
ATOM     21  O   UNL     1      33.796  15.866  27.774  1.00  0.00    -0.508 OA
ATOM     22  H   UNL     1      33.196  16.131  28.546  1.00  0.00     0.293 HD
ENDBRANCH  18  21
ENDBRANCH  11  13
ENDBRANCH   2  11
TORSDOF 6
ENDMDL
MODEL 7
REMARK VINA RESULT:    -5.355     16.882     19.118
REMARK INTER + INTRA:          -7.368
REMARK INTER:                  -6.777
REMARK INTRA:                  -0.591
REMARK UNBOUND:                -0.605
REMARK SMILES O=C(C=Cc1ccc(O)cc1)c1ccc(O)cc1O
REMARK SMILES IDX 4 1 3 2 5 3 6 4 7 5 8 6 11 7 10 8 9 9 2 11 1 12 12 13 18 14
REMARK SMILES IDX 13 15 17 16 14 17 15 18 19 19 16 21
REMARK H PARENT 9 10 19 20 16 22
REMARK Flexibility Score: inf
ROOT
ATOM      1  C   UNL     1      39.153   9.962  26.451  1.00  0.00     0.012 C 
ATOM      2  C   UNL     1      39.638  11.152  26.066  1.00  0.00     0.053 C 
ENDROOT
BRANCH   1   3
ATOM      3  C   UNL     1      37.757   9.746  26.905  1.00  0.00    -0.025 A 
ATOM      4  C   UNL     1      36.919   8.759  26.345  1.00  0.00     0.012 A 
ATOM      5  C   UNL     1      35.613   8.589  26.817  1.00  0.00     0.047 A 
ATOM      6  C   UNL     1      35.130   9.393  27.858  1.00  0.00     0.115 A 
ATOM      7  C   UNL     1      37.265  10.534  27.959  1.00  0.00     0.012 A 
ATOM      8  C   UNL     1      35.959  10.362  28.427  1.00  0.00     0.047 A 
BRANCH   6   9
ATOM      9  O   UNL     1      33.830   9.233  28.334  1.00  0.00    -0.508 OA
ATOM     10  H   UNL     1      33.527   9.662  29.201  1.00  0.00     0.293 HD
ENDBRANCH   6   9
ENDBRANCH   1   3
BRANCH   2  11
ATOM     11  C   UNL     1      41.033  11.346  25.619  1.00  0.00     0.189 C 
ATOM     12  O   UNL     1      41.869  10.432  25.851  1.00  0.00    -0.289 OA
BRANCH  11  13
ATOM     13  C   UNL     1      41.476  12.545  24.872  1.00  0.00     0.064 A 
ATOM     14  C   UNL     1      42.396  12.455  23.802  1.00  0.00     0.130 A 
ATOM     15  C   UNL     1      40.930  13.797  25.205  1.00  0.00     0.020 A 
ATOM     16  C   UNL     1      42.740  13.607  23.085  1.00  0.00     0.093 A 
ATOM     17  C   UNL     1      41.290  14.940  24.489  1.00  0.00     0.047 A 
ATOM     18  C   UNL     1      42.193  14.849  23.427  1.00  0.00     0.119 A 
BRANCH  14  19
ATOM     19  O   UNL     1      42.997  11.247  23.441  1.00  0.00    -0.507 OA
ATOM     20  H   UNL     1      43.983  11.161  23.234  1.00  0.00     0.293 HD
ENDBRANCH  14  19
BRANCH  18  21
ATOM     21  O   UNL     1      42.539  15.998  22.719  1.00  0.00    -0.508 OA
ATOM     22  H   UNL     1      43.302  15.999  22.051  1.00  0.00     0.293 HD
ENDBRANCH  18  21
ENDBRANCH  11  13
ENDBRANCH   2  11
TORSDOF 6
ENDMDL
MODEL 8
REMARK VINA RESULT:    -5.347     17.267     18.888
REMARK INTER + INTRA:          -7.358
REMARK INTER:                  -6.754
REMARK INTRA:                  -0.604
REMARK UNBOUND:                -0.605
REMARK SMILES O=C(C=Cc1ccc(O)cc1)c1ccc(O)cc1O
REMARK SMILES IDX 4 1 3 2 5 3 6 4 7 5 8 6 11 7 10 8 9 9 2 11 1 12 12 13 18 14
REMARK SMILES IDX 13 15 17 16 14 17 15 18 19 19 16 21
REMARK H PARENT 9 10 19 20 16 22
REMARK Flexibility Score: inf
ROOT
ATOM      1  C   UNL     1      39.823  12.240  25.997  1.00  0.00     0.012 C 
ATOM      2  C   UNL     1      40.163  12.724  24.793  1.00  0.00     0.053 C 
ENDROOT
BRANCH   1   3
ATOM      3  C   UNL     1      38.797  11.189  26.205  1.00  0.00    -0.025 A 
ATOM      4  C   UNL     1      37.418  11.425  26.022  1.00  0.00     0.012 A 
ATOM      5  C   UNL     1      36.492  10.395  26.220  1.00  0.00     0.047 A 
ATOM      6  C   UNL     1      36.928   9.118  26.596  1.00  0.00     0.115 A 
ATOM      7  C   UNL     1      39.221   9.899  26.566  1.00  0.00     0.012 A 
ATOM      8  C   UNL     1      38.292   8.873  26.765  1.00  0.00     0.047 A 
BRANCH   6   9
ATOM      9  O   UNL     1      36.013   8.087  26.797  1.00  0.00    -0.508 OA
ATOM     10  H   UNL     1      35.933   7.315  26.146  1.00  0.00     0.293 HD
ENDBRANCH   6   9
ENDBRANCH   1   3
BRANCH   2  11
ATOM     11  C   UNL     1      41.187  13.774  24.608  1.00  0.00     0.189 C 
ATOM     12  O   UNL     1      41.062  14.852  25.249  1.00  0.00    -0.289 OA
BRANCH  11  13
ATOM     13  C   UNL     1      42.371  13.593  23.739  1.00  0.00     0.064 A 
ATOM     14  C   UNL     1      43.075  14.697  23.204  1.00  0.00     0.130 A 
ATOM     15  C   UNL     1      42.835  12.291  23.479  1.00  0.00     0.020 A 
ATOM     16  C   UNL     1      44.226  14.479  22.436  1.00  0.00     0.093 A 
ATOM     17  C   UNL     1      43.978  12.088  22.703  1.00  0.00     0.047 A 
ATOM     18  C   UNL     1      44.678  13.179  22.182  1.00  0.00     0.119 A 
BRANCH  14  19
ATOM     19  O   UNL     1      42.649  16.012  23.399  1.00  0.00    -0.507 OA
ATOM     20  H   UNL     1      42.407  16.385  24.307  1.00  0.00     0.293 HD
ENDBRANCH  14  19
BRANCH  18  21
ATOM     21  O   UNL     1      45.819  12.960  21.413  1.00  0.00    -0.508 OA
ATOM     22  H   UNL     1      46.251  12.044  21.356  1.00  0.00     0.293 HD
ENDBRANCH  18  21
ENDBRANCH  11  13
ENDBRANCH   2  11
TORSDOF 6
ENDMDL
MODEL 9
REMARK VINA RESULT:    -5.243     19.163     20.607
REMARK INTER + INTRA:          -7.227
REMARK INTER:                  -6.587
REMARK INTRA:                  -0.640
REMARK UNBOUND:                -0.605
REMARK SMILES O=C(C=Cc1ccc(O)cc1)c1ccc(O)cc1O
REMARK SMILES IDX 4 1 3 2 5 3 6 4 7 5 8 6 11 7 10 8 9 9 2 11 1 12 12 13 18 14
REMARK SMILES IDX 13 15 17 16 14 17 15 18 19 19 16 21
REMARK H PARENT 9 10 19 20 16 22
REMARK Flexibility Score: inf
ROOT
ATOM      1  C   UNL     1      43.322   9.672  25.180  1.00  0.00     0.012 C 
ATOM      2  C   UNL     1      42.410  10.564  25.594  1.00  0.00     0.053 C 
ENDROOT
BRANCH   1   3
ATOM      3  C   UNL     1      43.856   9.617  23.796  1.00  0.00    -0.025 A 
ATOM      4  C   UNL     1      44.431   8.451  23.249  1.00  0.00     0.012 A 
ATOM      5  C   UNL     1      44.909   8.449  21.934  1.00  0.00     0.047 A 
ATOM      6  C   UNL     1      44.812   9.604  21.147  1.00  0.00     0.115 A 
ATOM      7  C   UNL     1      43.750  10.763  22.991  1.00  0.00     0.012 A 
ATOM      8  C   UNL     1      44.230  10.757  21.678  1.00  0.00     0.047 A 
BRANCH   6   9
ATOM      9  O   UNL     1      45.287   9.612  19.837  1.00  0.00    -0.508 OA
ATOM     10  H   UNL     1      44.689   9.371  19.055  1.00  0.00     0.293 HD
ENDBRANCH   6   9
ENDBRANCH   1   3
BRANCH   2  11
ATOM     11  C   UNL     1      41.890  10.600  26.977  1.00  0.00     0.189 C 
ATOM     12  O   UNL     1      42.612  11.108  27.876  1.00  0.00    -0.289 OA
BRANCH  11  13
ATOM     13  C   UNL     1      40.542  10.106  27.338  1.00  0.00     0.064 A 
ATOM     14  C   UNL     1      40.276   9.533  28.604  1.00  0.00     0.130 A 
ATOM     15  C   UNL     1      39.491  10.254  26.417  1.00  0.00     0.020 A 
ATOM     16  C   UNL     1      38.973   9.135  28.924  1.00  0.00     0.093 A 
ATOM     17  C   UNL     1      38.197   9.842  26.746  1.00  0.00     0.047 A 
ATOM     18  C   UNL     1      37.934   9.284  27.999  1.00  0.00     0.119 A 
BRANCH  14  19
ATOM     19  O   UNL     1      41.282   9.330  29.551  1.00  0.00    -0.507 OA
ATOM     20  H   UNL     1      41.282   9.772  30.460  1.00  0.00     0.293 HD
ENDBRANCH  14  19
BRANCH  18  21
ATOM     21  O   UNL     1      36.637   8.882  28.313  1.00  0.00    -0.508 OA
ATOM     22  H   UNL     1      36.399   8.537  29.236  1.00  0.00     0.293 HD
ENDBRANCH  18  21
ENDBRANCH  11  13
ENDBRANCH   2  11
TORSDOF 6
ENDMDL
