MODEL 1
REMARK VINA RESULT:    -4.335      0.000      0.000
REMARK INTER + INTRA:          -4.802
REMARK INTER:                  -4.589
REMARK INTRA:                  -0.213
REMARK UNBOUND:                -0.213
REMARK SMILES C=C1CC[C@]2(C(C)C)C[C@H]12
REMARK SMILES IDX 5 1 4 2 3 3 2 4 1 5 10 6 9 7 6 8 7 9 8 10
REMARK H PARENT
REMARK Flexibility Score: inf
ROOT
ATOM      1  C   UNL     1      17.530  64.995  15.555  1.00  0.00    -0.020 C 
ATOM      2  C   UNL     1      17.249  65.146  17.068  1.00  0.00     0.012 C 
ATOM      3  C   UNL     1      15.737  64.997  17.268  1.00  0.00     0.031 C 
ATOM      4  C   UNL     1      15.181  64.784  15.902  1.00  0.00    -0.074 C 
ATOM      5  C   UNL     1      13.877  64.620  15.659  1.00  0.00     0.008 C 
ATOM      6  C   UNL     1      16.206  64.808  14.826  1.00  0.00     0.021 C 
ATOM      7  C   UNL     1      16.953  66.125  14.693  1.00  0.00     0.016 C 
ENDROOT
BRANCH   1   8
ATOM      8  C   UNL     1      18.893  64.445  15.005  1.00  0.00    -0.011 C 
ATOM      9  C   UNL     1      19.944  64.253  16.108  1.00  0.00     0.008 C 
ATOM     10  C   UNL     1      18.763  63.135  14.208  1.00  0.00     0.008 C 
ENDBRANCH   1   8
TORSDOF 1
ENDMDL
MODEL 2
REMARK VINA RESULT:    -3.975      3.828      5.597
REMARK INTER + INTRA:          -4.420
REMARK INTER:                  -4.424
REMARK INTRA:                   0.003
REMARK UNBOUND:                -0.213
REMARK SMILES C=C1CC[C@]2(C(C)C)C[C@H]12
REMARK SMILES IDX 5 1 4 2 3 3 2 4 1 5 10 6 9 7 6 8 7 9 8 10
REMARK H PARENT
REMARK Flexibility Score: inf
ROOT
ATOM      1  C   UNL     1      22.686  63.037  15.376  1.00  0.00    -0.020 C 
ATOM      2  C   UNL     1      21.786  63.409  16.576  1.00  0.00     0.012 C 
ATOM      3  C   UNL     1      20.336  63.393  16.082  1.00  0.00     0.031 C 
ATOM      4  C   UNL     1      20.419  63.037  14.637  1.00  0.00    -0.074 C 
ATOM      5  C   UNL     1      19.348  62.932  13.845  1.00  0.00     0.008 C 
ATOM      6  C   UNL     1      21.808  62.845  14.145  1.00  0.00     0.021 C 
ATOM      7  C   UNL     1      22.692  64.078  14.249  1.00  0.00     0.016 C 
ENDROOT
BRANCH   1   8
ATOM      8  C   UNL     1      24.073  62.324  15.554  1.00  0.00    -0.011 C 
ATOM      9  C   UNL     1      24.199  61.602  16.903  1.00  0.00     0.008 C 
ATOM     10  C   UNL     1      24.420  61.337  14.426  1.00  0.00     0.008 C 
ENDBRANCH   1   8
TORSDOF 1
ENDMDL
MODEL 3
REMARK VINA RESULT:    -3.868      1.216      4.229
REMARK INTER + INTRA:          -4.307
REMARK INTER:                  -4.090
REMARK INTRA:                  -0.217
REMARK UNBOUND:                -0.213
REMARK SMILES C=C1CC[C@]2(C(C)C)C[C@H]12
REMARK SMILES IDX 5 1 4 2 3 3 2 4 1 5 10 6 9 7 6 8 7 9 8 10
REMARK H PARENT
REMARK Flexibility Score: inf
ROOT
ATOM      1  C   UNL     1      18.023  65.000  16.006  1.00  0.00    -0.020 C 
ATOM      2  C   UNL     1      18.665  64.252  14.815  1.00  0.00     0.012 C 
ATOM      3  C   UNL     1      19.889  63.504  15.353  1.00  0.00     0.031 C 
ATOM      4  C   UNL     1      19.944  63.835  16.805  1.00  0.00    -0.074 C 
ATOM      5  C   UNL     1      20.890  63.373  17.627  1.00  0.00     0.008 C 
ATOM      6  C   UNL     1      18.869  64.759  17.251  1.00  0.00     0.021 C 
ATOM      7  C   UNL     1      18.891  66.125  16.583  1.00  0.00     0.016 C 
ENDROOT
BRANCH   1   8
ATOM      8  C   UNL     1      16.488  65.324  16.067  1.00  0.00    -0.011 C 
ATOM      9  C   UNL     1      15.762  64.998  14.754  1.00  0.00     0.008 C 
ATOM     10  C   UNL     1      15.749  64.637  17.229  1.00  0.00     0.008 C 
ENDBRANCH   1   8
TORSDOF 1
ENDMDL
MODEL 4
REMARK VINA RESULT:    -3.817      2.207      5.239
REMARK INTER + INTRA:          -4.253
REMARK INTER:                  -4.004
REMARK INTRA:                  -0.249
REMARK UNBOUND:                -0.213
REMARK SMILES C=C1CC[C@]2(C(C)C)C[C@H]12
REMARK SMILES IDX 5 1 4 2 3 3 2 4 1 5 10 6 9 7 6 8 7 9 8 10
REMARK H PARENT
REMARK Flexibility Score: inf
ROOT
ATOM      1  C   UNL     1      19.938  63.777  15.142  1.00  0.00    -0.020 C 
ATOM      2  C   UNL     1      20.705  63.509  16.457  1.00  0.00     0.012 C 
ATOM      3  C   UNL     1      22.141  63.130  16.080  1.00  0.00     0.031 C 
ATOM      4  C   UNL     1      22.177  63.168  14.590  1.00  0.00    -0.074 C 
ATOM      5  C   UNL     1      23.270  62.884  13.876  1.00  0.00     0.008 C 
ATOM      6  C   UNL     1      20.873  63.517  13.967  1.00  0.00     0.021 C 
ATOM      7  C   UNL     1      19.749  62.536  14.261  1.00  0.00     0.016 C 
ENDROOT
BRANCH   1   8
ATOM      8  C   UNL     1      18.725  64.769  15.063  1.00  0.00    -0.011 C 
ATOM      9  C   UNL     1      18.075  65.019  16.432  1.00  0.00     0.008 C 
ATOM     10  C   UNL     1      19.065  66.125  14.419  1.00  0.00     0.008 C 
ENDBRANCH   1   8
TORSDOF 1
ENDMDL
MODEL 5
REMARK VINA RESULT:    -3.647      4.097      7.256
REMARK INTER + INTRA:          -4.073
REMARK INTER:                  -4.053
REMARK INTRA:                  -0.021
REMARK UNBOUND:                -0.213
REMARK SMILES C=C1CC[C@]2(C(C)C)C[C@H]12
REMARK SMILES IDX 5 1 4 2 3 3 2 4 1 5 10 6 9 7 6 8 7 9 8 10
REMARK H PARENT
REMARK Flexibility Score: inf
ROOT
ATOM      1  C   UNL     1      22.500  63.149  15.071  1.00  0.00    -0.020 C 
ATOM      2  C   UNL     1      23.148  62.415  13.875  1.00  0.00     0.012 C 
ATOM      3  C   UNL     1      24.273  61.537  14.433  1.00  0.00     0.031 C 
ATOM      4  C   UNL     1      24.268  61.783  15.903  1.00  0.00    -0.074 C 
ATOM      5  C   UNL     1      25.123  61.197  16.747  1.00  0.00     0.008 C 
ATOM      6  C   UNL     1      23.248  62.770  16.344  1.00  0.00     0.021 C 
ATOM      7  C   UNL     1      23.422  64.163  15.760  1.00  0.00     0.016 C 
ENDROOT
BRANCH   1   8
ATOM      8  C   UNL     1      20.997  63.599  15.067  1.00  0.00    -0.011 C 
ATOM      9  C   UNL     1      20.161  62.862  14.010  1.00  0.00     0.008 C 
ATOM     10  C   UNL     1      20.300  63.468  16.433  1.00  0.00     0.008 C 
ENDBRANCH   1   8
TORSDOF 1
ENDMDL
MODEL 6
REMARK VINA RESULT:    -3.630      3.317      5.163
REMARK INTER + INTRA:          -4.055
REMARK INTER:                  -3.840
REMARK INTRA:                  -0.215
REMARK UNBOUND:                -0.213
REMARK SMILES C=C1CC[C@]2(C(C)C)C[C@H]12
REMARK SMILES IDX 5 1 4 2 3 3 2 4 1 5 10 6 9 7 6 8 7 9 8 10
REMARK H PARENT
REMARK Flexibility Score: inf
ROOT
ATOM      1  C   UNL     1      20.664  63.458  15.391  1.00  0.00    -0.020 C 
ATOM      2  C   UNL     1      22.176  63.297  15.108  1.00  0.00     0.012 C 
ATOM      3  C   UNL     1      22.471  64.008  13.784  1.00  0.00     0.031 C 
ATOM      4  C   UNL     1      21.157  64.541  13.325  1.00  0.00    -0.074 C 
ATOM      5  C   UNL     1      21.000  65.224  12.187  1.00  0.00     0.008 C 
ATOM      6  C   UNL     1      20.026  64.213  14.231  1.00  0.00     0.021 C 
ATOM      7  C   UNL     1      19.758  62.725  14.394  1.00  0.00     0.016 C 
ENDROOT
BRANCH   1   8
ATOM      8  C   UNL     1      20.079  63.476  16.846  1.00  0.00    -0.011 C 
ATOM      9  C   UNL     1      21.128  63.127  17.912  1.00  0.00     0.008 C 
ATOM     10  C   UNL     1      19.400  64.802  17.232  1.00  0.00     0.008 C 
ENDBRANCH   1   8
TORSDOF 1
ENDMDL
MODEL 7
REMARK VINA RESULT:    -3.565      2.309      4.225
REMARK INTER + INTRA:          -3.986
REMARK INTER:                  -3.735
REMARK INTRA:                  -0.251
REMARK UNBOUND:                -0.213
REMARK SMILES C=C1CC[C@]2(C(C)C)C[C@H]12
REMARK SMILES IDX 5 1 4 2 3 3 2 4 1 5 10 6 9 7 6 8 7 9 8 10
REMARK H PARENT
REMARK Flexibility Score: inf
ROOT
ATOM      1  C   UNL     1      20.871  63.649  14.310  1.00  0.00    -0.020 C 
ATOM      2  C   UNL     1      20.775  65.040  13.643  1.00  0.00     0.012 C 
ATOM      3  C   UNL     1      19.515  65.721  14.186  1.00  0.00     0.031 C 
ATOM      4  C   UNL     1      18.909  64.733  15.123  1.00  0.00    -0.074 C 
ATOM      5  C   UNL     1      17.778  64.959  15.796  1.00  0.00     0.008 C 
ATOM      6  C   UNL     1      19.660  63.453  15.213  1.00  0.00     0.021 C 
ATOM      7  C   UNL     1      19.752  62.680  13.907  1.00  0.00     0.016 C 
ENDROOT
BRANCH   1   8
ATOM      8  C   UNL     1      22.243  62.926  14.553  1.00  0.00    -0.011 C 
ATOM      9  C   UNL     1      23.349  63.423  13.611  1.00  0.00     0.008 C 
ATOM     10  C   UNL     1      22.748  63.013  16.004  1.00  0.00     0.008 C 
ENDBRANCH   1   8
TORSDOF 1
ENDMDL
MODEL 8
REMARK VINA RESULT:    -3.545      1.562      4.692
REMARK INTER + INTRA:          -3.965
REMARK INTER:                  -3.719
REMARK INTRA:                  -0.246
REMARK UNBOUND:                -0.213
REMARK SMILES C=C1CC[C@]2(C(C)C)C[C@H]12
REMARK SMILES IDX 5 1 4 2 3 3 2 4 1 5 10 6 9 7 6 8 7 9 8 10
REMARK H PARENT
REMARK Flexibility Score: inf
ROOT
ATOM      1  C   UNL     1      19.048  64.685  14.931  1.00  0.00    -0.020 C 
ATOM      2  C   UNL     1      18.609  63.401  14.190  1.00  0.00     0.012 C 
ATOM      3  C   UNL     1      19.873  62.580  13.913  1.00  0.00     0.031 C 
ATOM      4  C   UNL     1      20.995  63.388  14.469  1.00  0.00    -0.074 C 
ATOM      5  C   UNL     1      22.273  63.004  14.412  1.00  0.00     0.008 C 
ATOM      6  C   UNL     1      20.566  64.681  15.063  1.00  0.00     0.021 C 
ATOM      7  C   UNL     1      19.903  65.637  14.085  1.00  0.00     0.016 C 
ENDROOT
BRANCH   1   8
ATOM      8  C   UNL     1      18.106  65.440  15.933  1.00  0.00    -0.011 C 
ATOM      9  C   UNL     1      16.631  65.045  15.772  1.00  0.00     0.008 C 
ATOM     10  C   UNL     1      18.506  65.281  17.411  1.00  0.00     0.008 C 
ENDBRANCH   1   8
TORSDOF 1
ENDMDL
MODEL 9
REMARK VINA RESULT:    -3.493      2.861      4.366
REMARK INTER + INTRA:          -3.910
REMARK INTER:                  -3.687
REMARK INTRA:                  -0.223
REMARK UNBOUND:                -0.213
REMARK SMILES C=C1CC[C@]2(C(C)C)C[C@H]12
REMARK SMILES IDX 5 1 4 2 3 3 2 4 1 5 10 6 9 7 6 8 7 9 8 10
REMARK H PARENT
REMARK Flexibility Score: inf
ROOT
ATOM      1  C   UNL     1      20.275  64.236  14.281  1.00  0.00    -0.020 C 
ATOM      2  C   UNL     1      19.252  65.229  14.879  1.00  0.00     0.012 C 
ATOM      3  C   UNL     1      19.134  64.918  16.375  1.00  0.00     0.031 C 
ATOM      4  C   UNL     1      20.056  63.769  16.609  1.00  0.00    -0.074 C 
ATOM      5  C   UNL     1      20.226  63.197  17.804  1.00  0.00     0.008 C 
ATOM      6  C   UNL     1      20.744  63.292  15.381  1.00  0.00     0.021 C 
ATOM      7  C   UNL     1      19.813  62.774  14.295  1.00  0.00     0.016 C 
ENDROOT
BRANCH   1   8
ATOM      8  C   UNL     1      21.149  64.586  13.026  1.00  0.00    -0.011 C 
ATOM      9  C   UNL     1      20.713  65.891  12.344  1.00  0.00     0.008 C 
ATOM     10  C   UNL     1      22.660  64.656  13.314  1.00  0.00     0.008 C 
ENDBRANCH   1   8
TORSDOF 1
ENDMDL
