MODEL 1
REMARK VINA RESULT:    -5.432      0.000      0.000
REMARK INTER + INTRA:         -11.333
REMARK INTER:                 -10.196
REMARK INTRA:                  -1.138
REMARK UNBOUND:                -1.138
REMARK SMILES CCCCCCCCC=CCCCCCCCC(=O)[O-]
REMARK SMILES IDX 10 1 9 2 11 3 12 4 13 5 14 6 15 7 16 8 17 9 18 10 19 11
REMARK SMILES IDX 20 12 8 13 7 14 6 15 5 16 4 17 3 18 2 19 1 20
REMARK H PARENT
REMARK Flexibility Score: inf
ROOT
ATOM      1  C   UNL     1      28.216  16.059   7.333  1.00  0.00    -0.031 C 
ATOM      2  C   UNL     1      28.604  14.959   8.003  1.00  0.00    -0.031 C 
ENDROOT
BRANCH   1   3
ATOM      3  C   UNL     1      29.166  16.945   6.569  1.00  0.00     0.027 C 
BRANCH   3   4
ATOM      4  C   UNL     1      28.538  17.444   5.260  1.00  0.00     0.004 C 
BRANCH   4   5
ATOM      5  C   UNL     1      27.094  17.929   5.462  1.00  0.00     0.000 C 
BRANCH   5   6
ATOM      6  C   UNL     1      26.110  17.239   4.501  1.00  0.00     0.000 C 
BRANCH   6   7
ATOM      7  C   UNL     1      25.707  18.138   3.318  1.00  0.00     0.000 C 
BRANCH   7   8
ATOM      8  C   UNL     1      26.756  18.216   2.188  1.00  0.00     0.006 C 
BRANCH   8   9
ATOM      9  C   UNL     1      27.521  19.551   2.132  1.00  0.00     0.053 C 
BRANCH   9  10
ATOM     10  C   UNL     1      28.945  19.387   1.699  1.00  0.00     0.041 C 
ATOM     11  O   UNL     1      29.883  19.814   2.422  1.00  0.00    -0.550 OA
ATOM     12  O   UNL     1      29.237  18.749   0.499  1.00  0.00    -0.550 OA
ENDBRANCH   9  10
ENDBRANCH   8   9
ENDBRANCH   7   8
ENDBRANCH   6   7
ENDBRANCH   5   6
ENDBRANCH   4   5
ENDBRANCH   3   4
ENDBRANCH   1   3
BRANCH   2  13
ATOM     13  C   UNL     1      30.021  14.434   8.044  1.00  0.00     0.027 C 
BRANCH  13  14
ATOM     14  C   UNL     1      30.515  14.252   9.487  1.00  0.00     0.004 C 
BRANCH  14  15
ATOM     15  C   UNL     1      31.678  13.249   9.635  1.00  0.00     0.000 C 
BRANCH  15  16
ATOM     16  C   UNL     1      31.604  12.022   8.707  1.00  0.00     0.000 C 
BRANCH  16  17
ATOM     17  C   UNL     1      32.859  11.772   7.850  1.00  0.00    -0.000 C 
BRANCH  17  18
ATOM     18  C   UNL     1      32.889  12.587   6.539  1.00  0.00    -0.000 C 
BRANCH  18  19
ATOM     19  C   UNL     1      32.963  11.693   5.293  1.00  0.00    -0.003 C 
ATOM     20  C   UNL     1      31.576  11.210   4.878  1.00  0.00     0.004 C 
ENDBRANCH  18  19
ENDBRANCH  17  18
ENDBRANCH  16  17
ENDBRANCH  15  16
ENDBRANCH  14  15
ENDBRANCH  13  14
ENDBRANCH   2  13
TORSDOF 15
ENDMDL
MODEL 2
REMARK VINA RESULT:    -5.353      2.956      8.529
REMARK INTER + INTRA:         -11.184
REMARK INTER:                  -9.849
REMARK INTRA:                  -1.336
REMARK UNBOUND:                -1.138
REMARK SMILES CCCCCCCCC=CCCCCCCCC(=O)[O-]
REMARK SMILES IDX 10 1 9 2 11 3 12 4 13 5 14 6 15 7 16 8 17 9 18 10 19 11
REMARK SMILES IDX 20 12 8 13 7 14 6 15 5 16 4 17 3 18 2 19 1 20
REMARK H PARENT
REMARK Flexibility Score: inf
ROOT
ATOM      1  C   UNL     1      28.798  17.414   5.860  1.00  0.00    -0.031 C 
ATOM      2  C   UNL     1      28.020  17.898   4.876  1.00  0.00    -0.031 C 
ENDROOT
BRANCH   1   3
ATOM      3  C   UNL     1      28.295  16.490   6.939  1.00  0.00     0.027 C 
BRANCH   3   4
ATOM      4  C   UNL     1      29.379  15.493   7.375  1.00  0.00     0.004 C 
BRANCH   4   5
ATOM      5  C   UNL     1      29.543  15.453   8.903  1.00  0.00     0.000 C 
BRANCH   5   6
ATOM      6  C   UNL     1      29.779  14.024   9.424  1.00  0.00     0.000 C 
BRANCH   6   7
ATOM      7  C   UNL     1      31.243  13.772   9.824  1.00  0.00     0.000 C 
BRANCH   7   8
ATOM      8  C   UNL     1      31.854  12.482   9.235  1.00  0.00     0.006 C 
BRANCH   8   9
ATOM      9  C   UNL     1      31.350  12.137   7.822  1.00  0.00     0.053 C 
BRANCH   9  10
ATOM     10  C   UNL     1      32.363  12.426   6.757  1.00  0.00     0.041 C 
ATOM     11  O   UNL     1      33.030  13.494   6.787  1.00  0.00    -0.550 OA
ATOM     12  O   UNL     1      32.579  11.508   5.737  1.00  0.00    -0.550 OA
ENDBRANCH   9  10
ENDBRANCH   8   9
ENDBRANCH   7   8
ENDBRANCH   6   7
ENDBRANCH   5   6
ENDBRANCH   4   5
ENDBRANCH   3   4
ENDBRANCH   1   3
BRANCH   2  13
ATOM     13  C   UNL     1      26.561  17.550   4.685  1.00  0.00     0.027 C 
BRANCH  13  14
ATOM     14  C   UNL     1      26.126  17.719   3.221  1.00  0.00     0.004 C 
BRANCH  14  15
ATOM     15  C   UNL     1      25.072  18.824   2.998  1.00  0.00     0.000 C 
BRANCH  15  16
ATOM     16  C   UNL     1      25.409  19.832   1.884  1.00  0.00     0.000 C 
BRANCH  16  17
ATOM     17  C   UNL     1      26.801  20.484   1.988  1.00  0.00    -0.000 C 
BRANCH  17  18
ATOM     18  C   UNL     1      27.762  20.084   0.848  1.00  0.00    -0.000 C 
BRANCH  18  19
ATOM     19  C   UNL     1      28.880  19.144   1.324  1.00  0.00    -0.003 C 
ATOM     20  C   UNL     1      29.726  19.802   2.410  1.00  0.00     0.004 C 
ENDBRANCH  18  19
ENDBRANCH  17  18
ENDBRANCH  16  17
ENDBRANCH  15  16
ENDBRANCH  14  15
ENDBRANCH  13  14
ENDBRANCH   2  13
TORSDOF 15
ENDMDL
MODEL 3
REMARK VINA RESULT:    -5.304      3.410      9.170
REMARK INTER + INTRA:         -11.093
REMARK INTER:                 -10.087
REMARK INTRA:                  -1.006
REMARK UNBOUND:                -1.138
REMARK SMILES CCCCCCCCC=CCCCCCCCC(=O)[O-]
REMARK SMILES IDX 10 1 9 2 11 3 12 4 13 5 14 6 15 7 16 8 17 9 18 10 19 11
REMARK SMILES IDX 20 12 8 13 7 14 6 15 5 16 4 17 3 18 2 19 1 20
REMARK H PARENT
REMARK Flexibility Score: inf
ROOT
ATOM      1  C   UNL     1      27.994  17.443   4.845  1.00  0.00    -0.031 C 
ATOM      2  C   UNL     1      28.489  18.012   3.731  1.00  0.00    -0.031 C 
ENDROOT
BRANCH   1   3
ATOM      3  C   UNL     1      28.503  17.749   6.231  1.00  0.00     0.027 C 
BRANCH   3   4
ATOM      4  C   UNL     1      29.423  16.635   6.749  1.00  0.00     0.004 C 
BRANCH   4   5
ATOM      5  C   UNL     1      28.705  15.713   7.749  1.00  0.00     0.000 C 
BRANCH   5   6
ATOM      6  C   UNL     1      29.372  14.329   7.844  1.00  0.00     0.000 C 
BRANCH   6   7
ATOM      7  C   UNL     1      29.860  14.002   9.266  1.00  0.00     0.000 C 
BRANCH   7   8
ATOM      8  C   UNL     1      31.392  13.870   9.402  1.00  0.00     0.006 C 
BRANCH   8   9
ATOM      9  C   UNL     1      31.934  12.468   9.070  1.00  0.00     0.053 C 
BRANCH   9  10
ATOM     10  C   UNL     1      32.539  12.388   7.702  1.00  0.00     0.041 C 
ATOM     11  O   UNL     1      32.731  11.270   7.156  1.00  0.00    -0.550 OA
ATOM     12  O   UNL     1      32.881  13.552   7.025  1.00  0.00    -0.550 OA
ENDBRANCH   9  10
ENDBRANCH   8   9
ENDBRANCH   7   8
ENDBRANCH   6   7
ENDBRANCH   5   6
ENDBRANCH   4   5
ENDBRANCH   3   4
ENDBRANCH   1   3
BRANCH   2  13
ATOM     13  C   UNL     1      29.577  19.063   3.714  1.00  0.00     0.027 C 
BRANCH  13  14
ATOM     14  C   UNL     1      29.723  19.703   2.325  1.00  0.00     0.004 C 
BRANCH  14  15
ATOM     15  C   UNL     1      28.692  19.208   1.290  1.00  0.00     0.000 C 
BRANCH  15  16
ATOM     16  C   UNL     1      27.608  20.233   0.906  1.00  0.00     0.000 C 
BRANCH  16  17
ATOM     17  C   UNL     1      26.617  20.590   2.031  1.00  0.00    -0.000 C 
BRANCH  17  18
ATOM     18  C   UNL     1      25.144  20.286   1.681  1.00  0.00    -0.000 C 
BRANCH  18  19
ATOM     19  C   UNL     1      24.738  20.847   0.310  1.00  0.00    -0.003 C 
ATOM     20  C   UNL     1      23.227  20.776   0.112  1.00  0.00     0.004 C 
ENDBRANCH  18  19
ENDBRANCH  17  18
ENDBRANCH  16  17
ENDBRANCH  15  16
ENDBRANCH  14  15
ENDBRANCH  13  14
ENDBRANCH   2  13
TORSDOF 15
ENDMDL
MODEL 4
REMARK VINA RESULT:    -5.284      2.605      3.878
REMARK INTER + INTRA:         -11.055
REMARK INTER:                 -10.130
REMARK INTRA:                  -0.925
REMARK UNBOUND:                -1.138
REMARK SMILES CCCCCCCCC=CCCCCCCCC(=O)[O-]
REMARK SMILES IDX 10 1 9 2 11 3 12 4 13 5 14 6 15 7 16 8 17 9 18 10 19 11
REMARK SMILES IDX 20 12 8 13 7 14 6 15 5 16 4 17 3 18 2 19 1 20
REMARK H PARENT
REMARK Flexibility Score: inf
ROOT
ATOM      1  C   UNL     1      29.137  18.122   5.201  1.00  0.00    -0.031 C 
ATOM      2  C   UNL     1      29.088  17.316   6.277  1.00  0.00    -0.031 C 
ENDROOT
BRANCH   1   3
ATOM      3  C   UNL     1      27.963  18.363   4.287  1.00  0.00     0.027 C 
BRANCH   3   4
ATOM      4  C   UNL     1      28.375  18.286   2.811  1.00  0.00     0.004 C 
BRANCH   4   5
ATOM      5  C   UNL     1      29.285  19.457   2.405  1.00  0.00     0.000 C 
BRANCH   5   6
ATOM      6  C   UNL     1      28.482  20.664   1.889  1.00  0.00     0.000 C 
BRANCH   6   7
ATOM      7  C   UNL     1      27.256  20.249   1.057  1.00  0.00     0.000 C 
BRANCH   7   8
ATOM      8  C   UNL     1      25.898  20.597   1.703  1.00  0.00     0.006 C 
BRANCH   8   9
ATOM      9  C   UNL     1      24.747  20.766   0.695  1.00  0.00     0.053 C 
BRANCH   9  10
ATOM     10  C   UNL     1      23.430  20.298   1.232  1.00  0.00     0.041 C 
ATOM     11  O   UNL     1      22.358  20.831   0.842  1.00  0.00    -0.550 OA
ATOM     12  O   UNL     1      23.385  19.262   2.157  1.00  0.00    -0.550 OA
ENDBRANCH   9  10
ENDBRANCH   8   9
ENDBRANCH   7   8
ENDBRANCH   6   7
ENDBRANCH   5   6
ENDBRANCH   4   5
ENDBRANCH   3   4
ENDBRANCH   1   3
BRANCH   2  13
ATOM     13  C   UNL     1      27.849  16.586   6.746  1.00  0.00     0.027 C 
BRANCH  13  14
ATOM     14  C   UNL     1      28.188  15.516   7.796  1.00  0.00     0.004 C 
BRANCH  14  15
ATOM     15  C   UNL     1      29.580  15.680   8.438  1.00  0.00     0.000 C 
BRANCH  15  16
ATOM     16  C   UNL     1      29.937  14.623   9.500  1.00  0.00     0.000 C 
BRANCH  16  17
ATOM     17  C   UNL     1      31.292  13.918   9.294  1.00  0.00    -0.000 C 
BRANCH  17  18
ATOM     18  C   UNL     1      31.373  13.097   7.989  1.00  0.00    -0.000 C 
BRANCH  18  19
ATOM     19  C   UNL     1      32.678  13.345   7.219  1.00  0.00    -0.003 C 
ATOM     20  C   UNL     1      32.850  12.334   6.089  1.00  0.00     0.004 C 
ENDBRANCH  18  19
ENDBRANCH  17  18
ENDBRANCH  16  17
ENDBRANCH  15  16
ENDBRANCH  14  15
ENDBRANCH  13  14
ENDBRANCH   2  13
TORSDOF 15
ENDMDL
MODEL 5
REMARK VINA RESULT:    -5.271      3.016      8.583
REMARK INTER + INTRA:         -11.031
REMARK INTER:                  -9.805
REMARK INTRA:                  -1.226
REMARK UNBOUND:                -1.138
REMARK SMILES CCCCCCCCC=CCCCCCCCC(=O)[O-]
REMARK SMILES IDX 10 1 9 2 11 3 12 4 13 5 14 6 15 7 16 8 17 9 18 10 19 11
REMARK SMILES IDX 20 12 8 13 7 14 6 15 5 16 4 17 3 18 2 19 1 20
REMARK H PARENT
REMARK Flexibility Score: inf
ROOT
ATOM      1  C   UNL     1      29.228  17.042   6.492  1.00  0.00    -0.031 C 
ATOM      2  C   UNL     1      28.586  17.723   5.525  1.00  0.00    -0.031 C 
ENDROOT
BRANCH   1   3
ATOM      3  C   UNL     1      28.542  16.072   7.421  1.00  0.00     0.027 C 
BRANCH   3   4
ATOM      4  C   UNL     1      29.466  15.650   8.572  1.00  0.00     0.004 C 
BRANCH   4   5
ATOM      5  C   UNL     1      30.018  14.229   8.376  1.00  0.00     0.000 C 
BRANCH   5   6
ATOM      6  C   UNL     1      29.687  13.309   9.564  1.00  0.00     0.000 C 
BRANCH   6   7
ATOM      7  C   UNL     1      30.682  12.144   9.708  1.00  0.00     0.000 C 
BRANCH   7   8
ATOM      8  C   UNL     1      32.138  12.497   9.337  1.00  0.00     0.006 C 
BRANCH   8   9
ATOM      9  C   UNL     1      32.763  11.563   8.285  1.00  0.00     0.053 C 
BRANCH   9  10
ATOM     10  C   UNL     1      32.850  12.192   6.928  1.00  0.00     0.041 C 
ATOM     11  O   UNL     1      32.992  13.438   6.813  1.00  0.00    -0.550 OA
ATOM     12  O   UNL     1      32.787  11.399   5.790  1.00  0.00    -0.550 OA
ENDBRANCH   9  10
ENDBRANCH   8   9
ENDBRANCH   7   8
ENDBRANCH   6   7
ENDBRANCH   5   6
ENDBRANCH   4   5
ENDBRANCH   3   4
ENDBRANCH   1   3
BRANCH   2  13
ATOM     13  C   UNL     1      27.115  17.578   5.204  1.00  0.00     0.027 C 
BRANCH  13  14
ATOM     14  C   UNL     1      26.783  18.134   3.811  1.00  0.00     0.004 C 
BRANCH  14  15
ATOM     15  C   UNL     1      27.385  17.321   2.646  1.00  0.00     0.000 C 
BRANCH  15  16
ATOM     16  C   UNL     1      28.292  18.121   1.692  1.00  0.00     0.000 C 
BRANCH  16  17
ATOM     17  C   UNL     1      28.907  19.400   2.292  1.00  0.00    -0.000 C 
BRANCH  17  18
ATOM     18  C   UNL     1      28.395  20.702   1.637  1.00  0.00    -0.000 C 
BRANCH  18  19
ATOM     19  C   UNL     1      27.038  20.516   0.944  1.00  0.00    -0.003 C 
ATOM     20  C   UNL     1      25.897  21.016   1.825  1.00  0.00     0.004 C 
ENDBRANCH  18  19
ENDBRANCH  17  18
ENDBRANCH  16  17
ENDBRANCH  15  16
ENDBRANCH  14  15
ENDBRANCH  13  14
ENDBRANCH   2  13
TORSDOF 15
ENDMDL
MODEL 6
REMARK VINA RESULT:    -5.100      1.551      2.278
REMARK INTER + INTRA:         -10.709
REMARK INTER:                  -9.545
REMARK INTRA:                  -1.164
REMARK UNBOUND:                -1.138
REMARK SMILES CCCCCCCCC=CCCCCCCCC(=O)[O-]
REMARK SMILES IDX 10 1 9 2 11 3 12 4 13 5 14 6 15 7 16 8 17 9 18 10 19 11
REMARK SMILES IDX 20 12 8 13 7 14 6 15 5 16 4 17 3 18 2 19 1 20
REMARK H PARENT
REMARK Flexibility Score: inf
ROOT
ATOM      1  C   UNL     1      29.598  15.326   9.109  1.00  0.00    -0.031 C 
ATOM      2  C   UNL     1      29.432  14.400  10.071  1.00  0.00    -0.031 C 
ENDROOT
BRANCH   1   3
ATOM      3  C   UNL     1      29.268  15.086   7.658  1.00  0.00     0.027 C 
BRANCH   3   4
ATOM      4  C   UNL     1      28.408  16.220   7.084  1.00  0.00     0.004 C 
BRANCH   4   5
ATOM      5  C   UNL     1      29.263  17.308   6.414  1.00  0.00     0.000 C 
BRANCH   5   6
ATOM      6  C   UNL     1      28.520  18.000   5.257  1.00  0.00     0.000 C 
BRANCH   6   7
ATOM      7  C   UNL     1      29.470  18.742   4.301  1.00  0.00     0.000 C 
BRANCH   7   8
ATOM      8  C   UNL     1      28.850  19.099   2.932  1.00  0.00     0.006 C 
BRANCH   8   9
ATOM      9  C   UNL     1      27.313  19.012   2.897  1.00  0.00     0.053 C 
BRANCH   9  10
ATOM     10  C   UNL     1      26.708  19.855   1.817  1.00  0.00     0.041 C 
ATOM     11  O   UNL     1      25.492  20.178   1.868  1.00  0.00    -0.550 OA
ATOM     12  O   UNL     1      27.492  20.293   0.757  1.00  0.00    -0.550 OA
ENDBRANCH   9  10
ENDBRANCH   8   9
ENDBRANCH   7   8
ENDBRANCH   6   7
ENDBRANCH   5   6
ENDBRANCH   4   5
ENDBRANCH   3   4
ENDBRANCH   1   3
BRANCH   2  13
ATOM     13  C   UNL     1      28.851  13.022   9.845  1.00  0.00     0.027 C 
BRANCH  13  14
ATOM     14  C   UNL     1      29.825  12.118   9.074  1.00  0.00     0.004 C 
BRANCH  14  15
ATOM     15  C   UNL     1      31.167  11.876   9.795  1.00  0.00     0.000 C 
BRANCH  15  16
ATOM     16  C   UNL     1      32.415  11.968   8.897  1.00  0.00     0.000 C 
BRANCH  16  17
ATOM     17  C   UNL     1      32.413  13.132   7.888  1.00  0.00    -0.000 C 
BRANCH  17  18
ATOM     18  C   UNL     1      32.872  12.728   6.471  1.00  0.00    -0.000 C 
BRANCH  18  19
ATOM     19  C   UNL     1      32.568  11.256   6.153  1.00  0.00    -0.003 C 
ATOM     20  C   UNL     1      31.778  11.126   4.855  1.00  0.00     0.004 C 
ENDBRANCH  18  19
ENDBRANCH  17  18
ENDBRANCH  16  17
ENDBRANCH  15  16
ENDBRANCH  14  15
ENDBRANCH  13  14
ENDBRANCH   2  13
TORSDOF 15
ENDMDL
MODEL 7
REMARK VINA RESULT:    -5.013      3.536      9.287
REMARK INTER + INTRA:         -10.547
REMARK INTER:                  -9.555
REMARK INTRA:                  -0.992
REMARK UNBOUND:                -1.138
REMARK SMILES CCCCCCCCC=CCCCCCCCC(=O)[O-]
REMARK SMILES IDX 10 1 9 2 11 3 12 4 13 5 14 6 15 7 16 8 17 9 18 10 19 11
REMARK SMILES IDX 20 12 8 13 7 14 6 15 5 16 4 17 3 18 2 19 1 20
REMARK H PARENT
REMARK Flexibility Score: inf
ROOT
ATOM      1  C   UNL     1      29.810  19.115   3.774  1.00  0.00    -0.031 C 
ATOM      2  C   UNL     1      29.702  19.535   2.500  1.00  0.00    -0.031 C 
ENDROOT
BRANCH   1   3
ATOM      3  C   UNL     1      28.730  18.344   4.489  1.00  0.00     0.027 C 
BRANCH   3   4
ATOM      4  C   UNL     1      29.167  17.951   5.907  1.00  0.00     0.004 C 
BRANCH   4   5
ATOM      5  C   UNL     1      28.562  16.607   6.345  1.00  0.00     0.000 C 
BRANCH   5   6
ATOM      6  C   UNL     1      29.122  16.132   7.698  1.00  0.00     0.000 C 
BRANCH   6   7
ATOM      7  C   UNL     1      28.590  14.747   8.107  1.00  0.00     0.000 C 
BRANCH   7   8
ATOM      8  C   UNL     1      29.577  13.585   7.863  1.00  0.00     0.006 C 
BRANCH   8   9
ATOM      9  C   UNL     1      30.971  13.806   8.476  1.00  0.00     0.053 C 
BRANCH   9  10
ATOM     10  C   UNL     1      32.023  12.938   7.857  1.00  0.00     0.041 C 
ATOM     11  O   UNL     1      32.081  11.711   8.137  1.00  0.00    -0.550 OA
ATOM     12  O   UNL     1      32.933  13.482   6.960  1.00  0.00    -0.550 OA
ENDBRANCH   9  10
ENDBRANCH   8   9
ENDBRANCH   7   8
ENDBRANCH   6   7
ENDBRANCH   5   6
ENDBRANCH   4   5
ENDBRANCH   3   4
ENDBRANCH   1   3
BRANCH   2  13
ATOM     13  C   UNL     1      28.518  19.255   1.601  1.00  0.00     0.027 C 
BRANCH  13  14
ATOM     14  C   UNL     1      27.754  20.542   1.255  1.00  0.00     0.004 C 
BRANCH  14  15
ATOM     15  C   UNL     1      26.273  20.532   1.685  1.00  0.00     0.000 C 
BRANCH  15  16
ATOM     16  C   UNL     1      25.833  19.290   2.482  1.00  0.00     0.000 C 
BRANCH  16  17
ATOM     17  C   UNL     1      24.330  18.959   2.403  1.00  0.00    -0.000 C 
BRANCH  17  18
ATOM     18  C   UNL     1      23.418  20.205   2.416  1.00  0.00    -0.000 C 
BRANCH  18  19
ATOM     19  C   UNL     1      22.468  20.250   1.210  1.00  0.00    -0.003 C 
ATOM     20  C   UNL     1      23.242  20.433  -0.093  1.00  0.00     0.004 C 
ENDBRANCH  18  19
ENDBRANCH  17  18
ENDBRANCH  16  17
ENDBRANCH  15  16
ENDBRANCH  14  15
ENDBRANCH  13  14
ENDBRANCH   2  13
TORSDOF 15
ENDMDL
MODEL 8
REMARK VINA RESULT:    -5.007      3.364      8.755
REMARK INTER + INTRA:         -10.535
REMARK INTER:                  -8.994
REMARK INTRA:                  -1.540
REMARK UNBOUND:                -1.138
REMARK SMILES CCCCCCCCC=CCCCCCCCC(=O)[O-]
REMARK SMILES IDX 10 1 9 2 11 3 12 4 13 5 14 6 15 7 16 8 17 9 18 10 19 11
REMARK SMILES IDX 20 12 8 13 7 14 6 15 5 16 4 17 3 18 2 19 1 20
REMARK H PARENT
REMARK Flexibility Score: inf
ROOT
ATOM      1  C   UNL     1      26.078  17.157   3.507  1.00  0.00    -0.031 C 
ATOM      2  C   UNL     1      25.069  17.648   2.765  1.00  0.00    -0.031 C 
ENDROOT
BRANCH   1   3
ATOM      3  C   UNL     1      26.662  17.876   4.695  1.00  0.00     0.027 C 
BRANCH   3   4
ATOM      4  C   UNL     1      28.197  17.884   4.648  1.00  0.00     0.004 C 
BRANCH   4   5
ATOM      5  C   UNL     1      28.817  17.739   6.047  1.00  0.00     0.000 C 
BRANCH   5   6
ATOM      6  C   UNL     1      28.261  16.520   6.805  1.00  0.00     0.000 C 
BRANCH   6   7
ATOM      7  C   UNL     1      29.219  16.013   7.897  1.00  0.00     0.000 C 
BRANCH   7   8
ATOM      8  C   UNL     1      29.730  14.572   7.679  1.00  0.00     0.006 C 
BRANCH   8   9
ATOM      9  C   UNL     1      30.528  14.003   8.866  1.00  0.00     0.053 C 
BRANCH   9  10
ATOM     10  C   UNL     1      31.588  13.033   8.443  1.00  0.00     0.041 C 
ATOM     11  O   UNL     1      32.494  13.391   7.644  1.00  0.00    -0.550 OA
ATOM     12  O   UNL     1      31.582  11.736   8.940  1.00  0.00    -0.550 OA
ENDBRANCH   9  10
ENDBRANCH   8   9
ENDBRANCH   7   8
ENDBRANCH   6   7
ENDBRANCH   5   6
ENDBRANCH   4   5
ENDBRANCH   3   4
ENDBRANCH   1   3
BRANCH   2  13
ATOM     13  C   UNL     1      24.353  18.950   3.044  1.00  0.00     0.027 C 
BRANCH  13  14
ATOM     14  C   UNL     1      23.715  19.529   1.772  1.00  0.00     0.004 C 
BRANCH  14  15
ATOM     15  C   UNL     1      24.552  20.631   1.091  1.00  0.00     0.000 C 
BRANCH  15  16
ATOM     16  C   UNL     1      25.860  21.000   1.817  1.00  0.00     0.000 C 
BRANCH  16  17
ATOM     17  C   UNL     1      27.145  20.436   1.181  1.00  0.00    -0.000 C 
BRANCH  17  18
ATOM     18  C   UNL     1      28.400  20.601   2.065  1.00  0.00    -0.000 C 
BRANCH  18  19
ATOM     19  C   UNL     1      29.454  19.517   1.797  1.00  0.00    -0.003 C 
ATOM     20  C   UNL     1      28.994  18.561   0.700  1.00  0.00     0.004 C 
ENDBRANCH  18  19
ENDBRANCH  17  18
ENDBRANCH  16  17
ENDBRANCH  15  16
ENDBRANCH  14  15
ENDBRANCH  13  14
ENDBRANCH   2  13
TORSDOF 15
ENDMDL
MODEL 9
REMARK VINA RESULT:    -4.999      4.197      9.378
REMARK INTER + INTRA:         -10.521
REMARK INTER:                  -8.442
REMARK INTRA:                  -2.079
REMARK UNBOUND:                -1.138
REMARK SMILES CCCCCCCCC=CCCCCCCCC(=O)[O-]
REMARK SMILES IDX 10 1 9 2 11 3 12 4 13 5 14 6 15 7 16 8 17 9 18 10 19 11
REMARK SMILES IDX 20 12 8 13 7 14 6 15 5 16 4 17 3 18 2 19 1 20
REMARK H PARENT
REMARK Flexibility Score: inf
ROOT
ATOM      1  C   UNL     1      26.443  20.464   1.933  1.00  0.00    -0.031 C 
ATOM      2  C   UNL     1      25.210  20.769   1.491  1.00  0.00    -0.031 C 
ENDROOT
BRANCH   1   3
ATOM      3  C   UNL     1      27.623  20.245   1.021  1.00  0.00     0.027 C 
BRANCH   3   4
ATOM      4  C   UNL     1      28.621  19.246   1.624  1.00  0.00     0.004 C 
BRANCH   4   5
ATOM      5  C   UNL     1      27.963  17.892   1.936  1.00  0.00     0.000 C 
BRANCH   5   6
ATOM      6  C   UNL     1      27.879  17.622   3.449  1.00  0.00     0.000 C 
BRANCH   6   7
ATOM      7  C   UNL     1      28.926  18.412   4.252  1.00  0.00     0.000 C 
BRANCH   7   8
ATOM      8  C   UNL     1      28.734  18.356   5.783  1.00  0.00     0.006 C 
BRANCH   8   9
ATOM      9  C   UNL     1      29.229  17.049   6.430  1.00  0.00     0.053 C 
BRANCH   9  10
ATOM     10  C   UNL     1      28.127  16.268   7.076  1.00  0.00     0.041 C 
ATOM     11  O   UNL     1      26.927  16.475   6.755  1.00  0.00    -0.550 OA
ATOM     12  O   UNL     1      28.427  15.300   8.027  1.00  0.00    -0.550 OA
ENDBRANCH   9  10
ENDBRANCH   8   9
ENDBRANCH   7   8
ENDBRANCH   6   7
ENDBRANCH   5   6
ENDBRANCH   4   5
ENDBRANCH   3   4
ENDBRANCH   1   3
BRANCH   2  13
ATOM     13  C   UNL     1      24.846  20.980   0.039  1.00  0.00     0.027 C 
BRANCH  13  14
ATOM     14  C   UNL     1      23.402  20.544  -0.252  1.00  0.00     0.004 C 
BRANCH  14  15
ATOM     15  C   UNL     1      22.382  20.984   0.818  1.00  0.00     0.000 C 
BRANCH  15  16
ATOM     16  C   UNL     1      21.468  19.862   1.348  1.00  0.00     0.000 C 
BRANCH  16  17
ATOM     17  C   UNL     1      21.944  19.190   2.651  1.00  0.00    -0.000 C 
BRANCH  17  18
ATOM     18  C   UNL     1      22.438  17.740   2.457  1.00  0.00    -0.000 C 
BRANCH  18  19
ATOM     19  C   UNL     1      23.941  17.590   2.732  1.00  0.00    -0.003 C 
ATOM     20  C   UNL     1      24.302  18.112   4.119  1.00  0.00     0.004 C 
ENDBRANCH  18  19
ENDBRANCH  17  18
ENDBRANCH  16  17
ENDBRANCH  15  16
ENDBRANCH  14  15
ENDBRANCH  13  14
ENDBRANCH   2  13
TORSDOF 15
ENDMDL
