MODEL 1
REMARK VINA RESULT:    -5.337      0.000      0.000
REMARK INTER + INTRA:          -6.764
REMARK INTER:                  -6.430
REMARK INTRA:                  -0.334
REMARK UNBOUND:                -0.334
REMARK SMILES O=c1c(O)c(-c2ccc(O)c(O)c2)oc2cc(O)cc(O)c12
REMARK SMILES IDX 5 1 3 2 2 3 1 4 22 5 20 6 19 7 17 8 16 9 15 10 14 11 6 12
REMARK SMILES IDX 7 13 8 14 9 15 13 16 11 17 10 18 12 20 4 22 21 24 18 26
REMARK H PARENT 10 19 12 21 4 23 21 25 18 27
REMARK Flexibility Score: inf
ROOT
ATOM      1  C   UNL     1      45.204  16.028  -3.548  1.00  0.00     0.180 A 
ATOM      2  C   UNL     1      45.892  16.898  -4.412  1.00  0.00     0.208 A 
ATOM      3  C   UNL     1      47.232  16.626  -4.726  1.00  0.00     0.238 A 
ATOM      4  O   UNL     1      47.826  17.377  -5.542  1.00  0.00    -0.285 OA
ATOM      5  C   UNL     1      47.873  15.497  -4.160  1.00  0.00     0.111 A 
ATOM      6  C   UNL     1      49.240  15.148  -4.378  1.00  0.00     0.134 A 
ATOM      7  C   UNL     1      49.733  13.938  -3.873  1.00  0.00     0.093 A 
ATOM      8  C   UNL     1      48.926  13.097  -3.103  1.00  0.00     0.123 A 
ATOM      9  C   UNL     1      47.608  13.458  -2.836  1.00  0.00     0.094 A 
ATOM     10  C   UNL     1      47.077  14.641  -3.357  1.00  0.00     0.146 A 
ATOM     11  O   UNL     1      45.813  14.942  -3.086  1.00  0.00    -0.452 OA
ENDROOT
BRANCH   1  12
ATOM     12  C   UNL     1      43.796  16.262  -3.149  1.00  0.00     0.025 A 
ATOM     13  C   UNL     1      42.762  15.644  -3.870  1.00  0.00     0.016 A 
ATOM     14  C   UNL     1      41.429  15.834  -3.499  1.00  0.00     0.051 A 
ATOM     15  C   UNL     1      41.109  16.631  -2.395  1.00  0.00     0.157 A 
ATOM     16  C   UNL     1      43.474  17.046  -2.027  1.00  0.00     0.062 A 
ATOM     17  C   UNL     1      42.136  17.236  -1.652  1.00  0.00     0.158 A 
BRANCH  15  18
ATOM     18  O   UNL     1      39.770  16.804  -2.050  1.00  0.00    -0.504 OA
ATOM     19  H   UNL     1      39.020  16.340  -2.550  1.00  0.00     0.293 HD
ENDBRANCH  15  18
BRANCH  17  20
ATOM     20  O   UNL     1      41.825  18.021  -0.542  1.00  0.00    -0.504 OA
ATOM     21  H   UNL     1      42.545  18.374   0.078  1.00  0.00     0.293 HD
ENDBRANCH  17  20
ENDBRANCH   1  12
BRANCH   2  22
ATOM     22  O   UNL     1      45.232  17.994  -4.975  1.00  0.00    -0.502 OA
ATOM     23  H   UNL     1      44.239  17.987  -5.175  1.00  0.00     0.293 HD
ENDBRANCH   2  22
BRANCH   6  24
ATOM     24  O   UNL     1      50.155  15.961  -5.054  1.00  0.00    -0.507 OA
ATOM     25  H   UNL     1      49.923  16.828  -5.515  1.00  0.00     0.293 HD
ENDBRANCH   6  24
BRANCH   8  26
ATOM     26  O   UNL     1      49.429  11.903  -2.592  1.00  0.00    -0.508 OA
ATOM     27  H   UNL     1      49.904  11.867  -1.698  1.00  0.00     0.293 HD
ENDBRANCH   8  26
TORSDOF 6
ENDMDL
MODEL 2
REMARK VINA RESULT:    -5.118      1.762      3.165
REMARK INTER + INTRA:          -6.500
REMARK INTER:                  -6.465
REMARK INTRA:                  -0.034
REMARK UNBOUND:                -0.334
REMARK SMILES O=c1c(O)c(-c2ccc(O)c(O)c2)oc2cc(O)cc(O)c12
REMARK SMILES IDX 5 1 3 2 2 3 1 4 22 5 20 6 19 7 17 8 16 9 15 10 14 11 6 12
REMARK SMILES IDX 7 13 8 14 9 15 13 16 11 17 10 18 12 20 4 22 21 24 18 26
REMARK H PARENT 10 19 12 21 4 23 21 25 18 27
REMARK Flexibility Score: inf
ROOT
ATOM      1  C   UNL     1      46.305  15.898  -3.805  1.00  0.00     0.180 A 
ATOM      2  C   UNL     1      46.135  14.596  -3.303  1.00  0.00     0.208 A 
ATOM      3  C   UNL     1      47.234  13.723  -3.289  1.00  0.00     0.238 A 
ATOM      4  O   UNL     1      47.089  12.577  -2.788  1.00  0.00    -0.285 OA
ATOM      5  C   UNL     1      48.485  14.158  -3.790  1.00  0.00     0.111 A 
ATOM      6  C   UNL     1      49.656  13.345  -3.861  1.00  0.00     0.134 A 
ATOM      7  C   UNL     1      50.872  13.917  -4.254  1.00  0.00     0.093 A 
ATOM      8  C   UNL     1      50.945  15.258  -4.641  1.00  0.00     0.123 A 
ATOM      9  C   UNL     1      49.796  16.043  -4.632  1.00  0.00     0.094 A 
ATOM     10  C   UNL     1      48.575  15.510  -4.210  1.00  0.00     0.146 A 
ATOM     11  O   UNL     1      47.506  16.296  -4.207  1.00  0.00    -0.452 OA
ENDROOT
BRANCH   1  12
ATOM     12  C   UNL     1      45.187  16.868  -3.876  1.00  0.00     0.025 A 
ATOM     13  C   UNL     1      44.844  17.437  -5.112  1.00  0.00     0.016 A 
ATOM     14  C   UNL     1      43.780  18.338  -5.206  1.00  0.00     0.051 A 
ATOM     15  C   UNL     1      43.035  18.672  -4.071  1.00  0.00     0.157 A 
ATOM     16  C   UNL     1      44.423  17.188  -2.740  1.00  0.00     0.062 A 
ATOM     17  C   UNL     1      43.353  18.091  -2.832  1.00  0.00     0.158 A 
BRANCH  15  18
ATOM     18  O   UNL     1      41.980  19.575  -4.194  1.00  0.00    -0.504 OA
ATOM     19  H   UNL     1      41.561  20.027  -3.390  1.00  0.00     0.293 HD
ENDBRANCH  15  18
BRANCH  17  20
ATOM     20  O   UNL     1      42.605  18.409  -1.699  1.00  0.00    -0.504 OA
ATOM     21  H   UNL     1      41.742  18.936  -1.762  1.00  0.00     0.293 HD
ENDBRANCH  17  20
ENDBRANCH   1  12
BRANCH   2  22
ATOM     22  O   UNL     1      44.897  14.196  -2.793  1.00  0.00    -0.502 OA
ATOM     23  H   UNL     1      44.809  13.657  -1.939  1.00  0.00     0.293 HD
ENDBRANCH   2  22
BRANCH   6  24
ATOM     24  O   UNL     1      49.673  11.974  -3.585  1.00  0.00    -0.507 OA
ATOM     25  H   UNL     1      50.509  11.416  -3.493  1.00  0.00     0.293 HD
ENDBRANCH   6  24
BRANCH   8  26
ATOM     26  O   UNL     1      52.155  15.815  -5.046  1.00  0.00    -0.508 OA
ATOM     27  H   UNL     1      52.204  16.484  -5.805  1.00  0.00     0.293 HD
ENDBRANCH   8  26
TORSDOF 6
ENDMDL
MODEL 3
REMARK VINA RESULT:    -5.117      2.150      7.612
REMARK INTER + INTRA:          -6.498
REMARK INTER:                  -6.170
REMARK INTRA:                  -0.329
REMARK UNBOUND:                -0.334
REMARK SMILES O=c1c(O)c(-c2ccc(O)c(O)c2)oc2cc(O)cc(O)c12
REMARK SMILES IDX 5 1 3 2 2 3 1 4 22 5 20 6 19 7 17 8 16 9 15 10 14 11 6 12
REMARK SMILES IDX 7 13 8 14 9 15 13 16 11 17 10 18 12 20 4 22 21 24 18 26
REMARK H PARENT 10 19 12 21 4 23 21 25 18 27
REMARK Flexibility Score: inf
ROOT
ATOM      1  C   UNL     1      43.774  17.535  -3.815  1.00  0.00     0.180 A 
ATOM      2  C   UNL     1      42.671  16.719  -4.120  1.00  0.00     0.208 A 
ATOM      3  C   UNL     1      41.423  17.023  -3.555  1.00  0.00     0.238 A 
ATOM      4  O   UNL     1      40.428  16.322  -3.875  1.00  0.00    -0.285 OA
ATOM      5  C   UNL     1      41.296  18.129  -2.680  1.00  0.00     0.111 A 
ATOM      6  C   UNL     1      40.088  18.505  -2.020  1.00  0.00     0.134 A 
ATOM      7  C   UNL     1      40.045  19.693  -1.279  1.00  0.00     0.093 A 
ATOM      8  C   UNL     1      41.187  20.484  -1.122  1.00  0.00     0.123 A 
ATOM      9  C   UNL     1      42.385  20.094  -1.714  1.00  0.00     0.094 A 
ATOM     10  C   UNL     1      42.449  18.933  -2.489  1.00  0.00     0.146 A 
ATOM     11  O   UNL     1      43.609  18.603  -3.043  1.00  0.00    -0.452 OA
ENDROOT
BRANCH   1  12
ATOM     12  C   UNL     1      45.128  17.264  -4.351  1.00  0.00     0.025 A 
ATOM     13  C   UNL     1      45.522  17.852  -5.564  1.00  0.00     0.016 A 
ATOM     14  C   UNL     1      46.801  17.627  -6.077  1.00  0.00     0.051 A 
ATOM     15  C   UNL     1      47.710  16.824  -5.382  1.00  0.00     0.157 A 
ATOM     16  C   UNL     1      46.052  16.475  -3.643  1.00  0.00     0.062 A 
ATOM     17  C   UNL     1      47.338  16.249  -4.156  1.00  0.00     0.158 A 
BRANCH  15  18
ATOM     18  O   UNL     1      48.980  16.616  -5.920  1.00  0.00    -0.504 OA
ATOM     19  H   UNL     1      49.361  17.212  -6.646  1.00  0.00     0.293 HD
ENDBRANCH  15  18
BRANCH  17  20
ATOM     20  O   UNL     1      48.245  15.459  -3.450  1.00  0.00    -0.504 OA
ATOM     21  H   UNL     1      49.243  15.520  -3.615  1.00  0.00     0.293 HD
ENDBRANCH  17  20
ENDBRANCH   1  12
BRANCH   2  22
ATOM     22  O   UNL     1      42.815  15.646  -5.004  1.00  0.00    -0.502 OA
ATOM     23  H   UNL     1      42.352  14.756  -4.858  1.00  0.00     0.293 HD
ENDBRANCH   2  22
BRANCH   6  24
ATOM     24  O   UNL     1      38.918  17.739  -2.036  1.00  0.00    -0.507 OA
ATOM     25  H   UNL     1      38.601  17.191  -2.822  1.00  0.00     0.293 HD
ENDBRANCH   6  24
BRANCH   8  26
ATOM     26  O   UNL     1      41.140  21.655  -0.371  1.00  0.00    -0.508 OA
ATOM     27  H   UNL     1      41.279  21.648   0.633  1.00  0.00     0.293 HD
ENDBRANCH   8  26
TORSDOF 6
ENDMDL
MODEL 4
REMARK VINA RESULT:    -5.057      1.481      6.750
REMARK INTER + INTRA:          -6.426
REMARK INTER:                  -6.864
REMARK INTRA:                   0.438
REMARK UNBOUND:                -0.334
REMARK SMILES O=c1c(O)c(-c2ccc(O)c(O)c2)oc2cc(O)cc(O)c12
REMARK SMILES IDX 5 1 3 2 2 3 1 4 22 5 20 6 19 7 17 8 16 9 15 10 14 11 6 12
REMARK SMILES IDX 7 13 8 14 9 15 13 16 11 17 10 18 12 20 4 22 21 24 18 26
REMARK H PARENT 10 19 12 21 4 23 21 25 18 27
REMARK Flexibility Score: inf
ROOT
ATOM      1  C   UNL     1      46.520  16.370  -4.294  1.00  0.00     0.180 A 
ATOM      2  C   UNL     1      46.192  17.391  -5.203  1.00  0.00     0.208 A 
ATOM      3  C   UNL     1      44.915  17.970  -5.143  1.00  0.00     0.238 A 
ATOM      4  O   UNL     1      44.646  18.920  -5.924  1.00  0.00    -0.285 OA
ATOM      5  C   UNL     1      43.978  17.513  -4.186  1.00  0.00     0.111 A 
ATOM      6  C   UNL     1      42.642  18.001  -4.063  1.00  0.00     0.134 A 
ATOM      7  C   UNL     1      41.844  17.568  -2.997  1.00  0.00     0.093 A 
ATOM      8  C   UNL     1      42.312  16.616  -2.088  1.00  0.00     0.123 A 
ATOM      9  C   UNL     1      43.592  16.089  -2.235  1.00  0.00     0.094 A 
ATOM     10  C   UNL     1      44.425  16.528  -3.267  1.00  0.00     0.146 A 
ATOM     11  O   UNL     1      45.642  16.008  -3.366  1.00  0.00    -0.452 OA
ENDROOT
BRANCH   1  12
ATOM     12  C   UNL     1      47.838  15.692  -4.310  1.00  0.00     0.025 A 
ATOM     13  C   UNL     1      48.934  16.327  -4.915  1.00  0.00     0.016 A 
ATOM     14  C   UNL     1      50.189  15.716  -4.924  1.00  0.00     0.051 A 
ATOM     15  C   UNL     1      50.373  14.469  -4.317  1.00  0.00     0.157 A 
ATOM     16  C   UNL     1      48.029  14.449  -3.682  1.00  0.00     0.062 A 
ATOM     17  C   UNL     1      49.290  13.834  -3.688  1.00  0.00     0.158 A 
BRANCH  15  18
ATOM     18  O   UNL     1      51.638  13.882  -4.343  1.00  0.00    -0.504 OA
ATOM     19  H   UNL     1      51.779  12.921  -4.632  1.00  0.00     0.293 HD
ENDBRANCH  15  18
BRANCH  17  20
ATOM     20  O   UNL     1      49.469  12.598  -3.068  1.00  0.00    -0.504 OA
ATOM     21  H   UNL     1      49.648  12.522  -2.073  1.00  0.00     0.293 HD
ENDBRANCH  17  20
ENDBRANCH   1  12
BRANCH   2  22
ATOM     22  O   UNL     1      47.141  17.842  -6.125  1.00  0.00    -0.502 OA
ATOM     23  H   UNL     1      47.254  17.420  -7.039  1.00  0.00     0.293 HD
ENDBRANCH   2  22
BRANCH   6  24
ATOM     24  O   UNL     1      42.047  18.884  -4.969  1.00  0.00    -0.507 OA
ATOM     25  H   UNL     1      41.157  18.730  -5.420  1.00  0.00     0.293 HD
ENDBRANCH   6  24
BRANCH   8  26
ATOM     26  O   UNL     1      41.506  16.179  -1.039  1.00  0.00    -0.508 OA
ATOM     27  H   UNL     1      40.875  15.393  -1.146  1.00  0.00     0.293 HD
ENDBRANCH   8  26
TORSDOF 6
ENDMDL
MODEL 5
REMARK VINA RESULT:    -4.975      1.846      7.251
REMARK INTER + INTRA:          -6.327
REMARK INTER:                  -6.320
REMARK INTRA:                  -0.008
REMARK UNBOUND:                -0.334
REMARK SMILES O=c1c(O)c(-c2ccc(O)c(O)c2)oc2cc(O)cc(O)c12
REMARK SMILES IDX 5 1 3 2 2 3 1 4 22 5 20 6 19 7 17 8 16 9 15 10 14 11 6 12
REMARK SMILES IDX 7 13 8 14 9 15 13 16 11 17 10 18 12 20 4 22 21 24 18 26
REMARK H PARENT 10 19 12 21 4 23 21 25 18 27
REMARK Flexibility Score: inf
ROOT
ATOM      1  C   UNL     1      44.613  15.862  -2.861  1.00  0.00     0.180 A 
ATOM      2  C   UNL     1      43.427  15.111  -2.794  1.00  0.00     0.208 A 
ATOM      3  C   UNL     1      42.205  15.781  -2.629  1.00  0.00     0.238 A 
ATOM      4  O   UNL     1      41.142  15.106  -2.625  1.00  0.00    -0.285 OA
ATOM      5  C   UNL     1      42.185  17.192  -2.518  1.00  0.00     0.111 A 
ATOM      6  C   UNL     1      41.007  17.971  -2.310  1.00  0.00     0.134 A 
ATOM      7  C   UNL     1      41.088  19.369  -2.346  1.00  0.00     0.093 A 
ATOM      8  C   UNL     1      42.315  20.015  -2.518  1.00  0.00     0.123 A 
ATOM      9  C   UNL     1      43.478  19.263  -2.663  1.00  0.00     0.094 A 
ATOM     10  C   UNL     1      43.424  17.867  -2.668  1.00  0.00     0.146 A 
ATOM     11  O   UNL     1      44.554  17.189  -2.819  1.00  0.00    -0.452 OA
ENDROOT
BRANCH   1  12
ATOM     12  C   UNL     1      45.943  15.226  -3.008  1.00  0.00     0.025 A 
ATOM     13  C   UNL     1      46.851  15.733  -3.950  1.00  0.00     0.016 A 
ATOM     14  C   UNL     1      48.118  15.162  -4.091  1.00  0.00     0.051 A 
ATOM     15  C   UNL     1      48.502  14.087  -3.284  1.00  0.00     0.157 A 
ATOM     16  C   UNL     1      46.339  14.159  -2.182  1.00  0.00     0.062 A 
ATOM     17  C   UNL     1      47.611  13.585  -2.320  1.00  0.00     0.158 A 
BRANCH  15  18
ATOM     18  O   UNL     1      49.773  13.536  -3.448  1.00  0.00    -0.504 OA
ATOM     19  H   UNL     1      50.053  12.681  -2.983  1.00  0.00     0.293 HD
ENDBRANCH  15  18
BRANCH  17  20
ATOM     20  O   UNL     1      47.993  12.523  -1.503  1.00  0.00    -0.504 OA
ATOM     21  H   UNL     1      48.639  11.810  -1.823  1.00  0.00     0.293 HD
ENDBRANCH  17  20
ENDBRANCH   1  12
BRANCH   2  22
ATOM     22  O   UNL     1      43.469  13.720  -2.928  1.00  0.00    -0.502 OA
ATOM     23  H   UNL     1      43.976  13.261  -3.675  1.00  0.00     0.293 HD
ENDBRANCH   2  22
BRANCH   6  24
ATOM     24  O   UNL     1      39.749  17.426  -2.037  1.00  0.00    -0.507 OA
ATOM     25  H   UNL     1      38.969  17.430  -2.679  1.00  0.00     0.293 HD
ENDBRANCH   6  24
BRANCH   8  26
ATOM     26  O   UNL     1      42.389  21.405  -2.537  1.00  0.00    -0.508 OA
ATOM     27  H   UNL     1      41.958  21.969  -1.813  1.00  0.00     0.293 HD
ENDBRANCH   8  26
TORSDOF 6
ENDMDL
MODEL 6
REMARK VINA RESULT:    -4.876      1.692      7.192
REMARK INTER + INTRA:          -6.208
REMARK INTER:                  -6.216
REMARK INTRA:                   0.008
REMARK UNBOUND:                -0.334
REMARK SMILES O=c1c(O)c(-c2ccc(O)c(O)c2)oc2cc(O)cc(O)c12
REMARK SMILES IDX 5 1 3 2 2 3 1 4 22 5 20 6 19 7 17 8 16 9 15 10 14 11 6 12
REMARK SMILES IDX 7 13 8 14 9 15 13 16 11 17 10 18 12 20 4 22 21 24 18 26
REMARK H PARENT 10 19 12 21 4 23 21 25 18 27
REMARK Flexibility Score: inf
ROOT
ATOM      1  C   UNL     1      46.169  15.923  -3.866  1.00  0.00     0.180 A 
ATOM      2  C   UNL     1      45.447  14.725  -3.718  1.00  0.00     0.208 A 
ATOM      3  C   UNL     1      44.136  14.778  -3.218  1.00  0.00     0.238 A 
ATOM      4  O   UNL     1      43.477  13.709  -3.139  1.00  0.00    -0.285 OA
ATOM      5  C   UNL     1      43.569  16.024  -2.858  1.00  0.00     0.111 A 
ATOM      6  C   UNL     1      42.264  16.191  -2.304  1.00  0.00     0.134 A 
ATOM      7  C   UNL     1      41.756  17.481  -2.108  1.00  0.00     0.093 A 
ATOM      8  C   UNL     1      42.532  18.610  -2.384  1.00  0.00     0.123 A 
ATOM      9  C   UNL     1      43.828  18.457  -2.869  1.00  0.00     0.094 A 
ATOM     10  C   UNL     1      44.350  17.183  -3.110  1.00  0.00     0.146 A 
ATOM     11  O   UNL     1      45.586  17.081  -3.581  1.00  0.00    -0.452 OA
ENDROOT
BRANCH   1  12
ATOM     12  C   UNL     1      47.564  15.946  -4.363  1.00  0.00     0.025 A 
ATOM     13  C   UNL     1      47.936  16.888  -5.334  1.00  0.00     0.016 A 
ATOM     14  C   UNL     1      49.251  16.942  -5.801  1.00  0.00     0.051 A 
ATOM     15  C   UNL     1      50.217  16.066  -5.296  1.00  0.00     0.157 A 
ATOM     16  C   UNL     1      48.542  15.081  -3.840  1.00  0.00     0.062 A 
ATOM     17  C   UNL     1      49.863  15.134  -4.306  1.00  0.00     0.158 A 
BRANCH  15  18
ATOM     18  O   UNL     1      51.522  16.142  -5.782  1.00  0.00    -0.504 OA
ATOM     19  H   UNL     1      51.983  17.028  -5.950  1.00  0.00     0.293 HD
ENDBRANCH  15  18
BRANCH  17  20
ATOM     20  O   UNL     1      50.825  14.267  -3.787  1.00  0.00    -0.504 OA
ATOM     21  H   UNL     1      51.813  14.492  -3.813  1.00  0.00     0.293 HD
ENDBRANCH  17  20
ENDBRANCH   1  12
BRANCH   2  22
ATOM     22  O   UNL     1      46.019  13.509  -4.100  1.00  0.00    -0.502 OA
ATOM     23  H   UNL     1      46.847  13.133  -3.652  1.00  0.00     0.293 HD
ENDBRANCH   2  22
BRANCH   6  24
ATOM     24  O   UNL     1      41.444  15.131  -1.907  1.00  0.00    -0.507 OA
ATOM     25  H   UNL     1      41.018  14.467  -2.537  1.00  0.00     0.293 HD
ENDBRANCH   6  24
BRANCH   8  26
ATOM     26  O   UNL     1      42.025  19.889  -2.171  1.00  0.00    -0.508 OA
ATOM     27  H   UNL     1      41.198  20.220  -2.654  1.00  0.00     0.293 HD
ENDBRANCH   8  26
TORSDOF 6
ENDMDL
MODEL 7
REMARK VINA RESULT:    -4.809      4.002      5.003
REMARK INTER + INTRA:          -6.127
REMARK INTER:                  -5.947
REMARK INTRA:                  -0.180
REMARK UNBOUND:                -0.334
REMARK SMILES O=c1c(O)c(-c2ccc(O)c(O)c2)oc2cc(O)cc(O)c12
REMARK SMILES IDX 5 1 3 2 2 3 1 4 22 5 20 6 19 7 17 8 16 9 15 10 14 11 6 12
REMARK SMILES IDX 7 13 8 14 9 15 13 16 11 17 10 18 12 20 4 22 21 24 18 26
REMARK H PARENT 10 19 12 21 4 23 21 25 18 27
REMARK Flexibility Score: inf
ROOT
ATOM      1  C   UNL     1      48.672  13.787  -4.346  1.00  0.00     0.180 A 
ATOM      2  C   UNL     1      48.593  15.154  -4.663  1.00  0.00     0.208 A 
ATOM      3  C   UNL     1      49.726  15.798  -5.187  1.00  0.00     0.238 A 
ATOM      4  O   UNL     1      49.633  17.008  -5.520  1.00  0.00    -0.285 OA
ATOM      5  C   UNL     1      50.926  15.070  -5.372  1.00  0.00     0.111 A 
ATOM      6  C   UNL     1      52.146  15.630  -5.858  1.00  0.00     0.134 A 
ATOM      7  C   UNL     1      53.234  14.791  -6.125  1.00  0.00     0.093 A 
ATOM      8  C   UNL     1      53.167  13.420  -5.861  1.00  0.00     0.123 A 
ATOM      9  C   UNL     1      52.001  12.874  -5.331  1.00  0.00     0.094 A 
ATOM     10  C   UNL     1      50.887  13.680  -5.089  1.00  0.00     0.146 A 
ATOM     11  O   UNL     1      49.792  13.118  -4.592  1.00  0.00    -0.452 OA
ENDROOT
BRANCH   1  12
ATOM     12  C   UNL     1      47.528  13.045  -3.766  1.00  0.00     0.025 A 
ATOM     13  C   UNL     1      46.392  12.801  -4.554  1.00  0.00     0.016 A 
ATOM     14  C   UNL     1      45.311  12.085  -4.034  1.00  0.00     0.051 A 
ATOM     15  C   UNL     1      45.354  11.591  -2.727  1.00  0.00     0.157 A 
ATOM     16  C   UNL     1      47.578  12.529  -2.459  1.00  0.00     0.062 A 
ATOM     17  C   UNL     1      46.494  11.808  -1.936  1.00  0.00     0.158 A 
BRANCH  15  18
ATOM     18  O   UNL     1      44.258  10.881  -2.235  1.00  0.00    -0.504 OA
ATOM     19  H   UNL     1      43.496  11.338  -1.749  1.00  0.00     0.293 HD
ENDBRANCH  15  18
BRANCH  17  20
ATOM     20  O   UNL     1      46.549  11.305  -0.637  1.00  0.00    -0.504 OA
ATOM     21  H   UNL     1      46.665  11.915   0.165  1.00  0.00     0.293 HD
ENDBRANCH  17  20
ENDBRANCH   1  12
BRANCH   2  22
ATOM     22  O   UNL     1      47.391  15.847  -4.493  1.00  0.00    -0.502 OA
ATOM     23  H   UNL     1      46.586  15.434  -4.037  1.00  0.00     0.293 HD
ENDBRANCH   2  22
BRANCH   6  24
ATOM     24  O   UNL     1      52.348  16.998  -6.067  1.00  0.00    -0.507 OA
ATOM     25  H   UNL     1      53.178  17.504  -5.797  1.00  0.00     0.293 HD
ENDBRANCH   6  24
BRANCH   8  26
ATOM     26  O   UNL     1      54.260  12.594  -6.115  1.00  0.00    -0.508 OA
ATOM     27  H   UNL     1      54.296  11.641  -5.772  1.00  0.00     0.293 HD
ENDBRANCH   8  26
TORSDOF 6
ENDMDL
MODEL 8
REMARK VINA RESULT:    -4.794      1.721      2.072
REMARK INTER + INTRA:          -6.109
REMARK INTER:                  -5.915
REMARK INTRA:                  -0.194
REMARK UNBOUND:                -0.334
REMARK SMILES O=c1c(O)c(-c2ccc(O)c(O)c2)oc2cc(O)cc(O)c12
REMARK SMILES IDX 5 1 3 2 2 3 1 4 22 5 20 6 19 7 17 8 16 9 15 10 14 11 6 12
REMARK SMILES IDX 7 13 8 14 9 15 13 16 11 17 10 18 12 20 4 22 21 24 18 26
REMARK H PARENT 10 19 12 21 4 23 21 25 18 27
REMARK Flexibility Score: inf
ROOT
ATOM      1  C   UNL     1      45.743  16.133  -3.703  1.00  0.00     0.180 A 
ATOM      2  C   UNL     1      46.943  16.400  -4.384  1.00  0.00     0.208 A 
ATOM      3  C   UNL     1      48.014  15.501  -4.253  1.00  0.00     0.238 A 
ATOM      4  O   UNL     1      49.067  15.717  -4.908  1.00  0.00    -0.285 OA
ATOM      5  C   UNL     1      47.876  14.356  -3.432  1.00  0.00     0.111 A 
ATOM      6  C   UNL     1      48.909  13.400  -3.195  1.00  0.00     0.134 A 
ATOM      7  C   UNL     1      48.622  12.237  -2.470  1.00  0.00     0.093 A 
ATOM      8  C   UNL     1      47.356  12.028  -1.918  1.00  0.00     0.123 A 
ATOM      9  C   UNL     1      46.358  12.983  -2.093  1.00  0.00     0.094 A 
ATOM     10  C   UNL     1      46.604  14.136  -2.842  1.00  0.00     0.146 A 
ATOM     11  O   UNL     1      45.623  15.017  -2.993  1.00  0.00    -0.452 OA
ENDROOT
BRANCH   1  12
ATOM     12  C   UNL     1      44.578  17.045  -3.771  1.00  0.00     0.025 A 
ATOM     13  C   UNL     1      43.856  17.157  -4.970  1.00  0.00     0.016 A 
ATOM     14  C   UNL     1      42.742  17.996  -5.050  1.00  0.00     0.051 A 
ATOM     15  C   UNL     1      42.323  18.723  -3.932  1.00  0.00     0.157 A 
ATOM     16  C   UNL     1      44.142  17.761  -2.642  1.00  0.00     0.062 A 
ATOM     17  C   UNL     1      43.022  18.602  -2.719  1.00  0.00     0.158 A 
BRANCH  15  18
ATOM     18  O   UNL     1      41.209  19.554  -4.042  1.00  0.00    -0.504 OA
ATOM     19  H   UNL     1      40.942  19.983  -4.921  1.00  0.00     0.293 HD
ENDBRANCH  15  18
BRANCH  17  20
ATOM     20  O   UNL     1      42.601  19.313  -1.596  1.00  0.00    -0.504 OA
ATOM     21  H   UNL     1      41.624  19.538  -1.444  1.00  0.00     0.293 HD
ENDBRANCH  17  20
ENDBRANCH   1  12
BRANCH   2  22
ATOM     22  O   UNL     1      47.049  17.525  -5.206  1.00  0.00    -0.502 OA
ATOM     23  H   UNL     1      46.919  18.467  -4.858  1.00  0.00     0.293 HD
ENDBRANCH   2  22
BRANCH   6  24
ATOM     24  O   UNL     1      50.231  13.557  -3.624  1.00  0.00    -0.507 OA
ATOM     25  H   UNL     1      50.636  14.429  -3.932  1.00  0.00     0.293 HD
ENDBRANCH   6  24
BRANCH   8  26
ATOM     26  O   UNL     1      47.083  10.876  -1.184  1.00  0.00    -0.508 OA
ATOM     27  H   UNL     1      47.752  10.495  -0.525  1.00  0.00     0.293 HD
ENDBRANCH   8  26
TORSDOF 6
ENDMDL
MODEL 9
REMARK VINA RESULT:    -2.732      2.317      3.467
REMARK INTER + INTRA:          -3.625
REMARK INTER:                  -3.341
REMARK INTRA:                  -0.285
REMARK UNBOUND:                -0.334
REMARK SMILES O=c1c(O)c(-c2ccc(O)c(O)c2)oc2cc(O)cc(O)c12
REMARK SMILES IDX 5 1 3 2 2 3 1 4 22 5 20 6 19 7 17 8 16 9 15 10 14 11 6 12
REMARK SMILES IDX 7 13 8 14 9 15 13 16 11 17 10 18 12 20 4 22 21 24 18 26
REMARK H PARENT 10 19 12 21 4 23 21 25 18 27
REMARK Flexibility Score: inf
ROOT
ATOM      1  C   UNL     1      43.488  18.346  -3.006  1.00  0.00     0.180 A 
ATOM      2  C   UNL     1      43.913  18.777  -4.275  1.00  0.00     0.208 A 
ATOM      3  C   UNL     1      44.876  18.022  -4.962  1.00  0.00     0.238 A 
ATOM      4  O   UNL     1      45.212  18.383  -6.120  1.00  0.00    -0.285 OA
ATOM      5  C   UNL     1      45.414  16.856  -4.367  1.00  0.00     0.111 A 
ATOM      6  C   UNL     1      46.424  16.038  -4.956  1.00  0.00     0.134 A 
ATOM      7  C   UNL     1      46.788  14.836  -4.337  1.00  0.00     0.093 A 
ATOM      8  C   UNL     1      46.225  14.455  -3.116  1.00  0.00     0.123 A 
ATOM      9  C   UNL     1      45.282  15.277  -2.504  1.00  0.00     0.094 A 
ATOM     10  C   UNL     1      44.871  16.464  -3.115  1.00  0.00     0.146 A 
ATOM     11  O   UNL     1      43.963  17.213  -2.503  1.00  0.00    -0.452 OA
ENDROOT
BRANCH   1  12
ATOM     12  C   UNL     1      42.494  19.102  -2.208  1.00  0.00     0.025 A 
ATOM     13  C   UNL     1      42.894  20.261  -1.524  1.00  0.00     0.016 A 
ATOM     14  C   UNL     1      41.969  21.000  -0.784  1.00  0.00     0.051 A 
ATOM     15  C   UNL     1      40.630  20.602  -0.726  1.00  0.00     0.157 A 
ATOM     16  C   UNL     1      41.143  18.715  -2.167  1.00  0.00     0.062 A 
ATOM     17  C   UNL     1      40.212  19.458  -1.425  1.00  0.00     0.158 A 
BRANCH  15  18
ATOM     18  O   UNL     1      39.729  21.359   0.023  1.00  0.00    -0.504 OA
ATOM     19  H   UNL     1      38.901  20.952   0.440  1.00  0.00     0.293 HD
ENDBRANCH  15  18
BRANCH  17  20
ATOM     20  O   UNL     1      38.875  19.063  -1.384  1.00  0.00    -0.504 OA
ATOM     21  H   UNL     1      38.219  19.330  -2.110  1.00  0.00     0.293 HD
ENDBRANCH  17  20
ENDBRANCH   1  12
BRANCH   2  22
ATOM     22  O   UNL     1      43.352  19.920  -4.853  1.00  0.00    -0.502 OA
ATOM     23  H   UNL     1      42.692  19.872  -5.620  1.00  0.00     0.293 HD
ENDBRANCH   2  22
BRANCH   6  24
ATOM     24  O   UNL     1      47.115  16.371  -6.125  1.00  0.00    -0.507 OA
ATOM     25  H   UNL     1      46.689  16.754  -6.956  1.00  0.00     0.293 HD
ENDBRANCH   6  24
BRANCH   8  26
ATOM     26  O   UNL     1      46.604  13.266  -2.499  1.00  0.00    -0.508 OA
ATOM     27  H   UNL     1      46.195  12.377  -2.763  1.00  0.00     0.293 HD
ENDBRANCH   8  26
TORSDOF 6
ENDMDL
