MODEL 1
REMARK VINA RESULT:    -3.498      0.000      0.000
REMARK INTER + INTRA:          -6.503
REMARK INTER:                  -5.339
REMARK INTRA:                  -1.165
REMARK UNBOUND:                -1.165
REMARK SMILES CCCCCCCCCCC(=O)[O-]
REMARK SMILES IDX 7 1 8 2 9 3 10 4 11 5 12 6 13 7 6 8 5 9 4 10 3 11 2 12 1 13
REMARK H PARENT
REMARK Flexibility Score: inf
ROOT
ATOM      1  C   UNL     1      74.829 -71.716  -3.653  1.00  0.00     0.000 C 
ENDROOT
BRANCH   1   2
ATOM      2  C   UNL     1      73.965 -72.872  -3.117  1.00  0.00     0.000 C 
BRANCH   2   3
ATOM      3  C   UNL     1      73.276 -72.599  -1.763  1.00  0.00     0.006 C 
BRANCH   3   4
ATOM      4  C   UNL     1      74.130 -71.807  -0.761  1.00  0.00     0.053 C 
BRANCH   4   5
ATOM      5  C   UNL     1      73.312 -70.819   0.012  1.00  0.00     0.041 C 
ATOM      6  O   UNL     1      73.830 -69.746   0.418  1.00  0.00    -0.550 OA
ATOM      7  O   UNL     1      71.985 -71.100   0.313  1.00  0.00    -0.550 OA
ENDBRANCH   4   5
ENDBRANCH   3   4
ENDBRANCH   2   3
ENDBRANCH   1   2
BRANCH   1   8
ATOM      8  C   UNL     1      76.284 -72.128  -3.914  1.00  0.00     0.000 C 
BRANCH   8   9
ATOM      9  C   UNL     1      76.492 -73.623  -3.638  1.00  0.00    -0.000 C 
BRANCH   9  10
ATOM     10  C   UNL     1      77.559 -73.840  -2.555  1.00  0.00    -0.000 C 
BRANCH  10  11
ATOM     11  C   UNL     1      77.285 -75.082  -1.693  1.00  0.00    -0.000 C 
BRANCH  11  12
ATOM     12  C   UNL     1      76.098 -74.889  -0.739  1.00  0.00    -0.003 C 
ATOM     13  C   UNL     1      75.033 -75.959  -0.964  1.00  0.00     0.004 C 
ENDBRANCH  11  12
ENDBRANCH  10  11
ENDBRANCH   9  10
ENDBRANCH   8   9
ENDBRANCH   1   8
TORSDOF 9
ENDMDL
MODEL 2
REMARK VINA RESULT:    -3.404      3.399      4.738
REMARK INTER + INTRA:          -6.360
REMARK INTER:                  -5.117
REMARK INTRA:                  -1.242
REMARK UNBOUND:                -1.165
REMARK SMILES CCCCCCCCCCC(=O)[O-]
REMARK SMILES IDX 7 1 8 2 9 3 10 4 11 5 12 6 13 7 6 8 5 9 4 10 3 11 2 12 1 13
REMARK H PARENT
REMARK Flexibility Score: inf
ROOT
ATOM      1  C   UNL     1      76.772 -72.510  -3.753  1.00  0.00     0.000 C 
ENDROOT
BRANCH   1   2
ATOM      2  C   UNL     1      76.428 -73.987  -4.014  1.00  0.00     0.000 C 
BRANCH   2   3
ATOM      3  C   UNL     1      77.452 -75.003  -3.469  1.00  0.00     0.006 C 
BRANCH   3   4
ATOM      4  C   UNL     1      77.919 -74.729  -2.030  1.00  0.00     0.053 C 
BRANCH   4   5
ATOM      5  C   UNL     1      78.001 -75.987  -1.220  1.00  0.00     0.041 C 
ATOM      6  O   UNL     1      77.336 -76.101  -0.157  1.00  0.00    -0.550 OA
ATOM      7  O   UNL     1      78.838 -77.019  -1.623  1.00  0.00    -0.550 OA
ENDBRANCH   4   5
ENDBRANCH   3   4
ENDBRANCH   2   3
ENDBRANCH   1   2
BRANCH   1   8
ATOM      8  C   UNL     1      75.535 -71.600  -3.737  1.00  0.00     0.000 C 
BRANCH   8   9
ATOM      9  C   UNL     1      74.352 -72.292  -3.047  1.00  0.00    -0.000 C 
BRANCH   9  10
ATOM     10  C   UNL     1      74.423 -72.115  -1.523  1.00  0.00    -0.000 C 
BRANCH  10  11
ATOM     11  C   UNL     1      74.653 -73.442  -0.783  1.00  0.00    -0.000 C 
BRANCH  11  12
ATOM     12  C   UNL     1      73.574 -74.489  -1.098  1.00  0.00    -0.003 C 
ATOM     13  C   UNL     1      74.198 -75.781  -1.615  1.00  0.00     0.004 C 
ENDBRANCH  11  12
ENDBRANCH  10  11
ENDBRANCH   9  10
ENDBRANCH   8   9
ENDBRANCH   1   8
TORSDOF 9
ENDMDL
MODEL 3
REMARK VINA RESULT:    -3.399      0.973      1.378
REMARK INTER + INTRA:          -6.352
REMARK INTER:                  -5.451
REMARK INTRA:                  -0.901
REMARK UNBOUND:                -1.165
REMARK SMILES CCCCCCCCCCC(=O)[O-]
REMARK SMILES IDX 7 1 8 2 9 3 10 4 11 5 12 6 13 7 6 8 5 9 4 10 3 11 2 12 1 13
REMARK H PARENT
REMARK Flexibility Score: inf
ROOT
ATOM      1  C   UNL     1      76.655 -72.568  -3.739  1.00  0.00     0.000 C 
ENDROOT
BRANCH   1   2
ATOM      2  C   UNL     1      75.326 -71.855  -3.434  1.00  0.00     0.000 C 
BRANCH   2   3
ATOM      3  C   UNL     1      74.300 -72.696  -2.646  1.00  0.00     0.006 C 
BRANCH   3   4
ATOM      4  C   UNL     1      74.376 -72.530  -1.120  1.00  0.00     0.053 C 
BRANCH   4   5
ATOM      5  C   UNL     1      73.516 -71.403  -0.637  1.00  0.00     0.041 C 
ATOM      6  O   UNL     1      74.042 -70.330  -0.238  1.00  0.00    -0.550 OA
ATOM      7  O   UNL     1      72.136 -71.550  -0.595  1.00  0.00    -0.550 OA
ENDBRANCH   4   5
ENDBRANCH   3   4
ENDBRANCH   2   3
ENDBRANCH   1   2
BRANCH   1   8
ATOM      8  C   UNL     1      76.473 -74.053  -4.083  1.00  0.00     0.000 C 
BRANCH   8   9
ATOM      9  C   UNL     1      77.686 -74.876  -3.629  1.00  0.00    -0.000 C 
BRANCH   9  10
ATOM     10  C   UNL     1      77.977 -74.650  -2.138  1.00  0.00    -0.000 C 
BRANCH  10  11
ATOM     11  C   UNL     1      78.116 -75.964  -1.355  1.00  0.00    -0.000 C 
BRANCH  11  12
ATOM     12  C   UNL     1      77.049 -76.117  -0.261  1.00  0.00    -0.003 C 
ATOM     13  C   UNL     1      75.647 -76.150  -0.862  1.00  0.00     0.004 C 
ENDBRANCH  11  12
ENDBRANCH  10  11
ENDBRANCH   9  10
ENDBRANCH   8   9
ENDBRANCH   1   8
TORSDOF 9
ENDMDL
MODEL 4
REMARK VINA RESULT:    -3.337      1.208      1.507
REMARK INTER + INTRA:          -6.258
REMARK INTER:                  -5.459
REMARK INTRA:                  -0.799
REMARK UNBOUND:                -1.165
REMARK SMILES CCCCCCCCCCC(=O)[O-]
REMARK SMILES IDX 7 1 8 2 9 3 10 4 11 5 12 6 13 7 6 8 5 9 4 10 3 11 2 12 1 13
REMARK H PARENT
REMARK Flexibility Score: inf
ROOT
ATOM      1  C   UNL     1      75.063 -73.371  -3.128  1.00  0.00     0.000 C 
ENDROOT
BRANCH   1   2
ATOM      2  C   UNL     1      74.711 -73.123  -1.651  1.00  0.00     0.000 C 
BRANCH   2   3
ATOM      3  C   UNL     1      74.215 -71.698  -1.328  1.00  0.00     0.006 C 
BRANCH   3   4
ATOM      4  C   UNL     1      72.872 -71.643  -0.583  1.00  0.00     0.053 C 
BRANCH   4   5
ATOM      5  C   UNL     1      72.813 -70.496   0.379  1.00  0.00     0.041 C 
ATOM      6  O   UNL     1      73.771 -69.682   0.455  1.00  0.00    -0.550 OA
ATOM      7  O   UNL     1      71.714 -70.347   1.215  1.00  0.00    -0.550 OA
ENDBRANCH   4   5
ENDBRANCH   3   4
ENDBRANCH   2   3
ENDBRANCH   1   2
BRANCH   1   8
ATOM      8  C   UNL     1      76.286 -72.568  -3.596  1.00  0.00     0.000 C 
BRANCH   8   9
ATOM      9  C   UNL     1      77.533 -73.458  -3.670  1.00  0.00    -0.000 C 
BRANCH   9  10
ATOM     10  C   UNL     1      77.155 -74.909  -4.002  1.00  0.00    -0.000 C 
BRANCH  10  11
ATOM     11  C   UNL     1      77.902 -75.930  -3.130  1.00  0.00    -0.000 C 
BRANCH  11  12
ATOM     12  C   UNL     1      78.200 -75.398  -1.721  1.00  0.00    -0.003 C 
ATOM     13  C   UNL     1      77.164 -75.893  -0.716  1.00  0.00     0.004 C 
ENDBRANCH  11  12
ENDBRANCH  10  11
ENDBRANCH   9  10
ENDBRANCH   8   9
ENDBRANCH   1   8
TORSDOF 9
ENDMDL
MODEL 5
REMARK VINA RESULT:    -3.322      2.198      3.621
REMARK INTER + INTRA:          -6.235
REMARK INTER:                  -4.888
REMARK INTRA:                  -1.346
REMARK UNBOUND:                -1.165
REMARK SMILES CCCCCCCCCCC(=O)[O-]
REMARK SMILES IDX 7 1 8 2 9 3 10 4 11 5 12 6 13 7 6 8 5 9 4 10 3 11 2 12 1 13
REMARK H PARENT
REMARK Flexibility Score: inf
ROOT
ATOM      1  C   UNL     1      77.874 -74.037  -2.247  1.00  0.00     0.000 C 
ENDROOT
BRANCH   1   2
ATOM      2  C   UNL     1      77.428 -73.975  -3.719  1.00  0.00     0.000 C 
BRANCH   2   3
ATOM      3  C   UNL     1      75.909 -73.814  -3.934  1.00  0.00     0.006 C 
BRANCH   3   4
ATOM      4  C   UNL     1      75.108 -73.535  -2.652  1.00  0.00     0.053 C 
BRANCH   4   5
ATOM      5  C   UNL     1      74.754 -72.086  -2.518  1.00  0.00     0.041 C 
ATOM      6  O   UNL     1      74.050 -71.691  -1.552  1.00  0.00    -0.550 OA
ATOM      7  O   UNL     1      75.175 -71.177  -3.481  1.00  0.00    -0.550 OA
ENDBRANCH   4   5
ENDBRANCH   3   4
ENDBRANCH   2   3
ENDBRANCH   1   2
BRANCH   1   8
ATOM      8  C   UNL     1      78.327 -75.440  -1.817  1.00  0.00     0.000 C 
BRANCH   8   9
ATOM      9  C   UNL     1      77.395 -76.013  -0.742  1.00  0.00    -0.000 C 
BRANCH   9  10
ATOM     10  C   UNL     1      76.698 -77.288  -1.241  1.00  0.00    -0.000 C 
BRANCH  10  11
ATOM     11  C   UNL     1      77.058 -77.628  -2.696  1.00  0.00    -0.000 C 
BRANCH  11  12
ATOM     12  C   UNL     1      75.853 -77.523  -3.643  1.00  0.00    -0.003 C 
ATOM     13  C   UNL     1      74.568 -77.247  -2.868  1.00  0.00     0.004 C 
ENDBRANCH  11  12
ENDBRANCH  10  11
ENDBRANCH   9  10
ENDBRANCH   8   9
ENDBRANCH   1   8
TORSDOF 9
ENDMDL
MODEL 6
REMARK VINA RESULT:    -3.314      2.794      5.151
REMARK INTER + INTRA:          -6.222
REMARK INTER:                  -5.650
REMARK INTRA:                  -0.572
REMARK UNBOUND:                -1.165
REMARK SMILES CCCCCCCCCCC(=O)[O-]
REMARK SMILES IDX 7 1 8 2 9 3 10 4 11 5 12 6 13 7 6 8 5 9 4 10 3 11 2 12 1 13
REMARK H PARENT
REMARK Flexibility Score: inf
ROOT
ATOM      1  C   UNL     1      75.884 -72.361  -4.051  1.00  0.00     0.000 C 
ENDROOT
BRANCH   1   2
ATOM      2  C   UNL     1      77.196 -72.841  -3.407  1.00  0.00     0.000 C 
BRANCH   2   3
ATOM      3  C   UNL     1      77.469 -74.354  -3.531  1.00  0.00     0.006 C 
BRANCH   3   4
ATOM      4  C   UNL     1      77.999 -75.015  -2.249  1.00  0.00     0.053 C 
BRANCH   4   5
ATOM      5  C   UNL     1      76.893 -75.602  -1.425  1.00  0.00     0.041 C 
ATOM      6  O   UNL     1      75.732 -75.701  -1.900  1.00  0.00    -0.550 OA
ATOM      7  O   UNL     1      77.140 -76.006  -0.119  1.00  0.00    -0.550 OA
ENDBRANCH   4   5
ENDBRANCH   3   4
ENDBRANCH   2   3
ENDBRANCH   1   2
BRANCH   1   8
ATOM      8  C   UNL     1      74.979 -71.599  -3.071  1.00  0.00     0.000 C 
BRANCH   8   9
ATOM      9  C   UNL     1      74.118 -72.568  -2.251  1.00  0.00    -0.000 C 
BRANCH   9  10
ATOM     10  C   UNL     1      74.155 -72.208  -0.758  1.00  0.00    -0.000 C 
BRANCH  10  11
ATOM     11  C   UNL     1      73.114 -71.143  -0.380  1.00  0.00    -0.000 C 
BRANCH  11  12
ATOM     12  C   UNL     1      73.736 -69.938   0.341  1.00  0.00    -0.003 C 
ATOM     13  C   UNL     1      72.806 -69.409   1.429  1.00  0.00     0.004 C 
ENDBRANCH  11  12
ENDBRANCH  10  11
ENDBRANCH   9  10
ENDBRANCH   8   9
ENDBRANCH   1   8
TORSDOF 9
ENDMDL
MODEL 7
REMARK VINA RESULT:    -3.314      3.349      4.594
REMARK INTER + INTRA:          -6.222
REMARK INTER:                  -4.967
REMARK INTRA:                  -1.255
REMARK UNBOUND:                -1.165
REMARK SMILES CCCCCCCCCCC(=O)[O-]
REMARK SMILES IDX 7 1 8 2 9 3 10 4 11 5 12 6 13 7 6 8 5 9 4 10 3 11 2 12 1 13
REMARK H PARENT
REMARK Flexibility Score: inf
ROOT
ATOM      1  C   UNL     1      75.474 -71.843  -3.810  1.00  0.00     0.000 C 
ENDROOT
BRANCH   1   2
ATOM      2  C   UNL     1      75.999 -73.278  -3.997  1.00  0.00     0.000 C 
BRANCH   2   3
ATOM      3  C   UNL     1      77.497 -73.471  -3.684  1.00  0.00     0.006 C 
BRANCH   3   4
ATOM      4  C   UNL     1      77.797 -73.905  -2.241  1.00  0.00     0.053 C 
BRANCH   4   5
ATOM      5  C   UNL     1      78.105 -75.369  -2.150  1.00  0.00     0.041 C 
ATOM      6  O   UNL     1      78.306 -75.906  -1.029  1.00  0.00    -0.550 OA
ATOM      7  O   UNL     1      78.203 -76.131  -3.307  1.00  0.00    -0.550 OA
ENDBRANCH   4   5
ENDBRANCH   3   4
ENDBRANCH   2   3
ENDBRANCH   1   2
BRANCH   1   8
ATOM      8  C   UNL     1      74.577 -71.690  -2.573  1.00  0.00     0.000 C 
BRANCH   8   9
ATOM      9  C   UNL     1      74.060 -73.054  -2.095  1.00  0.00    -0.000 C 
BRANCH   9  10
ATOM     10  C   UNL     1      74.531 -73.350  -0.664  1.00  0.00    -0.000 C 
BRANCH  10  11
ATOM     11  C   UNL     1      74.632 -74.856  -0.374  1.00  0.00    -0.000 C 
BRANCH  11  12
ATOM     12  C   UNL     1      74.499 -75.713  -1.641  1.00  0.00    -0.003 C 
ATOM     13  C   UNL     1      74.960 -77.145  -1.387  1.00  0.00     0.004 C 
ENDBRANCH  11  12
ENDBRANCH  10  11
ENDBRANCH   9  10
ENDBRANCH   8   9
ENDBRANCH   1   8
TORSDOF 9
ENDMDL
MODEL 8
REMARK VINA RESULT:    -3.222      2.031      2.798
REMARK INTER + INTRA:          -6.081
REMARK INTER:                  -4.902
REMARK INTRA:                  -1.179
REMARK UNBOUND:                -1.165
REMARK SMILES CCCCCCCCCCC(=O)[O-]
REMARK SMILES IDX 7 1 8 2 9 3 10 4 11 5 12 6 13 7 6 8 5 9 4 10 3 11 2 12 1 13
REMARK H PARENT
REMARK Flexibility Score: inf
ROOT
ATOM      1  C   UNL     1      75.054 -73.045  -3.282  1.00  0.00     0.000 C 
ENDROOT
BRANCH   1   2
ATOM      2  C   UNL     1      74.642 -72.661  -1.850  1.00  0.00     0.000 C 
BRANCH   2   3
ATOM      3  C   UNL     1      75.146 -73.615  -0.747  1.00  0.00     0.006 C 
BRANCH   3   4
ATOM      4  C   UNL     1      74.369 -74.936  -0.640  1.00  0.00     0.053 C 
BRANCH   4   5
ATOM      5  C   UNL     1      72.887 -74.719  -0.695  1.00  0.00     0.041 C 
ATOM      6  O   UNL     1      72.224 -75.121  -1.686  1.00  0.00    -0.550 OA
ATOM      7  O   UNL     1      72.246 -74.042   0.335  1.00  0.00    -0.550 OA
ENDBRANCH   4   5
ENDBRANCH   3   4
ENDBRANCH   2   3
ENDBRANCH   1   2
BRANCH   1   8
ATOM      8  C   UNL     1      76.361 -72.374  -3.729  1.00  0.00     0.000 C 
BRANCH   8   9
ATOM      9  C   UNL     1      77.526 -73.371  -3.712  1.00  0.00    -0.000 C 
BRANCH   9  10
ATOM     10  C   UNL     1      77.032 -74.799  -3.988  1.00  0.00    -0.000 C 
BRANCH  10  11
ATOM     11  C   UNL     1      77.854 -75.864  -3.245  1.00  0.00    -0.000 C 
BRANCH  11  12
ATOM     12  C   UNL     1      78.283 -75.407  -1.843  1.00  0.00    -0.003 C 
ATOM     13  C   UNL     1      77.763 -76.361  -0.771  1.00  0.00     0.004 C 
ENDBRANCH  11  12
ENDBRANCH  10  11
ENDBRANCH   9  10
ENDBRANCH   8   9
ENDBRANCH   1   8
TORSDOF 9
ENDMDL
MODEL 9
REMARK VINA RESULT:    -3.179      2.765      4.647
REMARK INTER + INTRA:          -6.016
REMARK INTER:                  -4.795
REMARK INTRA:                  -1.221
REMARK UNBOUND:                -1.165
REMARK SMILES CCCCCCCCCCC(=O)[O-]
REMARK SMILES IDX 7 1 8 2 9 3 10 4 11 5 12 6 13 7 6 8 5 9 4 10 3 11 2 12 1 13
REMARK H PARENT
REMARK Flexibility Score: inf
ROOT
ATOM      1  C   UNL     1      77.522 -73.976  -2.233  1.00  0.00     0.000 C 
ENDROOT
BRANCH   1   2
ATOM      2  C   UNL     1      78.272 -75.320  -2.197  1.00  0.00     0.000 C 
BRANCH   2   3
ATOM      3  C   UNL     1      77.794 -76.307  -1.113  1.00  0.00     0.006 C 
BRANCH   3   4
ATOM      4  C   UNL     1      76.596 -75.815  -0.285  1.00  0.00     0.053 C 
BRANCH   4   5
ATOM      5  C   UNL     1      75.324 -76.502  -0.677  1.00  0.00     0.041 C 
ATOM      6  O   UNL     1      74.279 -76.339   0.005  1.00  0.00    -0.550 OA
ATOM      7  O   UNL     1      75.304 -77.350  -1.777  1.00  0.00    -0.550 OA
ENDBRANCH   4   5
ENDBRANCH   3   4
ENDBRANCH   2   3
ENDBRANCH   1   2
BRANCH   1   8
ATOM      8  C   UNL     1      77.479 -73.351  -3.634  1.00  0.00     0.000 C 
BRANCH   8   9
ATOM      9  C   UNL     1      76.043 -72.983  -4.029  1.00  0.00    -0.000 C 
BRANCH   9  10
ATOM     10  C   UNL     1      75.095 -74.176  -3.833  1.00  0.00    -0.000 C 
BRANCH  10  11
ATOM     11  C   UNL     1      73.880 -73.830  -2.958  1.00  0.00    -0.000 C 
BRANCH  11  12
ATOM     12  C   UNL     1      74.062 -72.514  -2.188  1.00  0.00    -0.003 C 
ATOM     13  C   UNL     1      74.330 -72.775  -0.709  1.00  0.00     0.004 C 
ENDBRANCH  11  12
ENDBRANCH  10  11
ENDBRANCH   9  10
ENDBRANCH   8   9
ENDBRANCH   1   8
TORSDOF 9
ENDMDL
