MODEL 1
REMARK VINA RESULT:    -5.891      0.000      0.000
REMARK INTER + INTRA:         -10.175
REMARK INTER:                  -8.990
REMARK INTRA:                  -1.185
REMARK UNBOUND:                -1.185
REMARK SMILES OC[C@@H]1O[C@](CO)(O[C@@H]2O[C@H](CO)[C@@H](O)[C@@H](O)[C@@H]2O)[C@H](O)[C@H]1O
REMARK SMILES IDX 8 1 9 2 11 3 14 4 10 5 16 6 18 7 12 8 13 9 15 11 17 13 19 15
REMARK SMILES IDX 5 17 20 18 4 19 22 20 3 21 6 22 7 23 21 25 23 27 2 29 1 30
REMARK H PARENT 13 10 15 12 17 14 19 16 7 24 21 26 23 28 1 31
REMARK Flexibility Score: inf
ROOT
ATOM      1  O   UNL     1     119.496 144.536 132.919  1.00  0.00    -0.313 OA
ENDROOT
BRANCH   1   2
ATOM      2  C   UNL     1     118.455 145.373 133.409  1.00  0.00     0.285 C 
ATOM      3  C   UNL     1     117.779 144.174 135.393  1.00  0.00     0.178 C 
ATOM      4  C   UNL     1     116.482 143.678 134.700  1.00  0.00     0.177 C 
ATOM      5  O   UNL     1     118.364 145.347 134.829  1.00  0.00    -0.341 OA
ATOM      6  C   UNL     1     116.616 143.673 133.167  1.00  0.00     0.179 C 
ATOM      7  C   UNL     1     117.126 145.034 132.709  1.00  0.00     0.202 C 
BRANCH   3   8
ATOM      8  C   UNL     1     118.815 143.065 135.661  1.00  0.00     0.191 C 
BRANCH   8   9
ATOM      9  O   UNL     1     120.118 143.567 135.668  1.00  0.00    -0.394 OA
ATOM     10  H   UNL     1     120.678 142.874 136.128  1.00  0.00     0.210 HD
ENDBRANCH   8   9
ENDBRANCH   3   8
BRANCH   4  11
ATOM     11  O   UNL     1     115.411 144.503 135.093  1.00  0.00    -0.387 OA
ATOM     12  H   UNL     1     115.787 145.406 135.266  1.00  0.00     0.211 HD
ENDBRANCH   4  11
BRANCH   6  13
ATOM     13  O   UNL     1     115.374 143.413 132.564  1.00  0.00    -0.387 OA
ATOM     14  H   UNL     1     115.279 142.423 132.524  1.00  0.00     0.211 HD
ENDBRANCH   6  13
BRANCH   7  15
ATOM     15  O   UNL     1     117.291 145.030 131.314  1.00  0.00    -0.385 OA
ATOM     16  H   UNL     1     116.741 145.776 130.957  1.00  0.00     0.211 HD
ENDBRANCH   7  15
ENDBRANCH   1   2
BRANCH   1  17
ATOM     17  C   UNL     1     120.498 145.217 132.157  1.00  0.00     0.224 C 
ATOM     18  C   UNL     1     121.527 145.809 133.140  1.00  0.00     0.208 C 
ATOM     19  O   UNL     1     119.932 146.309 131.458  1.00  0.00    -0.337 OA
ATOM     20  C   UNL     1     121.935 147.120 132.493  1.00  0.00     0.180 C 
ATOM     21  C   UNL     1     120.927 147.304 131.353  1.00  0.00     0.179 C 
BRANCH  17  22
ATOM     22  C   UNL     1     121.234 144.251 131.165  1.00  0.00     0.225 C 
BRANCH  22  23
ATOM     23  O   UNL     1     122.495 143.867 131.653  1.00  0.00    -0.391 OA
ATOM     24  H   UNL     1     122.411 143.791 132.638  1.00  0.00     0.210 HD
ENDBRANCH  22  23
ENDBRANCH  17  22
BRANCH  18  25
ATOM     25  O   UNL     1     120.935 146.060 134.394  1.00  0.00    -0.385 OA
ATOM     26  H   UNL     1     121.472 146.771 134.830  1.00  0.00     0.211 HD
ENDBRANCH  18  25
BRANCH  20  27
ATOM     27  O   UNL     1     123.241 147.021 131.989  1.00  0.00    -0.387 OA
ATOM     28  H   UNL     1     123.795 147.661 132.511  1.00  0.00     0.211 HD
ENDBRANCH  20  27
BRANCH  21  29
ATOM     29  C   UNL     1     120.267 148.688 131.377  1.00  0.00     0.191 C 
BRANCH  29  30
ATOM     30  O   UNL     1     119.507 148.866 132.545  1.00  0.00    -0.394 OA
ATOM     31  H   UNL     1     119.687 149.787 132.867  1.00  0.00     0.210 HD
ENDBRANCH  29  30
ENDBRANCH  21  29
ENDBRANCH   1  17
TORSDOF 13
ENDMDL
MODEL 2
REMARK VINA RESULT:    -5.677      1.773      3.223
REMARK INTER + INTRA:          -9.850
REMARK INTER:                  -8.127
REMARK INTRA:                  -1.723
REMARK UNBOUND:                -1.185
REMARK SMILES OC[C@@H]1O[C@](CO)(O[C@@H]2O[C@H](CO)[C@@H](O)[C@@H](O)[C@@H]2O)[C@H](O)[C@H]1O
REMARK SMILES IDX 8 1 9 2 11 3 14 4 10 5 16 6 18 7 12 8 13 9 15 11 17 13 19 15
REMARK SMILES IDX 5 17 20 18 4 19 22 20 3 21 6 22 7 23 21 25 23 27 2 29 1 30
REMARK H PARENT 13 10 15 12 17 14 19 16 7 24 21 26 23 28 1 31
REMARK Flexibility Score: inf
ROOT
ATOM      1  O   UNL     1     119.205 144.355 134.443  1.00  0.00    -0.313 OA
ENDROOT
BRANCH   1   2
ATOM      2  C   UNL     1     118.484 143.237 133.935  1.00  0.00     0.285 C 
ATOM      3  C   UNL     1     117.136 144.282 132.226  1.00  0.00     0.178 C 
ATOM      4  C   UNL     1     115.862 144.171 133.106  1.00  0.00     0.177 C 
ATOM      5  O   UNL     1     118.185 143.372 132.550  1.00  0.00    -0.341 OA
ATOM      6  C   UNL     1     116.207 144.071 134.603  1.00  0.00     0.179 C 
ATOM      7  C   UNL     1     117.240 142.969 134.802  1.00  0.00     0.202 C 
BRANCH   3   8
ATOM      8  C   UNL     1     117.643 145.725 132.029  1.00  0.00     0.191 C 
BRANCH   8   9
ATOM      9  O   UNL     1     118.997 145.754 131.689  1.00  0.00    -0.394 OA
ATOM     10  H   UNL     1     119.452 146.272 132.417  1.00  0.00     0.210 HD
ENDBRANCH   8   9
ENDBRANCH   3   8
BRANCH   4  11
ATOM     11  O   UNL     1     115.124 143.044 132.699  1.00  0.00    -0.387 OA
ATOM     12  H   UNL     1     114.444 143.361 132.049  1.00  0.00     0.211 HD
ENDBRANCH   4  11
BRANCH   6  13
ATOM     13  O   UNL     1     115.057 143.773 135.354  1.00  0.00    -0.387 OA
ATOM     14  H   UNL     1     115.298 143.912 136.309  1.00  0.00     0.211 HD
ENDBRANCH   6  13
BRANCH   7  15
ATOM     15  O   UNL     1     117.593 142.894 136.160  1.00  0.00    -0.385 OA
ATOM     16  H   UNL     1     117.077 142.140 136.549  1.00  0.00     0.211 HD
ENDBRANCH   7  15
ENDBRANCH   1   2
BRANCH   1  17
ATOM     17  C   UNL     1     120.625 144.269 134.283  1.00  0.00     0.224 C 
ATOM     18  C   UNL     1     121.221 145.666 134.546  1.00  0.00     0.208 C 
ATOM     19  O   UNL     1     120.954 143.934 132.948  1.00  0.00    -0.337 OA
ATOM     20  C   UNL     1     122.382 145.755 133.571  1.00  0.00     0.180 C 
ATOM     21  C   UNL     1     122.193 144.541 132.654  1.00  0.00     0.179 C 
BRANCH  17  22
ATOM     22  C   UNL     1     121.264 143.243 135.281  1.00  0.00     0.225 C 
BRANCH  22  23
ATOM     23  O   UNL     1     122.099 143.877 136.217  1.00  0.00    -0.391 OA
ATOM     24  H   UNL     1     122.334 144.762 135.838  1.00  0.00     0.210 HD
ENDBRANCH  22  23
ENDBRANCH  17  22
BRANCH  18  25
ATOM     25  O   UNL     1     120.281 146.675 134.262  1.00  0.00    -0.385 OA
ATOM     26  H   UNL     1     120.753 147.372 133.737  1.00  0.00     0.211 HD
ENDBRANCH  18  25
BRANCH  20  27
ATOM     27  O   UNL     1     123.599 145.669 134.264  1.00  0.00    -0.387 OA
ATOM     28  H   UNL     1     123.372 145.500 135.217  1.00  0.00     0.211 HD
ENDBRANCH  20  27
BRANCH  21  29
ATOM     29  C   UNL     1     122.234 144.922 131.169  1.00  0.00     0.191 C 
BRANCH  29  30
ATOM     30  O   UNL     1     121.821 146.250 130.976  1.00  0.00    -0.394 OA
ATOM     31  H   UNL     1     121.640 146.628 131.874  1.00  0.00     0.210 HD
ENDBRANCH  29  30
ENDBRANCH  21  29
ENDBRANCH   1  17
TORSDOF 13
ENDMDL
MODEL 3
REMARK VINA RESULT:    -5.142      1.215      2.508
REMARK INTER + INTRA:          -9.033
REMARK INTER:                  -7.659
REMARK INTRA:                  -1.374
REMARK UNBOUND:                -1.185
REMARK SMILES OC[C@@H]1O[C@](CO)(O[C@@H]2O[C@H](CO)[C@@H](O)[C@@H](O)[C@@H]2O)[C@H](O)[C@H]1O
REMARK SMILES IDX 8 1 9 2 11 3 14 4 10 5 16 6 18 7 12 8 13 9 15 11 17 13 19 15
REMARK SMILES IDX 5 17 20 18 4 19 22 20 3 21 6 22 7 23 21 25 23 27 2 29 1 30
REMARK H PARENT 13 10 15 12 17 14 19 16 7 24 21 26 23 28 1 31
REMARK Flexibility Score: inf
ROOT
ATOM      1  O   UNL     1     119.007 144.948 132.910  1.00  0.00    -0.313 OA
ENDROOT
BRANCH   1   2
ATOM      2  C   UNL     1     117.767 145.406 133.437  1.00  0.00     0.285 C 
ATOM      3  C   UNL     1     117.322 143.734 135.121  1.00  0.00     0.178 C 
ATOM      4  C   UNL     1     116.225 143.079 134.240  1.00  0.00     0.177 C 
ATOM      5  O   UNL     1     117.619 145.096 134.819  1.00  0.00    -0.341 OA
ATOM      6  C   UNL     1     116.428 143.391 132.746  1.00  0.00     0.179 C 
ATOM      7  C   UNL     1     116.600 144.895 132.572  1.00  0.00     0.202 C 
BRANCH   3   8
ATOM      8  C   UNL     1     118.590 142.875 135.293  1.00  0.00     0.191 C 
BRANCH   8   9
ATOM      9  O   UNL     1     119.702 143.655 135.618  1.00  0.00    -0.394 OA
ATOM     10  H   UNL     1     119.439 144.604 135.425  1.00  0.00     0.210 HD
ENDBRANCH   8   9
ENDBRANCH   3   8
BRANCH   4  11
ATOM     11  O   UNL     1     114.964 143.537 134.666  1.00  0.00    -0.387 OA
ATOM     12  H   UNL     1     115.017 144.527 134.721  1.00  0.00     0.211 HD
ENDBRANCH   4  11
BRANCH   6  13
ATOM     13  O   UNL     1     115.321 142.958 131.998  1.00  0.00    -0.387 OA
ATOM     14  H   UNL     1     115.431 143.333 131.083  1.00  0.00     0.211 HD
ENDBRANCH   6  13
BRANCH   7  15
ATOM     15  O   UNL     1     116.826 145.189 131.217  1.00  0.00    -0.385 OA
ATOM     16  H   UNL     1     116.156 145.873 130.956  1.00  0.00     0.211 HD
ENDBRANCH   7  15
ENDBRANCH   1   2
BRANCH   1  17
ATOM     17  C   UNL     1     120.077 145.894 132.998  1.00  0.00     0.224 C 
ATOM     18  C   UNL     1     121.253 145.367 132.153  1.00  0.00     0.208 C 
ATOM     19  O   UNL     1     120.547 145.989 134.329  1.00  0.00    -0.337 OA
ATOM     20  C   UNL     1     122.482 145.802 132.929  1.00  0.00     0.180 C 
ATOM     21  C   UNL     1     121.923 146.292 134.270  1.00  0.00     0.179 C 
BRANCH  17  22
ATOM     22  C   UNL     1     119.653 147.306 132.463  1.00  0.00     0.225 C 
BRANCH  22  23
ATOM     23  O   UNL     1     119.289 147.260 131.106  1.00  0.00    -0.391 OA
ATOM     24  H   UNL     1     118.418 147.727 131.027  1.00  0.00     0.210 HD
ENDBRANCH  22  23
ENDBRANCH  17  22
BRANCH  18  25
ATOM     25  O   UNL     1     121.216 143.962 132.064  1.00  0.00    -0.385 OA
ATOM     26  H   UNL     1     120.424 143.726 131.515  1.00  0.00     0.211 HD
ENDBRANCH  18  25
BRANCH  20  27
ATOM     27  O   UNL     1     123.134 146.844 132.253  1.00  0.00    -0.387 OA
ATOM     28  H   UNL     1     122.487 147.199 131.587  1.00  0.00     0.211 HD
ENDBRANCH  20  27
BRANCH  21  29
ATOM     29  C   UNL     1     122.638 145.651 135.467  1.00  0.00     0.191 C 
BRANCH  29  30
ATOM     30  O   UNL     1     124.027 145.836 135.384  1.00  0.00    -0.394 OA
ATOM     31  H   UNL     1     124.397 145.637 136.282  1.00  0.00     0.210 HD
ENDBRANCH  29  30
ENDBRANCH  21  29
ENDBRANCH   1  17
TORSDOF 13
ENDMDL
MODEL 4
REMARK VINA RESULT:    -4.916      1.509      5.662
REMARK INTER + INTRA:          -8.687
REMARK INTER:                  -7.673
REMARK INTRA:                  -1.015
REMARK UNBOUND:                -1.185
REMARK SMILES OC[C@@H]1O[C@](CO)(O[C@@H]2O[C@H](CO)[C@@H](O)[C@@H](O)[C@@H]2O)[C@H](O)[C@H]1O
REMARK SMILES IDX 8 1 9 2 11 3 14 4 10 5 16 6 18 7 12 8 13 9 15 11 17 13 19 15
REMARK SMILES IDX 5 17 20 18 4 19 22 20 3 21 6 22 7 23 21 25 23 27 2 29 1 30
REMARK H PARENT 13 10 15 12 17 14 19 16 7 24 21 26 23 28 1 31
REMARK Flexibility Score: inf
ROOT
ATOM      1  O   UNL     1     119.292 144.970 132.980  1.00  0.00    -0.313 OA
ENDROOT
BRANCH   1   2
ATOM      2  C   UNL     1     120.091 145.079 131.807  1.00  0.00     0.285 C 
ATOM      3  C   UNL     1     122.295 145.335 132.762  1.00  0.00     0.178 C 
ATOM      4  C   UNL     1     122.316 146.846 132.409  1.00  0.00     0.177 C 
ATOM      5  O   UNL     1     121.396 144.539 131.991  1.00  0.00    -0.341 OA
ATOM      6  C   UNL     1     120.896 147.420 132.258  1.00  0.00     0.179 C 
ATOM      7  C   UNL     1     120.102 146.535 131.305  1.00  0.00     0.202 C 
BRANCH   3   8
ATOM      8  C   UNL     1     122.202 145.041 134.272  1.00  0.00     0.191 C 
BRANCH   8   9
ATOM      9  O   UNL     1     123.271 145.602 134.974  1.00  0.00    -0.394 OA
ATOM     10  H   UNL     1     123.211 146.592 134.820  1.00  0.00     0.210 HD
ENDBRANCH   8   9
ENDBRANCH   3   8
BRANCH   4  11
ATOM     11  O   UNL     1     123.044 147.026 131.218  1.00  0.00    -0.387 OA
ATOM     12  H   UNL     1     122.393 146.986 130.470  1.00  0.00     0.211 HD
ENDBRANCH   4  11
BRANCH   6  13
ATOM     13  O   UNL     1     120.945 148.728 131.748  1.00  0.00    -0.387 OA
ATOM     14  H   UNL     1     121.862 148.857 131.383  1.00  0.00     0.211 HD
ENDBRANCH   6  13
BRANCH   7  15
ATOM     15  O   UNL     1     118.791 147.025 131.189  1.00  0.00    -0.385 OA
ATOM     16  H   UNL     1     118.499 146.849 130.256  1.00  0.00     0.211 HD
ENDBRANCH   7  15
ENDBRANCH   1   2
BRANCH   1  17
ATOM     17  C   UNL     1     118.274 143.965 132.914  1.00  0.00     0.224 C 
ATOM     18  C   UNL     1     116.919 144.669 132.704  1.00  0.00     0.208 C 
ATOM     19  O   UNL     1     118.183 143.271 134.143  1.00  0.00    -0.337 OA
ATOM     20  C   UNL     1     115.942 143.820 133.496  1.00  0.00     0.180 C 
ATOM     21  C   UNL     1     116.839 142.876 134.306  1.00  0.00     0.179 C 
BRANCH  17  22
ATOM     22  C   UNL     1     118.519 142.962 131.734  1.00  0.00     0.225 C 
BRANCH  22  23
ATOM     23  O   UNL     1     117.409 142.888 130.875  1.00  0.00    -0.391 OA
ATOM     24  H   UNL     1     117.530 142.076 130.319  1.00  0.00     0.210 HD
ENDBRANCH  22  23
ENDBRANCH  17  22
BRANCH  18  25
ATOM     25  O   UNL     1     116.947 145.977 133.226  1.00  0.00    -0.385 OA
ATOM     26  H   UNL     1     117.231 146.577 132.489  1.00  0.00     0.211 HD
ENDBRANCH  18  25
BRANCH  20  27
ATOM     27  O   UNL     1     115.118 143.094 132.623  1.00  0.00    -0.387 OA
ATOM     28  H   UNL     1     115.696 142.408 132.193  1.00  0.00     0.211 HD
ENDBRANCH  20  27
BRANCH  21  29
ATOM     29  C   UNL     1     116.484 142.875 135.798  1.00  0.00     0.191 C 
BRANCH  29  30
ATOM     30  O   UNL     1     115.095 142.954 135.988  1.00  0.00    -0.394 OA
ATOM     31  H   UNL     1     114.766 142.024 136.089  1.00  0.00     0.210 HD
ENDBRANCH  29  30
ENDBRANCH  21  29
ENDBRANCH   1  17
TORSDOF 13
ENDMDL
MODEL 5
REMARK VINA RESULT:    -3.774      1.840      5.516
REMARK INTER + INTRA:          -6.945
REMARK INTER:                  -5.822
REMARK INTRA:                  -1.123
REMARK UNBOUND:                -1.185
REMARK SMILES OC[C@@H]1O[C@](CO)(O[C@@H]2O[C@H](CO)[C@@H](O)[C@@H](O)[C@@H]2O)[C@H](O)[C@H]1O
REMARK SMILES IDX 8 1 9 2 11 3 14 4 10 5 16 6 18 7 12 8 13 9 15 11 17 13 19 15
REMARK SMILES IDX 5 17 20 18 4 19 22 20 3 21 6 22 7 23 21 25 23 27 2 29 1 30
REMARK H PARENT 13 10 15 12 17 14 19 16 7 24 21 26 23 28 1 31
REMARK Flexibility Score: inf
ROOT
ATOM      1  O   UNL     1     119.060 144.764 132.737  1.00  0.00    -0.313 OA
ENDROOT
BRANCH   1   2
ATOM      2  C   UNL     1     119.216 145.157 134.096  1.00  0.00     0.285 C 
ATOM      3  C   UNL     1     120.362 147.268 133.847  1.00  0.00     0.178 C 
ATOM      4  C   UNL     1     121.703 146.641 134.312  1.00  0.00     0.177 C 
ATOM      5  O   UNL     1     119.186 146.572 134.255  1.00  0.00    -0.341 OA
ATOM      6  C   UNL     1     121.731 145.118 134.092  1.00  0.00     0.179 C 
ATOM      7  C   UNL     1     120.475 144.505 134.697  1.00  0.00     0.202 C 
BRANCH   3   8
ATOM      8  C   UNL     1     120.333 147.658 132.356  1.00  0.00     0.191 C 
BRANCH   8   9
ATOM      9  O   UNL     1     119.035 147.942 131.922  1.00  0.00    -0.394 OA
ATOM     10  H   UNL     1     118.931 148.937 131.999  1.00  0.00     0.210 HD
ENDBRANCH   8   9
ENDBRANCH   3   8
BRANCH   4  11
ATOM     11  O   UNL     1     121.897 146.940 135.674  1.00  0.00    -0.387 OA
ATOM     12  H   UNL     1     122.181 146.099 136.119  1.00  0.00     0.211 HD
ENDBRANCH   4  11
BRANCH   6  13
ATOM     13  O   UNL     1     122.865 144.553 134.699  1.00  0.00    -0.387 OA
ATOM     14  H   UNL     1     123.178 143.826 134.096  1.00  0.00     0.211 HD
ENDBRANCH   6  13
BRANCH   7  15
ATOM     15  O   UNL     1     120.469 143.119 134.467  1.00  0.00    -0.385 OA
ATOM     16  H   UNL     1     120.732 142.686 135.321  1.00  0.00     0.211 HD
ENDBRANCH   7  15
ENDBRANCH   1   2
BRANCH   1  17
ATOM     17  C   UNL     1     117.972 143.864 132.500  1.00  0.00     0.224 C 
ATOM     18  C   UNL     1     116.728 144.702 132.144  1.00  0.00     0.208 C 
ATOM     19  O   UNL     1     117.653 143.150 133.679  1.00  0.00    -0.337 OA
ATOM     20  C   UNL     1     115.579 143.930 132.769  1.00  0.00     0.180 C 
ATOM     21  C   UNL     1     116.269 142.882 133.649  1.00  0.00     0.179 C 
BRANCH  17  22
ATOM     22  C   UNL     1     118.278 142.875 131.323  1.00  0.00     0.225 C 
BRANCH  22  23
ATOM     23  O   UNL     1     119.604 142.994 130.875  1.00  0.00    -0.391 OA
ATOM     24  H   UNL     1     119.889 142.092 130.578  1.00  0.00     0.210 HD
ENDBRANCH  22  23
ENDBRANCH  17  22
BRANCH  18  25
ATOM     25  O   UNL     1     116.807 145.986 132.717  1.00  0.00    -0.385 OA
ATOM     26  H   UNL     1     117.744 146.294 132.610  1.00  0.00     0.211 HD
ENDBRANCH  18  25
BRANCH  20  27
ATOM     27  O   UNL     1     114.815 143.311 131.768  1.00  0.00    -0.387 OA
ATOM     28  H   UNL     1     115.438 142.730 131.254  1.00  0.00     0.211 HD
ENDBRANCH  20  27
BRANCH  21  29
ATOM     29  C   UNL     1     115.721 142.875 135.082  1.00  0.00     0.191 C 
BRANCH  29  30
ATOM     30  O   UNL     1     115.152 144.116 135.412  1.00  0.00    -0.394 OA
ATOM     31  H   UNL     1     115.413 144.751 134.697  1.00  0.00     0.210 HD
ENDBRANCH  29  30
ENDBRANCH  21  29
ENDBRANCH   1  17
TORSDOF 13
ENDMDL
MODEL 6
REMARK VINA RESULT:    -3.660      1.179      2.626
REMARK INTER + INTRA:          -6.772
REMARK INTER:                  -6.719
REMARK INTRA:                  -0.052
REMARK UNBOUND:                -1.185
REMARK SMILES OC[C@@H]1O[C@](CO)(O[C@@H]2O[C@H](CO)[C@@H](O)[C@@H](O)[C@@H]2O)[C@H](O)[C@H]1O
REMARK SMILES IDX 8 1 9 2 11 3 14 4 10 5 16 6 18 7 12 8 13 9 15 11 17 13 19 15
REMARK SMILES IDX 5 17 20 18 4 19 22 20 3 21 6 22 7 23 21 25 23 27 2 29 1 30
REMARK H PARENT 13 10 15 12 17 14 19 16 7 24 21 26 23 28 1 31
REMARK Flexibility Score: inf
ROOT
ATOM      1  O   UNL     1     120.296 144.656 133.935  1.00  0.00    -0.313 OA
ENDROOT
BRANCH   1   2
ATOM      2  C   UNL     1     119.511 143.476 133.810  1.00  0.00     0.285 C 
ATOM      3  C   UNL     1     117.329 144.406 133.357  1.00  0.00     0.178 C 
ATOM      4  C   UNL     1     116.844 144.073 134.793  1.00  0.00     0.177 C 
ATOM      5  O   UNL     1     118.436 143.637 132.890  1.00  0.00    -0.341 OA
ATOM      6  C   UNL     1     118.018 143.945 135.780  1.00  0.00     0.179 C 
ATOM      7  C   UNL     1     119.054 142.991 135.198  1.00  0.00     0.202 C 
BRANCH   3   8
ATOM      8  C   UNL     1     117.497 145.914 133.082  1.00  0.00     0.191 C 
BRANCH   8   9
ATOM      9  O   UNL     1     117.358 146.210 131.724  1.00  0.00    -0.394 OA
ATOM     10  H   UNL     1     117.590 145.366 131.234  1.00  0.00     0.210 HD
ENDBRANCH   8   9
ENDBRANCH   3   8
BRANCH   4  11
ATOM     11  O   UNL     1     116.105 142.875 134.757  1.00  0.00    -0.387 OA
ATOM     12  H   UNL     1     116.344 142.361 135.572  1.00  0.00     0.211 HD
ENDBRANCH   4  11
BRANCH   6  13
ATOM     13  O   UNL     1     117.571 143.451 137.016  1.00  0.00    -0.387 OA
ATOM     14  H   UNL     1     117.265 142.518 136.856  1.00  0.00     0.211 HD
ENDBRANCH   6  13
BRANCH   7  15
ATOM     15  O   UNL     1     120.150 142.897 136.072  1.00  0.00    -0.385 OA
ATOM     16  H   UNL     1     119.877 143.330 136.923  1.00  0.00     0.211 HD
ENDBRANCH   7  15
ENDBRANCH   1   2
BRANCH   1  17
ATOM     17  C   UNL     1     120.817 145.157 132.699  1.00  0.00     0.224 C 
ATOM     18  C   UNL     1     122.213 145.750 132.974  1.00  0.00     0.208 C 
ATOM     19  O   UNL     1     120.015 146.219 132.218  1.00  0.00    -0.337 OA
ATOM     20  C   UNL     1     122.292 146.943 132.038  1.00  0.00     0.180 C 
ATOM     21  C   UNL     1     120.861 147.100 131.512  1.00  0.00     0.179 C 
BRANCH  17  22
ATOM     22  C   UNL     1     120.943 144.029 131.618  1.00  0.00     0.225 C 
BRANCH  22  23
ATOM     23  O   UNL     1     122.284 143.789 131.271  1.00  0.00    -0.391 OA
ATOM     24  H   UNL     1     122.543 142.935 131.701  1.00  0.00     0.210 HD
ENDBRANCH  22  23
ENDBRANCH  17  22
BRANCH  18  25
ATOM     25  O   UNL     1     122.319 146.185 134.310  1.00  0.00    -0.385 OA
ATOM     26  H   UNL     1     122.115 145.403 134.886  1.00  0.00     0.211 HD
ENDBRANCH  18  25
BRANCH  20  27
ATOM     27  O   UNL     1     123.180 146.670 130.986  1.00  0.00    -0.387 OA
ATOM     28  H   UNL     1     123.072 145.706 130.767  1.00  0.00     0.211 HD
ENDBRANCH  20  27
BRANCH  21  29
ATOM     29  C   UNL     1     120.340 148.535 131.662  1.00  0.00     0.191 C 
BRANCH  29  30
ATOM     30  O   UNL     1     119.027 148.650 131.177  1.00  0.00    -0.394 OA
ATOM     31  H   UNL     1     118.465 148.947 131.938  1.00  0.00     0.210 HD
ENDBRANCH  29  30
ENDBRANCH  21  29
ENDBRANCH   1  17
TORSDOF 13
ENDMDL
MODEL 7
REMARK VINA RESULT:    -3.629      1.906      5.167
REMARK INTER + INTRA:          -6.723
REMARK INTER:                  -5.461
REMARK INTRA:                  -1.262
REMARK UNBOUND:                -1.185
REMARK SMILES OC[C@@H]1O[C@](CO)(O[C@@H]2O[C@H](CO)[C@@H](O)[C@@H](O)[C@@H]2O)[C@H](O)[C@H]1O
REMARK SMILES IDX 8 1 9 2 11 3 14 4 10 5 16 6 18 7 12 8 13 9 15 11 17 13 19 15
REMARK SMILES IDX 5 17 20 18 4 19 22 20 3 21 6 22 7 23 21 25 23 27 2 29 1 30
REMARK H PARENT 13 10 15 12 17 14 19 16 7 24 21 26 23 28 1 31
REMARK Flexibility Score: inf
ROOT
ATOM      1  O   UNL     1     119.577 143.612 134.100  1.00  0.00    -0.313 OA
ENDROOT
BRANCH   1   2
ATOM      2  C   UNL     1     119.849 144.627 135.059  1.00  0.00     0.285 C 
ATOM      3  C   UNL     1     121.774 145.703 134.075  1.00  0.00     0.178 C 
ATOM      4  C   UNL     1     122.722 145.051 135.117  1.00  0.00     0.177 C 
ATOM      5  O   UNL     1     120.405 145.796 134.466  1.00  0.00    -0.341 OA
ATOM      6  C   UNL     1     122.120 143.766 135.714  1.00  0.00     0.179 C 
ATOM      7  C   UNL     1     120.708 144.060 136.205  1.00  0.00     0.202 C 
BRANCH   3   8
ATOM      8  C   UNL     1     121.946 145.164 132.641  1.00  0.00     0.191 C 
BRANCH   8   9
ATOM      9  O   UNL     1     120.865 145.509 131.827  1.00  0.00    -0.394 OA
ATOM     10  H   UNL     1     120.664 146.471 132.030  1.00  0.00     0.210 HD
ENDBRANCH   8   9
ENDBRANCH   3   8
BRANCH   4  11
ATOM     11  O   UNL     1     122.988 145.984 136.137  1.00  0.00    -0.387 OA
ATOM     12  H   UNL     1     122.349 145.801 136.873  1.00  0.00     0.211 HD
ENDBRANCH   4  11
BRANCH   6  13
ATOM     13  O   UNL     1     122.902 143.310 136.788  1.00  0.00    -0.387 OA
ATOM     14  H   UNL     1     123.389 142.505 136.464  1.00  0.00     0.211 HD
ENDBRANCH   6  13
BRANCH   7  15
ATOM     15  O   UNL     1     120.134 142.884 136.716  1.00  0.00    -0.385 OA
ATOM     16  H   UNL     1     119.886 143.073 137.659  1.00  0.00     0.211 HD
ENDBRANCH   7  15
ENDBRANCH   1   2
BRANCH   1  17
ATOM     17  C   UNL     1     118.315 143.742 133.438  1.00  0.00     0.224 C 
ATOM     18  C   UNL     1     118.389 142.965 132.109  1.00  0.00     0.208 C 
ATOM     19  O   UNL     1     118.069 145.094 133.102  1.00  0.00    -0.337 OA
ATOM     20  C   UNL     1     117.554 143.798 131.153  1.00  0.00     0.180 C 
ATOM     21  C   UNL     1     117.300 145.102 131.919  1.00  0.00     0.179 C 
BRANCH  17  22
ATOM     22  C   UNL     1     117.140 143.167 134.302  1.00  0.00     0.225 C 
BRANCH  22  23
ATOM     23  O   UNL     1     116.890 143.962 135.434  1.00  0.00    -0.391 OA
ATOM     24  H   UNL     1     117.691 144.530 135.569  1.00  0.00     0.210 HD
ENDBRANCH  22  23
ENDBRANCH  17  22
BRANCH  18  25
ATOM     25  O   UNL     1     119.717 142.893 131.643  1.00  0.00    -0.385 OA
ATOM     26  H   UNL     1     120.241 142.414 132.335  1.00  0.00     0.211 HD
ENDBRANCH  18  25
BRANCH  20  27
ATOM     27  O   UNL     1     116.345 143.143 130.875  1.00  0.00    -0.387 OA
ATOM     28  H   UNL     1     116.153 142.558 131.656  1.00  0.00     0.211 HD
ENDBRANCH  20  27
BRANCH  21  29
ATOM     29  C   UNL     1     117.655 146.342 131.089  1.00  0.00     0.191 C 
BRANCH  29  30
ATOM     30  O   UNL     1     118.513 147.197 131.799  1.00  0.00    -0.394 OA
ATOM     31  H   UNL     1     117.958 147.945 132.139  1.00  0.00     0.210 HD
ENDBRANCH  29  30
ENDBRANCH  21  29
ENDBRANCH   1  17
TORSDOF 13
ENDMDL
MODEL 8
REMARK VINA RESULT:    -3.244      1.954      5.331
REMARK INTER + INTRA:          -6.137
REMARK INTER:                  -5.740
REMARK INTRA:                  -0.397
REMARK UNBOUND:                -1.185
REMARK SMILES OC[C@@H]1O[C@](CO)(O[C@@H]2O[C@H](CO)[C@@H](O)[C@@H](O)[C@@H]2O)[C@H](O)[C@H]1O
REMARK SMILES IDX 8 1 9 2 11 3 14 4 10 5 16 6 18 7 12 8 13 9 15 11 17 13 19 15
REMARK SMILES IDX 5 17 20 18 4 19 22 20 3 21 6 22 7 23 21 25 23 27 2 29 1 30
REMARK H PARENT 13 10 15 12 17 14 19 16 7 24 21 26 23 28 1 31
REMARK Flexibility Score: inf
ROOT
ATOM      1  O   UNL     1     119.225 144.767 133.882  1.00  0.00    -0.313 OA
ENDROOT
BRANCH   1   2
ATOM      2  C   UNL     1     120.473 145.073 133.270  1.00  0.00     0.285 C 
ATOM      3  C   UNL     1     121.998 143.808 134.650  1.00  0.00     0.178 C 
ATOM      4  C   UNL     1     122.501 145.100 135.349  1.00  0.00     0.177 C 
ATOM      5  O   UNL     1     121.401 143.998 133.368  1.00  0.00    -0.341 OA
ATOM      6  C   UNL     1     121.465 146.235 135.269  1.00  0.00     0.179 C 
ATOM      7  C   UNL     1     121.022 146.402 133.820  1.00  0.00     0.202 C 
BRANCH   3   8
ATOM      8  C   UNL     1     121.168 142.881 135.560  1.00  0.00     0.191 C 
BRANCH   8   9
ATOM      9  O   UNL     1     121.480 143.066 136.908  1.00  0.00    -0.394 OA
ATOM     10  H   UNL     1     120.930 142.396 137.413  1.00  0.00     0.210 HD
ENDBRANCH   8   9
ENDBRANCH   3   8
BRANCH   4  11
ATOM     11  O   UNL     1     123.711 145.500 134.750  1.00  0.00    -0.387 OA
ATOM     12  H   UNL     1     124.443 145.226 135.362  1.00  0.00     0.211 HD
ENDBRANCH   4  11
BRANCH   6  13
ATOM     13  O   UNL     1     122.020 147.441 135.729  1.00  0.00    -0.387 OA
ATOM     14  H   UNL     1     122.170 148.010 134.926  1.00  0.00     0.211 HD
ENDBRANCH   6  13
BRANCH   7  15
ATOM     15  O   UNL     1     120.047 147.410 133.740  1.00  0.00    -0.385 OA
ATOM     16  H   UNL     1     120.378 148.174 134.280  1.00  0.00     0.211 HD
ENDBRANCH   7  15
ENDBRANCH   1   2
BRANCH   1  17
ATOM     17  C   UNL     1     118.398 143.872 133.131  1.00  0.00     0.224 C 
ATOM     18  C   UNL     1     117.494 144.715 132.210  1.00  0.00     0.208 C 
ATOM     19  O   UNL     1     117.537 143.152 133.992  1.00  0.00    -0.337 OA
ATOM     20  C   UNL     1     116.187 143.944 132.177  1.00  0.00     0.180 C 
ATOM     21  C   UNL     1     116.350 142.889 133.278  1.00  0.00     0.179 C 
BRANCH  17  22
ATOM     22  C   UNL     1     119.248 142.888 132.255  1.00  0.00     0.225 C 
BRANCH  22  23
ATOM     23  O   UNL     1     118.904 142.974 130.894  1.00  0.00    -0.391 OA
ATOM     24  H   UNL     1     118.319 142.199 130.697  1.00  0.00     0.210 HD
ENDBRANCH  22  23
ENDBRANCH  17  22
BRANCH  18  25
ATOM     25  O   UNL     1     117.279 145.996 132.755  1.00  0.00    -0.385 OA
ATOM     26  H   UNL     1     117.601 146.654 132.085  1.00  0.00     0.211 HD
ENDBRANCH  18  25
BRANCH  20  27
ATOM     27  O   UNL     1     116.021 143.332 130.925  1.00  0.00    -0.387 OA
ATOM     28  H   UNL     1     115.058 143.420 130.693  1.00  0.00     0.211 HD
ENDBRANCH  20  27
BRANCH  21  29
ATOM     29  C   UNL     1     115.163 142.875 134.250  1.00  0.00     0.191 C 
BRANCH  29  30
ATOM     30  O   UNL     1     115.231 143.954 135.146  1.00  0.00    -0.394 OA
ATOM     31  H   UNL     1     116.146 144.329 135.075  1.00  0.00     0.210 HD
ENDBRANCH  29  30
ENDBRANCH  21  29
ENDBRANCH   1  17
TORSDOF 13
ENDMDL
