MODEL 1
REMARK VINA RESULT:    -4.494      0.000      0.000
REMARK INTER + INTRA:          -5.593
REMARK INTER:                  -5.282
REMARK INTRA:                  -0.310
REMARK UNBOUND:                -0.310
REMARK SMILES COc1ccc(C=CC(=O)[O-])cc1
REMARK SMILES IDX 6 1 5 2 12 3 4 4 13 5 3 6 7 7 8 8 9 9 10 10 11 11 2 12 1 13
REMARK H PARENT
REMARK Flexibility Score: inf
ROOT
ATOM      1  C   UNL     1      48.304   7.255 112.741  1.00  0.00    -0.025 A 
ATOM      2  C   UNL     1      49.140   7.695 113.780  1.00  0.00     0.012 A 
ATOM      3  C   UNL     1      46.915   7.266 112.929  1.00  0.00     0.012 A 
ATOM      4  C   UNL     1      48.591   8.188 114.967  1.00  0.00     0.047 A 
ATOM      5  C   UNL     1      46.364   7.758 114.117  1.00  0.00     0.047 A 
ATOM      6  C   UNL     1      47.204   8.228 115.146  1.00  0.00     0.118 A 
ENDROOT
BRANCH   1   7
ATOM      7  C   UNL     1      48.861   6.681 111.499  1.00  0.00     0.010 C 
ATOM      8  C   UNL     1      49.048   5.373 111.263  1.00  0.00     0.025 C 
BRANCH   8   9
ATOM      9  C   UNL     1      48.906   4.288 112.255  1.00  0.00     0.064 C 
ATOM     10  O   UNL     1      47.913   3.515 112.247  1.00  0.00    -0.545 OA
ATOM     11  O   UNL     1      49.856   4.163 113.261  1.00  0.00    -0.545 OA
ENDBRANCH   8   9
ENDBRANCH   1   7
BRANCH   6  12
ATOM     12  O   UNL     1      46.701   8.734 116.354  1.00  0.00    -0.497 OA
ATOM     13  C   UNL     1      47.155   9.932 116.975  1.00  0.00     0.278 C 
ENDBRANCH   6  12
TORSDOF 3
ENDMDL
MODEL 2
REMARK VINA RESULT:    -4.486      4.007      5.300
REMARK INTER + INTRA:          -5.583
REMARK INTER:                  -5.280
REMARK INTRA:                  -0.303
REMARK UNBOUND:                -0.310
REMARK SMILES COc1ccc(C=CC(=O)[O-])cc1
REMARK SMILES IDX 6 1 5 2 12 3 4 4 13 5 3 6 7 7 8 8 9 9 10 10 11 11 2 12 1 13
REMARK H PARENT
REMARK Flexibility Score: inf
ROOT
ATOM      1  C   UNL     1      43.599   8.528 114.422  1.00  0.00    -0.025 A 
ATOM      2  C   UNL     1      43.812   9.162 115.657  1.00  0.00     0.012 A 
ATOM      3  C   UNL     1      42.945   9.227 113.397  1.00  0.00     0.012 A 
ATOM      4  C   UNL     1      43.424  10.492 115.844  1.00  0.00     0.047 A 
ATOM      5  C   UNL     1      42.556  10.558 113.584  1.00  0.00     0.047 A 
ATOM      6  C   UNL     1      42.799  11.202 114.813  1.00  0.00     0.118 A 
ENDROOT
BRANCH   1   7
ATOM      7  C   UNL     1      43.951   7.108 114.217  1.00  0.00     0.010 C 
ATOM      8  C   UNL     1      45.188   6.639 113.988  1.00  0.00     0.025 C 
BRANCH   8   9
ATOM      9  C   UNL     1      46.385   7.459 113.718  1.00  0.00     0.064 C 
ATOM     10  O   UNL     1      46.794   7.662 112.545  1.00  0.00    -0.545 OA
ATOM     11  O   UNL     1      47.116   7.962 114.788  1.00  0.00    -0.545 OA
ENDBRANCH   8   9
ENDBRANCH   1   7
BRANCH   6  12
ATOM     12  O   UNL     1      42.431  12.535 115.048  1.00  0.00    -0.497 OA
ATOM     13  C   UNL     1      41.681  13.335 114.140  1.00  0.00     0.278 C 
ENDBRANCH   6  12
TORSDOF 3
ENDMDL
MODEL 3
REMARK VINA RESULT:    -4.445      1.475      2.185
REMARK INTER + INTRA:          -5.535
REMARK INTER:                  -5.209
REMARK INTRA:                  -0.326
REMARK UNBOUND:                -0.310
REMARK SMILES COc1ccc(C=CC(=O)[O-])cc1
REMARK SMILES IDX 6 1 5 2 12 3 4 4 13 5 3 6 7 7 8 8 9 9 10 10 11 11 2 12 1 13
REMARK H PARENT
REMARK Flexibility Score: inf
ROOT
ATOM      1  C   UNL     1      47.006   7.258 113.575  1.00  0.00    -0.025 A 
ATOM      2  C   UNL     1      45.651   6.892 113.640  1.00  0.00     0.012 A 
ATOM      3  C   UNL     1      47.655   7.689 114.741  1.00  0.00     0.012 A 
ATOM      4  C   UNL     1      44.975   6.906 114.863  1.00  0.00     0.047 A 
ATOM      5  C   UNL     1      46.978   7.704 115.965  1.00  0.00     0.047 A 
ATOM      6  C   UNL     1      45.628   7.306 116.033  1.00  0.00     0.118 A 
ENDROOT
BRANCH   1   7
ATOM      7  C   UNL     1      47.728   7.303 112.288  1.00  0.00     0.010 C 
ATOM      8  C   UNL     1      48.403   6.280 111.738  1.00  0.00     0.025 C 
BRANCH   8   9
ATOM      9  C   UNL     1      48.699   4.991 112.394  1.00  0.00     0.064 C 
ATOM     10  O   UNL     1      47.999   3.967 112.180  1.00  0.00    -0.545 OA
ATOM     11  O   UNL     1      49.733   4.925 113.320  1.00  0.00    -0.545 OA
ENDBRANCH   8   9
ENDBRANCH   1   7
BRANCH   6  12
ATOM     12  O   UNL     1      44.906   7.300 117.236  1.00  0.00    -0.497 OA
ATOM     13  C   UNL     1      44.877   8.382 118.161  1.00  0.00     0.278 C 
ENDBRANCH   6  12
TORSDOF 3
ENDMDL
MODEL 4
REMARK VINA RESULT:    -4.426      5.937      6.808
REMARK INTER + INTRA:          -5.513
REMARK INTER:                  -5.201
REMARK INTRA:                  -0.312
REMARK UNBOUND:                -0.310
REMARK SMILES COc1ccc(C=CC(=O)[O-])cc1
REMARK SMILES IDX 6 1 5 2 12 3 4 4 13 5 3 6 7 7 8 8 9 9 10 10 11 11 2 12 1 13
REMARK H PARENT
REMARK Flexibility Score: inf
ROOT
ATOM      1  C   UNL     1      43.568   9.298 114.339  1.00  0.00    -0.025 A 
ATOM      2  C   UNL     1      43.775  10.287 115.316  1.00  0.00     0.012 A 
ATOM      3  C   UNL     1      43.389   7.967 114.739  1.00  0.00     0.012 A 
ATOM      4  C   UNL     1      43.748   9.953 116.673  1.00  0.00     0.047 A 
ATOM      5  C   UNL     1      43.363   7.632 116.097  1.00  0.00     0.047 A 
ATOM      6  C   UNL     1      43.538   8.630 117.076  1.00  0.00     0.118 A 
ENDROOT
BRANCH   1   7
ATOM      7  C   UNL     1      43.646   9.616 112.898  1.00  0.00     0.010 C 
ATOM      8  C   UNL     1      42.644  10.118 112.158  1.00  0.00     0.025 C 
BRANCH   8   9
ATOM      9  C   UNL     1      41.243  10.274 112.595  1.00  0.00     0.064 C 
ATOM     10  O   UNL     1      40.339   9.491 112.201  1.00  0.00    -0.545 OA
ATOM     11  O   UNL     1      40.902  11.349 113.405  1.00  0.00    -0.545 OA
ENDBRANCH   8   9
ENDBRANCH   1   7
BRANCH   6  12
ATOM     12  O   UNL     1      43.517   8.346 118.450  1.00  0.00    -0.497 OA
ATOM     13  C   UNL     1      43.083   9.259 119.453  1.00  0.00     0.278 C 
ENDBRANCH   6  12
TORSDOF 3
ENDMDL
MODEL 5
REMARK VINA RESULT:    -4.345      4.220      8.638
REMARK INTER + INTRA:          -5.418
REMARK INTER:                  -5.096
REMARK INTRA:                  -0.322
REMARK UNBOUND:                -0.310
REMARK SMILES COc1ccc(C=CC(=O)[O-])cc1
REMARK SMILES IDX 6 1 5 2 12 3 4 4 13 5 3 6 7 7 8 8 9 9 10 10 11 11 2 12 1 13
REMARK H PARENT
REMARK Flexibility Score: inf
ROOT
ATOM      1  C   UNL     1      43.938   9.806 118.642  1.00  0.00    -0.025 A 
ATOM      2  C   UNL     1      43.705   9.895 117.259  1.00  0.00     0.012 A 
ATOM      3  C   UNL     1      45.245   9.595 119.104  1.00  0.00     0.012 A 
ATOM      4  C   UNL     1      44.771   9.825 116.359  1.00  0.00     0.047 A 
ATOM      5  C   UNL     1      46.312   9.524 118.203  1.00  0.00     0.047 A 
ATOM      6  C   UNL     1      46.080   9.645 116.818  1.00  0.00     0.118 A 
ENDROOT
BRANCH   1   7
ATOM      7  C   UNL     1      42.823   9.823 119.611  1.00  0.00     0.010 C 
ATOM      8  C   UNL     1      42.346  10.915 120.228  1.00  0.00     0.025 C 
BRANCH   8   9
ATOM      9  C   UNL     1      42.954  12.260 120.195  1.00  0.00     0.064 C 
ATOM     10  O   UNL     1      42.547  13.148 119.402  1.00  0.00    -0.545 OA
ATOM     11  O   UNL     1      44.046  12.529 121.011  1.00  0.00    -0.545 OA
ENDBRANCH   8   9
ENDBRANCH   1   7
BRANCH   6  12
ATOM     12  O   UNL     1      47.117   9.584 115.874  1.00  0.00    -0.497 OA
ATOM     13  C   UNL     1      48.229   8.699 115.957  1.00  0.00     0.278 C 
ENDBRANCH   6  12
TORSDOF 3
ENDMDL
MODEL 6
REMARK VINA RESULT:    -4.305      3.624      5.225
REMARK INTER + INTRA:          -5.370
REMARK INTER:                  -5.064
REMARK INTRA:                  -0.306
REMARK UNBOUND:                -0.310
REMARK SMILES COc1ccc(C=CC(=O)[O-])cc1
REMARK SMILES IDX 6 1 5 2 12 3 4 4 13 5 3 6 7 7 8 8 9 9 10 10 11 11 2 12 1 13
REMARK H PARENT
REMARK Flexibility Score: inf
ROOT
ATOM      1  C   UNL     1      44.490   9.226 116.085  1.00  0.00    -0.025 A 
ATOM      2  C   UNL     1      43.505   8.736 116.960  1.00  0.00     0.012 A 
ATOM      3  C   UNL     1      45.727   9.631 116.605  1.00  0.00     0.012 A 
ATOM      4  C   UNL     1      43.776   8.605 118.324  1.00  0.00     0.047 A 
ATOM      5  C   UNL     1      45.999   9.501 117.971  1.00  0.00     0.047 A 
ATOM      6  C   UNL     1      45.021   8.980 118.841  1.00  0.00     0.118 A 
ENDROOT
BRANCH   1   7
ATOM      7  C   UNL     1      44.209   9.423 114.648  1.00  0.00     0.010 C 
ATOM      8  C   UNL     1      44.459   8.531 113.677  1.00  0.00     0.025 C 
BRANCH   8   9
ATOM      9  C   UNL     1      45.218   7.274 113.835  1.00  0.00     0.064 C 
ATOM     10  O   UNL     1      46.452   7.215 113.594  1.00  0.00    -0.545 OA
ATOM     11  O   UNL     1      44.540   6.115 114.192  1.00  0.00    -0.545 OA
ENDBRANCH   8   9
ENDBRANCH   1   7
BRANCH   6  12
ATOM     12  O   UNL     1      45.245   8.827 120.218  1.00  0.00    -0.497 OA
ATOM     13  C   UNL     1      45.146   9.880 121.171  1.00  0.00     0.278 C 
ENDBRANCH   6  12
TORSDOF 3
ENDMDL
MODEL 7
REMARK VINA RESULT:    -4.226      5.911      7.988
REMARK INTER + INTRA:          -5.278
REMARK INTER:                  -5.010
REMARK INTRA:                  -0.267
REMARK UNBOUND:                -0.310
REMARK SMILES COc1ccc(C=CC(=O)[O-])cc1
REMARK SMILES IDX 6 1 5 2 12 3 4 4 13 5 3 6 7 7 8 8 9 9 10 10 11 11 2 12 1 13
REMARK H PARENT
REMARK Flexibility Score: inf
ROOT
ATOM      1  C   UNL     1      44.252   9.106 117.395  1.00  0.00    -0.025 A 
ATOM      2  C   UNL     1      43.921   7.873 116.806  1.00  0.00     0.012 A 
ATOM      3  C   UNL     1      44.129  10.280 116.639  1.00  0.00     0.012 A 
ATOM      4  C   UNL     1      43.426   7.827 115.500  1.00  0.00     0.047 A 
ATOM      5  C   UNL     1      43.634  10.234 115.332  1.00  0.00     0.047 A 
ATOM      6  C   UNL     1      43.274   9.001 114.754  1.00  0.00     0.118 A 
ENDROOT
BRANCH   1   7
ATOM      7  C   UNL     1      44.827   9.176 118.754  1.00  0.00     0.010 C 
ATOM      8  C   UNL     1      44.162   9.540 119.862  1.00  0.00     0.025 C 
BRANCH   8   9
ATOM      9  C   UNL     1      42.799  10.105 119.903  1.00  0.00     0.064 C 
ATOM     10  O   UNL     1      41.787   9.372 120.057  1.00  0.00    -0.545 OA
ATOM     11  O   UNL     1      42.625  11.468 119.700  1.00  0.00    -0.545 OA
ENDBRANCH   8   9
ENDBRANCH   1   7
BRANCH   6  12
ATOM     12  O   UNL     1      42.770   8.902 113.448  1.00  0.00    -0.497 OA
ATOM     13  C   UNL     1      42.862   9.933 112.471  1.00  0.00     0.278 C 
ENDBRANCH   6  12
TORSDOF 3
ENDMDL
MODEL 8
REMARK VINA RESULT:    -4.202      5.941      8.113
REMARK INTER + INTRA:          -5.249
REMARK INTER:                  -4.923
REMARK INTRA:                  -0.326
REMARK UNBOUND:                -0.310
REMARK SMILES COc1ccc(C=CC(=O)[O-])cc1
REMARK SMILES IDX 6 1 5 2 12 3 4 4 13 5 3 6 7 7 8 8 9 9 10 10 11 11 2 12 1 13
REMARK H PARENT
REMARK Flexibility Score: inf
ROOT
ATOM      1  C   UNL     1      43.846   9.910 119.290  1.00  0.00    -0.025 A 
ATOM      2  C   UNL     1      45.120   9.877 119.883  1.00  0.00     0.012 A 
ATOM      3  C   UNL     1      42.965  10.949 119.620  1.00  0.00     0.012 A 
ATOM      4  C   UNL     1      45.521  10.897 120.750  1.00  0.00     0.047 A 
ATOM      5  C   UNL     1      43.366  11.970 120.488  1.00  0.00     0.047 A 
ATOM      6  C   UNL     1      44.654  11.951 121.057  1.00  0.00     0.118 A 
ENDROOT
BRANCH   1   7
ATOM      7  C   UNL     1      43.379   8.817 118.413  1.00  0.00     0.010 C 
ATOM      8  C   UNL     1      43.623   8.719 117.096  1.00  0.00     0.025 C 
BRANCH   8   9
ATOM      9  C   UNL     1      44.239   9.762 116.253  1.00  0.00     0.064 C 
ATOM     10  O   UNL     1      45.464   9.736 115.964  1.00  0.00    -0.545 OA
ATOM     11  O   UNL     1      43.464  10.832 115.825  1.00  0.00    -0.545 OA
ENDBRANCH   8   9
ENDBRANCH   1   7
BRANCH   6  12
ATOM     12  O   UNL     1      45.105  12.952 121.931  1.00  0.00    -0.497 OA
ATOM     13  C   UNL     1      44.967  12.905 123.348  1.00  0.00     0.278 C 
ENDBRANCH   6  12
TORSDOF 3
ENDMDL
MODEL 9
REMARK VINA RESULT:    -4.181      2.451      5.732
REMARK INTER + INTRA:          -5.224
REMARK INTER:                  -4.907
REMARK INTRA:                  -0.318
REMARK UNBOUND:                -0.310
REMARK SMILES COc1ccc(C=CC(=O)[O-])cc1
REMARK SMILES IDX 6 1 5 2 12 3 4 4 13 5 3 6 7 7 8 8 9 9 10 10 11 11 2 12 1 13
REMARK H PARENT
REMARK Flexibility Score: inf
ROOT
ATOM      1  C   UNL     1      45.668   7.324 115.066  1.00  0.00    -0.025 A 
ATOM      2  C   UNL     1      45.792   7.000 113.704  1.00  0.00     0.012 A 
ATOM      3  C   UNL     1      46.820   7.625 115.806  1.00  0.00     0.012 A 
ATOM      4  C   UNL     1      47.043   7.031 113.083  1.00  0.00     0.047 A 
ATOM      5  C   UNL     1      48.073   7.656 115.185  1.00  0.00     0.047 A 
ATOM      6  C   UNL     1      48.191   7.362 113.812  1.00  0.00     0.118 A 
ENDROOT
BRANCH   1   7
ATOM      7  C   UNL     1      44.365   7.246 115.757  1.00  0.00     0.010 C 
ATOM      8  C   UNL     1      43.436   8.215 115.777  1.00  0.00     0.025 C 
BRANCH   8   9
ATOM      9  C   UNL     1      43.614   9.591 115.272  1.00  0.00     0.064 C 
ATOM     10  O   UNL     1      43.873  10.549 116.047  1.00  0.00    -0.545 OA
ATOM     11  O   UNL     1      43.425   9.845 113.920  1.00  0.00    -0.545 OA
ENDBRANCH   8   9
ENDBRANCH   1   7
BRANCH   6  12
ATOM     12  O   UNL     1      49.424   7.381 113.143  1.00  0.00    -0.497 OA
ATOM     13  C   UNL     1      49.956   6.286 112.404  1.00  0.00     0.278 C 
ENDBRANCH   6  12
TORSDOF 3
ENDMDL
