MODEL 1
REMARK VINA RESULT:    -4.318      0.000      0.000
REMARK INTER + INTRA:         -10.216
REMARK INTER:                  -8.357
REMARK INTRA:                  -1.859
REMARK UNBOUND:                -1.859
REMARK SMILES CCCCCCCCCCCCCCCCCC(=O)[O-]
REMARK SMILES IDX 10 1 11 2 12 3 13 4 14 5 15 6 16 7 17 8 18 9 19 10 20 11
REMARK SMILES IDX 9 12 8 13 7 14 6 15 5 16 4 17 3 18 2 19 1 20
REMARK H PARENT
REMARK Flexibility Score: inf
ROOT
ATOM      1  C   UNL     1      -6.934   0.089   3.534  1.00  0.00     0.000 C 
ENDROOT
BRANCH   1   2
ATOM      2  C   UNL     1      -7.968  -0.729   2.747  1.00  0.00     0.000 C 
BRANCH   2   3
ATOM      3  C   UNL     1      -7.806  -2.229   3.021  1.00  0.00     0.000 C 
BRANCH   3   4
ATOM      4  C   UNL     1      -6.893  -2.474   4.228  1.00  0.00     0.000 C 
BRANCH   4   5
ATOM      5  C   UNL     1      -6.643  -3.972   4.435  1.00  0.00     0.000 C 
BRANCH   5   6
ATOM      6  C   UNL     1      -5.963  -4.236   5.786  1.00  0.00     0.000 C 
BRANCH   6   7
ATOM      7  C   UNL     1      -5.704  -2.951   6.593  1.00  0.00     0.006 C 
BRANCH   7   8
ATOM      8  C   UNL     1      -4.232  -2.752   6.997  1.00  0.00     0.053 C 
BRANCH   8   9
ATOM      9  C   UNL     1      -4.074  -2.427   8.451  1.00  0.00     0.041 C 
ATOM     10  O   UNL     1      -3.094  -2.881   9.098  1.00  0.00    -0.550 OA
ATOM     11  O   UNL     1      -5.026  -1.653   9.103  1.00  0.00    -0.550 OA
ENDBRANCH   8   9
ENDBRANCH   7   8
ENDBRANCH   6   7
ENDBRANCH   5   6
ENDBRANCH   4   5
ENDBRANCH   3   4
ENDBRANCH   2   3
ENDBRANCH   1   2
BRANCH   1  12
ATOM     12  C   UNL     1      -7.569   1.209   4.378  1.00  0.00     0.000 C 
BRANCH  12  13
ATOM     13  C   UNL     1      -6.912   1.442   5.751  1.00  0.00    -0.000 C 
BRANCH  13  14
ATOM     14  C   UNL     1      -5.620   0.633   5.941  1.00  0.00    -0.000 C 
BRANCH  14  15
ATOM     15  C   UNL     1      -4.698   1.308   6.969  1.00  0.00    -0.000 C 
BRANCH  15  16
ATOM     16  C   UNL     1      -3.275   0.728   6.958  1.00  0.00    -0.000 C 
BRANCH  16  17
ATOM     17  C   UNL     1      -2.379   1.336   8.048  1.00  0.00    -0.000 C 
BRANCH  17  18
ATOM     18  C   UNL     1      -3.179   1.605   9.329  1.00  0.00    -0.000 C 
BRANCH  18  19
ATOM     19  C   UNL     1      -2.778   2.944   9.957  1.00  0.00    -0.003 C 
ATOM     20  C   UNL     1      -3.261   4.118   9.111  1.00  0.00     0.004 C 
ENDBRANCH  18  19
ENDBRANCH  17  18
ENDBRANCH  16  17
ENDBRANCH  15  16
ENDBRANCH  14  15
ENDBRANCH  13  14
ENDBRANCH  12  13
ENDBRANCH   1  12
TORSDOF 16
ENDMDL
MODEL 2
REMARK VINA RESULT:    -4.311      1.743      4.851
REMARK INTER + INTRA:         -10.203
REMARK INTER:                  -7.774
REMARK INTRA:                  -2.429
REMARK UNBOUND:                -1.859
REMARK SMILES CCCCCCCCCCCCCCCCCC(=O)[O-]
REMARK SMILES IDX 10 1 11 2 12 3 13 4 14 5 15 6 16 7 17 8 18 9 19 10 20 11
REMARK SMILES IDX 9 12 8 13 7 14 6 15 5 16 4 17 3 18 2 19 1 20
REMARK H PARENT
REMARK Flexibility Score: inf
ROOT
ATOM      1  C   UNL     1      -6.837  -0.295   3.632  1.00  0.00     0.000 C 
ENDROOT
BRANCH   1   2
ATOM      2  C   UNL     1      -7.402   1.124   3.480  1.00  0.00     0.000 C 
BRANCH   2   3
ATOM      3  C   UNL     1      -7.911   1.659   4.824  1.00  0.00     0.000 C 
BRANCH   3   4
ATOM      4  C   UNL     1      -7.619   0.670   5.958  1.00  0.00     0.000 C 
BRANCH   4   5
ATOM      5  C   UNL     1      -7.191   1.405   7.234  1.00  0.00     0.000 C 
BRANCH   5   6
ATOM      6  C   UNL     1      -5.803   0.941   7.697  1.00  0.00     0.000 C 
BRANCH   6   7
ATOM      7  C   UNL     1      -4.682   1.308   6.708  1.00  0.00     0.006 C 
BRANCH   7   8
ATOM      8  C   UNL     1      -3.264   1.061   7.251  1.00  0.00     0.053 C 
BRANCH   8   9
ATOM      9  C   UNL     1      -2.875   2.043   8.314  1.00  0.00     0.041 C 
ATOM     10  O   UNL     1      -3.320   3.221   8.280  1.00  0.00    -0.550 OA
ATOM     11  O   UNL     1      -1.994   1.672   9.322  1.00  0.00    -0.550 OA
ENDBRANCH   8   9
ENDBRANCH   7   8
ENDBRANCH   6   7
ENDBRANCH   5   6
ENDBRANCH   4   5
ENDBRANCH   3   4
ENDBRANCH   2   3
ENDBRANCH   1   2
BRANCH   1  12
ATOM     12  C   UNL     1      -7.385  -1.277   2.580  1.00  0.00     0.000 C 
BRANCH  12  13
ATOM     13  C   UNL     1      -8.047  -2.543   3.154  1.00  0.00    -0.000 C 
BRANCH  13  14
ATOM     14  C   UNL     1      -7.604  -2.851   4.593  1.00  0.00    -0.000 C 
BRANCH  14  15
ATOM     15  C   UNL     1      -6.711  -4.101   4.635  1.00  0.00    -0.000 C 
BRANCH  15  16
ATOM     16  C   UNL     1      -5.325  -3.818   5.236  1.00  0.00    -0.000 C 
BRANCH  16  17
ATOM     17  C   UNL     1      -5.352  -2.702   6.291  1.00  0.00    -0.000 C 
BRANCH  17  18
ATOM     18  C   UNL     1      -3.964  -2.497   6.909  1.00  0.00    -0.000 C 
BRANCH  18  19
ATOM     19  C   UNL     1      -4.041  -2.477   8.440  1.00  0.00    -0.003 C 
ATOM     20  C   UNL     1      -5.485  -2.576   8.921  1.00  0.00     0.004 C 
ENDBRANCH  18  19
ENDBRANCH  17  18
ENDBRANCH  16  17
ENDBRANCH  15  16
ENDBRANCH  14  15
ENDBRANCH  13  14
ENDBRANCH  12  13
ENDBRANCH   1  12
TORSDOF 16
ENDMDL
MODEL 3
REMARK VINA RESULT:    -4.098      2.475      6.475
REMARK INTER + INTRA:          -9.790
REMARK INTER:                  -6.949
REMARK INTRA:                  -2.841
REMARK UNBOUND:                -1.859
REMARK SMILES CCCCCCCCCCCCCCCCCC(=O)[O-]
REMARK SMILES IDX 10 1 11 2 12 3 13 4 14 5 15 6 16 7 17 8 18 9 19 10 20 11
REMARK SMILES IDX 9 12 8 13 7 14 6 15 5 16 4 17 3 18 2 19 1 20
REMARK H PARENT
REMARK Flexibility Score: inf
ROOT
ATOM      1  C   UNL     1      -3.473   2.277   7.500  1.00  0.00     0.000 C 
ENDROOT
BRANCH   1   2
ATOM      2  C   UNL     1      -3.948   3.121   8.691  1.00  0.00     0.000 C 
BRANCH   2   3
ATOM      3  C   UNL     1      -4.957   2.345   9.546  1.00  0.00     0.000 C 
BRANCH   3   4
ATOM      4  C   UNL     1      -6.317   2.248   8.844  1.00  0.00     0.000 C 
BRANCH   4   5
ATOM      5  C   UNL     1      -6.830   0.803   8.834  1.00  0.00     0.000 C 
BRANCH   5   6
ATOM      6  C   UNL     1      -7.580   0.493   7.531  1.00  0.00     0.000 C 
BRANCH   6   7
ATOM      7  C   UNL     1      -6.995   1.223   6.309  1.00  0.00     0.006 C 
BRANCH   7   8
ATOM      8  C   UNL     1      -6.184   0.315   5.367  1.00  0.00     0.053 C 
BRANCH   8   9
ATOM      9  C   UNL     1      -6.961  -0.092   4.152  1.00  0.00     0.041 C 
ATOM     10  O   UNL     1      -6.755   0.479   3.048  1.00  0.00    -0.550 OA
ATOM     11  O   UNL     1      -7.938  -1.075   4.243  1.00  0.00    -0.550 OA
ENDBRANCH   8   9
ENDBRANCH   7   8
ENDBRANCH   6   7
ENDBRANCH   5   6
ENDBRANCH   4   5
ENDBRANCH   3   4
ENDBRANCH   2   3
ENDBRANCH   1   2
BRANCH   1  12
ATOM     12  C   UNL     1      -2.719   1.004   7.926  1.00  0.00     0.000 C 
BRANCH  12  13
ATOM     13  C   UNL     1      -3.294  -0.311   7.369  1.00  0.00    -0.000 C 
BRANCH  13  14
ATOM     14  C   UNL     1      -3.843  -1.237   8.466  1.00  0.00    -0.000 C 
BRANCH  14  15
ATOM     15  C   UNL     1      -4.790  -2.291   7.870  1.00  0.00    -0.000 C 
BRANCH  15  16
ATOM     16  C   UNL     1      -4.340  -2.773   6.482  1.00  0.00    -0.000 C 
BRANCH  16  17
ATOM     17  C   UNL     1      -5.466  -3.469   5.702  1.00  0.00    -0.000 C 
BRANCH  17  18
ATOM     18  C   UNL     1      -6.754  -3.524   6.532  1.00  0.00    -0.000 C 
BRANCH  18  19
ATOM     19  C   UNL     1      -7.480  -4.860   6.333  1.00  0.00    -0.003 C 
ATOM     20  C   UNL     1      -7.345  -5.750   7.564  1.00  0.00     0.004 C 
ENDBRANCH  18  19
ENDBRANCH  17  18
ENDBRANCH  16  17
ENDBRANCH  15  16
ENDBRANCH  14  15
ENDBRANCH  13  14
ENDBRANCH  12  13
ENDBRANCH   1  12
TORSDOF 16
ENDMDL
MODEL 4
REMARK VINA RESULT:    -4.076      1.893      5.923
REMARK INTER + INTRA:          -9.747
REMARK INTER:                  -7.291
REMARK INTRA:                  -2.456
REMARK UNBOUND:                -1.859
REMARK SMILES CCCCCCCCCCCCCCCCCC(=O)[O-]
REMARK SMILES IDX 10 1 11 2 12 3 13 4 14 5 15 6 16 7 17 8 18 9 19 10 20 11
REMARK SMILES IDX 9 12 8 13 7 14 6 15 5 16 4 17 3 18 2 19 1 20
REMARK H PARENT
REMARK Flexibility Score: inf
ROOT
ATOM      1  C   UNL     1      -4.379  -2.086   7.091  1.00  0.00     0.000 C 
ENDROOT
BRANCH   1   2
ATOM      2  C   UNL     1      -3.685  -2.426   8.417  1.00  0.00     0.000 C 
BRANCH   2   3
ATOM      3  C   UNL     1      -4.138  -1.478   9.533  1.00  0.00     0.000 C 
BRANCH   3   4
ATOM      4  C   UNL     1      -5.291  -0.584   9.063  1.00  0.00     0.000 C 
BRANCH   4   5
ATOM      5  C   UNL     1      -5.504   0.592  10.024  1.00  0.00     0.000 C 
BRANCH   5   6
ATOM      6  C   UNL     1      -5.673   1.909   9.254  1.00  0.00     0.000 C 
BRANCH   6   7
ATOM      7  C   UNL     1      -4.551   2.923   9.539  1.00  0.00     0.006 C 
BRANCH   7   8
ATOM      8  C   UNL     1      -3.478   2.995   8.438  1.00  0.00     0.053 C 
BRANCH   8   9
ATOM      9  C   UNL     1      -2.547   1.821   8.465  1.00  0.00     0.041 C 
ATOM     10  O   UNL     1      -1.755   1.663   9.431  1.00  0.00    -0.550 OA
ATOM     11  O   UNL     1      -2.527   0.920   7.407  1.00  0.00    -0.550 OA
ENDBRANCH   8   9
ENDBRANCH   7   8
ENDBRANCH   6   7
ENDBRANCH   5   6
ENDBRANCH   4   5
ENDBRANCH   3   4
ENDBRANCH   2   3
ENDBRANCH   1   2
BRANCH   1  12
ATOM     12  C   UNL     1      -5.440  -3.124   6.683  1.00  0.00     0.000 C 
BRANCH  12  13
ATOM     13  C   UNL     1      -5.279  -3.698   5.263  1.00  0.00    -0.000 C 
BRANCH  13  14
ATOM     14  C   UNL     1      -6.612  -4.147   4.644  1.00  0.00    -0.000 C 
BRANCH  14  15
ATOM     15  C   UNL     1      -7.609  -2.979   4.585  1.00  0.00    -0.000 C 
BRANCH  15  16
ATOM     16  C   UNL     1      -7.267  -1.964   3.482  1.00  0.00    -0.000 C 
BRANCH  16  17
ATOM     17  C   UNL     1      -6.959  -0.566   4.039  1.00  0.00    -0.000 C 
BRANCH  17  18
ATOM     18  C   UNL     1      -7.715  -0.319   5.350  1.00  0.00    -0.000 C 
BRANCH  18  19
ATOM     19  C   UNL     1      -7.110   0.860   6.120  1.00  0.00    -0.003 C 
ATOM     20  C   UNL     1      -5.666   1.111   5.698  1.00  0.00     0.004 C 
ENDBRANCH  18  19
ENDBRANCH  17  18
ENDBRANCH  16  17
ENDBRANCH  15  16
ENDBRANCH  14  15
ENDBRANCH  13  14
ENDBRANCH  12  13
ENDBRANCH   1  12
TORSDOF 16
ENDMDL
MODEL 5
REMARK VINA RESULT:    -4.054      2.018      5.982
REMARK INTER + INTRA:          -9.705
REMARK INTER:                  -7.014
REMARK INTRA:                  -2.691
REMARK UNBOUND:                -1.859
REMARK SMILES CCCCCCCCCCCCCCCCCC(=O)[O-]
REMARK SMILES IDX 10 1 11 2 12 3 13 4 14 5 15 6 16 7 17 8 18 9 19 10 20 11
REMARK SMILES IDX 9 12 8 13 7 14 6 15 5 16 4 17 3 18 2 19 1 20
REMARK H PARENT
REMARK Flexibility Score: inf
ROOT
ATOM      1  C   UNL     1      -5.050  -1.564   6.993  1.00  0.00     0.000 C 
ENDROOT
BRANCH   1   2
ATOM      2  C   UNL     1      -5.561  -1.525   8.440  1.00  0.00     0.000 C 
BRANCH   2   3
ATOM      3  C   UNL     1      -7.094  -1.515   8.481  1.00  0.00     0.000 C 
BRANCH   3   4
ATOM      4  C   UNL     1      -7.674  -0.783   7.265  1.00  0.00     0.000 C 
BRANCH   4   5
ATOM      5  C   UNL     1      -8.007   0.674   7.606  1.00  0.00     0.000 C 
BRANCH   5   6
ATOM      6  C   UNL     1      -7.129   1.643   6.801  1.00  0.00     0.000 C 
BRANCH   6   7
ATOM      7  C   UNL     1      -5.851   2.063   7.548  1.00  0.00     0.006 C 
BRANCH   7   8
ATOM      8  C   UNL     1      -4.558   1.864   6.737  1.00  0.00     0.053 C 
BRANCH   8   9
ATOM      9  C   UNL     1      -3.327   1.953   7.587  1.00  0.00     0.041 C 
ATOM     10  O   UNL     1      -2.447   1.055   7.523  1.00  0.00    -0.550 OA
ATOM     11  O   UNL     1      -3.165   3.008   8.477  1.00  0.00    -0.550 OA
ENDBRANCH   8   9
ENDBRANCH   7   8
ENDBRANCH   6   7
ENDBRANCH   5   6
ENDBRANCH   4   5
ENDBRANCH   3   4
ENDBRANCH   2   3
ENDBRANCH   1   2
BRANCH   1  12
ATOM     12  C   UNL     1      -4.356  -2.891   6.635  1.00  0.00     0.000 C 
BRANCH  12  13
ATOM     13  C   UNL     1      -5.130  -3.785   5.649  1.00  0.00    -0.000 C 
BRANCH  13  14
ATOM     14  C   UNL     1      -6.386  -4.415   6.271  1.00  0.00    -0.000 C 
BRANCH  14  15
ATOM     15  C   UNL     1      -7.592  -4.273   5.329  1.00  0.00    -0.000 C 
BRANCH  15  16
ATOM     16  C   UNL     1      -7.212  -3.677   3.965  1.00  0.00    -0.000 C 
BRANCH  16  17
ATOM     17  C   UNL     1      -7.939  -2.356   3.672  1.00  0.00    -0.000 C 
BRANCH  17  18
ATOM     18  C   UNL     1      -6.959  -1.176   3.688  1.00  0.00    -0.000 C 
BRANCH  18  19
ATOM     19  C   UNL     1      -7.390  -0.090   2.696  1.00  0.00    -0.003 C 
ATOM     20  C   UNL     1      -6.974   1.296   3.180  1.00  0.00     0.004 C 
ENDBRANCH  18  19
ENDBRANCH  17  18
ENDBRANCH  16  17
ENDBRANCH  15  16
ENDBRANCH  14  15
ENDBRANCH  13  14
ENDBRANCH  12  13
ENDBRANCH   1  12
TORSDOF 16
ENDMDL
MODEL 6
REMARK VINA RESULT:    -4.039      1.741      4.791
REMARK INTER + INTRA:          -9.676
REMARK INTER:                  -7.457
REMARK INTRA:                  -2.219
REMARK UNBOUND:                -1.859
REMARK SMILES CCCCCCCCCCCCCCCCCC(=O)[O-]
REMARK SMILES IDX 10 1 11 2 12 3 13 4 14 5 15 6 16 7 17 8 18 9 19 10 20 11
REMARK SMILES IDX 9 12 8 13 7 14 6 15 5 16 4 17 3 18 2 19 1 20
REMARK H PARENT
REMARK Flexibility Score: inf
ROOT
ATOM      1  C   UNL     1      -6.821  -1.032   3.827  1.00  0.00     0.000 C 
ENDROOT
BRANCH   1   2
ATOM      2  C   UNL     1      -7.461   0.364   3.845  1.00  0.00     0.000 C 
BRANCH   2   3
ATOM      3  C   UNL     1      -6.811   1.253   4.912  1.00  0.00     0.000 C 
BRANCH   3   4
ATOM      4  C   UNL     1      -7.202   0.798   6.323  1.00  0.00     0.000 C 
BRANCH   4   5
ATOM      5  C   UNL     1      -5.966   0.656   7.219  1.00  0.00     0.000 C 
BRANCH   5   6
ATOM      6  C   UNL     1      -4.677   0.901   6.422  1.00  0.00     0.000 C 
BRANCH   6   7
ATOM      7  C   UNL     1      -3.407   0.492   7.188  1.00  0.00     0.006 C 
BRANCH   7   8
ATOM      8  C   UNL     1      -2.589   1.681   7.723  1.00  0.00     0.053 C 
BRANCH   8   9
ATOM      9  C   UNL     1      -3.233   2.335   8.908  1.00  0.00     0.041 C 
ATOM     10  O   UNL     1      -3.706   1.633   9.840  1.00  0.00    -0.550 OA
ATOM     11  O   UNL     1      -3.344   3.719   8.968  1.00  0.00    -0.550 OA
ENDBRANCH   8   9
ENDBRANCH   7   8
ENDBRANCH   6   7
ENDBRANCH   5   6
ENDBRANCH   4   5
ENDBRANCH   3   4
ENDBRANCH   2   3
ENDBRANCH   1   2
BRANCH   1  12
ATOM     12  C   UNL     1      -7.827  -2.151   3.506  1.00  0.00     0.000 C 
BRANCH  12  13
ATOM     13  C   UNL     1      -7.585  -3.478   4.250  1.00  0.00    -0.000 C 
BRANCH  13  14
ATOM     14  C   UNL     1      -6.093  -3.780   4.465  1.00  0.00    -0.000 C 
BRANCH  14  15
ATOM     15  C   UNL     1      -5.829  -4.230   5.910  1.00  0.00    -0.000 C 
BRANCH  15  16
ATOM     16  C   UNL     1      -6.714  -3.497   6.930  1.00  0.00    -0.000 C 
BRANCH  16  17
ATOM     17  C   UNL     1      -5.898  -2.781   8.017  1.00  0.00    -0.000 C 
BRANCH  17  18
ATOM     18  C   UNL     1      -4.409  -2.744   7.650  1.00  0.00    -0.000 C 
BRANCH  18  19
ATOM     19  C   UNL     1      -3.534  -2.708   8.907  1.00  0.00    -0.003 C 
ATOM     20  C   UNL     1      -4.208  -1.921  10.027  1.00  0.00     0.004 C 
ENDBRANCH  18  19
ENDBRANCH  17  18
ENDBRANCH  16  17
ENDBRANCH  15  16
ENDBRANCH  14  15
ENDBRANCH  13  14
ENDBRANCH  12  13
ENDBRANCH   1  12
TORSDOF 16
ENDMDL
MODEL 7
REMARK VINA RESULT:    -3.918      2.079      4.882
REMARK INTER + INTRA:          -9.442
REMARK INTER:                  -6.936
REMARK INTRA:                  -2.506
REMARK UNBOUND:                -1.859
REMARK SMILES CCCCCCCCCCCCCCCCCC(=O)[O-]
REMARK SMILES IDX 10 1 11 2 12 3 13 4 14 5 15 6 16 7 17 8 18 9 19 10 20 11
REMARK SMILES IDX 9 12 8 13 7 14 6 15 5 16 4 17 3 18 2 19 1 20
REMARK H PARENT
REMARK Flexibility Score: inf
ROOT
ATOM      1  C   UNL     1      -6.253  -2.513   4.712  1.00  0.00     0.000 C 
ENDROOT
BRANCH   1   2
ATOM      2  C   UNL     1      -7.117  -1.884   3.610  1.00  0.00     0.000 C 
BRANCH   2   3
ATOM      3  C   UNL     1      -7.519  -0.451   3.978  1.00  0.00     0.000 C 
BRANCH   3   4
ATOM      4  C   UNL     1      -7.193  -0.146   5.445  1.00  0.00     0.000 C 
BRANCH   4   5
ATOM      5  C   UNL     1      -6.554   1.241   5.590  1.00  0.00     0.000 C 
BRANCH   5   6
ATOM      6  C   UNL     1      -5.726   1.333   6.880  1.00  0.00     0.000 C 
BRANCH   6   7
ATOM      7  C   UNL     1      -4.263   1.740   6.631  1.00  0.00     0.006 C 
BRANCH   7   8
ATOM      8  C   UNL     1      -3.268   1.147   7.643  1.00  0.00     0.053 C 
BRANCH   8   9
ATOM      9  C   UNL     1      -2.798   2.156   8.647  1.00  0.00     0.041 C 
ATOM     10  O   UNL     1      -3.175   3.354   8.564  1.00  0.00    -0.550 OA
ATOM     11  O   UNL     1      -1.914   1.783   9.653  1.00  0.00    -0.550 OA
ENDBRANCH   8   9
ENDBRANCH   7   8
ENDBRANCH   6   7
ENDBRANCH   5   6
ENDBRANCH   4   5
ENDBRANCH   3   4
ENDBRANCH   2   3
ENDBRANCH   1   2
BRANCH   1  12
ATOM     12  C   UNL     1      -6.466  -4.032   4.850  1.00  0.00     0.000 C 
BRANCH  12  13
ATOM     13  C   UNL     1      -6.832  -4.512   6.266  1.00  0.00    -0.000 C 
BRANCH  13  14
ATOM     14  C   UNL     1      -7.898  -3.635   6.939  1.00  0.00    -0.000 C 
BRANCH  14  15
ATOM     15  C   UNL     1      -7.496  -3.295   8.383  1.00  0.00    -0.000 C 
BRANCH  15  16
ATOM     16  C   UNL     1      -7.124  -1.814   8.561  1.00  0.00    -0.000 C 
BRANCH  16  17
ATOM     17  C   UNL     1      -5.881  -1.617   9.442  1.00  0.00    -0.000 C 
BRANCH  17  18
ATOM     18  C   UNL     1      -4.950  -2.833   9.356  1.00  0.00    -0.000 C 
BRANCH  18  19
ATOM     19  C   UNL     1      -3.633  -2.469   8.663  1.00  0.00    -0.003 C 
ATOM     20  C   UNL     1      -3.786  -2.483   7.145  1.00  0.00     0.004 C 
ENDBRANCH  18  19
ENDBRANCH  17  18
ENDBRANCH  16  17
ENDBRANCH  15  16
ENDBRANCH  14  15
ENDBRANCH  13  14
ENDBRANCH  12  13
ENDBRANCH   1  12
TORSDOF 16
ENDMDL
MODEL 8
REMARK VINA RESULT:    -3.879      2.756      4.317
REMARK INTER + INTRA:          -9.366
REMARK INTER:                  -7.057
REMARK INTRA:                  -2.308
REMARK UNBOUND:                -1.859
REMARK SMILES CCCCCCCCCCCCCCCCCC(=O)[O-]
REMARK SMILES IDX 10 1 11 2 12 3 13 4 14 5 15 6 16 7 17 8 18 9 19 10 20 11
REMARK SMILES IDX 9 12 8 13 7 14 6 15 5 16 4 17 3 18 2 19 1 20
REMARK H PARENT
REMARK Flexibility Score: inf
ROOT
ATOM      1  C   UNL     1      -4.802  -0.775   7.032  1.00  0.00     0.000 C 
ENDROOT
BRANCH   1   2
ATOM      2  C   UNL     1      -4.479  -2.275   7.067  1.00  0.00     0.000 C 
BRANCH   2   3
ATOM      3  C   UNL     1      -5.593  -3.061   7.768  1.00  0.00     0.000 C 
BRANCH   3   4
ATOM      4  C   UNL     1      -6.308  -4.000   6.788  1.00  0.00     0.000 C 
BRANCH   4   5
ATOM      5  C   UNL     1      -5.719  -3.875   5.378  1.00  0.00     0.000 C 
BRANCH   5   6
ATOM      6  C   UNL     1      -6.827  -3.897   4.315  1.00  0.00     0.000 C 
BRANCH   6   7
ATOM      7  C   UNL     1      -7.571  -2.555   4.190  1.00  0.00     0.006 C 
BRANCH   7   8
ATOM      8  C   UNL     1      -6.646  -1.347   3.953  1.00  0.00     0.053 C 
BRANCH   8   9
ATOM      9  C   UNL     1      -7.203  -0.385   2.948  1.00  0.00     0.041 C 
ATOM     10  O   UNL     1      -7.843  -0.811   1.951  1.00  0.00    -0.550 OA
ATOM     11  O   UNL     1      -6.986   0.980   3.092  1.00  0.00    -0.550 OA
ENDBRANCH   8   9
ENDBRANCH   7   8
ENDBRANCH   6   7
ENDBRANCH   5   6
ENDBRANCH   4   5
ENDBRANCH   3   4
ENDBRANCH   2   3
ENDBRANCH   1   2
BRANCH   1  12
ATOM     12  C   UNL     1      -6.097  -0.420   7.785  1.00  0.00     0.000 C 
BRANCH  12  13
ATOM     13  C   UNL     1      -7.011   0.591   7.069  1.00  0.00    -0.000 C 
BRANCH  13  14
ATOM     14  C   UNL     1      -6.870   2.019   7.618  1.00  0.00    -0.000 C 
BRANCH  14  15
ATOM     15  C   UNL     1      -6.837   2.015   9.154  1.00  0.00    -0.000 C 
BRANCH  15  16
ATOM     16  C   UNL     1      -6.018   3.180   9.732  1.00  0.00    -0.000 C 
BRANCH  16  17
ATOM     17  C   UNL     1      -4.549   2.805   9.980  1.00  0.00    -0.000 C 
BRANCH  17  18
ATOM     18  C   UNL     1      -3.633   3.451   8.933  1.00  0.00    -0.000 C 
BRANCH  18  19
ATOM     19  C   UNL     1      -3.196   2.428   7.879  1.00  0.00    -0.003 C 
ATOM     20  C   UNL     1      -2.298   1.357   8.490  1.00  0.00     0.004 C 
ENDBRANCH  18  19
ENDBRANCH  17  18
ENDBRANCH  16  17
ENDBRANCH  15  16
ENDBRANCH  14  15
ENDBRANCH  13  14
ENDBRANCH  12  13
ENDBRANCH   1  12
TORSDOF 16
ENDMDL
MODEL 9
REMARK VINA RESULT:    -3.837      2.139      5.360
REMARK INTER + INTRA:          -9.286
REMARK INTER:                  -6.250
REMARK INTRA:                  -3.036
REMARK UNBOUND:                -1.859
REMARK SMILES CCCCCCCCCCCCCCCCCC(=O)[O-]
REMARK SMILES IDX 10 1 11 2 12 3 13 4 14 5 15 6 16 7 17 8 18 9 19 10 20 11
REMARK SMILES IDX 9 12 8 13 7 14 6 15 5 16 4 17 3 18 2 19 1 20
REMARK H PARENT
REMARK Flexibility Score: inf
ROOT
ATOM      1  C   UNL     1      -6.240  -3.413   5.800  1.00  0.00     0.000 C 
ENDROOT
BRANCH   1   2
ATOM      2  C   UNL     1      -6.612  -2.854   4.419  1.00  0.00     0.000 C 
BRANCH   2   3
ATOM      3  C   UNL     1      -6.911  -1.352   4.496  1.00  0.00     0.000 C 
BRANCH   3   4
ATOM      4  C   UNL     1      -7.646  -1.002   5.795  1.00  0.00     0.000 C 
BRANCH   4   5
ATOM      5  C   UNL     1      -7.009   0.215   6.477  1.00  0.00     0.000 C 
BRANCH   5   6
ATOM      6  C   UNL     1      -5.990   0.894   5.551  1.00  0.00     0.000 C 
BRANCH   6   7
ATOM      7  C   UNL     1      -4.858   1.603   6.316  1.00  0.00     0.006 C 
BRANCH   7   8
ATOM      8  C   UNL     1      -4.910   1.399   7.841  1.00  0.00     0.053 C 
BRANCH   8   9
ATOM      9  C   UNL     1      -3.561   1.123   8.431  1.00  0.00     0.041 C 
ATOM     10  O   UNL     1      -3.440   0.921   9.668  1.00  0.00    -0.550 OA
ATOM     11  O   UNL     1      -2.430   1.126   7.623  1.00  0.00    -0.550 OA
ENDBRANCH   8   9
ENDBRANCH   7   8
ENDBRANCH   6   7
ENDBRANCH   5   6
ENDBRANCH   4   5
ENDBRANCH   3   4
ENDBRANCH   2   3
ENDBRANCH   1   2
BRANCH   1  12
ATOM     12  C   UNL     1      -4.735  -3.309   6.106  1.00  0.00     0.000 C 
BRANCH  12  13
ATOM     13  C   UNL     1      -4.343  -2.174   7.069  1.00  0.00    -0.000 C 
BRANCH  13  14
ATOM     14  C   UNL     1      -3.617  -2.679   8.325  1.00  0.00    -0.000 C 
BRANCH  14  15
ATOM     15  C   UNL     1      -4.465  -2.434   9.583  1.00  0.00    -0.000 C 
BRANCH  15  16
ATOM     16  C   UNL     1      -5.872  -1.910   9.256  1.00  0.00    -0.000 C 
BRANCH  16  17
ATOM     17  C   UNL     1      -6.976  -2.671  10.006  1.00  0.00    -0.000 C 
BRANCH  17  18
ATOM     18  C   UNL     1      -7.659  -3.693   9.088  1.00  0.00    -0.000 C 
BRANCH  18  19
ATOM     19  C   UNL     1      -7.045  -5.086   9.264  1.00  0.00    -0.003 C 
ATOM     20  C   UNL     1      -7.393  -5.995   8.089  1.00  0.00     0.004 C 
ENDBRANCH  18  19
ENDBRANCH  17  18
ENDBRANCH  16  17
ENDBRANCH  15  16
ENDBRANCH  14  15
ENDBRANCH  13  14
ENDBRANCH  12  13
ENDBRANCH   1  12
TORSDOF 16
ENDMDL
