MODEL 1
REMARK VINA RESULT:    -3.092      0.000      0.000
REMARK INTER + INTRA:          -3.699
REMARK INTER:                  -3.634
REMARK INTRA:                  -0.065
REMARK UNBOUND:                -0.065
REMARK SMILES O=C([O-])CCC(=O)[O-]
REMARK SMILES IDX 4 1 2 2 1 3 3 4 5 5 6 6 7 7 8 8
REMARK H PARENT
REMARK Flexibility Score: inf
ROOT
ATOM      1  C   UNL     1      28.282  34.122   3.856  1.00  0.00     0.059 C 
ENDROOT
BRANCH   1   2
ATOM      2  C   UNL     1      29.395  33.205   3.455  1.00  0.00     0.042 C 
ATOM      3  O   UNL     1      30.341  32.972   4.254  1.00  0.00    -0.550 OA
ATOM      4  O   UNL     1      29.414  32.648   2.183  1.00  0.00    -0.550 OA
ENDBRANCH   1   2
BRANCH   1   5
ATOM      5  C   UNL     1      26.926  33.478   3.561  1.00  0.00     0.059 C 
BRANCH   5   6
ATOM      6  C   UNL     1      26.349  34.028   2.295  1.00  0.00     0.042 C 
ATOM      7  O   UNL     1      26.315  35.273   2.105  1.00  0.00    -0.550 OA
ATOM      8  O   UNL     1      25.895  33.167   1.305  1.00  0.00    -0.550 OA
ENDBRANCH   5   6
ENDBRANCH   1   5
TORSDOF 3
ENDMDL
MODEL 2
REMARK VINA RESULT:    -3.062      1.086      3.766
REMARK INTER + INTRA:          -3.664
REMARK INTER:                  -3.545
REMARK INTRA:                  -0.119
REMARK UNBOUND:                -0.065
REMARK SMILES O=C([O-])CCC(=O)[O-]
REMARK SMILES IDX 4 1 2 2 1 3 3 4 5 5 6 6 7 7 8 8
REMARK H PARENT
REMARK Flexibility Score: inf
ROOT
ATOM      1  C   UNL     1      27.072  32.831   2.623  1.00  0.00     0.059 C 
ENDROOT
BRANCH   1   2
ATOM      2  C   UNL     1      26.490  33.833   1.676  1.00  0.00     0.042 C 
ATOM      3  O   UNL     1      26.568  35.064   1.932  1.00  0.00    -0.550 OA
ATOM      4  O   UNL     1      25.819  33.407   0.538  1.00  0.00    -0.550 OA
ENDBRANCH   1   2
BRANCH   1   5
ATOM      5  C   UNL     1      28.599  32.831   2.530  1.00  0.00     0.059 C 
BRANCH   5   6
ATOM      6  C   UNL     1      29.202  33.344   3.800  1.00  0.00     0.042 C 
ATOM      7  O   UNL     1      28.555  34.142   4.529  1.00  0.00    -0.550 OA
ATOM      8  O   UNL     1      30.454  32.902   4.204  1.00  0.00    -0.550 OA
ENDBRANCH   5   6
ENDBRANCH   1   5
TORSDOF 3
ENDMDL
MODEL 3
REMARK VINA RESULT:    -3.051      1.102      1.407
REMARK INTER + INTRA:          -3.651
REMARK INTER:                  -3.532
REMARK INTRA:                  -0.118
REMARK UNBOUND:                -0.065
REMARK SMILES O=C([O-])CCC(=O)[O-]
REMARK SMILES IDX 4 1 2 2 1 3 3 4 5 5 6 6 7 7 8 8
REMARK H PARENT
REMARK Flexibility Score: inf
ROOT
ATOM      1  C   UNL     1      28.676  32.865   2.506  1.00  0.00     0.059 C 
ENDROOT
BRANCH   1   2
ATOM      2  C   UNL     1      29.270  33.308   3.806  1.00  0.00     0.042 C 
ATOM      3  O   UNL     1      28.612  34.050   4.582  1.00  0.00    -0.550 OA
ATOM      4  O   UNL     1      30.568  32.943   4.138  1.00  0.00    -0.550 OA
ENDBRANCH   1   2
BRANCH   1   5
ATOM      5  C   UNL     1      27.150  32.820   2.603  1.00  0.00     0.059 C 
BRANCH   5   6
ATOM      6  C   UNL     1      26.539  33.870   1.730  1.00  0.00     0.042 C 
ATOM      7  O   UNL     1      26.623  35.086   2.050  1.00  0.00    -0.550 OA
ATOM      8  O   UNL     1      25.922  33.512   0.539  1.00  0.00    -0.550 OA
ENDBRANCH   5   6
ENDBRANCH   1   5
TORSDOF 3
ENDMDL
MODEL 4
REMARK VINA RESULT:    -3.026      0.473      1.237
REMARK INTER + INTRA:          -3.622
REMARK INTER:                  -3.531
REMARK INTRA:                  -0.091
REMARK UNBOUND:                -0.065
REMARK SMILES O=C([O-])CCC(=O)[O-]
REMARK SMILES IDX 4 1 2 2 1 3 3 4 5 5 6 6 7 7 8 8
REMARK H PARENT
REMARK Flexibility Score: inf
ROOT
ATOM      1  C   UNL     1      28.238  34.005   3.959  1.00  0.00     0.059 C 
ENDROOT
BRANCH   1   2
ATOM      2  C   UNL     1      29.382  33.178   3.464  1.00  0.00     0.042 C 
ATOM      3  O   UNL     1      29.352  32.685   2.305  1.00  0.00    -0.550 OA
ATOM      4  O   UNL     1      30.460  32.910   4.298  1.00  0.00    -0.550 OA
ENDBRANCH   1   2
BRANCH   1   5
ATOM      5  C   UNL     1      26.912  33.453   3.432  1.00  0.00     0.059 C 
BRANCH   5   6
ATOM      6  C   UNL     1      26.333  34.375   2.405  1.00  0.00     0.042 C 
ATOM      7  O   UNL     1      26.867  35.494   2.187  1.00  0.00    -0.550 OA
ATOM      8  O   UNL     1      25.236  33.977   1.653  1.00  0.00    -0.550 OA
ENDBRANCH   5   6
ENDBRANCH   1   5
TORSDOF 3
ENDMDL
MODEL 5
REMARK VINA RESULT:    -3.024      0.182      3.787
REMARK INTER + INTRA:          -3.620
REMARK INTER:                  -3.535
REMARK INTRA:                  -0.085
REMARK UNBOUND:                -0.065
REMARK SMILES O=C([O-])CCC(=O)[O-]
REMARK SMILES IDX 4 1 2 2 1 3 3 4 5 5 6 6 7 7 8 8
REMARK H PARENT
REMARK Flexibility Score: inf
ROOT
ATOM      1  C   UNL     1      26.966  33.289   3.359  1.00  0.00     0.059 C 
ENDROOT
BRANCH   1   2
ATOM      2  C   UNL     1      26.295  33.888   2.163  1.00  0.00     0.042 C 
ATOM      3  O   UNL     1      25.765  33.144   1.296  1.00  0.00    -0.550 OA
ATOM      4  O   UNL     1      26.300  35.265   1.980  1.00  0.00    -0.550 OA
ENDBRANCH   1   2
BRANCH   1   5
ATOM      5  C   UNL     1      28.248  34.053   3.693  1.00  0.00     0.059 C 
BRANCH   5   6
ATOM      6  C   UNL     1      29.452  33.229   3.360  1.00  0.00     0.042 C 
ATOM      7  O   UNL     1      30.288  32.940   4.257  1.00  0.00    -0.550 OA
ATOM      8  O   UNL     1      29.625  32.739   2.073  1.00  0.00    -0.550 OA
ENDBRANCH   5   6
ENDBRANCH   1   5
TORSDOF 3
ENDMDL
MODEL 6
REMARK VINA RESULT:    -2.943      1.428      3.632
REMARK INTER + INTRA:          -3.524
REMARK INTER:                  -3.354
REMARK INTRA:                  -0.171
REMARK UNBOUND:                -0.065
REMARK SMILES O=C([O-])CCC(=O)[O-]
REMARK SMILES IDX 4 1 2 2 1 3 3 4 5 5 6 6 7 7 8 8
REMARK H PARENT
REMARK Flexibility Score: inf
ROOT
ATOM      1  C   UNL     1      28.566  34.018   4.230  1.00  0.00     0.059 C 
ENDROOT
BRANCH   1   2
ATOM      2  C   UNL     1      27.528  33.873   3.162  1.00  0.00     0.042 C 
ATOM      3  O   UNL     1      27.063  34.894   2.589  1.00  0.00    -0.550 OA
ATOM      4  O   UNL     1      27.038  32.616   2.834  1.00  0.00    -0.550 OA
ENDBRANCH   1   2
BRANCH   1   5
ATOM      5  C   UNL     1      29.765  33.115   3.937  1.00  0.00     0.059 C 
BRANCH   5   6
ATOM      6  C   UNL     1      30.396  33.488   2.633  1.00  0.00     0.042 C 
ATOM      7  O   UNL     1      30.443  32.653   1.691  1.00  0.00    -0.550 OA
ATOM      8  O   UNL     1      30.887  34.773   2.440  1.00  0.00    -0.550 OA
ENDBRANCH   5   6
ENDBRANCH   1   5
TORSDOF 3
ENDMDL
MODEL 7
REMARK VINA RESULT:    -2.935      2.324      4.402
REMARK INTER + INTRA:          -3.515
REMARK INTER:                  -3.396
REMARK INTRA:                  -0.119
REMARK UNBOUND:                -0.065
REMARK SMILES O=C([O-])CCC(=O)[O-]
REMARK SMILES IDX 4 1 2 2 1 3 3 4 5 5 6 6 7 7 8 8
REMARK H PARENT
REMARK Flexibility Score: inf
ROOT
ATOM      1  C   UNL     1      30.641  33.063   3.822  1.00  0.00     0.059 C 
ENDROOT
BRANCH   1   2
ATOM      2  C   UNL     1      29.169  33.227   3.611  1.00  0.00     0.042 C 
ATOM      3  O   UNL     1      28.493  33.939   4.400  1.00  0.00    -0.550 OA
ATOM      4  O   UNL     1      28.535  32.554   2.575  1.00  0.00    -0.550 OA
ENDBRANCH   1   2
BRANCH   1   5
ATOM      5  C   UNL     1      31.424  33.844   2.765  1.00  0.00     0.059 C 
BRANCH   5   6
ATOM      6  C   UNL     1      31.986  32.915   1.736  1.00  0.00     0.042 C 
ATOM      7  O   UNL     1      31.416  32.788   0.620  1.00  0.00    -0.550 OA
ATOM      8  O   UNL     1      33.166  32.229   1.990  1.00  0.00    -0.550 OA
ENDBRANCH   5   6
ENDBRANCH   1   5
TORSDOF 3
ENDMDL
MODEL 8
REMARK VINA RESULT:    -2.917      2.315      3.382
REMARK INTER + INTRA:          -3.493
REMARK INTER:                  -3.376
REMARK INTRA:                  -0.118
REMARK UNBOUND:                -0.065
REMARK SMILES O=C([O-])CCC(=O)[O-]
REMARK SMILES IDX 4 1 2 2 1 3 3 4 5 5 6 6 7 7 8 8
REMARK H PARENT
REMARK Flexibility Score: inf
ROOT
ATOM      1  C   UNL     1      31.436  33.760   2.939  1.00  0.00     0.059 C 
ENDROOT
BRANCH   1   2
ATOM      2  C   UNL     1      31.962  32.868   1.859  1.00  0.00     0.042 C 
ATOM      3  O   UNL     1      33.046  32.248   2.023  1.00  0.00    -0.550 OA
ATOM      4  O   UNL     1      31.281  32.759   0.654  1.00  0.00    -0.550 OA
ENDBRANCH   1   2
BRANCH   1   5
ATOM      5  C   UNL     1      30.557  32.968   3.908  1.00  0.00     0.059 C 
BRANCH   5   6
ATOM      6  C   UNL     1      29.109  33.194   3.606  1.00  0.00     0.042 C 
ATOM      7  O   UNL     1      28.553  32.566   2.666  1.00  0.00    -0.550 OA
ATOM      8  O   UNL     1      28.361  34.060   4.392  1.00  0.00    -0.550 OA
ENDBRANCH   5   6
ENDBRANCH   1   5
TORSDOF 3
ENDMDL
MODEL 9
REMARK VINA RESULT:    -2.915      1.427      1.903
REMARK INTER + INTRA:          -3.491
REMARK INTER:                  -3.322
REMARK INTRA:                  -0.169
REMARK UNBOUND:                -0.065
REMARK SMILES O=C([O-])CCC(=O)[O-]
REMARK SMILES IDX 4 1 2 2 1 3 3 4 5 5 6 6 7 7 8 8
REMARK H PARENT
REMARK Flexibility Score: inf
ROOT
ATOM      1  C   UNL     1      29.753  33.151   3.844  1.00  0.00     0.059 C 
ENDROOT
BRANCH   1   2
ATOM      2  C   UNL     1      30.419  33.541   2.562  1.00  0.00     0.042 C 
ATOM      3  O   UNL     1      30.535  32.703   1.629  1.00  0.00    -0.550 OA
ATOM      4  O   UNL     1      30.956  34.813   2.416  1.00  0.00    -0.550 OA
ENDBRANCH   1   2
BRANCH   1   5
ATOM      5  C   UNL     1      28.565  34.071   4.131  1.00  0.00     0.059 C 
BRANCH   5   6
ATOM      6  C   UNL     1      27.514  33.914   3.077  1.00  0.00     0.042 C 
ATOM      7  O   UNL     1      27.037  34.929   2.503  1.00  0.00    -0.550 OA
ATOM      8  O   UNL     1      27.098  32.646   2.693  1.00  0.00    -0.550 OA
ENDBRANCH   5   6
ENDBRANCH   1   5
TORSDOF 3
ENDMDL
