MODEL 1
REMARK VINA RESULT:    -6.181      0.000      0.000
REMARK INTER + INTRA:          -6.636
REMARK INTER:                  -6.542
REMARK INTRA:                  -0.094
REMARK UNBOUND:                -0.094
REMARK SMILES C=C(C)[C@H]1CC=C(C)C(=O)C1
REMARK SMILES IDX 8 1 7 2 6 3 5 4 4 5 11 6 9 7 10 8 2 9 1 10 3 11
REMARK H PARENT
REMARK Flexibility Score: inf
ROOT
ATOM      1  C   UNL     1      -8.280  28.280  22.007  1.00  0.00     0.048 C 
ATOM      2  C   UNL     1      -8.262  29.742  22.357  1.00  0.00    -0.012 C 
ATOM      3  C   UNL     1      -7.490  30.179  23.368  1.00  0.00    -0.019 C 
ATOM      4  C   UNL     1      -7.448  31.628  23.773  1.00  0.00     0.036 C 
ATOM      5  C   UNL     1      -7.654  32.550  22.555  1.00  0.00     0.025 C 
ATOM      6  C   UNL     1      -8.959  32.185  21.824  1.00  0.00     0.089 C 
ATOM      7  C   UNL     1      -8.997  30.715  21.512  1.00  0.00     0.158 C 
ATOM      8  O   UNL     1      -9.693  30.311  20.541  1.00  0.00    -0.295 OA
ENDROOT
BRANCH   5   9
ATOM      9  C   UNL     1      -7.624  34.020  22.952  1.00  0.00    -0.077 C 
ATOM     10  C   UNL     1      -7.464  34.989  22.033  1.00  0.00     0.008 C 
ATOM     11  C   UNL     1      -7.774  34.416  24.399  1.00  0.00     0.039 C 
ENDBRANCH   5   9
TORSDOF 1
ENDMDL
MODEL 2
REMARK VINA RESULT:    -6.127      1.902      3.417
REMARK INTER + INTRA:          -6.579
REMARK INTER:                  -6.482
REMARK INTRA:                  -0.098
REMARK UNBOUND:                -0.094
REMARK SMILES C=C(C)[C@H]1CC=C(C)C(=O)C1
REMARK SMILES IDX 8 1 7 2 6 3 5 4 4 5 11 6 9 7 10 8 2 9 1 10 3 11
REMARK H PARENT
REMARK Flexibility Score: inf
ROOT
ATOM      1  C   UNL     1      -7.394  33.099  19.802  1.00  0.00     0.048 C 
ATOM      2  C   UNL     1      -7.484  33.265  21.293  1.00  0.00    -0.012 C 
ATOM      3  C   UNL     1      -7.533  34.497  21.828  1.00  0.00    -0.019 C 
ATOM      4  C   UNL     1      -7.606  34.721  23.315  1.00  0.00     0.036 C 
ATOM      5  C   UNL     1      -8.386  33.588  24.008  1.00  0.00     0.025 C 
ATOM      6  C   UNL     1      -7.773  32.221  23.653  1.00  0.00     0.089 C 
ATOM      7  C   UNL     1      -7.642  32.072  22.162  1.00  0.00     0.158 C 
ATOM      8  O   UNL     1      -7.632  30.916  21.659  1.00  0.00    -0.295 OA
ENDROOT
BRANCH   5   9
ATOM      9  C   UNL     1      -8.459  33.796  25.515  1.00  0.00    -0.077 C 
ATOM     10  C   UNL     1      -8.643  32.763  26.357  1.00  0.00     0.008 C 
ATOM     11  C   UNL     1      -8.325  35.181  26.095  1.00  0.00     0.039 C 
ENDBRANCH   5   9
TORSDOF 1
ENDMDL
MODEL 3
REMARK VINA RESULT:    -5.931      2.409      3.146
REMARK INTER + INTRA:          -6.371
REMARK INTER:                  -6.274
REMARK INTRA:                  -0.098
REMARK UNBOUND:                -0.094
REMARK SMILES C=C(C)[C@H]1CC=C(C)C(=O)C1
REMARK SMILES IDX 8 1 7 2 6 3 5 4 4 5 11 6 9 7 10 8 2 9 1 10 3 11
REMARK H PARENT
REMARK Flexibility Score: inf
ROOT
ATOM      1  C   UNL     1      -8.896  29.777  25.821  1.00  0.00     0.048 C 
ATOM      2  C   UNL     1      -8.386  30.727  24.773  1.00  0.00    -0.012 C 
ATOM      3  C   UNL     1      -8.034  30.261  23.562  1.00  0.00    -0.019 C 
ATOM      4  C   UNL     1      -7.500  31.164  22.483  1.00  0.00     0.036 C 
ATOM      5  C   UNL     1      -8.128  32.568  22.575  1.00  0.00     0.025 C 
ATOM      6  C   UNL     1      -7.920  33.156  23.983  1.00  0.00     0.089 C 
ATOM      7  C   UNL     1      -8.389  32.188  25.034  1.00  0.00     0.158 C 
ATOM      8  O   UNL     1      -8.754  32.630  26.157  1.00  0.00    -0.295 OA
ENDROOT
BRANCH   5   9
ATOM      9  C   UNL     1      -7.590  33.496  21.494  1.00  0.00    -0.077 C 
ATOM     10  C   UNL     1      -7.502  34.824  21.691  1.00  0.00     0.008 C 
ATOM     11  C   UNL     1      -7.141  32.934  20.168  1.00  0.00     0.039 C 
ENDBRANCH   5   9
TORSDOF 1
ENDMDL
MODEL 4
REMARK VINA RESULT:    -5.918      1.997      4.682
REMARK INTER + INTRA:          -6.358
REMARK INTER:                  -6.262
REMARK INTRA:                  -0.096
REMARK UNBOUND:                -0.094
REMARK SMILES C=C(C)[C@H]1CC=C(C)C(=O)C1
REMARK SMILES IDX 8 1 7 2 6 3 5 4 4 5 11 6 9 7 10 8 2 9 1 10 3 11
REMARK H PARENT
REMARK Flexibility Score: inf
ROOT
ATOM      1  C   UNL     1      -7.530  34.954  21.628  1.00  0.00     0.048 C 
ATOM      2  C   UNL     1      -7.964  33.578  22.048  1.00  0.00    -0.012 C 
ATOM      3  C   UNL     1      -8.466  32.727  21.135  1.00  0.00    -0.019 C 
ATOM      4  C   UNL     1      -8.933  31.345  21.504  1.00  0.00     0.036 C 
ATOM      5  C   UNL     1      -8.099  30.769  22.664  1.00  0.00     0.025 C 
ATOM      6  C   UNL     1      -8.119  31.731  23.866  1.00  0.00     0.089 C 
ATOM      7  C   UNL     1      -7.726  33.118  23.438  1.00  0.00     0.158 C 
ATOM      8  O   UNL     1      -7.222  33.903  24.287  1.00  0.00    -0.295 OA
ENDROOT
BRANCH   5   9
ATOM      9  C   UNL     1      -8.567  29.373  23.054  1.00  0.00    -0.077 C 
ATOM     10  C   UNL     1      -9.179  29.143  24.229  1.00  0.00     0.008 C 
ATOM     11  C   UNL     1      -8.350  28.212  22.116  1.00  0.00     0.039 C 
ENDBRANCH   5   9
TORSDOF 1
ENDMDL
MODEL 5
REMARK VINA RESULT:    -5.898      2.486      4.291
REMARK INTER + INTRA:          -6.337
REMARK INTER:                  -6.244
REMARK INTRA:                  -0.093
REMARK UNBOUND:                -0.094
REMARK SMILES C=C(C)[C@H]1CC=C(C)C(=O)C1
REMARK SMILES IDX 8 1 7 2 6 3 5 4 4 5 11 6 9 7 10 8 2 9 1 10 3 11
REMARK H PARENT
REMARK Flexibility Score: inf
ROOT
ATOM      1  C   UNL     1      -8.080  34.499  26.536  1.00  0.00     0.048 C 
ATOM      2  C   UNL     1      -8.236  34.083  25.100  1.00  0.00    -0.012 C 
ATOM      3  C   UNL     1      -7.714  34.846  24.122  1.00  0.00    -0.019 C 
ATOM      4  C   UNL     1      -7.856  34.487  22.667  1.00  0.00     0.036 C 
ATOM      5  C   UNL     1      -7.878  32.958  22.473  1.00  0.00     0.025 C 
ATOM      6  C   UNL     1      -8.981  32.325  23.341  1.00  0.00     0.089 C 
ATOM      7  C   UNL     1      -8.853  32.775  24.770  1.00  0.00     0.158 C 
ATOM      8  O   UNL     1      -9.311  32.041  25.688  1.00  0.00    -0.295 OA
ENDROOT
BRANCH   5   9
ATOM      9  C   UNL     1      -8.030  32.580  21.006  1.00  0.00    -0.077 C 
ATOM     10  C   UNL     1      -7.133  32.973  20.085  1.00  0.00     0.008 C 
ATOM     11  C   UNL     1      -9.205  31.748  20.557  1.00  0.00     0.039 C 
ENDBRANCH   5   9
TORSDOF 1
ENDMDL
MODEL 6
REMARK VINA RESULT:    -5.808      2.432      3.709
REMARK INTER + INTRA:          -6.241
REMARK INTER:                  -6.145
REMARK INTRA:                  -0.096
REMARK UNBOUND:                -0.094
REMARK SMILES C=C(C)[C@H]1CC=C(C)C(=O)C1
REMARK SMILES IDX 8 1 7 2 6 3 5 4 4 5 11 6 9 7 10 8 2 9 1 10 3 11
REMARK H PARENT
REMARK Flexibility Score: inf
ROOT
ATOM      1  C   UNL     1      -7.085  33.121  19.826  1.00  0.00     0.048 C 
ATOM      2  C   UNL     1      -7.594  33.074  21.240  1.00  0.00    -0.012 C 
ATOM      3  C   UNL     1      -7.981  31.901  21.773  1.00  0.00    -0.019 C 
ATOM      4  C   UNL     1      -8.515  31.800  23.176  1.00  0.00     0.036 C 
ATOM      5  C   UNL     1      -7.854  32.843  24.098  1.00  0.00     0.025 C 
ATOM      6  C   UNL     1      -8.021  34.257  23.511  1.00  0.00     0.089 C 
ATOM      7  C   UNL     1      -7.552  34.294  22.082  1.00  0.00     0.158 C 
ATOM      8  O   UNL     1      -7.156  35.387  21.595  1.00  0.00    -0.295 OA
ENDROOT
BRANCH   5   9
ATOM      9  C   UNL     1      -8.393  32.758  25.520  1.00  0.00    -0.077 C 
ATOM     10  C   UNL     1      -8.983  31.640  25.979  1.00  0.00     0.008 C 
ATOM     11  C   UNL     1      -8.272  33.941  26.446  1.00  0.00     0.039 C 
ENDBRANCH   5   9
TORSDOF 1
ENDMDL
MODEL 7
REMARK VINA RESULT:    -5.664      2.360      4.046
REMARK INTER + INTRA:          -6.089
REMARK INTER:                  -5.996
REMARK INTRA:                  -0.093
REMARK UNBOUND:                -0.094
REMARK SMILES C=C(C)[C@H]1CC=C(C)C(=O)C1
REMARK SMILES IDX 8 1 7 2 6 3 5 4 4 5 11 6 9 7 10 8 2 9 1 10 3 11
REMARK H PARENT
REMARK Flexibility Score: inf
ROOT
ATOM      1  C   UNL     1      -7.202  33.083  20.380  1.00  0.00     0.048 C 
ATOM      2  C   UNL     1      -7.665  32.415  21.645  1.00  0.00    -0.012 C 
ATOM      3  C   UNL     1      -7.877  31.087  21.661  1.00  0.00    -0.019 C 
ATOM      4  C   UNL     1      -8.358  30.370  22.894  1.00  0.00     0.036 C 
ATOM      5  C   UNL     1      -7.821  31.044  24.171  1.00  0.00     0.025 C 
ATOM      6  C   UNL     1      -8.193  32.538  24.184  1.00  0.00     0.089 C 
ATOM      7  C   UNL     1      -7.769  33.198  22.900  1.00  0.00     0.158 C 
ATOM      8  O   UNL     1      -7.536  34.437  22.895  1.00  0.00    -0.295 OA
ENDROOT
BRANCH   5   9
ATOM      9  C   UNL     1      -8.308  30.334  25.428  1.00  0.00    -0.077 C 
ATOM     10  C   UNL     1      -7.648  30.443  26.594  1.00  0.00     0.008 C 
ATOM     11  C   UNL     1      -9.555  29.487  25.383  1.00  0.00     0.039 C 
ENDBRANCH   5   9
TORSDOF 1
ENDMDL
MODEL 8
REMARK VINA RESULT:    -5.621      1.579      4.196
REMARK INTER + INTRA:          -6.044
REMARK INTER:                  -5.947
REMARK INTRA:                  -0.097
REMARK UNBOUND:                -0.094
REMARK SMILES C=C(C)[C@H]1CC=C(C)C(=O)C1
REMARK SMILES IDX 8 1 7 2 6 3 5 4 4 5 11 6 9 7 10 8 2 9 1 10 3 11
REMARK H PARENT
REMARK Flexibility Score: inf
ROOT
ATOM      1  C   UNL     1      -7.465  34.987  22.076  1.00  0.00     0.048 C 
ATOM      2  C   UNL     1      -7.605  33.524  22.394  1.00  0.00    -0.012 C 
ATOM      3  C   UNL     1      -7.920  33.138  23.643  1.00  0.00    -0.019 C 
ATOM      4  C   UNL     1      -8.054  31.687  24.020  1.00  0.00     0.036 C 
ATOM      5  C   UNL     1      -8.585  30.854  22.838  1.00  0.00     0.025 C 
ATOM      6  C   UNL     1      -7.693  31.054  21.599  1.00  0.00     0.089 C 
ATOM      7  C   UNL     1      -7.517  32.519  21.306  1.00  0.00     0.158 C 
ATOM      8  O   UNL     1      -7.258  32.882  20.127  1.00  0.00    -0.295 OA
ENDROOT
BRANCH   5   9
ATOM      9  C   UNL     1      -8.717  29.381  23.203  1.00  0.00    -0.077 C 
ATOM     10  C   UNL     1      -8.282  28.413  22.377  1.00  0.00     0.008 C 
ATOM     11  C   UNL     1      -9.346  28.980  24.514  1.00  0.00     0.039 C 
ENDBRANCH   5   9
TORSDOF 1
ENDMDL
MODEL 9
REMARK VINA RESULT:    -5.567      1.849      2.722
REMARK INTER + INTRA:          -5.987
REMARK INTER:                  -5.891
REMARK INTRA:                  -0.096
REMARK UNBOUND:                -0.094
REMARK SMILES C=C(C)[C@H]1CC=C(C)C(=O)C1
REMARK SMILES IDX 8 1 7 2 6 3 5 4 4 5 11 6 9 7 10 8 2 9 1 10 3 11
REMARK H PARENT
REMARK Flexibility Score: inf
ROOT
ATOM      1  C   UNL     1      -8.364  30.156  26.190  1.00  0.00     0.048 C 
ATOM      2  C   UNL     1      -8.329  31.066  24.994  1.00  0.00    -0.012 C 
ATOM      3  C   UNL     1      -8.185  32.392  25.165  1.00  0.00    -0.019 C 
ATOM      4  C   UNL     1      -8.161  33.350  24.005  1.00  0.00     0.036 C 
ATOM      5  C   UNL     1      -7.528  32.698  22.761  1.00  0.00     0.025 C 
ATOM      6  C   UNL     1      -8.254  31.384  22.418  1.00  0.00     0.089 C 
ATOM      7  C   UNL     1      -8.328  30.491  23.626  1.00  0.00     0.158 C 
ATOM      8  O   UNL     1      -8.426  29.245  23.463  1.00  0.00    -0.295 OA
ENDROOT
BRANCH   5   9
ATOM      9  C   UNL     1      -7.506  33.654  21.575  1.00  0.00    -0.077 C 
ATOM     10  C   UNL     1      -7.573  34.986  21.748  1.00  0.00     0.008 C 
ATOM     11  C   UNL     1      -7.408  33.114  20.170  1.00  0.00     0.039 C 
ENDBRANCH   5   9
TORSDOF 1
ENDMDL
