MODEL 1
REMARK VINA RESULT:    -3.254      0.000      0.000
REMARK INTER + INTRA:          -5.909
REMARK INTER:                  -5.157
REMARK INTRA:                  -0.752
REMARK UNBOUND:                -0.752
REMARK SMILES CCCCCCCCCCCC(=O)[O-]
REMARK SMILES IDX 7 1 8 2 9 3 10 4 11 5 12 6 13 7 14 8 6 9 5 10 4 11 3 12 2 13
REMARK SMILES IDX 1 14
REMARK H PARENT
REMARK Flexibility Score: inf
ROOT
ATOM      1  C   UNL     1       6.009  -6.251   2.910  1.00  0.00     0.000 C 
ENDROOT
BRANCH   1   2
ATOM      2  C   UNL     1       5.528  -5.296   4.016  1.00  0.00     0.000 C 
BRANCH   2   3
ATOM      3  C   UNL     1       4.766  -6.024   5.136  1.00  0.00     0.000 C 
BRANCH   3   4
ATOM      4  C   UNL     1       5.677  -6.445   6.298  1.00  0.00     0.006 C 
BRANCH   4   5
ATOM      5  C   UNL     1       6.066  -7.922   6.181  1.00  0.00     0.053 C 
BRANCH   5   6
ATOM      6  C   UNL     1       4.898  -8.799   6.503  1.00  0.00     0.041 C 
ATOM      7  O   UNL     1       4.569  -9.004   7.700  1.00  0.00    -0.550 OA
ATOM      8  O   UNL     1       4.202  -9.433   5.480  1.00  0.00    -0.550 OA
ENDBRANCH   5   6
ENDBRANCH   4   5
ENDBRANCH   3   4
ENDBRANCH   2   3
ENDBRANCH   1   2
BRANCH   1   9
ATOM      9  C   UNL     1       7.509  -6.572   3.016  1.00  0.00     0.000 C 
BRANCH   9  10
ATOM     10  C   UNL     1       8.359  -5.324   3.313  1.00  0.00    -0.000 C 
BRANCH  10  11
ATOM     11  C   UNL     1       9.460  -5.593   4.351  1.00  0.00    -0.000 C 
BRANCH  11  12
ATOM     12  C   UNL     1      10.859  -5.686   3.724  1.00  0.00    -0.000 C 
BRANCH  12  13
ATOM     13  C   UNL     1      11.869  -6.265   4.721  1.00  0.00    -0.003 C 
ATOM     14  C   UNL     1      13.246  -5.631   4.544  1.00  0.00     0.004 C 
ENDBRANCH  12  13
ENDBRANCH  11  12
ENDBRANCH  10  11
ENDBRANCH   9  10
ENDBRANCH   1   9
TORSDOF 10
ENDMDL
MODEL 2
REMARK VINA RESULT:    -3.148      4.836      7.824
REMARK INTER + INTRA:          -5.739
REMARK INTER:                  -5.435
REMARK INTRA:                  -0.304
REMARK UNBOUND:                -0.752
REMARK SMILES CCCCCCCCCCCC(=O)[O-]
REMARK SMILES IDX 7 1 8 2 9 3 10 4 11 5 12 6 13 7 14 8 6 9 5 10 4 11 3 12 2 13
REMARK SMILES IDX 1 14
REMARK H PARENT
REMARK Flexibility Score: inf
ROOT
ATOM      1  C   UNL     1       9.503  -5.621   4.318  1.00  0.00     0.000 C 
ENDROOT
BRANCH   1   2
ATOM      2  C   UNL     1      10.887  -5.654   3.646  1.00  0.00     0.000 C 
BRANCH   2   3
ATOM      3  C   UNL     1      11.984  -6.192   4.579  1.00  0.00     0.000 C 
BRANCH   3   4
ATOM      4  C   UNL     1      13.400  -5.875   4.075  1.00  0.00     0.006 C 
BRANCH   4   5
ATOM      5  C   UNL     1      14.225  -5.179   5.161  1.00  0.00     0.053 C 
BRANCH   5   6
ATOM      6  C   UNL     1      15.662  -5.583   5.069  1.00  0.00     0.041 C 
ATOM      7  O   UNL     1      16.430  -5.424   6.054  1.00  0.00    -0.550 OA
ATOM      8  O   UNL     1      16.167  -6.089   3.877  1.00  0.00    -0.550 OA
ENDBRANCH   5   6
ENDBRANCH   4   5
ENDBRANCH   3   4
ENDBRANCH   2   3
ENDBRANCH   1   2
BRANCH   1   9
ATOM      9  C   UNL     1       8.356  -5.483   3.303  1.00  0.00     0.000 C 
BRANCH   9  10
ATOM     10  C   UNL     1       7.165  -6.400   3.630  1.00  0.00    -0.000 C 
BRANCH  10  11
ATOM     11  C   UNL     1       7.117  -6.801   5.113  1.00  0.00    -0.000 C 
BRANCH  11  12
ATOM     12  C   UNL     1       5.687  -7.039   5.619  1.00  0.00    -0.000 C 
BRANCH  12  13
ATOM     13  C   UNL     1       5.455  -8.523   5.928  1.00  0.00    -0.003 C 
ATOM     14  C   UNL     1       4.866  -8.712   7.322  1.00  0.00     0.004 C 
ENDBRANCH  12  13
ENDBRANCH  11  12
ENDBRANCH  10  11
ENDBRANCH   9  10
ENDBRANCH   1   9
TORSDOF 10
ENDMDL
MODEL 3
REMARK VINA RESULT:    -3.143      4.219      6.886
REMARK INTER + INTRA:          -5.732
REMARK INTER:                  -5.142
REMARK INTRA:                  -0.590
REMARK UNBOUND:                -0.752
REMARK SMILES CCCCCCCCCCCC(=O)[O-]
REMARK SMILES IDX 7 1 8 2 9 3 10 4 11 5 12 6 13 7 14 8 6 9 5 10 4 11 3 12 2 13
REMARK SMILES IDX 1 14
REMARK H PARENT
REMARK Flexibility Score: inf
ROOT
ATOM      1  C   UNL     1       7.369  -5.232   2.976  1.00  0.00     0.000 C 
ENDROOT
BRANCH   1   2
ATOM      2  C   UNL     1       8.761  -4.595   3.130  1.00  0.00     0.000 C 
BRANCH   2   3
ATOM      3  C   UNL     1       9.720  -5.464   3.958  1.00  0.00     0.000 C 
BRANCH   3   4
ATOM      4  C   UNL     1      11.112  -5.588   3.321  1.00  0.00     0.006 C 
BRANCH   4   5
ATOM      5  C   UNL     1      12.169  -5.930   4.375  1.00  0.00     0.053 C 
BRANCH   5   6
ATOM      6  C   UNL     1      13.514  -5.431   3.951  1.00  0.00     0.041 C 
ATOM      7  O   UNL     1      13.627  -4.312   3.387  1.00  0.00    -0.550 OA
ATOM      8  O   UNL     1      14.640  -6.226   4.135  1.00  0.00    -0.550 OA
ENDBRANCH   5   6
ENDBRANCH   4   5
ENDBRANCH   3   4
ENDBRANCH   2   3
ENDBRANCH   1   2
BRANCH   1   9
ATOM      9  C   UNL     1       7.359  -6.727   3.336  1.00  0.00     0.000 C 
BRANCH   9  10
ATOM     10  C   UNL     1       6.009  -7.186   3.915  1.00  0.00    -0.000 C 
BRANCH  10  11
ATOM     11  C   UNL     1       5.499  -6.259   5.030  1.00  0.00    -0.000 C 
BRANCH  11  12
ATOM     12  C   UNL     1       5.663  -6.869   6.430  1.00  0.00    -0.000 C 
BRANCH  12  13
ATOM     13  C   UNL     1       5.497  -8.392   6.387  1.00  0.00    -0.003 C 
ATOM     14  C   UNL     1       4.634  -8.887   7.544  1.00  0.00     0.004 C 
ENDBRANCH  12  13
ENDBRANCH  11  12
ENDBRANCH  10  11
ENDBRANCH   9  10
ENDBRANCH   1   9
TORSDOF 10
ENDMDL
MODEL 4
REMARK VINA RESULT:    -3.085      3.422      5.997
REMARK INTER + INTRA:          -5.641
REMARK INTER:                  -4.507
REMARK INTRA:                  -1.133
REMARK UNBOUND:                -0.752
REMARK SMILES CCCCCCCCCCCC(=O)[O-]
REMARK SMILES IDX 7 1 8 2 9 3 10 4 11 5 12 6 13 7 14 8 6 9 5 10 4 11 3 12 2 13
REMARK SMILES IDX 1 14
REMARK H PARENT
REMARK Flexibility Score: inf
ROOT
ATOM      1  C   UNL     1       6.739  -6.765   5.157  1.00  0.00     0.000 C 
ENDROOT
BRANCH   1   2
ATOM      2  C   UNL     1       6.248  -6.670   3.702  1.00  0.00     0.000 C 
BRANCH   2   3
ATOM      3  C   UNL     1       6.776  -5.420   2.980  1.00  0.00     0.000 C 
BRANCH   3   4
ATOM      4  C   UNL     1       5.829  -4.217   3.105  1.00  0.00     0.006 C 
BRANCH   4   5
ATOM      5  C   UNL     1       4.369  -4.675   3.174  1.00  0.00     0.053 C 
BRANCH   5   6
ATOM      6  C   UNL     1       3.693  -4.091   4.374  1.00  0.00     0.041 C 
ATOM      7  O   UNL     1       4.072  -4.407   5.532  1.00  0.00    -0.550 OA
ATOM      8  O   UNL     1       2.609  -3.236   4.214  1.00  0.00    -0.550 OA
ENDBRANCH   5   6
ENDBRANCH   4   5
ENDBRANCH   3   4
ENDBRANCH   2   3
ENDBRANCH   1   2
BRANCH   1   9
ATOM      9  C   UNL     1       6.415  -8.122   5.803  1.00  0.00     0.000 C 
BRANCH   9  10
ATOM     10  C   UNL     1       5.232  -8.042   6.784  1.00  0.00    -0.000 C 
BRANCH  10  11
ATOM     11  C   UNL     1       4.071  -8.968   6.387  1.00  0.00    -0.000 C 
BRANCH  11  12
ATOM     12  C   UNL     1       4.194  -9.492   4.949  1.00  0.00    -0.000 C 
BRANCH  12  13
ATOM     13  C   UNL     1       2.915  -9.210   4.152  1.00  0.00    -0.003 C 
ATOM     14  C   UNL     1       2.647  -7.711   4.049  1.00  0.00     0.004 C 
ENDBRANCH  12  13
ENDBRANCH  11  12
ENDBRANCH  10  11
ENDBRANCH   9  10
ENDBRANCH   1   9
TORSDOF 10
ENDMDL
MODEL 5
REMARK VINA RESULT:    -2.889      1.843      3.817
REMARK INTER + INTRA:          -5.330
REMARK INTER:                  -4.973
REMARK INTRA:                  -0.356
REMARK UNBOUND:                -0.752
REMARK SMILES CCCCCCCCCCCC(=O)[O-]
REMARK SMILES IDX 7 1 8 2 9 3 10 4 11 5 12 6 13 7 14 8 6 9 5 10 4 11 3 12 2 13
REMARK SMILES IDX 1 14
REMARK H PARENT
REMARK Flexibility Score: inf
ROOT
ATOM      1  C   UNL     1      10.663  -5.966   3.484  1.00  0.00     0.000 C 
ENDROOT
BRANCH   1   2
ATOM      2  C   UNL     1       9.396  -5.566   4.259  1.00  0.00     0.000 C 
BRANCH   2   3
ATOM      3  C   UNL     1       8.198  -5.295   3.334  1.00  0.00     0.000 C 
BRANCH   3   4
ATOM      4  C   UNL     1       6.922  -6.018   3.787  1.00  0.00     0.006 C 
BRANCH   4   5
ATOM      5  C   UNL     1       7.126  -6.690   5.148  1.00  0.00     0.053 C 
BRANCH   5   6
ATOM      6  C   UNL     1       6.115  -7.772   5.356  1.00  0.00     0.041 C 
ATOM      7  O   UNL     1       5.871  -8.198   6.515  1.00  0.00    -0.550 OA
ATOM      8  O   UNL     1       5.476  -8.347   4.263  1.00  0.00    -0.550 OA
ENDBRANCH   5   6
ENDBRANCH   4   5
ENDBRANCH   3   4
ENDBRANCH   2   3
ENDBRANCH   1   2
BRANCH   1   9
ATOM      9  C   UNL     1      11.908  -6.036   4.383  1.00  0.00     0.000 C 
BRANCH   9  10
ATOM     10  C   UNL     1      13.094  -5.236   3.813  1.00  0.00    -0.000 C 
BRANCH  10  11
ATOM     11  C   UNL     1      14.345  -5.322   4.701  1.00  0.00    -0.000 C 
BRANCH  11  12
ATOM     12  C   UNL     1      15.532  -5.993   3.993  1.00  0.00    -0.000 C 
BRANCH  12  13
ATOM     13  C   UNL     1      16.751  -6.069   4.919  1.00  0.00    -0.003 C 
ATOM     14  C   UNL     1      16.474  -5.386   6.255  1.00  0.00     0.004 C 
ENDBRANCH  12  13
ENDBRANCH  11  12
ENDBRANCH  10  11
ENDBRANCH   9  10
ENDBRANCH   1   9
TORSDOF 10
ENDMDL
MODEL 6
REMARK VINA RESULT:    -2.826      3.751      6.685
REMARK INTER + INTRA:          -5.230
REMARK INTER:                  -4.532
REMARK INTRA:                  -0.698
REMARK UNBOUND:                -0.752
REMARK SMILES CCCCCCCCCCCC(=O)[O-]
REMARK SMILES IDX 7 1 8 2 9 3 10 4 11 5 12 6 13 7 14 8 6 9 5 10 4 11 3 12 2 13
REMARK SMILES IDX 1 14
REMARK H PARENT
REMARK Flexibility Score: inf
ROOT
ATOM      1  C   UNL     1       6.051  -5.908   4.022  1.00  0.00     0.000 C 
ENDROOT
BRANCH   1   2
ATOM      2  C   UNL     1       7.109  -5.356   3.050  1.00  0.00     0.000 C 
BRANCH   2   3
ATOM      3  C   UNL     1       8.437  -6.126   3.124  1.00  0.00     0.000 C 
BRANCH   3   4
ATOM      4  C   UNL     1       9.632  -5.219   3.449  1.00  0.00     0.006 C 
BRANCH   4   5
ATOM      5  C   UNL     1      10.603  -5.914   4.409  1.00  0.00     0.053 C 
BRANCH   5   6
ATOM      6  C   UNL     1      11.973  -5.980   3.814  1.00  0.00     0.041 C 
ATOM      7  O   UNL     1      12.655  -7.033   3.906  1.00  0.00    -0.550 OA
ATOM      8  O   UNL     1      12.519  -4.858   3.200  1.00  0.00    -0.550 OA
ENDBRANCH   5   6
ENDBRANCH   4   5
ENDBRANCH   3   4
ENDBRANCH   2   3
ENDBRANCH   1   2
BRANCH   1   9
ATOM      9  C   UNL     1       6.624  -6.961   4.984  1.00  0.00     0.000 C 
BRANCH   9  10
ATOM     10  C   UNL     1       5.797  -7.093   6.275  1.00  0.00    -0.000 C 
BRANCH  10  11
ATOM     11  C   UNL     1       5.519  -8.557   6.652  1.00  0.00    -0.000 C 
BRANCH  11  12
ATOM     12  C   UNL     1       4.031  -8.925   6.547  1.00  0.00    -0.000 C 
BRANCH  12  13
ATOM     13  C   UNL     1       3.679  -9.383   5.127  1.00  0.00    -0.003 C 
ATOM     14  C   UNL     1       3.037  -8.254   4.326  1.00  0.00     0.004 C 
ENDBRANCH  12  13
ENDBRANCH  11  12
ENDBRANCH  10  11
ENDBRANCH   9  10
ENDBRANCH   1   9
TORSDOF 10
ENDMDL
MODEL 7
REMARK VINA RESULT:    -2.721      2.945      5.738
REMARK INTER + INTRA:          -5.063
REMARK INTER:                  -4.683
REMARK INTRA:                  -0.380
REMARK UNBOUND:                -0.752
REMARK SMILES CCCCCCCCCCCC(=O)[O-]
REMARK SMILES IDX 7 1 8 2 9 3 10 4 11 5 12 6 13 7 14 8 6 9 5 10 4 11 3 12 2 13
REMARK SMILES IDX 1 14
REMARK H PARENT
REMARK Flexibility Score: inf
ROOT
ATOM      1  C   UNL     1      12.589  -6.009   4.490  1.00  0.00     0.000 C 
ENDROOT
BRANCH   1   2
ATOM      2  C   UNL     1      11.826  -5.413   3.294  1.00  0.00     0.000 C 
BRANCH   2   3
ATOM      3  C   UNL     1      10.421  -6.015   3.130  1.00  0.00     0.000 C 
BRANCH   3   4
ATOM      4  C   UNL     1       9.374  -5.335   4.024  1.00  0.00     0.006 C 
BRANCH   4   5
ATOM      5  C   UNL     1       8.040  -5.182   3.287  1.00  0.00     0.053 C 
BRANCH   5   6
ATOM      6  C   UNL     1       7.001  -6.073   3.890  1.00  0.00     0.041 C 
ATOM      7  O   UNL     1       7.246  -6.705   4.950  1.00  0.00    -0.550 OA
ATOM      8  O   UNL     1       5.778  -6.244   3.253  1.00  0.00    -0.550 OA
ENDBRANCH   5   6
ENDBRANCH   4   5
ENDBRANCH   3   4
ENDBRANCH   2   3
ENDBRANCH   1   2
BRANCH   1   9
ATOM      9  C   UNL     1      13.931  -5.304   4.745  1.00  0.00     0.000 C 
BRANCH   9  10
ATOM     10  C   UNL     1      15.022  -5.733   3.747  1.00  0.00    -0.000 C 
BRANCH  10  11
ATOM     11  C   UNL     1      16.435  -5.646   4.344  1.00  0.00    -0.000 C 
BRANCH  11  12
ATOM     12  C   UNL     1      17.423  -6.613   3.675  1.00  0.00    -0.000 C 
BRANCH  12  13
ATOM     13  C   UNL     1      17.310  -8.017   4.279  1.00  0.00    -0.003 C 
ATOM     14  C   UNL     1      17.669  -8.011   5.762  1.00  0.00     0.004 C 
ENDBRANCH  12  13
ENDBRANCH  11  12
ENDBRANCH  10  11
ENDBRANCH   9  10
ENDBRANCH   1   9
TORSDOF 10
ENDMDL
MODEL 8
REMARK VINA RESULT:    -2.660      5.346      9.058
REMARK INTER + INTRA:          -4.967
REMARK INTER:                  -4.450
REMARK INTRA:                  -0.518
REMARK UNBOUND:                -0.752
REMARK SMILES CCCCCCCCCCCC(=O)[O-]
REMARK SMILES IDX 7 1 8 2 9 3 10 4 11 5 12 6 13 7 14 8 6 9 5 10 4 11 3 12 2 13
REMARK SMILES IDX 1 14
REMARK H PARENT
REMARK Flexibility Score: inf
ROOT
ATOM      1  C   UNL     1      14.216  -5.226   5.176  1.00  0.00     0.000 C 
ENDROOT
BRANCH   1   2
ATOM      2  C   UNL     1      15.719  -5.441   4.928  1.00  0.00     0.000 C 
BRANCH   2   3
ATOM      3  C   UNL     1      16.046  -5.669   3.443  1.00  0.00     0.000 C 
BRANCH   3   4
ATOM      4  C   UNL     1      16.674  -7.045   3.177  1.00  0.00     0.006 C 
BRANCH   4   5
ATOM      5  C   UNL     1      17.221  -7.657   4.469  1.00  0.00     0.053 C 
BRANCH   5   6
ATOM      6  C   UNL     1      16.920  -9.121   4.525  1.00  0.00     0.041 C 
ATOM      7  O   UNL     1      16.064  -9.623   3.751  1.00  0.00    -0.550 OA
ATOM      8  O   UNL     1      17.551  -9.925   5.468  1.00  0.00    -0.550 OA
ENDBRANCH   5   6
ENDBRANCH   4   5
ENDBRANCH   3   4
ENDBRANCH   2   3
ENDBRANCH   1   2
BRANCH   1   9
ATOM      9  C   UNL     1      13.390  -5.274   3.880  1.00  0.00     0.000 C 
BRANCH   9  10
ATOM     10  C   UNL     1      12.179  -6.218   3.987  1.00  0.00    -0.000 C 
BRANCH  10  11
ATOM     11  C   UNL     1      10.894  -5.598   3.415  1.00  0.00    -0.000 C 
BRANCH  11  12
ATOM     12  C   UNL     1       9.721  -5.643   4.405  1.00  0.00    -0.000 C 
BRANCH  12  13
ATOM     13  C   UNL     1       8.384  -5.757   3.664  1.00  0.00    -0.003 C 
ATOM     14  C   UNL     1       7.349  -6.503   4.502  1.00  0.00     0.004 C 
ENDBRANCH  12  13
ENDBRANCH  11  12
ENDBRANCH  10  11
ENDBRANCH   9  10
ENDBRANCH   1   9
TORSDOF 10
ENDMDL
