MODEL 1
REMARK VINA RESULT:    -2.416      0.000      0.000
REMARK INTER + INTRA:          -2.416
REMARK INTER:                  -2.416
REMARK INTRA:                   0.000
REMARK UNBOUND:                 0.000
REMARK SMILES CC(=O)[O-]
REMARK SMILES IDX 1 1 2 2 3 3 4 4
REMARK H PARENT
REMARK Flexibility Score: inf
ROOT
ATOM      1  C   UNL     1     126.090 144.986 140.005  1.00  0.00     0.063 C 
ATOM      2  C   UNL     1     125.988 145.182 138.530  1.00  0.00     0.038 C 
ATOM      3  O   UNL     1     126.046 144.192 137.755  1.00  0.00    -0.550 OA
ATOM      4  O   UNL     1     125.774 146.453 138.010  1.00  0.00    -0.550 OA
ENDROOT
TORSDOF 0
ENDMDL
MODEL 2
REMARK VINA RESULT:    -2.390      1.465      2.286
REMARK INTER + INTRA:          -2.390
REMARK INTER:                  -2.390
REMARK INTRA:                   0.000
REMARK UNBOUND:                 0.000
REMARK SMILES CC(=O)[O-]
REMARK SMILES IDX 1 1 2 2 3 3 4 4
REMARK H PARENT
REMARK Flexibility Score: inf
ROOT
ATOM      1  C   UNL     1     125.750 146.135 138.001  1.00  0.00     0.063 C 
ATOM      2  C   UNL     1     126.125 145.078 138.984  1.00  0.00     0.038 C 
ATOM      3  O   UNL     1     126.301 145.375 140.195  1.00  0.00    -0.550 OA
ATOM      4  O   UNL     1     126.227 143.754 138.576  1.00  0.00    -0.550 OA
ENDROOT
TORSDOF 0
ENDMDL
MODEL 3
REMARK VINA RESULT:    -2.315     17.726     18.135
REMARK INTER + INTRA:          -2.315
REMARK INTER:                  -2.315
REMARK INTRA:                   0.000
REMARK UNBOUND:                 0.000
REMARK SMILES CC(=O)[O-]
REMARK SMILES IDX 1 1 2 2 3 3 4 4
REMARK H PARENT
REMARK Flexibility Score: inf
ROOT
ATOM      1  C   UNL     1     140.415 133.264 138.721  1.00  0.00     0.063 C 
ATOM      2  C   UNL     1     139.268 133.079 139.655  1.00  0.00     0.038 C 
ATOM      3  O   UNL     1     139.414 133.301 140.886  1.00  0.00    -0.550 OA
ATOM      4  O   UNL     1     138.021 132.714 139.163  1.00  0.00    -0.550 OA
ENDROOT
TORSDOF 0
ENDMDL
MODEL 4
REMARK VINA RESULT:    -2.271      1.604      1.753
REMARK INTER + INTRA:          -2.271
REMARK INTER:                  -2.271
REMARK INTRA:                   0.000
REMARK UNBOUND:                 0.000
REMARK SMILES CC(=O)[O-]
REMARK SMILES IDX 1 1 2 2 3 3 4 4
REMARK H PARENT
REMARK Flexibility Score: inf
ROOT
ATOM      1  C   UNL     1     126.365 143.550 138.624  1.00  0.00     0.063 C 
ATOM      2  C   UNL     1     126.140 144.955 139.070  1.00  0.00     0.038 C 
ATOM      3  O   UNL     1     126.316 145.271 140.276  1.00  0.00    -0.550 OA
ATOM      4  O   UNL     1     125.789 145.931 138.146  1.00  0.00    -0.550 OA
ENDROOT
TORSDOF 0
ENDMDL
MODEL 5
REMARK VINA RESULT:    -2.257     17.372     17.738
REMARK INTER + INTRA:          -2.257
REMARK INTER:                  -2.257
REMARK INTRA:                   0.000
REMARK UNBOUND:                 0.000
REMARK SMILES CC(=O)[O-]
REMARK SMILES IDX 1 1 2 2 3 3 4 4
REMARK H PARENT
REMARK Flexibility Score: inf
ROOT
ATOM      1  C   UNL     1     140.386 133.358 138.888  1.00  0.00     0.063 C 
ATOM      2  C   UNL     1     139.171 133.497 138.034  1.00  0.00     0.038 C 
ATOM      3  O   UNL     1     139.277 133.902 136.846  1.00  0.00    -0.550 OA
ATOM      4  O   UNL     1     137.927 133.129 138.529  1.00  0.00    -0.550 OA
ENDROOT
TORSDOF 0
ENDMDL
MODEL 6
REMARK VINA RESULT:    -2.241      1.767      2.281
REMARK INTER + INTRA:          -2.241
REMARK INTER:                  -2.241
REMARK INTRA:                   0.000
REMARK UNBOUND:                 0.000
REMARK SMILES CC(=O)[O-]
REMARK SMILES IDX 1 1 2 2 3 3 4 4
REMARK H PARENT
REMARK Flexibility Score: inf
ROOT
ATOM      1  C   UNL     1     127.271 143.161 140.325  1.00  0.00     0.063 C 
ATOM      2  C   UNL     1     126.325 143.988 139.521  1.00  0.00     0.038 C 
ATOM      3  O   UNL     1     125.688 144.927 140.065  1.00  0.00    -0.550 OA
ATOM      4  O   UNL     1     126.186 143.758 138.158  1.00  0.00    -0.550 OA
ENDROOT
TORSDOF 0
ENDMDL
MODEL 7
REMARK VINA RESULT:    -2.227      2.029      2.678
REMARK INTER + INTRA:          -2.227
REMARK INTER:                  -2.227
REMARK INTRA:                   0.000
REMARK UNBOUND:                 0.000
REMARK SMILES CC(=O)[O-]
REMARK SMILES IDX 1 1 2 2 3 3 4 4
REMARK H PARENT
REMARK Flexibility Score: inf
ROOT
ATOM      1  C   UNL     1     126.056 144.990 139.879  1.00  0.00     0.063 C 
ATOM      2  C   UNL     1     126.402 143.549 139.713  1.00  0.00     0.038 C 
ATOM      3  O   UNL     1     126.401 143.027 138.568  1.00  0.00    -0.550 OA
ATOM      4  O   UNL     1     126.778 142.792 140.816  1.00  0.00    -0.550 OA
ENDROOT
TORSDOF 0
ENDMDL
MODEL 8
REMARK VINA RESULT:    -2.213     18.079     18.293
REMARK INTER + INTRA:          -2.213
REMARK INTER:                  -2.213
REMARK INTRA:                   0.000
REMARK UNBOUND:                 0.000
REMARK SMILES CC(=O)[O-]
REMARK SMILES IDX 1 1 2 2 3 3 4 4
REMARK H PARENT
REMARK Flexibility Score: inf
ROOT
ATOM      1  C   UNL     1     139.636 133.714 137.467  1.00  0.00     0.063 C 
ATOM      2  C   UNL     1     140.025 133.622 138.904  1.00  0.00     0.038 C 
ATOM      3  O   UNL     1     139.795 132.570 139.554  1.00  0.00    -0.550 OA
ATOM      4  O   UNL     1     140.691 134.678 139.513  1.00  0.00    -0.550 OA
ENDROOT
TORSDOF 0
ENDMDL
MODEL 9
REMARK VINA RESULT:    -2.211     18.032     18.166
REMARK INTER + INTRA:          -2.211
REMARK INTER:                  -2.211
REMARK INTRA:                   0.000
REMARK UNBOUND:                 0.000
REMARK SMILES CC(=O)[O-]
REMARK SMILES IDX 1 1 2 2 3 3 4 4
REMARK H PARENT
REMARK Flexibility Score: inf
ROOT
ATOM      1  C   UNL     1     143.688 142.694 136.165  1.00  0.00     0.063 C 
ATOM      2  C   UNL     1     143.815 144.155 135.895  1.00  0.00     0.038 C 
ATOM      3  O   UNL     1     143.700 144.984 136.836  1.00  0.00    -0.550 OA
ATOM      4  O   UNL     1     144.116 144.603 134.615  1.00  0.00    -0.550 OA
ENDROOT
TORSDOF 0
ENDMDL
