MODEL 1
REMARK VINA RESULT:    -3.393      0.000      0.000
REMARK INTER + INTRA:          -5.732
REMARK INTER:                  -5.179
REMARK INTRA:                  -0.554
REMARK UNBOUND:                -0.554
REMARK SMILES O=C([O-])CCCCCCCCC(=O)[O-]
REMARK SMILES IDX 7 1 6 2 5 3 4 4 2 5 1 6 3 7 8 8 9 9 10 10 11 11 12 12 13 13
REMARK SMILES IDX 14 14
REMARK H PARENT
REMARK Flexibility Score: inf
ROOT
ATOM      1  C   UNL     1      18.905  28.848  55.583  1.00  0.00     0.000 C 
ENDROOT
BRANCH   1   2
ATOM      2  C   UNL     1      20.373  28.771  56.028  1.00  0.00     0.000 C 
BRANCH   2   3
ATOM      3  C   UNL     1      20.957  30.148  56.378  1.00  0.00     0.006 C 
BRANCH   3   4
ATOM      4  C   UNL     1      21.917  30.096  57.574  1.00  0.00     0.053 C 
BRANCH   4   5
ATOM      5  C   UNL     1      21.168  30.300  58.853  1.00  0.00     0.041 C 
ATOM      6  O   UNL     1      21.101  31.444  59.373  1.00  0.00    -0.550 OA
ATOM      7  O   UNL     1      20.585  29.215  59.497  1.00  0.00    -0.550 OA
ENDBRANCH   4   5
ENDBRANCH   3   4
ENDBRANCH   2   3
ENDBRANCH   1   2
BRANCH   1   8
ATOM      8  C   UNL     1      18.697  29.975  54.565  1.00  0.00     0.000 C 
BRANCH   8   9
ATOM      9  C   UNL     1      17.244  30.021  54.080  1.00  0.00     0.000 C 
BRANCH   9  10
ATOM     10  C   UNL     1      16.288  29.479  55.153  1.00  0.00     0.006 C 
BRANCH  10  11
ATOM     11  C   UNL     1      15.158  28.634  54.551  1.00  0.00     0.053 C 
BRANCH  11  12
ATOM     12  C   UNL     1      15.675  27.654  53.543  1.00  0.00     0.041 C 
ATOM     13  O   UNL     1      16.399  26.691  53.908  1.00  0.00    -0.550 OA
ATOM     14  O   UNL     1      15.331  27.787  52.203  1.00  0.00    -0.550 OA
ENDBRANCH  11  12
ENDBRANCH  10  11
ENDBRANCH   9  10
ENDBRANCH   8   9
ENDBRANCH   1   8
TORSDOF 9
ENDMDL
MODEL 2
REMARK VINA RESULT:    -3.379     11.117     13.724
REMARK INTER + INTRA:          -5.710
REMARK INTER:                  -5.242
REMARK INTRA:                  -0.469
REMARK UNBOUND:                -0.554
REMARK SMILES O=C([O-])CCCCCCCCC(=O)[O-]
REMARK SMILES IDX 7 1 6 2 5 3 4 4 2 5 1 6 3 7 8 8 9 9 10 10 11 11 12 12 13 13
REMARK SMILES IDX 14 14
REMARK H PARENT
REMARK Flexibility Score: inf
ROOT
ATOM      1  C   UNL     1      16.880  18.881  50.039  1.00  0.00     0.000 C 
ENDROOT
BRANCH   1   2
ATOM      2  C   UNL     1      17.551  19.216  48.699  1.00  0.00     0.000 C 
BRANCH   2   3
ATOM      3  C   UNL     1      17.175  18.227  47.585  1.00  0.00     0.006 C 
BRANCH   3   4
ATOM      4  C   UNL     1      16.099  18.780  46.642  1.00  0.00     0.053 C 
BRANCH   4   5
ATOM      5  C   UNL     1      14.761  18.203  46.981  1.00  0.00     0.041 C 
ATOM      6  O   UNL     1      14.058  18.721  47.888  1.00  0.00    -0.550 OA
ATOM      7  O   UNL     1      14.311  17.062  46.328  1.00  0.00    -0.550 OA
ENDBRANCH   4   5
ENDBRANCH   3   4
ENDBRANCH   2   3
ENDBRANCH   1   2
BRANCH   1   8
ATOM      8  C   UNL     1      17.897  18.914  51.186  1.00  0.00     0.000 C 
BRANCH   8   9
ATOM      9  C   UNL     1      17.861  17.611  51.994  1.00  0.00     0.000 C 
BRANCH   9  10
ATOM     10  C   UNL     1      16.527  17.463  52.740  1.00  0.00     0.006 C 
BRANCH  10  11
ATOM     11  C   UNL     1      16.234  18.662  53.651  1.00  0.00     0.053 C 
BRANCH  11  12
ATOM     12  C   UNL     1      16.988  18.574  54.943  1.00  0.00     0.041 C 
ATOM     13  O   UNL     1      16.524  17.908  55.904  1.00  0.00    -0.550 OA
ATOM     14  O   UNL     1      18.220  19.204  55.072  1.00  0.00    -0.550 OA
ENDBRANCH  11  12
ENDBRANCH  10  11
ENDBRANCH   9  10
ENDBRANCH   8   9
ENDBRANCH   1   8
TORSDOF 9
ENDMDL
MODEL 3
REMARK VINA RESULT:    -3.359     11.090     12.500
REMARK INTER + INTRA:          -5.680
REMARK INTER:                  -5.253
REMARK INTRA:                  -0.427
REMARK UNBOUND:                -0.554
REMARK SMILES O=C([O-])CCCCCCCCC(=O)[O-]
REMARK SMILES IDX 7 1 6 2 5 3 4 4 2 5 1 6 3 7 8 8 9 9 10 10 11 11 12 12 13 13
REMARK SMILES IDX 14 14
REMARK H PARENT
REMARK Flexibility Score: inf
ROOT
ATOM      1  C   UNL     1      18.038  18.690  51.258  1.00  0.00     0.000 C 
ENDROOT
BRANCH   1   2
ATOM      2  C   UNL     1      17.829  17.474  52.173  1.00  0.00     0.000 C 
BRANCH   2   3
ATOM      3  C   UNL     1      16.457  17.484  52.866  1.00  0.00     0.006 C 
BRANCH   3   4
ATOM      4  C   UNL     1      16.246  18.724  53.743  1.00  0.00     0.053 C 
BRANCH   4   5
ATOM      5  C   UNL     1      17.023  18.602  55.015  1.00  0.00     0.041 C 
ATOM      6  O   UNL     1      18.149  19.154  55.126  1.00  0.00    -0.550 OA
ATOM      7  O   UNL     1      16.525  17.837  56.063  1.00  0.00    -0.550 OA
ENDBRANCH   4   5
ENDBRANCH   3   4
ENDBRANCH   2   3
ENDBRANCH   1   2
BRANCH   1   8
ATOM      8  C   UNL     1      16.981  18.731  50.148  1.00  0.00     0.000 C 
BRANCH   8   9
ATOM      9  C   UNL     1      17.624  18.554  48.768  1.00  0.00     0.000 C 
BRANCH   9  10
ATOM     10  C   UNL     1      16.786  19.239  47.678  1.00  0.00     0.006 C 
BRANCH  10  11
ATOM     11  C   UNL     1      16.215  18.236  46.668  1.00  0.00     0.053 C 
BRANCH  11  12
ATOM     12  C   UNL     1      14.763  17.963  46.917  1.00  0.00     0.041 C 
ATOM     13  O   UNL     1      14.103  18.705  47.690  1.00  0.00    -0.550 OA
ATOM     14  O   UNL     1      14.133  16.908  46.270  1.00  0.00    -0.550 OA
ENDBRANCH  11  12
ENDBRANCH  10  11
ENDBRANCH   9  10
ENDBRANCH   8   9
ENDBRANCH   1   8
TORSDOF 9
ENDMDL
MODEL 4
REMARK VINA RESULT:    -3.235      0.983      6.812
REMARK INTER + INTRA:          -5.490
REMARK INTER:                  -5.000
REMARK INTRA:                  -0.490
REMARK UNBOUND:                -0.554
REMARK SMILES O=C([O-])CCCCCCCCC(=O)[O-]
REMARK SMILES IDX 7 1 6 2 5 3 4 4 2 5 1 6 3 7 8 8 9 9 10 10 11 11 12 12 13 13
REMARK SMILES IDX 14 14
REMARK H PARENT
REMARK Flexibility Score: inf
ROOT
ATOM      1  C   UNL     1      18.541  29.362  54.129  1.00  0.00     0.000 C 
ENDROOT
BRANCH   1   2
ATOM      2  C   UNL     1      17.163  30.042  54.147  1.00  0.00     0.000 C 
BRANCH   2   3
ATOM      3  C   UNL     1      16.210  29.420  55.179  1.00  0.00     0.006 C 
BRANCH   3   4
ATOM      4  C   UNL     1      15.866  27.959  54.861  1.00  0.00     0.053 C 
BRANCH   4   5
ATOM      5  C   UNL     1      14.873  27.887  53.746  1.00  0.00     0.041 C 
ATOM      6  O   UNL     1      15.254  27.634  52.573  1.00  0.00    -0.550 OA
ATOM      7  O   UNL     1      13.530  28.147  53.993  1.00  0.00    -0.550 OA
ENDBRANCH   4   5
ENDBRANCH   3   4
ENDBRANCH   2   3
ENDBRANCH   1   2
BRANCH   1   8
ATOM      8  C   UNL     1      19.441  29.918  55.239  1.00  0.00     0.000 C 
BRANCH   8   9
ATOM      9  C   UNL     1      19.737  28.850  56.297  1.00  0.00     0.000 C 
BRANCH   9  10
ATOM     10  C   UNL     1      21.222  28.858  56.689  1.00  0.00     0.006 C 
BRANCH  10  11
ATOM     11  C   UNL     1      21.576  30.039  57.602  1.00  0.00     0.053 C 
BRANCH  11  12
ATOM     12  C   UNL     1      21.124  29.805  59.011  1.00  0.00     0.041 C 
ATOM     13  O   UNL     1      21.169  28.649  59.508  1.00  0.00    -0.550 OA
ATOM     14  O   UNL     1      20.683  30.871  59.785  1.00  0.00    -0.550 OA
ENDBRANCH  11  12
ENDBRANCH  10  11
ENDBRANCH   9  10
ENDBRANCH   8   9
ENDBRANCH   1   8
TORSDOF 9
ENDMDL
MODEL 5
REMARK VINA RESULT:    -3.218     14.604     16.637
REMARK INTER + INTRA:          -5.464
REMARK INTER:                  -5.134
REMARK INTRA:                  -0.330
REMARK UNBOUND:                -0.554
REMARK SMILES O=C([O-])CCCCCCCCC(=O)[O-]
REMARK SMILES IDX 7 1 6 2 5 3 4 4 2 5 1 6 3 7 8 8 9 9 10 10 11 11 12 12 13 13
REMARK SMILES IDX 14 14
REMARK H PARENT
REMARK Flexibility Score: inf
ROOT
ATOM      1  C   UNL     1      18.629  20.321  44.774  1.00  0.00     0.000 C 
ENDROOT
BRANCH   1   2
ATOM      2  C   UNL     1      17.182  19.918  45.096  1.00  0.00     0.000 C 
BRANCH   2   3
ATOM      3  C   UNL     1      17.077  18.498  45.671  1.00  0.00     0.006 C 
BRANCH   3   4
ATOM      4  C   UNL     1      16.208  18.434  46.934  1.00  0.00     0.053 C 
BRANCH   4   5
ATOM      5  C   UNL     1      14.835  17.943  46.598  1.00  0.00     0.041 C 
ATOM      6  O   UNL     1      14.661  16.754  46.225  1.00  0.00    -0.550 OA
ATOM      7  O   UNL     1      13.754  18.814  46.650  1.00  0.00    -0.550 OA
ENDBRANCH   4   5
ENDBRANCH   3   4
ENDBRANCH   2   3
ENDBRANCH   1   2
BRANCH   1   8
ATOM      8  C   UNL     1      19.606  19.196  45.137  1.00  0.00     0.000 C 
BRANCH   8   9
ATOM      9  C   UNL     1      21.020  19.510  44.637  1.00  0.00     0.000 C 
BRANCH   9  10
ATOM     10  C   UNL     1      21.827  18.221  44.420  1.00  0.00     0.006 C 
BRANCH  10  11
ATOM     11  C   UNL     1      22.972  18.414  43.417  1.00  0.00     0.053 C 
BRANCH  11  12
ATOM     12  C   UNL     1      22.908  17.416  42.302  1.00  0.00     0.041 C 
ATOM     13  O   UNL     1      23.031  17.792  41.107  1.00  0.00    -0.550 OA
ATOM     14  O   UNL     1      22.745  16.066  42.586  1.00  0.00    -0.550 OA
ENDBRANCH  11  12
ENDBRANCH  10  11
ENDBRANCH   9  10
ENDBRANCH   8   9
ENDBRANCH   1   8
TORSDOF 9
ENDMDL
MODEL 6
REMARK VINA RESULT:    -3.184      1.449      2.143
REMARK INTER + INTRA:          -5.413
REMARK INTER:                  -4.734
REMARK INTRA:                  -0.679
REMARK UNBOUND:                -0.554
REMARK SMILES O=C([O-])CCCCCCCCC(=O)[O-]
REMARK SMILES IDX 7 1 6 2 5 3 4 4 2 5 1 6 3 7 8 8 9 9 10 10 11 11 12 12 13 13
REMARK SMILES IDX 14 14
REMARK H PARENT
REMARK Flexibility Score: inf
ROOT
ATOM      1  C   UNL     1      18.464  29.326  54.064  1.00  0.00     0.000 C 
ENDROOT
BRANCH   1   2
ATOM      2  C   UNL     1      19.444  29.902  55.098  1.00  0.00     0.000 C 
BRANCH   2   3
ATOM      3  C   UNL     1      20.247  28.812  55.823  1.00  0.00     0.006 C 
BRANCH   3   4
ATOM      4  C   UNL     1      19.450  28.137  56.945  1.00  0.00     0.053 C 
BRANCH   4   5
ATOM      5  C   UNL     1      20.008  28.513  58.281  1.00  0.00     0.041 C 
ATOM      6  O   UNL     1      19.639  27.900  59.317  1.00  0.00    -0.550 OA
ATOM      7  O   UNL     1      20.899  29.574  58.389  1.00  0.00    -0.550 OA
ENDBRANCH   4   5
ENDBRANCH   3   4
ENDBRANCH   2   3
ENDBRANCH   1   2
BRANCH   1   8
ATOM      8  C   UNL     1      17.121  30.065  54.108  1.00  0.00     0.000 C 
BRANCH   8   9
ATOM      9  C   UNL     1      16.220  29.504  55.214  1.00  0.00     0.000 C 
BRANCH   9  10
ATOM     10  C   UNL     1      15.739  28.087  54.868  1.00  0.00     0.006 C 
BRANCH  10  11
ATOM     11  C   UNL     1      14.397  28.094  54.125  1.00  0.00     0.053 C 
BRANCH  11  12
ATOM     12  C   UNL     1      14.567  27.790  52.668  1.00  0.00     0.041 C 
ATOM     13  O   UNL     1      13.608  27.958  51.870  1.00  0.00    -0.550 OA
ATOM     14  O   UNL     1      15.794  27.351  52.188  1.00  0.00    -0.550 OA
ENDBRANCH  11  12
ENDBRANCH  10  11
ENDBRANCH   9  10
ENDBRANCH   8   9
ENDBRANCH   1   8
TORSDOF 9
ENDMDL
MODEL 7
REMARK VINA RESULT:    -3.177      2.013      5.885
REMARK INTER + INTRA:          -5.403
REMARK INTER:                  -4.595
REMARK INTRA:                  -0.807
REMARK UNBOUND:                -0.554
REMARK SMILES O=C([O-])CCCCCCCCC(=O)[O-]
REMARK SMILES IDX 7 1 6 2 5 3 4 4 2 5 1 6 3 7 8 8 9 9 10 10 11 11 12 12 13 13
REMARK SMILES IDX 14 14
REMARK H PARENT
REMARK Flexibility Score: inf
ROOT
ATOM      1  C   UNL     1      21.741  28.542  55.672  1.00  0.00     0.000 C 
ENDROOT
BRANCH   1   2
ATOM      2  C   UNL     1      20.648  28.783  54.620  1.00  0.00     0.000 C 
BRANCH   2   3
ATOM      3  C   UNL     1      19.563  29.755  55.107  1.00  0.00     0.006 C 
BRANCH   3   4
ATOM      4  C   UNL     1      18.199  29.077  55.287  1.00  0.00     0.053 C 
BRANCH   4   5
ATOM      5  C   UNL     1      17.164  29.752  54.443  1.00  0.00     0.041 C 
ATOM      6  O   UNL     1      17.510  30.568  53.549  1.00  0.00    -0.550 OA
ATOM      7  O   UNL     1      15.815  29.517  54.677  1.00  0.00    -0.550 OA
ENDBRANCH   4   5
ENDBRANCH   3   4
ENDBRANCH   2   3
ENDBRANCH   1   2
BRANCH   1   8
ATOM      8  C   UNL     1      22.429  29.857  56.060  1.00  0.00     0.000 C 
BRANCH   8   9
ATOM      9  C   UNL     1      22.615  29.954  57.578  1.00  0.00     0.000 C 
BRANCH   9  10
ATOM     10  C   UNL     1      21.397  30.612  58.243  1.00  0.00     0.006 C 
BRANCH  10  11
ATOM     11  C   UNL     1      20.965  29.880  59.519  1.00  0.00     0.053 C 
BRANCH  11  12
ATOM     12  C   UNL     1      20.469  28.497  59.225  1.00  0.00     0.041 C 
ATOM     13  O   UNL     1      21.077  27.495  59.684  1.00  0.00    -0.550 OA
ATOM     14  O   UNL     1      19.317  28.318  58.470  1.00  0.00    -0.550 OA
ENDBRANCH  11  12
ENDBRANCH  10  11
ENDBRANCH   9  10
ENDBRANCH   8   9
ENDBRANCH   1   8
TORSDOF 9
ENDMDL
MODEL 8
REMARK VINA RESULT:    -3.099      1.254      2.076
REMARK INTER + INTRA:          -5.284
REMARK INTER:                  -4.682
REMARK INTRA:                  -0.602
REMARK UNBOUND:                -0.554
REMARK SMILES O=C([O-])CCCCCCCCC(=O)[O-]
REMARK SMILES IDX 7 1 6 2 5 3 4 4 2 5 1 6 3 7 8 8 9 9 10 10 11 11 12 12 13 13
REMARK SMILES IDX 14 14
REMARK H PARENT
REMARK Flexibility Score: inf
ROOT
ATOM      1  C   UNL     1      21.739  28.637  55.436  1.00  0.00     0.000 C 
ENDROOT
BRANCH   1   2
ATOM      2  C   UNL     1      22.258  30.022  55.852  1.00  0.00     0.000 C 
BRANCH   2   3
ATOM      3  C   UNL     1      22.353  30.183  57.377  1.00  0.00     0.006 C 
BRANCH   3   4
ATOM      4  C   UNL     1      21.914  28.923  58.134  1.00  0.00     0.053 C 
BRANCH   4   5
ATOM      5  C   UNL     1      20.740  29.224  59.011  1.00  0.00     0.041 C 
ATOM      6  O   UNL     1      19.717  28.493  58.971  1.00  0.00    -0.550 OA
ATOM      7  O   UNL     1      20.758  30.341  59.837  1.00  0.00    -0.550 OA
ENDBRANCH   4   5
ENDBRANCH   3   4
ENDBRANCH   2   3
ENDBRANCH   1   2
BRANCH   1   8
ATOM      8  C   UNL     1      20.506  28.762  54.532  1.00  0.00     0.000 C 
BRANCH   8   9
ATOM      9  C   UNL     1      19.308  29.322  55.306  1.00  0.00     0.000 C 
BRANCH   9  10
ATOM     10  C   UNL     1      18.254  29.898  54.349  1.00  0.00     0.006 C 
BRANCH  10  11
ATOM     11  C   UNL     1      16.823  29.639  54.838  1.00  0.00     0.053 C 
BRANCH  11  12
ATOM     12  C   UNL     1      16.090  28.696  53.934  1.00  0.00     0.041 C 
ATOM     13  O   UNL     1      14.876  28.435  54.141  1.00  0.00    -0.550 OA
ATOM     14  O   UNL     1      16.739  28.133  52.843  1.00  0.00    -0.550 OA
ENDBRANCH  11  12
ENDBRANCH  10  11
ENDBRANCH   9  10
ENDBRANCH   8   9
ENDBRANCH   1   8
TORSDOF 9
ENDMDL
MODEL 9
REMARK VINA RESULT:    -3.080     11.228     12.546
REMARK INTER + INTRA:          -5.254
REMARK INTER:                  -4.645
REMARK INTRA:                  -0.609
REMARK UNBOUND:                -0.554
REMARK SMILES O=C([O-])CCCCCCCCC(=O)[O-]
REMARK SMILES IDX 7 1 6 2 5 3 4 4 2 5 1 6 3 7 8 8 9 9 10 10 11 11 12 12 13 13
REMARK SMILES IDX 14 14
REMARK H PARENT
REMARK Flexibility Score: inf
ROOT
ATOM      1  C   UNL     1      16.575  19.457  50.194  1.00  0.00     0.000 C 
ENDROOT
BRANCH   1   2
ATOM      2  C   UNL     1      17.537  18.260  50.237  1.00  0.00     0.000 C 
BRANCH   2   3
ATOM      3  C   UNL     1      18.114  18.015  51.640  1.00  0.00     0.006 C 
BRANCH   3   4
ATOM      4  C   UNL     1      17.061  17.502  52.630  1.00  0.00     0.053 C 
BRANCH   4   5
ATOM      5  C   UNL     1      16.940  18.436  53.793  1.00  0.00     0.041 C 
ATOM      6  O   UNL     1      16.576  18.003  54.918  1.00  0.00    -0.550 OA
ATOM      7  O   UNL     1      17.183  19.793  53.623  1.00  0.00    -0.550 OA
ENDBRANCH   4   5
ENDBRANCH   3   4
ENDBRANCH   2   3
ENDBRANCH   1   2
BRANCH   1   8
ATOM      8  C   UNL     1      15.118  18.995  50.315  1.00  0.00     0.000 C 
BRANCH   8   9
ATOM      9  C   UNL     1      14.382  19.133  48.978  1.00  0.00     0.000 C 
BRANCH   9  10
ATOM     10  C   UNL     1      15.134  20.079  48.030  1.00  0.00     0.006 C 
BRANCH  10  11
ATOM     11  C   UNL     1      15.145  19.565  46.584  1.00  0.00     0.053 C 
BRANCH  11  12
ATOM     12  C   UNL     1      15.876  18.263  46.464  1.00  0.00     0.041 C 
ATOM     13  O   UNL     1      17.120  18.215  46.654  1.00  0.00    -0.550 OA
ATOM     14  O   UNL     1      15.179  17.098  46.173  1.00  0.00    -0.550 OA
ENDBRANCH  11  12
ENDBRANCH  10  11
ENDBRANCH   9  10
ENDBRANCH   8   9
ENDBRANCH   1   8
TORSDOF 9
ENDMDL
