MODEL 1
REMARK VINA RESULT:    -4.259      0.000      0.000
REMARK INTER + INTRA:         -11.203
REMARK INTER:                  -9.238
REMARK INTRA:                  -1.965
REMARK UNBOUND:                -1.965
REMARK SMILES CCCCCCCCCCCCCCCCCCCCCC(=O)[O-]
REMARK SMILES IDX 12 1 11 2 10 3 9 4 8 5 7 6 6 7 5 8 4 9 3 10 2 11 1 12 13 13
REMARK SMILES IDX 14 14 15 15 16 16 17 17 18 18 19 19 20 20 21 21 22 22 23 23
REMARK SMILES IDX 24 24
REMARK H PARENT
REMARK Flexibility Score: inf
ROOT
ATOM      1  C   UNL     1      -7.210  -9.583   0.685  1.00  0.00     0.000 C 
ENDROOT
BRANCH   1   2
ATOM      2  C   UNL     1      -6.362  -8.345   1.020  1.00  0.00     0.000 C 
BRANCH   2   3
ATOM      3  C   UNL     1      -6.663  -7.153   0.099  1.00  0.00     0.000 C 
BRANCH   3   4
ATOM      4  C   UNL     1      -6.027  -5.867   0.647  1.00  0.00    -0.000 C 
BRANCH   4   5
ATOM      5  C   UNL     1      -5.741  -5.937   2.157  1.00  0.00    -0.000 C 
BRANCH   5   6
ATOM      6  C   UNL     1      -6.909  -5.408   3.007  1.00  0.00    -0.000 C 
BRANCH   6   7
ATOM      7  C   UNL     1      -7.802  -4.410   2.246  1.00  0.00    -0.000 C 
BRANCH   7   8
ATOM      8  C   UNL     1      -9.316  -4.683   2.329  1.00  0.00    -0.000 C 
BRANCH   8   9
ATOM      9  C   UNL     1      -9.647  -6.051   2.949  1.00  0.00    -0.000 C 
BRANCH   9  10
ATOM     10  C   UNL     1      -9.915  -7.139   1.892  1.00  0.00    -0.000 C 
BRANCH  10  11
ATOM     11  C   UNL     1     -10.156  -6.616   0.463  1.00  0.00    -0.003 C 
ATOM     12  C   UNL     1     -11.638  -6.480   0.117  1.00  0.00     0.004 C 
ENDBRANCH  10  11
ENDBRANCH   9  10
ENDBRANCH   8   9
ENDBRANCH   7   8
ENDBRANCH   6   7
ENDBRANCH   5   6
ENDBRANCH   4   5
ENDBRANCH   3   4
ENDBRANCH   2   3
ENDBRANCH   1   2
BRANCH   1  13
ATOM     13  C   UNL     1      -6.727 -10.299  -0.590  1.00  0.00     0.000 C 
BRANCH  13  14
ATOM     14  C   UNL     1      -5.656 -11.361  -0.300  1.00  0.00     0.000 C 
BRANCH  14  15
ATOM     15  C   UNL     1      -5.879 -12.072   1.047  1.00  0.00     0.000 C 
BRANCH  15  16
ATOM     16  C   UNL     1      -5.524 -13.567   0.995  1.00  0.00     0.000 C 
BRANCH  16  17
ATOM     17  C   UNL     1      -6.617 -14.466   0.385  1.00  0.00     0.000 C 
BRANCH  17  18
ATOM     18  C   UNL     1      -6.686 -15.875   1.016  1.00  0.00     0.000 C 
BRANCH  18  19
ATOM     19  C   UNL     1      -5.533 -16.780   0.545  1.00  0.00     0.000 C 
BRANCH  19  20
ATOM     20  C   UNL     1      -5.704 -18.241   0.986  1.00  0.00     0.006 C 
BRANCH  20  21
ATOM     21  C   UNL     1      -7.001 -18.871   0.460  1.00  0.00     0.053 C 
BRANCH  21  22
ATOM     22  C   UNL     1      -6.715 -19.780  -0.692  1.00  0.00     0.041 C 
ATOM     23  O   UNL     1      -7.532 -20.684  -1.005  1.00  0.00    -0.550 OA
ATOM     24  O   UNL     1      -5.556 -19.611  -1.441  1.00  0.00    -0.550 OA
ENDBRANCH  21  22
ENDBRANCH  20  21
ENDBRANCH  19  20
ENDBRANCH  18  19
ENDBRANCH  17  18
ENDBRANCH  16  17
ENDBRANCH  15  16
ENDBRANCH  14  15
ENDBRANCH  13  14
ENDBRANCH   1  13
TORSDOF 20
ENDMDL
MODEL 2
REMARK VINA RESULT:    -4.198      4.304     11.005
REMARK INTER + INTRA:         -11.071
REMARK INTER:                  -9.658
REMARK INTRA:                  -1.413
REMARK UNBOUND:                -1.965
REMARK SMILES CCCCCCCCCCCCCCCCCCCCCC(=O)[O-]
REMARK SMILES IDX 12 1 11 2 10 3 9 4 8 5 7 6 6 7 5 8 4 9 3 10 2 11 1 12 13 13
REMARK SMILES IDX 14 14 15 15 16 16 17 17 18 18 19 19 20 20 21 21 22 22 23 23
REMARK SMILES IDX 24 24
REMARK H PARENT
REMARK Flexibility Score: inf
ROOT
ATOM      1  C   UNL     1      -6.373 -10.595  -0.638  1.00  0.00     0.000 C 
ENDROOT
BRANCH   1   2
ATOM      2  C   UNL     1      -5.774 -11.834   0.047  1.00  0.00     0.000 C 
BRANCH   2   3
ATOM      3  C   UNL     1      -6.432 -12.138   1.402  1.00  0.00     0.000 C 
BRANCH   3   4
ATOM      4  C   UNL     1      -6.332 -13.635   1.732  1.00  0.00    -0.000 C 
BRANCH   4   5
ATOM      5  C   UNL     1      -6.446 -14.531   0.487  1.00  0.00    -0.000 C 
BRANCH   5   6
ATOM      6  C   UNL     1      -6.657 -16.014   0.839  1.00  0.00    -0.000 C 
BRANCH   6   7
ATOM      7  C   UNL     1      -5.341 -16.813   0.886  1.00  0.00    -0.000 C 
BRANCH   7   8
ATOM      8  C   UNL     1      -5.500 -18.337   1.045  1.00  0.00    -0.000 C 
BRANCH   8   9
ATOM      9  C   UNL     1      -5.842 -19.048  -0.275  1.00  0.00    -0.000 C 
BRANCH   9  10
ATOM     10  C   UNL     1      -7.261 -19.648  -0.283  1.00  0.00    -0.000 C 
BRANCH  10  11
ATOM     11  C   UNL     1      -7.458 -20.846  -1.231  1.00  0.00    -0.003 C 
ATOM     12  C   UNL     1      -6.346 -20.977  -2.271  1.00  0.00     0.004 C 
ENDBRANCH  10  11
ENDBRANCH   9  10
ENDBRANCH   8   9
ENDBRANCH   7   8
ENDBRANCH   6   7
ENDBRANCH   5   6
ENDBRANCH   4   5
ENDBRANCH   3   4
ENDBRANCH   2   3
ENDBRANCH   1   2
BRANCH   1  13
ATOM     13  C   UNL     1      -7.413  -9.881   0.244  1.00  0.00     0.000 C 
BRANCH  13  14
ATOM     14  C   UNL     1      -7.066  -8.404   0.486  1.00  0.00     0.000 C 
BRANCH  14  15
ATOM     15  C   UNL     1      -6.194  -8.200   1.738  1.00  0.00     0.000 C 
BRANCH  15  16
ATOM     16  C   UNL     1      -5.820  -6.727   1.968  1.00  0.00     0.000 C 
BRANCH  16  17
ATOM     17  C   UNL     1      -6.735  -5.713   1.255  1.00  0.00     0.000 C 
BRANCH  17  18
ATOM     18  C   UNL     1      -7.244  -4.581   2.175  1.00  0.00     0.000 C 
BRANCH  18  19
ATOM     19  C   UNL     1      -8.750  -4.700   2.466  1.00  0.00     0.000 C 
BRANCH  19  20
ATOM     20  C   UNL     1      -9.302  -6.104   2.180  1.00  0.00     0.006 C 
BRANCH  20  21
ATOM     21  C   UNL     1     -10.811  -6.103   1.899  1.00  0.00     0.053 C 
BRANCH  21  22
ATOM     22  C   UNL     1     -11.074  -6.237   0.433  1.00  0.00     0.041 C 
ATOM     23  O   UNL     1     -10.832  -7.321  -0.158  1.00  0.00    -0.550 OA
ATOM     24  O   UNL     1     -11.612  -5.171  -0.278  1.00  0.00    -0.550 OA
ENDBRANCH  21  22
ENDBRANCH  20  21
ENDBRANCH  19  20
ENDBRANCH  18  19
ENDBRANCH  17  18
ENDBRANCH  16  17
ENDBRANCH  15  16
ENDBRANCH  14  15
ENDBRANCH  13  14
ENDBRANCH   1  13
TORSDOF 20
ENDMDL
MODEL 3
REMARK VINA RESULT:    -4.021      4.258     10.025
REMARK INTER + INTRA:         -10.688
REMARK INTER:                  -8.317
REMARK INTRA:                  -2.371
REMARK UNBOUND:                -1.965
REMARK SMILES CCCCCCCCCCCCCCCCCCCCCC(=O)[O-]
REMARK SMILES IDX 12 1 11 2 10 3 9 4 8 5 7 6 6 7 5 8 4 9 3 10 2 11 1 12 13 13
REMARK SMILES IDX 14 14 15 15 16 16 17 17 18 18 19 19 20 20 21 21 22 22 23 23
REMARK SMILES IDX 24 24
REMARK H PARENT
REMARK Flexibility Score: inf
ROOT
ATOM      1  C   UNL     1      -7.244 -10.389   1.909  1.00  0.00     0.000 C 
ENDROOT
BRANCH   1   2
ATOM      2  C   UNL     1      -7.480  -9.932   0.460  1.00  0.00     0.000 C 
BRANCH   2   3
ATOM      3  C   UNL     1      -6.447 -10.508  -0.520  1.00  0.00     0.000 C 
BRANCH   3   4
ATOM      4  C   UNL     1      -5.326 -11.237   0.238  1.00  0.00    -0.000 C 
BRANCH   4   5
ATOM      5  C   UNL     1      -5.129 -12.687  -0.237  1.00  0.00    -0.000 C 
BRANCH   5   6
ATOM      6  C   UNL     1      -6.293 -13.607   0.167  1.00  0.00    -0.000 C 
BRANCH   6   7
ATOM      7  C   UNL     1      -6.267 -13.989   1.660  1.00  0.00    -0.000 C 
BRANCH   7   8
ATOM      8  C   UNL     1      -6.212 -15.500   1.954  1.00  0.00    -0.000 C 
BRANCH   8   9
ATOM      9  C   UNL     1      -6.793 -16.356   0.816  1.00  0.00    -0.000 C 
BRANCH   9  10
ATOM     10  C   UNL     1      -5.959 -17.619   0.529  1.00  0.00    -0.000 C 
BRANCH  10  11
ATOM     11  C   UNL     1      -6.698 -18.953   0.743  1.00  0.00    -0.003 C 
ATOM     12  C   UNL     1      -6.848 -19.767  -0.542  1.00  0.00     0.004 C 
ENDBRANCH  10  11
ENDBRANCH   9  10
ENDBRANCH   8   9
ENDBRANCH   7   8
ENDBRANCH   6   7
ENDBRANCH   5   6
ENDBRANCH   4   5
ENDBRANCH   3   4
ENDBRANCH   2   3
ENDBRANCH   1   2
BRANCH   1  13
ATOM     13  C   UNL     1      -7.111  -9.206   2.885  1.00  0.00     0.000 C 
BRANCH  13  14
ATOM     14  C   UNL     1      -5.682  -8.642   2.936  1.00  0.00     0.000 C 
BRANCH  14  15
ATOM     15  C   UNL     1      -5.640  -7.120   2.712  1.00  0.00     0.000 C 
BRANCH  15  16
ATOM     16  C   UNL     1      -5.974  -6.723   1.266  1.00  0.00     0.000 C 
BRANCH  16  17
ATOM     17  C   UNL     1      -7.155  -5.742   1.124  1.00  0.00     0.000 C 
BRANCH  17  18
ATOM     18  C   UNL     1      -7.501  -4.994   2.431  1.00  0.00     0.000 C 
BRANCH  18  19
ATOM     19  C   UNL     1      -9.012  -5.002   2.723  1.00  0.00     0.000 C 
BRANCH  19  20
ATOM     20  C   UNL     1      -9.597  -6.420   2.792  1.00  0.00     0.006 C 
BRANCH  20  21
ATOM     21  C   UNL     1     -10.980  -6.524   2.134  1.00  0.00     0.053 C 
BRANCH  21  22
ATOM     22  C   UNL     1     -10.857  -6.495   0.644  1.00  0.00     0.041 C 
ATOM     23  O   UNL     1     -10.128  -7.332   0.051  1.00  0.00    -0.550 OA
ATOM     24  O   UNL     1     -11.569  -5.558  -0.096  1.00  0.00    -0.550 OA
ENDBRANCH  21  22
ENDBRANCH  20  21
ENDBRANCH  19  20
ENDBRANCH  18  19
ENDBRANCH  17  18
ENDBRANCH  16  17
ENDBRANCH  15  16
ENDBRANCH  14  15
ENDBRANCH  13  14
ENDBRANCH   1  13
TORSDOF 20
ENDMDL
MODEL 4
REMARK VINA RESULT:    -3.873      1.143      2.807
REMARK INTER + INTRA:         -10.366
REMARK INTER:                  -8.968
REMARK INTRA:                  -1.397
REMARK UNBOUND:                -1.965
REMARK SMILES CCCCCCCCCCCCCCCCCCCCCC(=O)[O-]
REMARK SMILES IDX 12 1 11 2 10 3 9 4 8 5 7 6 6 7 5 8 4 9 3 10 2 11 1 12 13 13
REMARK SMILES IDX 14 14 15 15 16 16 17 17 18 18 19 19 20 20 21 21 22 22 23 23
REMARK SMILES IDX 24 24
REMARK H PARENT
REMARK Flexibility Score: inf
ROOT
ATOM      1  C   UNL     1      -6.939 -10.092  -0.551  1.00  0.00     0.000 C 
ENDROOT
BRANCH   1   2
ATOM      2  C   UNL     1      -7.472  -8.680  -0.252  1.00  0.00     0.000 C 
BRANCH   2   3
ATOM      3  C   UNL     1      -8.950  -8.681   0.169  1.00  0.00     0.000 C 
BRANCH   3   4
ATOM      4  C   UNL     1      -9.528  -7.259   0.128  1.00  0.00    -0.000 C 
BRANCH   4   5
ATOM      5  C   UNL     1     -10.671  -7.049   1.135  1.00  0.00    -0.000 C 
BRANCH   5   6
ATOM      6  C   UNL     1     -10.242  -6.218   2.357  1.00  0.00    -0.000 C 
BRANCH   6   7
ATOM      7  C   UNL     1      -9.636  -4.855   1.973  1.00  0.00    -0.000 C 
BRANCH   7   8
ATOM      8  C   UNL     1      -8.275  -4.533   2.619  1.00  0.00    -0.000 C 
BRANCH   8   9
ATOM      9  C   UNL     1      -7.221  -5.627   2.379  1.00  0.00    -0.000 C 
BRANCH   9  10
ATOM     10  C   UNL     1      -5.994  -5.117   1.599  1.00  0.00    -0.000 C 
BRANCH  10  11
ATOM     11  C   UNL     1      -5.936  -5.545   0.120  1.00  0.00    -0.003 C 
ATOM     12  C   UNL     1      -5.003  -4.674  -0.720  1.00  0.00     0.004 C 
ENDBRANCH  10  11
ENDBRANCH   9  10
ENDBRANCH   8   9
ENDBRANCH   7   8
ENDBRANCH   6   7
ENDBRANCH   5   6
ENDBRANCH   4   5
ENDBRANCH   3   4
ENDBRANCH   2   3
ENDBRANCH   1   2
BRANCH   1  13
ATOM     13  C   UNL     1      -5.961 -10.591   0.528  1.00  0.00     0.000 C 
BRANCH  13  14
ATOM     14  C   UNL     1      -5.020 -11.688   0.007  1.00  0.00     0.000 C 
BRANCH  14  15
ATOM     15  C   UNL     1      -5.725 -13.047  -0.147  1.00  0.00     0.000 C 
BRANCH  15  16
ATOM     16  C   UNL     1      -6.409 -13.511   1.149  1.00  0.00     0.000 C 
BRANCH  16  17
ATOM     17  C   UNL     1      -5.905 -14.861   1.694  1.00  0.00     0.000 C 
BRANCH  17  18
ATOM     18  C   UNL     1      -6.281 -16.069   0.808  1.00  0.00     0.000 C 
BRANCH  18  19
ATOM     19  C   UNL     1      -5.710 -17.391   1.353  1.00  0.00     0.000 C 
BRANCH  19  20
ATOM     20  C   UNL     1      -5.817 -18.545   0.346  1.00  0.00     0.006 C 
BRANCH  20  21
ATOM     21  C   UNL     1      -7.270 -18.935   0.042  1.00  0.00     0.053 C 
BRANCH  21  22
ATOM     22  C   UNL     1      -7.443 -20.419   0.119  1.00  0.00     0.041 C 
ATOM     23  O   UNL     1      -7.523 -21.104  -0.934  1.00  0.00    -0.550 OA
ATOM     24  O   UNL     1      -7.489 -21.051   1.356  1.00  0.00    -0.550 OA
ENDBRANCH  21  22
ENDBRANCH  20  21
ENDBRANCH  19  20
ENDBRANCH  18  19
ENDBRANCH  17  18
ENDBRANCH  16  17
ENDBRANCH  15  16
ENDBRANCH  14  15
ENDBRANCH  13  14
ENDBRANCH   1  13
TORSDOF 20
ENDMDL
MODEL 5
REMARK VINA RESULT:    -3.733     20.484     22.871
REMARK INTER + INTRA:         -10.063
REMARK INTER:                  -6.768
REMARK INTRA:                  -3.295
REMARK UNBOUND:                -1.965
REMARK SMILES CCCCCCCCCCCCCCCCCCCCCC(=O)[O-]
REMARK SMILES IDX 12 1 11 2 10 3 9 4 8 5 7 6 6 7 5 8 4 9 3 10 2 11 1 12 13 13
REMARK SMILES IDX 14 14 15 15 16 16 17 17 18 18 19 19 20 20 21 21 22 22 23 23
REMARK SMILES IDX 24 24
REMARK H PARENT
REMARK Flexibility Score: inf
ROOT
ATOM      1  C   UNL     1     -20.255  -7.271 -13.864  1.00  0.00     0.000 C 
ENDROOT
BRANCH   1   2
ATOM      2  C   UNL     1     -20.739  -6.375 -12.712  1.00  0.00     0.000 C 
BRANCH   2   3
ATOM      3  C   UNL     1     -20.020  -5.018 -12.675  1.00  0.00     0.000 C 
BRANCH   3   4
ATOM      4  C   UNL     1     -20.998  -3.875 -12.990  1.00  0.00    -0.000 C 
BRANCH   4   5
ATOM      5  C   UNL     1     -22.197  -3.832 -12.028  1.00  0.00    -0.000 C 
BRANCH   5   6
ATOM      6  C   UNL     1     -23.513  -4.257 -12.701  1.00  0.00    -0.000 C 
BRANCH   6   7
ATOM      7  C   UNL     1     -24.346  -3.061 -13.200  1.00  0.00    -0.000 C 
BRANCH   7   8
ATOM      8  C   UNL     1     -23.819  -1.673 -12.790  1.00  0.00    -0.000 C 
BRANCH   8   9
ATOM      9  C   UNL     1     -23.241  -0.876 -13.971  1.00  0.00    -0.000 C 
BRANCH   9  10
ATOM     10  C   UNL     1     -23.148  -1.705 -15.266  1.00  0.00    -0.000 C 
BRANCH  10  11
ATOM     11  C   UNL     1     -21.965  -1.349 -16.186  1.00  0.00    -0.003 C 
ATOM     12  C   UNL     1     -20.646  -1.186 -15.431  1.00  0.00     0.004 C 
ENDBRANCH  10  11
ENDBRANCH   9  10
ENDBRANCH   8   9
ENDBRANCH   7   8
ENDBRANCH   6   7
ENDBRANCH   5   6
ENDBRANCH   4   5
ENDBRANCH   3   4
ENDBRANCH   2   3
ENDBRANCH   1   2
BRANCH   1  13
ATOM     13  C   UNL     1     -19.462  -6.487 -14.925  1.00  0.00     0.000 C 
BRANCH  13  14
ATOM     14  C   UNL     1     -20.245  -6.312 -16.235  1.00  0.00     0.000 C 
BRANCH  14  15
ATOM     15  C   UNL     1     -20.875  -4.913 -16.363  1.00  0.00     0.000 C 
BRANCH  15  16
ATOM     16  C   UNL     1     -22.401  -4.964 -16.546  1.00  0.00     0.000 C 
BRANCH  16  17
ATOM     17  C   UNL     1     -23.110  -6.057 -15.723  1.00  0.00     0.000 C 
BRANCH  17  18
ATOM     18  C   UNL     1     -24.393  -6.601 -16.389  1.00  0.00     0.000 C 
BRANCH  18  19
ATOM     19  C   UNL     1     -24.328  -8.121 -16.622  1.00  0.00     0.000 C 
BRANCH  19  20
ATOM     20  C   UNL     1     -22.895  -8.670 -16.569  1.00  0.00     0.006 C 
BRANCH  20  21
ATOM     21  C   UNL     1     -22.754  -9.873 -15.626  1.00  0.00     0.053 C 
BRANCH  21  22
ATOM     22  C   UNL     1     -23.713 -10.955 -16.007  1.00  0.00     0.041 C 
ATOM     23  O   UNL     1     -24.857 -11.001 -15.484  1.00  0.00    -0.550 OA
ATOM     24  O   UNL     1     -23.354 -11.900 -16.960  1.00  0.00    -0.550 OA
ENDBRANCH  21  22
ENDBRANCH  20  21
ENDBRANCH  19  20
ENDBRANCH  18  19
ENDBRANCH  17  18
ENDBRANCH  16  17
ENDBRANCH  15  16
ENDBRANCH  14  15
ENDBRANCH  13  14
ENDBRANCH   1  13
TORSDOF 20
ENDMDL
MODEL 6
REMARK VINA RESULT:    -3.730      1.681      3.391
REMARK INTER + INTRA:         -10.057
REMARK INTER:                  -7.744
REMARK INTRA:                  -2.312
REMARK UNBOUND:                -1.965
REMARK SMILES CCCCCCCCCCCCCCCCCCCCCC(=O)[O-]
REMARK SMILES IDX 12 1 11 2 10 3 9 4 8 5 7 6 6 7 5 8 4 9 3 10 2 11 1 12 13 13
REMARK SMILES IDX 14 14 15 15 16 16 17 17 18 18 19 19 20 20 21 21 22 22 23 23
REMARK SMILES IDX 24 24
REMARK H PARENT
REMARK Flexibility Score: inf
ROOT
ATOM      1  C   UNL     1      -7.024  -9.455  -0.216  1.00  0.00     0.000 C 
ENDROOT
BRANCH   1   2
ATOM      2  C   UNL     1      -7.895  -8.191  -0.304  1.00  0.00     0.000 C 
BRANCH   2   3
ATOM      3  C   UNL     1      -9.370  -8.463   0.030  1.00  0.00     0.000 C 
BRANCH   3   4
ATOM      4  C   UNL     1      -9.977  -7.288   0.812  1.00  0.00    -0.000 C 
BRANCH   4   5
ATOM      5  C   UNL     1      -9.399  -7.152   2.231  1.00  0.00    -0.000 C 
BRANCH   5   6
ATOM      6  C   UNL     1      -8.333  -6.048   2.334  1.00  0.00    -0.000 C 
BRANCH   6   7
ATOM      7  C   UNL     1      -7.032  -6.530   3.004  1.00  0.00    -0.000 C 
BRANCH   7   8
ATOM      8  C   UNL     1      -5.729  -6.036   2.348  1.00  0.00    -0.000 C 
BRANCH   8   9
ATOM      9  C   UNL     1      -5.975  -5.109   1.146  1.00  0.00    -0.000 C 
BRANCH   9  10
ATOM     10  C   UNL     1      -4.957  -3.956   1.060  1.00  0.00    -0.000 C 
BRANCH  10  11
ATOM     11  C   UNL     1      -5.519  -2.562   1.400  1.00  0.00    -0.003 C 
ATOM     12  C   UNL     1      -6.806  -2.619   2.222  1.00  0.00     0.004 C 
ENDBRANCH  10  11
ENDBRANCH   9  10
ENDBRANCH   8   9
ENDBRANCH   7   8
ENDBRANCH   6   7
ENDBRANCH   5   6
ENDBRANCH   4   5
ENDBRANCH   3   4
ENDBRANCH   2   3
ENDBRANCH   1   2
BRANCH   1  13
ATOM     13  C   UNL     1      -6.095  -9.444   1.011  1.00  0.00     0.000 C 
BRANCH  13  14
ATOM     14  C   UNL     1      -6.762 -10.037   2.261  1.00  0.00     0.000 C 
BRANCH  14  15
ATOM     15  C   UNL     1      -5.783 -10.858   3.120  1.00  0.00     0.000 C 
BRANCH  15  16
ATOM     16  C   UNL     1      -5.331 -12.155   2.430  1.00  0.00     0.000 C 
BRANCH  16  17
ATOM     17  C   UNL     1      -6.479 -13.094   2.010  1.00  0.00     0.000 C 
BRANCH  17  18
ATOM     18  C   UNL     1      -6.348 -13.629   0.567  1.00  0.00     0.000 C 
BRANCH  18  19
ATOM     19  C   UNL     1      -6.768 -15.105   0.454  1.00  0.00     0.000 C 
BRANCH  19  20
ATOM     20  C   UNL     1      -5.846 -16.048   1.240  1.00  0.00     0.006 C 
BRANCH  20  21
ATOM     21  C   UNL     1      -5.579 -17.368   0.503  1.00  0.00     0.053 C 
BRANCH  21  22
ATOM     22  C   UNL     1      -6.500 -18.439   0.992  1.00  0.00     0.041 C 
ATOM     23  O   UNL     1      -6.719 -18.574   2.224  1.00  0.00    -0.550 OA
ATOM     24  O   UNL     1      -7.140 -19.275   0.084  1.00  0.00    -0.550 OA
ENDBRANCH  21  22
ENDBRANCH  20  21
ENDBRANCH  19  20
ENDBRANCH  18  19
ENDBRANCH  17  18
ENDBRANCH  16  17
ENDBRANCH  15  16
ENDBRANCH  14  15
ENDBRANCH  13  14
ENDBRANCH   1  13
TORSDOF 20
ENDMDL
MODEL 7
REMARK VINA RESULT:    -3.654     20.399     23.989
REMARK INTER + INTRA:          -9.892
REMARK INTER:                  -6.792
REMARK INTRA:                  -3.100
REMARK UNBOUND:                -1.965
REMARK SMILES CCCCCCCCCCCCCCCCCCCCCC(=O)[O-]
REMARK SMILES IDX 12 1 11 2 10 3 9 4 8 5 7 6 6 7 5 8 4 9 3 10 2 11 1 12 13 13
REMARK SMILES IDX 14 14 15 15 16 16 17 17 18 18 19 19 20 20 21 21 22 22 23 23
REMARK SMILES IDX 24 24
REMARK H PARENT
REMARK Flexibility Score: inf
ROOT
ATOM      1  C   UNL     1     -20.550  -6.030 -12.626  1.00  0.00     0.000 C 
ENDROOT
BRANCH   1   2
ATOM      2  C   UNL     1     -20.815  -7.114 -13.684  1.00  0.00     0.000 C 
BRANCH   2   3
ATOM      3  C   UNL     1     -19.886  -8.329 -13.533  1.00  0.00     0.000 C 
BRANCH   3   4
ATOM      4  C   UNL     1     -20.646  -9.634 -13.819  1.00  0.00    -0.000 C 
BRANCH   4   5
ATOM      5  C   UNL     1     -21.757  -9.462 -14.868  1.00  0.00    -0.000 C 
BRANCH   5   6
ATOM      6  C   UNL     1     -22.484 -10.780 -15.184  1.00  0.00    -0.000 C 
BRANCH   6   7
ATOM      7  C   UNL     1     -23.499 -10.644 -16.335  1.00  0.00    -0.000 C 
BRANCH   7   8
ATOM      8  C   UNL     1     -23.590  -9.245 -16.974  1.00  0.00    -0.000 C 
BRANCH   8   9
ATOM      9  C   UNL     1     -24.761  -8.410 -16.428  1.00  0.00    -0.000 C 
BRANCH   9  10
ATOM     10  C   UNL     1     -24.571  -6.897 -16.646  1.00  0.00    -0.000 C 
BRANCH  10  11
ATOM     11  C   UNL     1     -23.263  -6.314 -16.077  1.00  0.00    -0.003 C 
ATOM     12  C   UNL     1     -22.156  -6.196 -17.124  1.00  0.00     0.004 C 
ENDBRANCH  10  11
ENDBRANCH   9  10
ENDBRANCH   8   9
ENDBRANCH   7   8
ENDBRANCH   6   7
ENDBRANCH   5   6
ENDBRANCH   4   5
ENDBRANCH   3   4
ENDBRANCH   2   3
ENDBRANCH   1   2
BRANCH   1  13
ATOM     13  C   UNL     1     -19.775  -4.829 -13.198  1.00  0.00     0.000 C 
BRANCH  13  14
ATOM     14  C   UNL     1     -20.041  -4.615 -14.696  1.00  0.00     0.000 C 
BRANCH  14  15
ATOM     15  C   UNL     1     -19.871  -3.145 -15.121  1.00  0.00     0.000 C 
BRANCH  15  16
ATOM     16  C   UNL     1     -20.524  -2.840 -16.479  1.00  0.00     0.000 C 
BRANCH  16  17
ATOM     17  C   UNL     1     -21.776  -1.945 -16.403  1.00  0.00     0.000 C 
BRANCH  17  18
ATOM     18  C   UNL     1     -23.028  -2.573 -17.055  1.00  0.00     0.000 C 
BRANCH  18  19
ATOM     19  C   UNL     1     -24.169  -2.779 -16.043  1.00  0.00     0.000 C 
BRANCH  19  20
ATOM     20  C   UNL     1     -23.719  -2.574 -14.589  1.00  0.00     0.006 C 
BRANCH  20  21
ATOM     21  C   UNL     1     -24.097  -3.751 -13.679  1.00  0.00     0.053 C 
BRANCH  21  22
ATOM     22  C   UNL     1     -23.469  -3.597 -12.330  1.00  0.00     0.041 C 
ATOM     23  O   UNL     1     -22.496  -2.815 -12.170  1.00  0.00    -0.550 OA
ATOM     24  O   UNL     1     -23.976  -4.298 -11.242  1.00  0.00    -0.550 OA
ENDBRANCH  21  22
ENDBRANCH  20  21
ENDBRANCH  19  20
ENDBRANCH  18  19
ENDBRANCH  17  18
ENDBRANCH  16  17
ENDBRANCH  15  16
ENDBRANCH  14  15
ENDBRANCH  13  14
ENDBRANCH   1  13
TORSDOF 20
ENDMDL
MODEL 8
REMARK VINA RESULT:    -3.560      4.593     10.299
REMARK INTER + INTRA:          -9.687
REMARK INTER:                  -8.024
REMARK INTRA:                  -1.663
REMARK UNBOUND:                -1.965
REMARK SMILES CCCCCCCCCCCCCCCCCCCCCC(=O)[O-]
REMARK SMILES IDX 12 1 11 2 10 3 9 4 8 5 7 6 6 7 5 8 4 9 3 10 2 11 1 12 13 13
REMARK SMILES IDX 14 14 15 15 16 16 17 17 18 18 19 19 20 20 21 21 22 22 23 23
REMARK SMILES IDX 24 24
REMARK H PARENT
REMARK Flexibility Score: inf
ROOT
ATOM      1  C   UNL     1      -8.674  -9.221   0.198  1.00  0.00     0.000 C 
ENDROOT
BRANCH   1   2
ATOM      2  C   UNL     1      -7.251  -8.821  -0.223  1.00  0.00     0.000 C 
BRANCH   2   3
ATOM      3  C   UNL     1      -6.296  -8.682   0.972  1.00  0.00     0.000 C 
BRANCH   3   4
ATOM      4  C   UNL     1      -5.307  -9.857   1.018  1.00  0.00    -0.000 C 
BRANCH   4   5
ATOM      5  C   UNL     1      -5.939 -11.189   0.580  1.00  0.00    -0.000 C 
BRANCH   5   6
ATOM      6  C   UNL     1      -5.041 -12.401   0.882  1.00  0.00    -0.000 C 
BRANCH   6   7
ATOM      7  C   UNL     1      -5.452 -13.662   0.100  1.00  0.00    -0.000 C 
BRANCH   7   8
ATOM      8  C   UNL     1      -6.787 -14.301   0.529  1.00  0.00    -0.000 C 
BRANCH   8   9
ATOM      9  C   UNL     1      -6.724 -14.946   1.924  1.00  0.00    -0.000 C 
BRANCH   9  10
ATOM     10  C   UNL     1      -5.883 -16.236   1.950  1.00  0.00    -0.000 C 
BRANCH  10  11
ATOM     11  C   UNL     1      -6.180 -17.233   0.814  1.00  0.00    -0.003 C 
ATOM     12  C   UNL     1      -5.619 -18.629   1.080  1.00  0.00     0.004 C 
ENDBRANCH  10  11
ENDBRANCH   9  10
ENDBRANCH   8   9
ENDBRANCH   7   8
ENDBRANCH   6   7
ENDBRANCH   5   6
ENDBRANCH   4   5
ENDBRANCH   3   4
ENDBRANCH   2   3
ENDBRANCH   1   2
BRANCH   1  13
ATOM     13  C   UNL     1      -9.716  -8.143  -0.152  1.00  0.00     0.000 C 
BRANCH  13  14
ATOM     14  C   UNL     1     -10.228  -7.394   1.088  1.00  0.00     0.000 C 
BRANCH  14  15
ATOM     15  C   UNL     1     -10.496  -5.904   0.809  1.00  0.00     0.000 C 
BRANCH  15  16
ATOM     16  C   UNL     1      -9.704  -4.973   1.742  1.00  0.00     0.000 C 
BRANCH  16  17
ATOM     17  C   UNL     1      -8.741  -5.695   2.704  1.00  0.00     0.000 C 
BRANCH  17  18
ATOM     18  C   UNL     1      -7.248  -5.450   2.389  1.00  0.00     0.000 C 
BRANCH  18  19
ATOM     19  C   UNL     1      -6.915  -3.951   2.285  1.00  0.00     0.000 C 
BRANCH  19  20
ATOM     20  C   UNL     1      -5.717  -3.669   1.367  1.00  0.00     0.006 C 
BRANCH  20  21
ATOM     21  C   UNL     1      -5.338  -4.877   0.498  1.00  0.00     0.053 C 
BRANCH  21  22
ATOM     22  C   UNL     1      -5.026  -4.443  -0.898  1.00  0.00     0.041 C 
ATOM     23  O   UNL     1      -4.875  -3.222  -1.164  1.00  0.00    -0.550 OA
ATOM     24  O   UNL     1      -4.875  -5.390  -1.904  1.00  0.00    -0.550 OA
ENDBRANCH  21  22
ENDBRANCH  20  21
ENDBRANCH  19  20
ENDBRANCH  18  19
ENDBRANCH  17  18
ENDBRANCH  16  17
ENDBRANCH  15  16
ENDBRANCH  14  15
ENDBRANCH  13  14
ENDBRANCH   1  13
TORSDOF 20
ENDMDL
MODEL 9
REMARK VINA RESULT:    -3.412     20.370     24.254
REMARK INTER + INTRA:          -9.366
REMARK INTER:                  -5.970
REMARK INTRA:                  -3.396
REMARK UNBOUND:                -1.965
REMARK SMILES CCCCCCCCCCCCCCCCCCCCCC(=O)[O-]
REMARK SMILES IDX 12 1 11 2 10 3 9 4 8 5 7 6 6 7 5 8 4 9 3 10 2 11 1 12 13 13
REMARK SMILES IDX 14 14 15 15 16 16 17 17 18 18 19 19 20 20 21 21 22 22 23 23
REMARK SMILES IDX 24 24
REMARK H PARENT
REMARK Flexibility Score: inf
ROOT
ATOM      1  C   UNL     1     -20.326  -5.766 -13.137  1.00  0.00     0.000 C 
ENDROOT
BRANCH   1   2
ATOM      2  C   UNL     1     -21.411  -5.904 -14.218  1.00  0.00     0.000 C 
BRANCH   2   3
ATOM      3  C   UNL     1     -20.825  -6.053 -15.630  1.00  0.00     0.000 C 
BRANCH   3   4
ATOM      4  C   UNL     1     -21.932  -6.361 -16.650  1.00  0.00    -0.000 C 
BRANCH   4   5
ATOM      5  C   UNL     1     -23.245  -6.813 -15.988  1.00  0.00    -0.000 C 
BRANCH   5   6
ATOM      6  C   UNL     1     -24.255  -7.381 -17.000  1.00  0.00    -0.000 C 
BRANCH   6   7
ATOM      7  C   UNL     1     -24.457  -8.902 -16.858  1.00  0.00    -0.000 C 
BRANCH   7   8
ATOM      8  C   UNL     1     -23.164  -9.737 -16.805  1.00  0.00    -0.000 C 
BRANCH   8   9
ATOM      9  C   UNL     1     -23.231 -10.884 -15.782  1.00  0.00    -0.000 C 
BRANCH   9  10
ATOM     10  C   UNL     1     -22.046 -10.879 -14.798  1.00  0.00    -0.000 C 
BRANCH  10  11
ATOM     11  C   UNL     1     -21.437  -9.493 -14.515  1.00  0.00    -0.003 C 
ATOM     12  C   UNL     1     -20.321  -9.530 -13.471  1.00  0.00     0.004 C 
ENDBRANCH  10  11
ENDBRANCH   9  10
ENDBRANCH   8   9
ENDBRANCH   7   8
ENDBRANCH   6   7
ENDBRANCH   5   6
ENDBRANCH   4   5
ENDBRANCH   3   4
ENDBRANCH   2   3
ENDBRANCH   1   2
BRANCH   1  13
ATOM     13  C   UNL     1     -19.888  -4.306 -12.927  1.00  0.00     0.000 C 
BRANCH  13  14
ATOM     14  C   UNL     1     -20.970  -3.299 -13.348  1.00  0.00     0.000 C 
BRANCH  14  15
ATOM     15  C   UNL     1     -20.528  -2.417 -14.529  1.00  0.00     0.000 C 
BRANCH  15  16
ATOM     16  C   UNL     1     -21.716  -1.838 -15.315  1.00  0.00     0.000 C 
BRANCH  16  17
ATOM     17  C   UNL     1     -22.149  -2.674 -16.535  1.00  0.00     0.000 C 
BRANCH  17  18
ATOM     18  C   UNL     1     -23.636  -2.499 -16.912  1.00  0.00     0.000 C 
BRANCH  18  19
ATOM     19  C   UNL     1     -24.539  -3.529 -16.210  1.00  0.00     0.000 C 
BRANCH  19  20
ATOM     20  C   UNL     1     -24.958  -3.090 -14.799  1.00  0.00     0.006 C 
BRANCH  20  21
ATOM     21  C   UNL     1     -24.636  -4.143 -13.730  1.00  0.00     0.053 C 
BRANCH  21  22
ATOM     22  C   UNL     1     -24.488  -3.500 -12.387  1.00  0.00     0.041 C 
ATOM     23  O   UNL     1     -24.263  -4.205 -11.369  1.00  0.00    -0.550 OA
ATOM     24  O   UNL     1     -24.571  -2.118 -12.264  1.00  0.00    -0.550 OA
ENDBRANCH  21  22
ENDBRANCH  20  21
ENDBRANCH  19  20
ENDBRANCH  18  19
ENDBRANCH  17  18
ENDBRANCH  16  17
ENDBRANCH  15  16
ENDBRANCH  14  15
ENDBRANCH  13  14
ENDBRANCH   1  13
TORSDOF 20
ENDMDL
