MODEL 1
REMARK VINA RESULT:    -3.776      0.000      0.000
REMARK INTER + INTRA:          -4.502
REMARK INTER:                  -4.438
REMARK INTRA:                  -0.064
REMARK UNBOUND:                -0.064
REMARK SMILES CCCCC(=O)[O-]
REMARK SMILES IDX 4 1 5 2 6 3 7 4 3 5 2 6 1 7
REMARK H PARENT
REMARK Flexibility Score: inf
ROOT
ATOM      1  C   UNL     1       1.890 -36.762  16.856  1.00  0.00     0.053 C 
ENDROOT
BRANCH   1   2
ATOM      2  C   UNL     1       2.415 -37.351  18.129  1.00  0.00     0.041 C 
ATOM      3  O   UNL     1       3.646 -37.313  18.385  1.00  0.00    -0.550 OA
ATOM      4  O   UNL     1       1.538 -37.915  19.048  1.00  0.00    -0.550 OA
ENDBRANCH   1   2
BRANCH   1   5
ATOM      5  C   UNL     1       2.970 -35.971  16.101  1.00  0.00     0.006 C 
BRANCH   5   6
ATOM      6  C   UNL     1       3.059 -36.304  14.600  1.00  0.00    -0.003 C 
ATOM      7  C   UNL     1       4.055 -37.423  14.298  1.00  0.00     0.004 C 
ENDBRANCH   5   6
ENDBRANCH   1   5
TORSDOF 3
ENDMDL
MODEL 2
REMARK VINA RESULT:    -3.744      0.211      1.240
REMARK INTER + INTRA:          -4.464
REMARK INTER:                  -4.429
REMARK INTRA:                  -0.035
REMARK UNBOUND:                -0.064
REMARK SMILES CCCCC(=O)[O-]
REMARK SMILES IDX 4 1 5 2 6 3 7 4 3 5 2 6 1 7
REMARK H PARENT
REMARK Flexibility Score: inf
ROOT
ATOM      1  C   UNL     1       2.060 -36.900  16.934  1.00  0.00     0.053 C 
ENDROOT
BRANCH   1   2
ATOM      2  C   UNL     1       2.531 -37.366  18.277  1.00  0.00     0.041 C 
ATOM      3  O   UNL     1       1.720 -37.883  19.089  1.00  0.00    -0.550 OA
ATOM      4  O   UNL     1       3.873 -37.257  18.620  1.00  0.00    -0.550 OA
ENDBRANCH   1   2
BRANCH   1   5
ATOM      5  C   UNL     1       3.145 -36.108  16.187  1.00  0.00     0.006 C 
BRANCH   5   6
ATOM      6  C   UNL     1       3.146 -36.327  14.663  1.00  0.00    -0.003 C 
ATOM      7  C   UNL     1       4.096 -37.441  14.224  1.00  0.00     0.004 C 
ENDBRANCH   5   6
ENDBRANCH   1   5
TORSDOF 3
ENDMDL
MODEL 3
REMARK VINA RESULT:    -3.380      2.477      4.042
REMARK INTER + INTRA:          -4.036
REMARK INTER:                  -4.021
REMARK INTRA:                  -0.015
REMARK UNBOUND:                -0.064
REMARK SMILES CCCCC(=O)[O-]
REMARK SMILES IDX 4 1 5 2 6 3 7 4 3 5 2 6 1 7
REMARK H PARENT
REMARK Flexibility Score: inf
ROOT
ATOM      1  C   UNL     1       2.692 -37.319  18.057  1.00  0.00     0.053 C 
ENDROOT
BRANCH   1   2
ATOM      2  C   UNL     1       2.640 -36.923  16.614  1.00  0.00     0.041 C 
ATOM      3  O   UNL     1       3.377 -37.500  15.772  1.00  0.00    -0.550 OA
ATOM      4  O   UNL     1       1.755 -35.937  16.194  1.00  0.00    -0.550 OA
ENDBRANCH   1   2
BRANCH   1   5
ATOM      5  C   UNL     1       3.975 -36.824  18.744  1.00  0.00     0.006 C 
BRANCH   5   6
ATOM      6  C   UNL     1       3.976 -36.996  20.274  1.00  0.00    -0.003 C 
ATOM      7  C   UNL     1       4.354 -35.713  21.015  1.00  0.00     0.004 C 
ENDBRANCH   5   6
ENDBRANCH   1   5
TORSDOF 3
ENDMDL
MODEL 4
REMARK VINA RESULT:    -3.255      1.905      2.317
REMARK INTER + INTRA:          -3.890
REMARK INTER:                  -3.872
REMARK INTRA:                  -0.018
REMARK UNBOUND:                -0.064
REMARK SMILES CCCCC(=O)[O-]
REMARK SMILES IDX 4 1 5 2 6 3 7 4 3 5 2 6 1 7
REMARK H PARENT
REMARK Flexibility Score: inf
ROOT
ATOM      1  C   UNL     1       3.310 -37.154  18.415  1.00  0.00     0.053 C 
ENDROOT
BRANCH   1   2
ATOM      2  C   UNL     1       4.433 -36.832  19.352  1.00  0.00     0.041 C 
ATOM      3  O   UNL     1       5.125 -37.756  19.854  1.00  0.00    -0.550 OA
ATOM      4  O   UNL     1       4.736 -35.508  19.646  1.00  0.00    -0.550 OA
ENDBRANCH   1   2
BRANCH   1   5
ATOM      5  C   UNL     1       3.399 -36.344  17.112  1.00  0.00     0.006 C 
BRANCH   5   6
ATOM      6  C   UNL     1       3.249 -37.191  15.834  1.00  0.00    -0.003 C 
ATOM      7  C   UNL     1       2.922 -36.350  14.600  1.00  0.00     0.004 C 
ENDBRANCH   5   6
ENDBRANCH   1   5
TORSDOF 3
ENDMDL
MODEL 5
REMARK VINA RESULT:    -3.237      2.951      4.824
REMARK INTER + INTRA:          -3.869
REMARK INTER:                  -3.789
REMARK INTRA:                  -0.080
REMARK UNBOUND:                -0.064
REMARK SMILES CCCCC(=O)[O-]
REMARK SMILES IDX 4 1 5 2 6 3 7 4 3 5 2 6 1 7
REMARK H PARENT
REMARK Flexibility Score: inf
ROOT
ATOM      1  C   UNL     1       4.346 -36.504  19.248  1.00  0.00     0.053 C 
ENDROOT
BRANCH   1   2
ATOM      2  C   UNL     1       3.240 -37.173  18.490  1.00  0.00     0.041 C 
ATOM      3  O   UNL     1       2.245 -37.641  19.103  1.00  0.00    -0.550 OA
ATOM      4  O   UNL     1       3.295 -37.250  17.104  1.00  0.00    -0.550 OA
ENDBRANCH   1   2
BRANCH   1   5
ATOM      5  C   UNL     1       5.069 -37.481  20.190  1.00  0.00     0.006 C 
BRANCH   5   6
ATOM      6  C   UNL     1       4.769 -37.251  21.683  1.00  0.00    -0.003 C 
ATOM      7  C   UNL     1       4.613 -35.773  22.037  1.00  0.00     0.004 C 
ENDBRANCH   5   6
ENDBRANCH   1   5
TORSDOF 3
ENDMDL
MODEL 6
REMARK VINA RESULT:    -3.138      2.641      3.535
REMARK INTER + INTRA:          -3.751
REMARK INTER:                  -3.736
REMARK INTRA:                  -0.015
REMARK UNBOUND:                -0.064
REMARK SMILES CCCCC(=O)[O-]
REMARK SMILES IDX 4 1 5 2 6 3 7 4 3 5 2 6 1 7
REMARK H PARENT
REMARK Flexibility Score: inf
ROOT
ATOM      1  C   UNL     1       4.565 -36.723  19.509  1.00  0.00     0.053 C 
ENDROOT
BRANCH   1   2
ATOM      2  C   UNL     1       4.411 -36.589  20.993  1.00  0.00     0.041 C 
ATOM      3  O   UNL     1       4.388 -37.614  21.723  1.00  0.00    -0.550 OA
ATOM      4  O   UNL     1       4.326 -35.329  21.573  1.00  0.00    -0.550 OA
ENDBRANCH   1   2
BRANCH   1   5
ATOM      5  C   UNL     1       3.251 -37.142  18.831  1.00  0.00     0.006 C 
BRANCH   5   6
ATOM      6  C   UNL     1       3.255 -36.981  17.300  1.00  0.00    -0.003 C 
ATOM      7  C   UNL     1       1.860 -36.728  16.727  1.00  0.00     0.004 C 
ENDBRANCH   5   6
ENDBRANCH   1   5
TORSDOF 3
ENDMDL
MODEL 7
REMARK VINA RESULT:    -3.088      2.329      3.851
REMARK INTER + INTRA:          -3.693
REMARK INTER:                  -3.651
REMARK INTRA:                  -0.042
REMARK UNBOUND:                -0.064
REMARK SMILES CCCCC(=O)[O-]
REMARK SMILES IDX 4 1 5 2 6 3 7 4 3 5 2 6 1 7
REMARK H PARENT
REMARK Flexibility Score: inf
ROOT
ATOM      1  C   UNL     1       2.400 -36.598  16.618  1.00  0.00     0.053 C 
ENDROOT
BRANCH   1   2
ATOM      2  C   UNL     1       2.987 -36.848  15.263  1.00  0.00     0.041 C 
ATOM      3  O   UNL     1       2.739 -36.064  14.311  1.00  0.00    -0.550 OA
ATOM      4  O   UNL     1       3.834 -37.931  15.061  1.00  0.00    -0.550 OA
ENDBRANCH   1   2
BRANCH   1   5
ATOM      5  C   UNL     1       3.329 -37.077  17.745  1.00  0.00     0.006 C 
BRANCH   5   6
ATOM      6  C   UNL     1       2.597 -37.455  19.046  1.00  0.00    -0.003 C 
ATOM      7  C   UNL     1       1.123 -37.789  18.821  1.00  0.00     0.004 C 
ENDBRANCH   5   6
ENDBRANCH   1   5
TORSDOF 3
ENDMDL
MODEL 8
REMARK VINA RESULT:    -2.868      4.437      6.305
REMARK INTER + INTRA:          -3.434
REMARK INTER:                  -3.401
REMARK INTRA:                  -0.034
REMARK UNBOUND:                -0.064
REMARK SMILES CCCCC(=O)[O-]
REMARK SMILES IDX 4 1 5 2 6 3 7 4 3 5 2 6 1 7
REMARK H PARENT
REMARK Flexibility Score: inf
ROOT
ATOM      1  C   UNL     1       4.487 -37.572  21.340  1.00  0.00     0.053 C 
ENDROOT
BRANCH   1   2
ATOM      2  C   UNL     1       4.423 -36.637  20.172  1.00  0.00     0.041 C 
ATOM      3  O   UNL     1       4.813 -35.446  20.291  1.00  0.00    -0.550 OA
ATOM      4  O   UNL     1       3.962 -37.091  18.942  1.00  0.00    -0.550 OA
ENDBRANCH   1   2
BRANCH   1   5
ATOM      5  C   UNL     1       4.793 -36.833  22.652  1.00  0.00     0.006 C 
BRANCH   5   6
ATOM      6  C   UNL     1       5.125 -37.761  23.835  1.00  0.00    -0.003 C 
ATOM      7  C   UNL     1       5.059 -39.243  23.463  1.00  0.00     0.004 C 
ENDBRANCH   5   6
ENDBRANCH   1   5
TORSDOF 3
ENDMDL
MODEL 9
REMARK VINA RESULT:    -2.773      4.666      5.697
REMARK INTER + INTRA:          -3.323
REMARK INTER:                  -3.299
REMARK INTRA:                  -0.025
REMARK UNBOUND:                -0.064
REMARK SMILES CCCCC(=O)[O-]
REMARK SMILES IDX 4 1 5 2 6 3 7 4 3 5 2 6 1 7
REMARK H PARENT
REMARK Flexibility Score: inf
ROOT
ATOM      1  C   UNL     1       4.375 -35.863  21.702  1.00  0.00     0.053 C 
ENDROOT
BRANCH   1   2
ATOM      2  C   UNL     1       4.897 -35.457  23.046  1.00  0.00     0.041 C 
ATOM      3  O   UNL     1       5.125 -34.246  23.298  1.00  0.00    -0.550 OA
ATOM      4  O   UNL     1       5.101 -36.416  24.032  1.00  0.00    -0.550 OA
ENDBRANCH   1   2
BRANCH   1   5
ATOM      5  C   UNL     1       4.792 -37.296  21.333  1.00  0.00     0.006 C 
BRANCH   5   6
ATOM      6  C   UNL     1       4.995 -37.522  19.823  1.00  0.00    -0.003 C 
ATOM      7  C   UNL     1       4.019 -36.716  18.966  1.00  0.00     0.004 C 
ENDBRANCH   5   6
ENDBRANCH   1   5
TORSDOF 3
ENDMDL
