MODEL 1
REMARK VINA RESULT:    -4.488      0.000      0.000
REMARK INTER + INTRA:          -5.036
REMARK INTER:                  -5.143
REMARK INTRA:                   0.107
REMARK UNBOUND:                 0.107
REMARK SMILES CC(C)[C@@H]([NH3+])C(=O)[O-]
REMARK SMILES IDX 4 1 5 2 6 6 7 7 8 8 2 9 1 10 3 11
REMARK H PARENT 5 3 5 4 5 5
REMARK Flexibility Score: inf
ROOT
ATOM      1  C   UNL     1     166.793 166.529 163.132  1.00  0.00     0.230 C 
ENDROOT
BRANCH   1   2
ATOM      2  N   UNL     1     167.033 165.084 163.273  1.00  0.00    -0.350 N 
ATOM      3  H   UNL     1     167.730 164.742 162.573  1.00  0.00     0.345 HD
ATOM      4  H   UNL     1     166.141 164.554 163.164  1.00  0.00     0.345 HD
ATOM      5  H   UNL     1     167.403 164.886 164.231  1.00  0.00     0.345 HD
ENDBRANCH   1   2
BRANCH   1   6
ATOM      6  C   UNL     1     166.509 166.887 161.694  1.00  0.00     0.099 C 
ATOM      7  O   UNL     1     165.959 166.046 160.934  1.00  0.00    -0.544 OA
ATOM      8  O   UNL     1     166.890 168.122 161.181  1.00  0.00    -0.544 OA
ENDBRANCH   1   6
BRANCH   1   9
ATOM      9  C   UNL     1     165.662 167.053 164.069  1.00  0.00     0.047 C 
ATOM     10  C   UNL     1     164.290 167.148 163.383  1.00  0.00     0.014 C 
ATOM     11  C   UNL     1     165.553 166.222 165.356  1.00  0.00     0.014 C 
ENDBRANCH   1   9
TORSDOF 3
ENDMDL
MODEL 2
REMARK VINA RESULT:    -4.468      3.332      4.224
REMARK INTER + INTRA:          -5.014
REMARK INTER:                  -4.967
REMARK INTRA:                  -0.047
REMARK UNBOUND:                 0.107
REMARK SMILES CC(C)[C@@H]([NH3+])C(=O)[O-]
REMARK SMILES IDX 4 1 5 2 6 6 7 7 8 8 2 9 1 10 3 11
REMARK H PARENT 5 3 5 4 5 5
REMARK Flexibility Score: inf
ROOT
ATOM      1  C   UNL     1     165.625 165.216 165.172  1.00  0.00     0.230 C 
ENDROOT
BRANCH   1   2
ATOM      2  N   UNL     1     166.769 164.360 165.522  1.00  0.00    -0.350 N 
ATOM      3  H   UNL     1     167.592 164.549 164.906  1.00  0.00     0.345 HD
ATOM      4  H   UNL     1     166.506 163.352 165.452  1.00  0.00     0.345 HD
ATOM      5  H   UNL     1     167.049 164.545 166.513  1.00  0.00     0.345 HD
ENDBRANCH   1   2
BRANCH   1   6
ATOM      6  C   UNL     1     164.969 165.767 166.414  1.00  0.00     0.099 C 
ATOM      7  O   UNL     1     165.318 166.891 166.863  1.00  0.00    -0.544 OA
ATOM      8  O   UNL     1     164.013 165.027 167.100  1.00  0.00    -0.544 OA
ENDBRANCH   1   6
BRANCH   1   9
ATOM      9  C   UNL     1     166.002 166.365 164.187  1.00  0.00     0.047 C 
ATOM     10  C   UNL     1     167.125 165.991 163.206  1.00  0.00     0.014 C 
ATOM     11  C   UNL     1     164.778 166.884 163.417  1.00  0.00     0.014 C 
ENDBRANCH   1   9
TORSDOF 3
ENDMDL
MODEL 3
REMARK VINA RESULT:    -4.428      3.654      4.473
REMARK INTER + INTRA:          -4.968
REMARK INTER:                  -4.931
REMARK INTRA:                  -0.037
REMARK UNBOUND:                 0.107
REMARK SMILES CC(C)[C@@H]([NH3+])C(=O)[O-]
REMARK SMILES IDX 4 1 5 2 6 6 7 7 8 8 2 9 1 10 3 11
REMARK H PARENT 5 3 5 4 5 5
REMARK Flexibility Score: inf
ROOT
ATOM      1  C   UNL     1     165.221 165.555 166.073  1.00  0.00     0.230 C 
ENDROOT
BRANCH   1   2
ATOM      2  N   UNL     1     165.692 166.624 166.967  1.00  0.00    -0.350 N 
ATOM      3  H   UNL     1     166.697 166.493 167.223  1.00  0.00     0.345 HD
ATOM      4  H   UNL     1     165.113 166.657 167.834  1.00  0.00     0.345 HD
ATOM      5  H   UNL     1     165.592 167.547 166.485  1.00  0.00     0.345 HD
ENDBRANCH   1   2
BRANCH   1   6
ATOM      6  C   UNL     1     163.757 165.272 166.303  1.00  0.00     0.099 C 
ATOM      7  O   UNL     1     163.377 164.770 167.394  1.00  0.00    -0.544 OA
ATOM      8  O   UNL     1     162.821 165.515 165.303  1.00  0.00    -0.544 OA
ENDBRANCH   1   6
BRANCH   1   9
ATOM      9  C   UNL     1     165.499 165.852 164.568  1.00  0.00     0.047 C 
ATOM     10  C   UNL     1     165.571 167.352 164.239  1.00  0.00     0.014 C 
ATOM     11  C   UNL     1     166.765 165.140 164.068  1.00  0.00     0.014 C 
ENDBRANCH   1   9
TORSDOF 3
ENDMDL
MODEL 4
REMARK VINA RESULT:    -4.419     23.657     24.378
REMARK INTER + INTRA:          -4.958
REMARK INTER:                  -4.910
REMARK INTRA:                  -0.047
REMARK UNBOUND:                 0.107
REMARK SMILES CC(C)[C@@H]([NH3+])C(=O)[O-]
REMARK SMILES IDX 4 1 5 2 6 6 7 7 8 8 2 9 1 10 3 11
REMARK H PARENT 5 3 5 4 5 5
REMARK Flexibility Score: inf
ROOT
ATOM      1  C   UNL     1     149.391 149.849 165.203  1.00  0.00     0.230 C 
ENDROOT
BRANCH   1   2
ATOM      2  N   UNL     1     148.240 150.686 165.578  1.00  0.00    -0.350 N 
ATOM      3  H   UNL     1     147.477 150.629 164.865  1.00  0.00     0.345 HD
ATOM      4  H   UNL     1     148.535 151.681 165.694  1.00  0.00     0.345 HD
ATOM      5  H   UNL     1     147.859 150.360 166.496  1.00  0.00     0.345 HD
ENDBRANCH   1   2
BRANCH   1   6
ATOM      6  C   UNL     1     150.126 149.370 166.430  1.00  0.00     0.099 C 
ATOM      7  O   UNL     1     149.874 148.233 166.910  1.00  0.00    -0.544 OA
ATOM      8  O   UNL     1     151.048 150.190 167.070  1.00  0.00    -0.544 OA
ENDBRANCH   1   6
BRANCH   1   9
ATOM      9  C   UNL     1     148.999 148.649 164.287  1.00  0.00     0.047 C 
ATOM     10  C   UNL     1     147.781 148.930 163.393  1.00  0.00     0.014 C 
ATOM     11  C   UNL     1     150.183 148.171 163.433  1.00  0.00     0.014 C 
ENDBRANCH   1   9
TORSDOF 3
ENDMDL
MODEL 5
REMARK VINA RESULT:    -4.286      1.730      2.247
REMARK INTER + INTRA:          -4.805
REMARK INTER:                  -4.756
REMARK INTRA:                  -0.048
REMARK UNBOUND:                 0.107
REMARK SMILES CC(C)[C@@H]([NH3+])C(=O)[O-]
REMARK SMILES IDX 4 1 5 2 6 6 7 7 8 8 2 9 1 10 3 11
REMARK H PARENT 5 3 5 4 5 5
REMARK Flexibility Score: inf
ROOT
ATOM      1  C   UNL     1     164.936 167.461 162.937  1.00  0.00     0.230 C 
ENDROOT
BRANCH   1   2
ATOM      2  N   UNL     1     166.239 168.125 163.092  1.00  0.00    -0.350 N 
ATOM      3  H   UNL     1     167.015 167.541 162.704  1.00  0.00     0.345 HD
ATOM      4  H   UNL     1     166.427 168.329 164.099  1.00  0.00     0.345 HD
ATOM      5  H   UNL     1     166.226 169.038 162.582  1.00  0.00     0.345 HD
ENDBRANCH   1   2
BRANCH   1   6
ATOM      6  C   UNL     1     164.846 166.764 161.602  1.00  0.00     0.099 C 
ATOM      7  O   UNL     1     163.734 166.660 161.020  1.00  0.00    -0.544 OA
ATOM      8  O   UNL     1     165.973 166.191 161.023  1.00  0.00    -0.544 OA
ENDBRANCH   1   6
BRANCH   1   9
ATOM      9  C   UNL     1     164.611 166.475 164.100  1.00  0.00     0.047 C 
ATOM     10  C   UNL     1     165.631 166.521 165.249  1.00  0.00     0.014 C 
ATOM     11  C   UNL     1     163.189 166.682 164.646  1.00  0.00     0.014 C 
ENDBRANCH   1   9
TORSDOF 3
ENDMDL
MODEL 6
REMARK VINA RESULT:    -4.283     20.410     21.361
REMARK INTER + INTRA:          -4.801
REMARK INTER:                  -4.753
REMARK INTRA:                  -0.048
REMARK UNBOUND:                 0.107
REMARK SMILES CC(C)[C@@H]([NH3+])C(=O)[O-]
REMARK SMILES IDX 4 1 5 2 6 6 7 7 8 8 2 9 1 10 3 11
REMARK H PARENT 5 3 5 4 5 5
REMARK Flexibility Score: inf
ROOT
ATOM      1  C   UNL     1     148.595 166.827 150.490  1.00  0.00     0.230 C 
ENDROOT
BRANCH   1   2
ATOM      2  N   UNL     1     147.218 166.462 150.857  1.00  0.00    -0.350 N 
ATOM      3  H   UNL     1     146.829 165.739 150.210  1.00  0.00     0.345 HD
ATOM      4  H   UNL     1     146.602 167.305 150.849  1.00  0.00     0.345 HD
ATOM      5  H   UNL     1     147.210 166.075 151.829  1.00  0.00     0.345 HD
ENDBRANCH   1   2
BRANCH   1   6
ATOM      6  C   UNL     1     149.484 166.857 151.709  1.00  0.00     0.099 C 
ATOM      7  O   UNL     1     150.629 167.376 151.639  1.00  0.00    -0.544 OA
ATOM      8  O   UNL     1     149.072 166.274 152.902  1.00  0.00    -0.544 OA
ENDBRANCH   1   6
BRANCH   1   9
ATOM      9  C   UNL     1     149.197 165.904 149.387  1.00  0.00     0.047 C 
ATOM     10  C   UNL     1     148.294 164.715 149.019  1.00  0.00     0.014 C 
ATOM     11  C   UNL     1     149.575 166.692 148.124  1.00  0.00     0.014 C 
ENDBRANCH   1   9
TORSDOF 3
ENDMDL
MODEL 7
REMARK VINA RESULT:    -4.270      3.073      3.751
REMARK INTER + INTRA:          -4.787
REMARK INTER:                  -4.739
REMARK INTRA:                  -0.047
REMARK UNBOUND:                 0.107
REMARK SMILES CC(C)[C@@H]([NH3+])C(=O)[O-]
REMARK SMILES IDX 4 1 5 2 6 6 7 7 8 8 2 9 1 10 3 11
REMARK H PARENT 5 3 5 4 5 5
REMARK Flexibility Score: inf
ROOT
ATOM      1  C   UNL     1     164.888 166.524 165.144  1.00  0.00     0.230 C 
ENDROOT
BRANCH   1   2
ATOM      2  N   UNL     1     163.507 166.630 165.642  1.00  0.00    -0.350 N 
ATOM      3  H   UNL     1     163.237 167.625 165.815  1.00  0.00     0.345 HD
ATOM      4  H   UNL     1     163.393 166.080 166.522  1.00  0.00     0.345 HD
ATOM      5  H   UNL     1     162.852 166.228 164.932  1.00  0.00     0.345 HD
ENDBRANCH   1   2
BRANCH   1   6
ATOM      6  C   UNL     1     165.473 165.173 165.472  1.00  0.00     0.099 C 
ATOM      7  O   UNL     1     164.838 164.375 166.211  1.00  0.00    -0.544 OA
ATOM      8  O   UNL     1     166.732 164.813 165.005  1.00  0.00    -0.544 OA
ENDBRANCH   1   6
BRANCH   1   9
ATOM      9  C   UNL     1     165.011 166.828 163.620  1.00  0.00     0.047 C 
ATOM     10  C   UNL     1     163.658 167.057 162.927  1.00  0.00     0.014 C 
ATOM     11  C   UNL     1     165.953 168.010 163.345  1.00  0.00     0.014 C 
ENDBRANCH   1   9
TORSDOF 3
ENDMDL
MODEL 8
REMARK VINA RESULT:    -4.235      1.646      2.235
REMARK INTER + INTRA:          -4.746
REMARK INTER:                  -4.686
REMARK INTRA:                  -0.060
REMARK UNBOUND:                 0.107
REMARK SMILES CC(C)[C@@H]([NH3+])C(=O)[O-]
REMARK SMILES IDX 4 1 5 2 6 6 7 7 8 8 2 9 1 10 3 11
REMARK H PARENT 5 3 5 4 5 5
REMARK Flexibility Score: inf
ROOT
ATOM      1  C   UNL     1     165.275 166.287 163.473  1.00  0.00     0.230 C 
ENDROOT
BRANCH   1   2
ATOM      2  N   UNL     1     164.131 167.210 163.557  1.00  0.00    -0.350 N 
ATOM      3  H   UNL     1     164.354 168.136 163.126  1.00  0.00     0.345 HD
ATOM      4  H   UNL     1     163.846 167.348 164.552  1.00  0.00     0.345 HD
ATOM      5  H   UNL     1     163.315 166.797 163.050  1.00  0.00     0.345 HD
ENDBRANCH   1   2
BRANCH   1   6
ATOM      6  C   UNL     1     166.187 166.669 162.333  1.00  0.00     0.099 C 
ATOM      7  O   UNL     1     167.125 167.487 162.525  1.00  0.00    -0.544 OA
ATOM      8  O   UNL     1     165.975 166.163 161.055  1.00  0.00    -0.544 OA
ENDBRANCH   1   6
BRANCH   1   9
ATOM      9  C   UNL     1     166.071 166.180 164.809  1.00  0.00     0.047 C 
ATOM     10  C   UNL     1     165.258 166.595 166.045  1.00  0.00     0.014 C 
ATOM     11  C   UNL     1     166.663 164.777 165.012  1.00  0.00     0.014 C 
ENDBRANCH   1   9
TORSDOF 3
ENDMDL
MODEL 9
REMARK VINA RESULT:    -4.201     18.272     18.886
REMARK INTER + INTRA:          -4.708
REMARK INTER:                  -4.646
REMARK INTRA:                  -0.061
REMARK UNBOUND:                 0.107
REMARK SMILES CC(C)[C@@H]([NH3+])C(=O)[O-]
REMARK SMILES IDX 4 1 5 2 6 6 7 7 8 8 2 9 1 10 3 11
REMARK H PARENT 5 3 5 4 5 5
REMARK Flexibility Score: inf
ROOT
ATOM      1  C   UNL     1     154.825 152.839 166.221  1.00  0.00     0.230 C 
ENDROOT
BRANCH   1   2
ATOM      2  N   UNL     1     154.778 154.285 165.953  1.00  0.00    -0.350 N 
ATOM      3  H   UNL     1     154.023 154.752 166.505  1.00  0.00     0.345 HD
ATOM      4  H   UNL     1     154.627 154.463 164.936  1.00  0.00     0.345 HD
ATOM      5  H   UNL     1     155.694 154.716 166.216  1.00  0.00     0.345 HD
ENDBRANCH   1   2
BRANCH   1   6
ATOM      6  C   UNL     1     153.578 152.387 166.939  1.00  0.00     0.099 C 
ATOM      7  O   UNL     1     153.322 152.825 168.092  1.00  0.00    -0.544 OA
ATOM      8  O   UNL     1     152.725 151.452 166.362  1.00  0.00    -0.544 OA
ENDBRANCH   1   6
BRANCH   1   9
ATOM      9  C   UNL     1     155.065 151.989 164.937  1.00  0.00     0.047 C 
ATOM     10  C   UNL     1     155.159 152.827 163.652  1.00  0.00     0.014 C 
ATOM     11  C   UNL     1     156.301 151.086 165.070  1.00  0.00     0.014 C 
ENDBRANCH   1   9
TORSDOF 3
ENDMDL
