MODEL 1
REMARK VINA RESULT:    -3.896      0.000      0.000
REMARK INTER + INTRA:          -5.005
REMARK INTER:                  -4.806
REMARK INTRA:                  -0.198
REMARK UNBOUND:                -0.198
REMARK SMILES [NH3+][C@@H](Cc1ccc(O)cc1)C(=O)[O-]
REMARK SMILES IDX 3 1 2 2 1 3 11 7 12 8 13 9 4 10 5 11 10 12 6 13 9 14 7 15
REMARK SMILES IDX 8 16
REMARK H PARENT 1 4 1 5 1 6 8 17
REMARK Flexibility Score: inf
ROOT
ATOM      1  C   UNL     1      -0.963   9.058   2.079  1.00  0.00     0.107 C 
ENDROOT
BRANCH   1   2
ATOM      2  C   UNL     1      -1.151  10.541   1.699  1.00  0.00     0.232 C 
BRANCH   2   3
ATOM      3  N   UNL     1      -2.158  11.168   2.565  1.00  0.00    -0.350 N 
ATOM      4  H   UNL     1      -1.704  11.798   3.265  1.00  0.00     0.345 HD
ATOM      5  H   UNL     1      -2.702  10.430   3.067  1.00  0.00     0.345 HD
ATOM      6  H   UNL     1      -2.824  11.726   1.983  1.00  0.00     0.345 HD
ENDBRANCH   2   3
BRANCH   2   7
ATOM      7  C   UNL     1      -1.556  10.679   0.253  1.00  0.00     0.099 C 
ATOM      8  O   UNL     1      -1.257  11.719  -0.391  1.00  0.00    -0.544 OA
ATOM      9  O   UNL     1      -2.245   9.653  -0.383  1.00  0.00    -0.544 OA
ENDBRANCH   2   7
ENDBRANCH   1   2
BRANCH   1  10
ATOM     10  C   UNL     1       0.496   8.696   2.209  1.00  0.00    -0.041 A 
ATOM     11  C   UNL     1       0.880   7.372   2.477  1.00  0.00     0.008 A 
ATOM     12  C   UNL     1       1.486   9.674   2.019  1.00  0.00     0.008 A 
ATOM     13  C   UNL     1       2.234   7.035   2.568  1.00  0.00     0.046 A 
ATOM     14  C   UNL     1       2.839   9.335   2.111  1.00  0.00     0.046 A 
ATOM     15  C   UNL     1       3.218   8.017   2.386  1.00  0.00     0.115 A 
BRANCH  15  16
ATOM     16  O   UNL     1       4.569   7.693   2.474  1.00  0.00    -0.508 OA
ATOM     17  H   UNL     1       5.288   8.333   2.155  1.00  0.00     0.293 HD
ENDBRANCH  15  16
ENDBRANCH   1  10
TORSDOF 5
ENDMDL
MODEL 2
REMARK VINA RESULT:    -3.852      4.280      6.820
REMARK INTER + INTRA:          -4.951
REMARK INTER:                  -4.733
REMARK INTRA:                  -0.218
REMARK UNBOUND:                -0.198
REMARK SMILES [NH3+][C@@H](Cc1ccc(O)cc1)C(=O)[O-]
REMARK SMILES IDX 3 1 2 2 1 3 11 7 12 8 13 9 4 10 5 11 10 12 6 13 9 14 7 15
REMARK SMILES IDX 8 16
REMARK H PARENT 1 4 1 5 1 6 8 17
REMARK Flexibility Score: inf
ROOT
ATOM      1  C   UNL     1       5.568  10.994   3.681  1.00  0.00     0.107 C 
ENDROOT
BRANCH   1   2
ATOM      2  C   UNL     1       6.988  10.392   3.707  1.00  0.00     0.232 C 
BRANCH   2   3
ATOM      3  N   UNL     1       7.624  10.635   5.008  1.00  0.00    -0.350 N 
ATOM      4  H   UNL     1       8.393   9.948   5.179  1.00  0.00     0.345 HD
ATOM      5  H   UNL     1       6.913  10.554   5.771  1.00  0.00     0.345 HD
ATOM      6  H   UNL     1       8.019  11.604   5.032  1.00  0.00     0.345 HD
ENDBRANCH   2   3
BRANCH   2   7
ATOM      7  C   UNL     1       7.837  10.969   2.602  1.00  0.00     0.099 C 
ATOM      8  O   UNL     1       7.342  11.163   1.460  1.00  0.00    -0.544 OA
ATOM      9  O   UNL     1       9.164  11.305   2.840  1.00  0.00    -0.544 OA
ENDBRANCH   2   7
ENDBRANCH   1   2
BRANCH   1  10
ATOM     10  C   UNL     1       4.558  10.019   3.128  1.00  0.00    -0.041 A 
ATOM     11  C   UNL     1       3.430  10.481   2.429  1.00  0.00     0.008 A 
ATOM     12  C   UNL     1       4.761   8.636   3.269  1.00  0.00     0.008 A 
ATOM     13  C   UNL     1       2.513   9.572   1.893  1.00  0.00     0.046 A 
ATOM     14  C   UNL     1       3.842   7.730   2.733  1.00  0.00     0.046 A 
ATOM     15  C   UNL     1       2.716   8.194   2.044  1.00  0.00     0.115 A 
BRANCH  15  16
ATOM     16  O   UNL     1       1.809   7.280   1.514  1.00  0.00    -0.508 OA
ATOM     17  H   UNL     1       1.092   7.566   0.857  1.00  0.00     0.293 HD
ENDBRANCH  15  16
ENDBRANCH   1  10
TORSDOF 5
ENDMDL
MODEL 3
REMARK VINA RESULT:    -3.807      4.233      6.671
REMARK INTER + INTRA:          -4.896
REMARK INTER:                  -4.674
REMARK INTRA:                  -0.222
REMARK UNBOUND:                -0.198
REMARK SMILES [NH3+][C@@H](Cc1ccc(O)cc1)C(=O)[O-]
REMARK SMILES IDX 3 1 2 2 1 3 11 7 12 8 13 9 4 10 5 11 10 12 6 13 9 14 7 15
REMARK SMILES IDX 8 16
REMARK H PARENT 1 4 1 5 1 6 8 17
REMARK Flexibility Score: inf
ROOT
ATOM      1  C   UNL     1       5.481  11.008   3.579  1.00  0.00     0.107 C 
ENDROOT
BRANCH   1   2
ATOM      2  C   UNL     1       6.873  10.344   3.601  1.00  0.00     0.232 C 
BRANCH   2   3
ATOM      3  N   UNL     1       7.485  10.481   4.929  1.00  0.00    -0.350 N 
ATOM      4  H   UNL     1       6.852  10.100   5.669  1.00  0.00     0.345 HD
ATOM      5  H   UNL     1       7.679  11.489   5.127  1.00  0.00     0.345 HD
ATOM      6  H   UNL     1       8.392   9.962   4.954  1.00  0.00     0.345 HD
ENDBRANCH   2   3
BRANCH   2   7
ATOM      7  C   UNL     1       7.774  10.948   2.553  1.00  0.00     0.099 C 
ATOM      8  O   UNL     1       7.332  11.181   1.398  1.00  0.00    -0.544 OA
ATOM      9  O   UNL     1       9.091  11.266   2.860  1.00  0.00    -0.544 OA
ENDBRANCH   2   7
ENDBRANCH   1   2
BRANCH   1  10
ATOM     10  C   UNL     1       4.429  10.082   3.019  1.00  0.00    -0.041 A 
ATOM     11  C   UNL     1       4.564   8.690   3.148  1.00  0.00     0.008 A 
ATOM     12  C   UNL     1       3.281  10.607   2.402  1.00  0.00     0.008 A 
ATOM     13  C   UNL     1       3.573   7.837   2.655  1.00  0.00     0.046 A 
ATOM     14  C   UNL     1       2.292   9.752   1.909  1.00  0.00     0.046 A 
ATOM     15  C   UNL     1       2.434   8.366   2.032  1.00  0.00     0.115 A 
BRANCH  15  16
ATOM     16  O   UNL     1       1.440   7.526   1.536  1.00  0.00    -0.508 OA
ATOM     17  H   UNL     1       1.502   6.518   1.634  1.00  0.00     0.293 HD
ENDBRANCH  15  16
ENDBRANCH   1  10
TORSDOF 5
ENDMDL
MODEL 4
REMARK VINA RESULT:    -3.727      3.581      5.553
REMARK INTER + INTRA:          -4.797
REMARK INTER:                  -4.615
REMARK INTRA:                  -0.182
REMARK UNBOUND:                -0.198
REMARK SMILES [NH3+][C@@H](Cc1ccc(O)cc1)C(=O)[O-]
REMARK SMILES IDX 3 1 2 2 1 3 11 7 12 8 13 9 4 10 5 11 10 12 6 13 9 14 7 15
REMARK SMILES IDX 8 16
REMARK H PARENT 1 4 1 5 1 6 8 17
REMARK Flexibility Score: inf
ROOT
ATOM      1  C   UNL     1       1.521   7.064   2.187  1.00  0.00     0.107 C 
ENDROOT
BRANCH   1   2
ATOM      2  C   UNL     1       2.582   7.450   3.238  1.00  0.00     0.232 C 
BRANCH   2   3
ATOM      3  N   UNL     1       1.948   8.104   4.389  1.00  0.00    -0.350 N 
ATOM      4  H   UNL     1       1.105   8.646   4.090  1.00  0.00     0.345 HD
ATOM      5  H   UNL     1       2.629   8.752   4.848  1.00  0.00     0.345 HD
ATOM      6  H   UNL     1       1.660   7.384   5.090  1.00  0.00     0.345 HD
ENDBRANCH   2   3
BRANCH   2   7
ATOM      7  C   UNL     1       3.627   8.356   2.639  1.00  0.00     0.099 C 
ATOM      8  O   UNL     1       4.823   7.972   2.553  1.00  0.00    -0.544 OA
ATOM      9  O   UNL     1       3.275   9.614   2.163  1.00  0.00    -0.544 OA
ENDBRANCH   2   7
ENDBRANCH   1   2
BRANCH   1  10
ATOM     10  C   UNL     1       0.612   5.968   2.686  1.00  0.00    -0.041 A 
ATOM     11  C   UNL     1      -0.783   6.129   2.654  1.00  0.00     0.008 A 
ATOM     12  C   UNL     1       1.155   4.757   3.148  1.00  0.00     0.008 A 
ATOM     13  C   UNL     1      -1.621   5.099   3.091  1.00  0.00     0.046 A 
ATOM     14  C   UNL     1       0.314   3.729   3.585  1.00  0.00     0.046 A 
ATOM     15  C   UNL     1      -1.075   3.896   3.559  1.00  0.00     0.115 A 
BRANCH  15  16
ATOM     16  O   UNL     1      -1.900   2.863   3.996  1.00  0.00    -0.508 OA
ATOM     17  H   UNL     1      -2.258   2.837   4.945  1.00  0.00     0.293 HD
ENDBRANCH  15  16
ENDBRANCH   1  10
TORSDOF 5
ENDMDL
MODEL 5
REMARK VINA RESULT:    -3.607      1.215      1.432
REMARK INTER + INTRA:          -4.649
REMARK INTER:                  -4.442
REMARK INTRA:                  -0.207
REMARK UNBOUND:                -0.198
REMARK SMILES [NH3+][C@@H](Cc1ccc(O)cc1)C(=O)[O-]
REMARK SMILES IDX 3 1 2 2 1 3 11 7 12 8 13 9 4 10 5 11 10 12 6 13 9 14 7 15
REMARK SMILES IDX 8 16
REMARK H PARENT 1 4 1 5 1 6 8 17
REMARK Flexibility Score: inf
ROOT
ATOM      1  C   UNL     1      -0.983   7.947   2.490  1.00  0.00     0.107 C 
ENDROOT
BRANCH   1   2
ATOM      2  C   UNL     1      -1.513   9.377   2.723  1.00  0.00     0.232 C 
BRANCH   2   3
ATOM      3  N   UNL     1      -2.439   9.401   3.863  1.00  0.00    -0.350 N 
ATOM      4  H   UNL     1      -2.007   8.947   4.700  1.00  0.00     0.345 HD
ATOM      5  H   UNL     1      -3.321   8.897   3.614  1.00  0.00     0.345 HD
ATOM      6  H   UNL     1      -2.684  10.391   4.098  1.00  0.00     0.345 HD
ENDBRANCH   2   3
BRANCH   2   7
ATOM      7  C   UNL     1      -2.200   9.905   1.489  1.00  0.00     0.099 C 
ATOM      8  O   UNL     1      -1.951   9.401   0.363  1.00  0.00    -0.544 OA
ATOM      9  O   UNL     1      -3.125  10.937   1.588  1.00  0.00    -0.544 OA
ENDBRANCH   2   7
ENDBRANCH   1   2
BRANCH   1  10
ATOM     10  C   UNL     1       0.525   7.899   2.517  1.00  0.00    -0.041 A 
ATOM     11  C   UNL     1       1.193   6.727   2.907  1.00  0.00     0.008 A 
ATOM     12  C   UNL     1       1.274   9.016   2.109  1.00  0.00     0.008 A 
ATOM     13  C   UNL     1       2.591   6.678   2.902  1.00  0.00     0.046 A 
ATOM     14  C   UNL     1       2.671   8.964   2.106  1.00  0.00     0.046 A 
ATOM     15  C   UNL     1       3.334   7.797   2.503  1.00  0.00     0.115 A 
BRANCH  15  16
ATOM     16  O   UNL     1       4.725   7.760   2.494  1.00  0.00    -0.508 OA
ATOM     17  H   UNL     1       5.274   8.337   3.121  1.00  0.00     0.293 HD
ENDBRANCH  15  16
ENDBRANCH   1  10
TORSDOF 5
ENDMDL
MODEL 6
REMARK VINA RESULT:    -3.590     10.866     11.459
REMARK INTER + INTRA:          -4.628
REMARK INTER:                  -4.431
REMARK INTRA:                  -0.197
REMARK UNBOUND:                -0.198
REMARK SMILES [NH3+][C@@H](Cc1ccc(O)cc1)C(=O)[O-]
REMARK SMILES IDX 3 1 2 2 1 3 11 7 12 8 13 9 4 10 5 11 10 12 6 13 9 14 7 15
REMARK SMILES IDX 8 16
REMARK H PARENT 1 4 1 5 1 6 8 17
REMARK Flexibility Score: inf
ROOT
ATOM      1  C   UNL     1       5.726  10.342  -9.047  1.00  0.00     0.107 C 
ENDROOT
BRANCH   1   2
ATOM      2  C   UNL     1       4.438  10.325  -8.197  1.00  0.00     0.232 C 
BRANCH   2   3
ATOM      3  N   UNL     1       3.622   9.150  -8.528  1.00  0.00    -0.350 N 
ATOM      4  H   UNL     1       3.819   8.364  -7.868  1.00  0.00     0.345 HD
ATOM      5  H   UNL     1       3.827   8.839  -9.505  1.00  0.00     0.345 HD
ATOM      6  H   UNL     1       2.607   9.398  -8.472  1.00  0.00     0.345 HD
ENDBRANCH   2   3
BRANCH   2   7
ATOM      7  C   UNL     1       3.638  11.585  -8.406  1.00  0.00     0.099 C 
ATOM      8  O   UNL     1       3.011  11.765  -9.483  1.00  0.00    -0.544 OA
ATOM      9  O   UNL     1       3.573  12.549  -7.407  1.00  0.00    -0.544 OA
ENDBRANCH   2   7
ENDBRANCH   1   2
BRANCH   1  10
ATOM     10  C   UNL     1       6.962  10.416  -8.185  1.00  0.00    -0.041 A 
ATOM     11  C   UNL     1       7.342  11.628  -7.586  1.00  0.00     0.008 A 
ATOM     12  C   UNL     1       7.721   9.259  -7.939  1.00  0.00     0.008 A 
ATOM     13  C   UNL     1       8.473  11.685  -6.765  1.00  0.00     0.046 A 
ATOM     14  C   UNL     1       8.851   9.319  -7.118  1.00  0.00     0.046 A 
ATOM     15  C   UNL     1       9.231  10.530  -6.530  1.00  0.00     0.115 A 
BRANCH  15  16
ATOM     16  O   UNL     1      10.358  10.575  -5.714  1.00  0.00    -0.508 OA
ATOM     17  H   UNL     1      10.575   9.823  -5.069  1.00  0.00     0.293 HD
ENDBRANCH  15  16
ENDBRANCH   1  10
TORSDOF 5
ENDMDL
MODEL 7
REMARK VINA RESULT:    -3.533      5.263      6.955
REMARK INTER + INTRA:          -4.558
REMARK INTER:                  -4.324
REMARK INTRA:                  -0.234
REMARK UNBOUND:                -0.198
REMARK SMILES [NH3+][C@@H](Cc1ccc(O)cc1)C(=O)[O-]
REMARK SMILES IDX 3 1 2 2 1 3 11 7 12 8 13 9 4 10 5 11 10 12 6 13 9 14 7 15
REMARK SMILES IDX 8 16
REMARK H PARENT 1 4 1 5 1 6 8 17
REMARK Flexibility Score: inf
ROOT
ATOM      1  C   UNL     1      -0.449   3.630   4.931  1.00  0.00     0.107 C 
ENDROOT
BRANCH   1   2
ATOM      2  C   UNL     1      -1.292   2.563   4.203  1.00  0.00     0.232 C 
BRANCH   2   3
ATOM      3  N   UNL     1      -2.444   2.172   5.025  1.00  0.00    -0.350 N 
ATOM      4  H   UNL     1      -2.144   1.556   5.815  1.00  0.00     0.345 HD
ATOM      5  H   UNL     1      -3.143   1.662   4.436  1.00  0.00     0.345 HD
ATOM      6  H   UNL     1      -2.906   3.026   5.413  1.00  0.00     0.345 HD
ENDBRANCH   2   3
BRANCH   2   7
ATOM      7  C   UNL     1      -0.458   1.351   3.873  1.00  0.00     0.099 C 
ATOM      8  O   UNL     1      -0.805   0.579   2.942  1.00  0.00    -0.544 OA
ATOM      9  O   UNL     1       0.709   1.089   4.583  1.00  0.00    -0.544 OA
ENDBRANCH   2   7
ENDBRANCH   1   2
BRANCH   1  10
ATOM     10  C   UNL     1       0.188   4.596   3.962  1.00  0.00    -0.041 A 
ATOM     11  C   UNL     1      -0.580   5.600   3.348  1.00  0.00     0.008 A 
ATOM     12  C   UNL     1       1.566   4.527   3.700  1.00  0.00     0.008 A 
ATOM     13  C   UNL     1       0.021   6.510   2.474  1.00  0.00     0.046 A 
ATOM     14  C   UNL     1       2.164   5.438   2.824  1.00  0.00     0.046 A 
ATOM     15  C   UNL     1       1.395   6.431   2.208  1.00  0.00     0.115 A 
BRANCH  15  16
ATOM     16  O   UNL     1       2.003   7.333   1.339  1.00  0.00    -0.508 OA
ATOM     17  H   UNL     1       2.387   8.211   1.671  1.00  0.00     0.293 HD
ENDBRANCH  15  16
ENDBRANCH   1  10
TORSDOF 5
ENDMDL
MODEL 8
REMARK VINA RESULT:    -3.531     10.738     11.247
REMARK INTER + INTRA:          -4.555
REMARK INTER:                  -4.327
REMARK INTRA:                  -0.228
REMARK UNBOUND:                -0.198
REMARK SMILES [NH3+][C@@H](Cc1ccc(O)cc1)C(=O)[O-]
REMARK SMILES IDX 3 1 2 2 1 3 11 7 12 8 13 9 4 10 5 11 10 12 6 13 9 14 7 15
REMARK SMILES IDX 8 16
REMARK H PARENT 1 4 1 5 1 6 8 17
REMARK Flexibility Score: inf
ROOT
ATOM      1  C   UNL     1       3.659  11.078  -9.280  1.00  0.00     0.107 C 
ENDROOT
BRANCH   1   2
ATOM      2  C   UNL     1       2.660  10.553  -8.228  1.00  0.00     0.232 C 
BRANCH   2   3
ATOM      3  N   UNL     1       1.473   9.991  -8.885  1.00  0.00    -0.350 N 
ATOM      4  H   UNL     1       0.620  10.548  -8.648  1.00  0.00     0.345 HD
ATOM      5  H   UNL     1       1.334   9.001  -8.579  1.00  0.00     0.345 HD
ATOM      6  H   UNL     1       1.608   9.996  -9.922  1.00  0.00     0.345 HD
ENDBRANCH   2   3
BRANCH   2   7
ATOM      7  C   UNL     1       2.253  11.651  -7.278  1.00  0.00     0.099 C 
ATOM      8  O   UNL     1       2.930  12.711  -7.209  1.00  0.00    -0.544 OA
ATOM      9  O   UNL     1       1.121  11.508  -6.485  1.00  0.00    -0.544 OA
ENDBRANCH   2   7
ENDBRANCH   1   2
BRANCH   1  10
ATOM     10  C   UNL     1       5.028  10.468  -9.102  1.00  0.00    -0.041 A 
ATOM     11  C   UNL     1       5.354   9.252  -9.725  1.00  0.00     0.008 A 
ATOM     12  C   UNL     1       6.006  11.137  -8.346  1.00  0.00     0.008 A 
ATOM     13  C   UNL     1       6.633   8.707  -9.581  1.00  0.00     0.046 A 
ATOM     14  C   UNL     1       7.283  10.589  -8.203  1.00  0.00     0.046 A 
ATOM     15  C   UNL     1       7.602   9.373  -8.818  1.00  0.00     0.115 A 
BRANCH  15  16
ATOM     16  O   UNL     1       8.878   8.839  -8.668  1.00  0.00    -0.508 OA
ATOM     17  H   UNL     1       9.678   9.429  -8.466  1.00  0.00     0.293 HD
ENDBRANCH  15  16
ENDBRANCH   1  10
TORSDOF 5
ENDMDL
MODEL 9
REMARK VINA RESULT:    -3.493     11.018     12.421
REMARK INTER + INTRA:          -4.508
REMARK INTER:                  -4.316
REMARK INTRA:                  -0.192
REMARK UNBOUND:                -0.198
REMARK SMILES [NH3+][C@@H](Cc1ccc(O)cc1)C(=O)[O-]
REMARK SMILES IDX 3 1 2 2 1 3 11 7 12 8 13 9 4 10 5 11 10 12 6 13 9 14 7 15
REMARK SMILES IDX 8 16
REMARK H PARENT 1 4 1 5 1 6 8 17
REMARK Flexibility Score: inf
ROOT
ATOM      1  C   UNL     1       7.122  11.178  -8.747  1.00  0.00     0.107 C 
ENDROOT
BRANCH   1   2
ATOM      2  C   UNL     1       7.959  10.707  -7.540  1.00  0.00     0.232 C 
BRANCH   2   3
ATOM      3  N   UNL     1       9.087  11.618  -7.312  1.00  0.00    -0.350 N 
ATOM      4  H   UNL     1       8.816  12.386  -6.655  1.00  0.00     0.345 HD
ATOM      5  H   UNL     1       9.396  12.035  -8.221  1.00  0.00     0.345 HD
ATOM      6  H   UNL     1       9.892  11.088  -6.906  1.00  0.00     0.345 HD
ENDBRANCH   2   3
BRANCH   2   7
ATOM      7  C   UNL     1       8.465   9.302  -7.752  1.00  0.00     0.099 C 
ATOM      8  O   UNL     1       8.620   8.531  -6.769  1.00  0.00    -0.544 OA
ATOM      9  O   UNL     1       8.746   8.844  -9.034  1.00  0.00    -0.544 OA
ENDBRANCH   2   7
ENDBRANCH   1   2
BRANCH   1  10
ATOM     10  C   UNL     1       5.642  11.031  -8.492  1.00  0.00    -0.041 A 
ATOM     11  C   UNL     1       4.890  12.118  -8.016  1.00  0.00     0.008 A 
ATOM     12  C   UNL     1       4.994   9.816  -8.772  1.00  0.00     0.008 A 
ATOM     13  C   UNL     1       3.513  11.985  -7.809  1.00  0.00     0.046 A 
ATOM     14  C   UNL     1       3.618   9.686  -8.563  1.00  0.00     0.046 A 
ATOM     15  C   UNL     1       2.874  10.768  -8.081  1.00  0.00     0.115 A 
BRANCH  15  16
ATOM     16  O   UNL     1       1.504  10.625  -7.878  1.00  0.00    -0.508 OA
ATOM     17  H   UNL     1       1.112  10.540  -6.946  1.00  0.00     0.293 HD
ENDBRANCH  15  16
ENDBRANCH   1  10
TORSDOF 5
ENDMDL
