MODEL 1
REMARK VINA RESULT:    -6.623      0.000      0.000
REMARK INTER + INTRA:          -6.623
REMARK INTER:                  -6.623
REMARK INTRA:                   0.000
REMARK UNBOUND:                 0.000
REMARK SMILES O=c1ccc2ccccc2o1
REMARK SMILES IDX 7 1 8 2 9 3 10 4 5 5 6 6 4 7 3 8 2 9 1 10 11 11
REMARK H PARENT
REMARK Flexibility Score: inf
ROOT
ATOM      1  C   UNL     1      -9.994 -34.162  -5.542  1.00  0.00     0.001 A 
ATOM      2  C   UNL     1     -10.263 -34.489  -6.876  1.00  0.00     0.004 A 
ATOM      3  C   UNL     1     -10.569 -33.483  -7.799  1.00  0.00     0.048 A 
ATOM      4  C   UNL     1     -10.605 -32.145  -7.392  1.00  0.00     0.138 A 
ATOM      5  C   UNL     1     -10.332 -31.814  -6.045  1.00  0.00     0.018 A 
ATOM      6  C   UNL     1     -10.028 -32.828  -5.124  1.00  0.00     0.012 A 
ATOM      7  C   UNL     1     -10.375 -30.469  -5.667  1.00  0.00     0.019 A 
ATOM      8  C   UNL     1     -10.684 -29.500  -6.621  1.00  0.00     0.094 A 
ATOM      9  C   UNL     1     -10.943 -29.901  -7.937  1.00  0.00     0.336 A 
ATOM     10  O   UNL     1     -11.223 -29.041  -8.811  1.00  0.00    -0.246 OA
ATOM     11  O   UNL     1     -10.894 -31.188  -8.271  1.00  0.00    -0.423 OA
ENDROOT
TORSDOF 0
ENDMDL
MODEL 2
REMARK VINA RESULT:    -6.619      6.874      7.900
REMARK INTER + INTRA:          -6.619
REMARK INTER:                  -6.619
REMARK INTRA:                   0.000
REMARK UNBOUND:                 0.000
REMARK SMILES O=c1ccc2ccccc2o1
REMARK SMILES IDX 7 1 8 2 9 3 10 4 5 5 6 6 4 7 3 8 2 9 1 10 11 11
REMARK H PARENT
REMARK Flexibility Score: inf
ROOT
ATOM      1  C   UNL     1     -15.431 -31.336 -11.185  1.00  0.00     0.001 A 
ATOM      2  C   UNL     1     -16.033 -31.509 -12.437  1.00  0.00     0.004 A 
ATOM      3  C   UNL     1     -16.061 -30.454 -13.356  1.00  0.00     0.048 A 
ATOM      4  C   UNL     1     -15.487 -29.222 -13.026  1.00  0.00     0.138 A 
ATOM      5  C   UNL     1     -14.879 -29.046 -11.763  1.00  0.00     0.018 A 
ATOM      6  C   UNL     1     -14.854 -30.107 -10.845  1.00  0.00     0.012 A 
ATOM      7  C   UNL     1     -14.314 -27.804 -11.461  1.00  0.00     0.019 A 
ATOM      8  C   UNL     1     -14.366 -26.781 -12.408  1.00  0.00     0.094 A 
ATOM      9  C   UNL     1     -14.984 -27.027 -13.639  1.00  0.00     0.336 A 
ATOM     10  O   UNL     1     -15.040 -26.116 -14.506  1.00  0.00    -0.246 OA
ATOM     11  O   UNL     1     -15.514 -28.219 -13.901  1.00  0.00    -0.423 OA
ENDROOT
TORSDOF 0
ENDMDL
MODEL 3
REMARK VINA RESULT:    -6.564      6.154      7.889
REMARK INTER + INTRA:          -6.564
REMARK INTER:                  -6.564
REMARK INTRA:                   0.000
REMARK UNBOUND:                 0.000
REMARK SMILES O=c1ccc2ccccc2o1
REMARK SMILES IDX 7 1 8 2 9 3 10 4 5 5 6 6 4 7 3 8 2 9 1 10 11 11
REMARK H PARENT
REMARK Flexibility Score: inf
ROOT
ATOM      1  C   UNL     1     -14.672 -29.604  -9.575  1.00  0.00     0.001 A 
ATOM      2  C   UNL     1     -14.533 -28.284  -9.130  1.00  0.00     0.004 A 
ATOM      3  C   UNL     1     -14.529 -27.229 -10.050  1.00  0.00     0.048 A 
ATOM      4  C   UNL     1     -14.665 -27.490 -11.417  1.00  0.00     0.138 A 
ATOM      5  C   UNL     1     -14.807 -28.823 -11.866  1.00  0.00     0.018 A 
ATOM      6  C   UNL     1     -14.809 -29.876 -10.940  1.00  0.00     0.012 A 
ATOM      7  C   UNL     1     -14.942 -29.053 -13.239  1.00  0.00     0.019 A 
ATOM      8  C   UNL     1     -14.932 -27.970 -14.118  1.00  0.00     0.094 A 
ATOM      9  C   UNL     1     -14.788 -26.678 -13.602  1.00  0.00     0.336 A 
ATOM     10  O   UNL     1     -14.777 -25.689 -14.380  1.00  0.00    -0.246 OA
ATOM     11  O   UNL     1     -14.662 -26.486 -12.291  1.00  0.00    -0.423 OA
ENDROOT
TORSDOF 0
ENDMDL
MODEL 4
REMARK VINA RESULT:    -6.523      1.631      3.840
REMARK INTER + INTRA:          -6.523
REMARK INTER:                  -6.523
REMARK INTRA:                   0.000
REMARK UNBOUND:                 0.000
REMARK SMILES O=c1ccc2ccccc2o1
REMARK SMILES IDX 7 1 8 2 9 3 10 4 5 5 6 6 4 7 3 8 2 9 1 10 11 11
REMARK H PARENT
REMARK Flexibility Score: inf
ROOT
ATOM      1  C   UNL     1     -10.715 -29.622  -6.579  1.00  0.00     0.001 A 
ATOM      2  C   UNL     1     -10.942 -29.897  -7.932  1.00  0.00     0.004 A 
ATOM      3  C   UNL     1     -10.861 -31.211  -8.407  1.00  0.00     0.048 A 
ATOM      4  C   UNL     1     -10.554 -32.256  -7.528  1.00  0.00     0.138 A 
ATOM      5  C   UNL     1     -10.326 -31.979  -6.161  1.00  0.00     0.018 A 
ATOM      6  C   UNL     1     -10.407 -30.660  -5.692  1.00  0.00     0.012 A 
ATOM      7  C   UNL     1     -10.021 -33.043  -5.307  1.00  0.00     0.019 A 
ATOM      8  C   UNL     1      -9.951 -34.337  -5.824  1.00  0.00     0.094 A 
ATOM      9  C   UNL     1     -10.190 -34.536  -7.189  1.00  0.00     0.336 A 
ATOM     10  O   UNL     1     -10.131 -35.696  -7.673  1.00  0.00    -0.246 OA
ATOM     11  O   UNL     1     -10.478 -33.506  -7.980  1.00  0.00    -0.423 OA
ENDROOT
TORSDOF 0
ENDMDL
MODEL 5
REMARK VINA RESULT:    -6.375      6.793      8.360
REMARK INTER + INTRA:          -6.375
REMARK INTER:                  -6.375
REMARK INTRA:                   0.000
REMARK UNBOUND:                 0.000
REMARK SMILES O=c1ccc2ccccc2o1
REMARK SMILES IDX 7 1 8 2 9 3 10 4 5 5 6 6 4 7 3 8 2 9 1 10 11 11
REMARK H PARENT
REMARK Flexibility Score: inf
ROOT
ATOM      1  C   UNL     1     -14.490 -27.097 -11.737  1.00  0.00     0.001 A 
ATOM      2  C   UNL     1     -14.850 -27.070 -13.089  1.00  0.00     0.004 A 
ATOM      3  C   UNL     1     -15.239 -28.247 -13.738  1.00  0.00     0.048 A 
ATOM      4  C   UNL     1     -15.270 -29.457 -13.036  1.00  0.00     0.138 A 
ATOM      5  C   UNL     1     -14.908 -29.485 -11.670  1.00  0.00     0.018 A 
ATOM      6  C   UNL     1     -14.518 -28.302 -11.025  1.00  0.00     0.012 A 
ATOM      7  C   UNL     1     -14.948 -30.708 -10.994  1.00  0.00     0.019 A 
ATOM      8  C   UNL     1     -15.342 -31.856 -11.681  1.00  0.00     0.094 A 
ATOM      9  C   UNL     1     -15.688 -31.753 -13.033  1.00  0.00     0.336 A 
ATOM     10  O   UNL     1     -16.046 -32.778 -13.669  1.00  0.00    -0.246 OA
ATOM     11  O   UNL     1     -15.641 -30.576 -13.653  1.00  0.00    -0.423 OA
ENDROOT
TORSDOF 0
ENDMDL
MODEL 6
REMARK VINA RESULT:    -6.283      5.700      7.571
REMARK INTER + INTRA:          -6.283
REMARK INTER:                  -6.283
REMARK INTRA:                   0.000
REMARK UNBOUND:                 0.000
REMARK SMILES O=c1ccc2ccccc2o1
REMARK SMILES IDX 7 1 8 2 9 3 10 4 5 5 6 6 4 7 3 8 2 9 1 10 11 11
REMARK H PARENT
REMARK Flexibility Score: inf
ROOT
ATOM      1  C   UNL     1     -14.143 -27.435  -9.397  1.00  0.00     0.001 A 
ATOM      2  C   UNL     1     -14.124 -28.731  -8.870  1.00  0.00     0.004 A 
ATOM      3  C   UNL     1     -14.482 -29.822  -9.670  1.00  0.00     0.048 A 
ATOM      4  C   UNL     1     -14.860 -29.620 -11.002  1.00  0.00     0.138 A 
ATOM      5  C   UNL     1     -14.879 -28.311 -11.535  1.00  0.00     0.018 A 
ATOM      6  C   UNL     1     -14.521 -27.221 -10.727  1.00  0.00     0.012 A 
ATOM      7  C   UNL     1     -15.262 -28.139 -12.869  1.00  0.00     0.019 A 
ATOM      8  C   UNL     1     -15.611 -29.255 -13.629  1.00  0.00     0.094 A 
ATOM      9  C   UNL     1     -15.568 -30.522 -13.035  1.00  0.00     0.336 A 
ATOM     10  O   UNL     1     -15.879 -31.540 -13.705  1.00  0.00    -0.246 OA
ATOM     11  O   UNL     1     -15.200 -30.657 -11.763  1.00  0.00    -0.423 OA
ENDROOT
TORSDOF 0
ENDMDL
MODEL 7
REMARK VINA RESULT:    -6.183      5.467      6.991
REMARK INTER + INTRA:          -6.183
REMARK INTER:                  -6.183
REMARK INTRA:                   0.000
REMARK UNBOUND:                 0.000
REMARK SMILES O=c1ccc2ccccc2o1
REMARK SMILES IDX 7 1 8 2 9 3 10 4 5 5 6 6 4 7 3 8 2 9 1 10 11 11
REMARK H PARENT
REMARK Flexibility Score: inf
ROOT
ATOM      1  C   UNL     1     -15.971 -30.481 -13.373  1.00  0.00     0.001 A 
ATOM      2  C   UNL     1     -15.972 -31.503 -12.418  1.00  0.00     0.004 A 
ATOM      3  C   UNL     1     -15.420 -31.283 -11.151  1.00  0.00     0.048 A 
ATOM      4  C   UNL     1     -14.864 -30.038 -10.835  1.00  0.00     0.138 A 
ATOM      5  C   UNL     1     -14.864 -29.005 -11.800  1.00  0.00     0.018 A 
ATOM      6  C   UNL     1     -15.418 -29.232 -13.068  1.00  0.00     0.012 A 
ATOM      7  C   UNL     1     -14.302 -27.772 -11.456  1.00  0.00     0.019 A 
ATOM      8  C   UNL     1     -13.762 -27.598 -10.182  1.00  0.00     0.094 A 
ATOM      9  C   UNL     1     -13.799 -28.665  -9.277  1.00  0.00     0.336 A 
ATOM     10  O   UNL     1     -13.317 -28.526  -8.123  1.00  0.00    -0.246 OA
ATOM     11  O   UNL     1     -14.340 -29.829  -9.630  1.00  0.00    -0.423 OA
ENDROOT
TORSDOF 0
ENDMDL
MODEL 8
REMARK VINA RESULT:    -6.081      5.597      7.917
REMARK INTER + INTRA:          -6.081
REMARK INTER:                  -6.081
REMARK INTRA:                   0.000
REMARK UNBOUND:                 0.000
REMARK SMILES O=c1ccc2ccccc2o1
REMARK SMILES IDX 7 1 8 2 9 3 10 4 5 5 6 6 4 7 3 8 2 9 1 10 11 11
REMARK H PARENT
REMARK Flexibility Score: inf
ROOT
ATOM      1  C   UNL     1     -15.281 -28.153 -14.160  1.00  0.00     0.001 A 
ATOM      2  C   UNL     1     -14.880 -26.874 -13.757  1.00  0.00     0.004 A 
ATOM      3  C   UNL     1     -14.467 -26.649 -12.440  1.00  0.00     0.048 A 
ATOM      4  C   UNL     1     -14.453 -27.702 -11.519  1.00  0.00     0.138 A 
ATOM      5  C   UNL     1     -14.857 -28.994 -11.925  1.00  0.00     0.018 A 
ATOM      6  C   UNL     1     -15.271 -29.214 -13.247  1.00  0.00     0.012 A 
ATOM      7  C   UNL     1     -14.833 -30.027 -10.984  1.00  0.00     0.019 A 
ATOM      8  C   UNL     1     -14.414 -29.756  -9.681  1.00  0.00     0.094 A 
ATOM      9  C   UNL     1     -14.027 -28.452  -9.350  1.00  0.00     0.336 A 
ATOM     10  O   UNL     1     -13.646 -28.189  -8.180  1.00  0.00    -0.246 OA
ATOM     11  O   UNL     1     -14.059 -27.487 -10.266  1.00  0.00    -0.423 OA
ENDROOT
TORSDOF 0
ENDMDL
