MODEL 1
REMARK VINA RESULT:    -3.752      0.000      0.000
REMARK INTER + INTRA:          -4.835
REMARK INTER:                  -4.629
REMARK INTRA:                  -0.206
REMARK UNBOUND:                -0.206
REMARK SMILES CCCCCC(=O)[O-]
REMARK SMILES IDX 4 1 5 2 6 3 7 4 8 5 3 6 2 7 1 8
REMARK H PARENT
REMARK Flexibility Score: inf
ROOT
ATOM      1  C   UNL     1      -8.845   3.654  -7.543  1.00  0.00     0.006 C 
ENDROOT
BRANCH   1   2
ATOM      2  C   UNL     1      -9.108   2.587  -8.610  1.00  0.00     0.053 C 
BRANCH   2   3
ATOM      3  C   UNL     1      -8.066   2.651  -9.683  1.00  0.00     0.041 C 
ATOM      4  O   UNL     1      -7.014   1.966  -9.585  1.00  0.00    -0.550 OA
ATOM      5  O   UNL     1      -8.234   3.504 -10.765  1.00  0.00    -0.550 OA
ENDBRANCH   2   3
ENDBRANCH   1   2
BRANCH   1   6
ATOM      6  C   UNL     1      -9.684   4.914  -7.808  1.00  0.00     0.000 C 
BRANCH   6   7
ATOM      7  C   UNL     1      -8.851   6.067  -8.386  1.00  0.00    -0.003 C 
ATOM      8  C   UNL     1      -9.539   6.766  -9.557  1.00  0.00     0.004 C 
ENDBRANCH   6   7
ENDBRANCH   1   6
TORSDOF 4
ENDMDL
MODEL 2
REMARK VINA RESULT:    -3.665      1.357      1.860
REMARK INTER + INTRA:          -4.729
REMARK INTER:                  -4.539
REMARK INTRA:                  -0.190
REMARK UNBOUND:                -0.206
REMARK SMILES CCCCCC(=O)[O-]
REMARK SMILES IDX 4 1 5 2 6 3 7 4 8 5 3 6 2 7 1 8
REMARK H PARENT
REMARK Flexibility Score: inf
ROOT
ATOM      1  C   UNL     1      -9.324   5.169  -8.016  1.00  0.00     0.006 C 
ENDROOT
BRANCH   1   2
ATOM      2  C   UNL     1      -9.880   3.748  -8.147  1.00  0.00     0.053 C 
BRANCH   2   3
ATOM      3  C   UNL     1      -8.774   2.772  -8.391  1.00  0.00     0.041 C 
ATOM      4  O   UNL     1      -8.902   1.569  -8.040  1.00  0.00    -0.550 OA
ATOM      5  O   UNL     1      -7.582   3.200  -8.959  1.00  0.00    -0.550 OA
ENDBRANCH   2   3
ENDBRANCH   1   2
BRANCH   1   6
ATOM      6  C   UNL     1      -9.839   6.067  -9.151  1.00  0.00     0.000 C 
BRANCH   6   7
ATOM      7  C   UNL     1      -8.740   6.963  -9.740  1.00  0.00    -0.003 C 
ATOM      8  C   UNL     1      -7.394   6.790  -9.036  1.00  0.00     0.004 C 
ENDBRANCH   6   7
ENDBRANCH   1   6
TORSDOF 4
ENDMDL
MODEL 3
REMARK VINA RESULT:    -3.493      2.102      3.607
REMARK INTER + INTRA:          -4.516
REMARK INTER:                  -4.360
REMARK INTRA:                  -0.157
REMARK UNBOUND:                -0.206
REMARK SMILES CCCCCC(=O)[O-]
REMARK SMILES IDX 4 1 5 2 6 3 7 4 8 5 3 6 2 7 1 8
REMARK H PARENT
REMARK Flexibility Score: inf
ROOT
ATOM      1  C   UNL     1      -9.960   5.350  -9.340  1.00  0.00     0.006 C 
ENDROOT
BRANCH   1   2
ATOM      2  C   UNL     1      -9.412   6.778  -9.420  1.00  0.00     0.053 C 
BRANCH   2   3
ATOM      3  C   UNL     1      -7.924   6.761  -9.577  1.00  0.00     0.041 C 
ATOM      4  O   UNL     1      -7.182   7.097  -8.617  1.00  0.00    -0.550 OA
ATOM      5  O   UNL     1      -7.358   6.422 -10.799  1.00  0.00    -0.550 OA
ENDBRANCH   2   3
ENDBRANCH   1   2
BRANCH   1   6
ATOM      6  C   UNL     1     -10.005   4.860  -7.884  1.00  0.00     0.000 C 
BRANCH   6   7
ATOM      7  C   UNL     1      -8.908   3.832  -7.574  1.00  0.00    -0.003 C 
ATOM      8  C   UNL     1      -9.021   2.570  -8.429  1.00  0.00     0.004 C 
ENDBRANCH   6   7
ENDBRANCH   1   6
TORSDOF 4
ENDMDL
MODEL 4
REMARK VINA RESULT:    -3.368      1.752      2.098
REMARK INTER + INTRA:          -4.362
REMARK INTER:                  -4.263
REMARK INTRA:                  -0.100
REMARK UNBOUND:                -0.206
REMARK SMILES CCCCCC(=O)[O-]
REMARK SMILES IDX 4 1 5 2 6 3 7 4 8 5 3 6 2 7 1 8
REMARK H PARENT
REMARK Flexibility Score: inf
ROOT
ATOM      1  C   UNL     1      -8.846   3.567  -7.741  1.00  0.00     0.006 C 
ENDROOT
BRANCH   1   2
ATOM      2  C   UNL     1      -9.271   2.822  -9.010  1.00  0.00     0.053 C 
BRANCH   2   3
ATOM      3  C   UNL     1      -9.503   1.373  -8.714  1.00  0.00     0.041 C 
ATOM      4  O   UNL     1     -10.507   0.782  -9.194  1.00  0.00    -0.550 OA
ATOM      5  O   UNL     1      -8.640   0.689  -7.869  1.00  0.00    -0.550 OA
ENDBRANCH   2   3
ENDBRANCH   1   2
BRANCH   1   6
ATOM      6  C   UNL     1      -9.529   4.940  -7.656  1.00  0.00     0.000 C 
BRANCH   6   7
ATOM      7  C   UNL     1      -8.764   6.028  -8.423  1.00  0.00    -0.003 C 
ATOM      8  C   UNL     1      -9.623   6.725  -9.477  1.00  0.00     0.004 C 
ENDBRANCH   6   7
ENDBRANCH   1   6
TORSDOF 4
ENDMDL
MODEL 5
REMARK VINA RESULT:    -3.195     16.450     17.732
REMARK INTER + INTRA:          -4.148
REMARK INTER:                  -3.921
REMARK INTRA:                  -0.228
REMARK UNBOUND:                -0.206
REMARK SMILES CCCCCC(=O)[O-]
REMARK SMILES IDX 4 1 5 2 6 3 7 4 8 5 3 6 2 7 1 8
REMARK H PARENT
REMARK Flexibility Score: inf
ROOT
ATOM      1  C   UNL     1      -1.594 -12.257  -9.355  1.00  0.00     0.006 C 
ENDROOT
BRANCH   1   2
ATOM      2  C   UNL     1      -0.188 -12.847  -9.217  1.00  0.00     0.053 C 
BRANCH   2   3
ATOM      3  C   UNL     1       0.672 -12.429 -10.368  1.00  0.00     0.041 C 
ATOM      4  O   UNL     1       1.756 -11.821 -10.161  1.00  0.00    -0.550 OA
ATOM      5  O   UNL     1       0.254 -12.667 -11.670  1.00  0.00    -0.550 OA
ENDBRANCH   2   3
ENDBRANCH   1   2
BRANCH   1   6
ATOM      6  C   UNL     1      -1.545 -10.721  -9.379  1.00  0.00     0.000 C 
BRANCH   6   7
ATOM      7  C   UNL     1      -2.533 -10.114 -10.384  1.00  0.00    -0.003 C 
ATOM      8  C   UNL     1      -3.303 -11.174 -11.171  1.00  0.00     0.004 C 
ENDBRANCH   6   7
ENDBRANCH   1   6
TORSDOF 4
ENDMDL
MODEL 6
REMARK VINA RESULT:    -3.154      2.155      3.775
REMARK INTER + INTRA:          -4.098
REMARK INTER:                  -3.979
REMARK INTRA:                  -0.119
REMARK UNBOUND:                -0.206
REMARK SMILES CCCCCC(=O)[O-]
REMARK SMILES IDX 4 1 5 2 6 3 7 4 8 5 3 6 2 7 1 8
REMARK H PARENT
REMARK Flexibility Score: inf
ROOT
ATOM      1  C   UNL     1      -8.622   4.282  -7.729  1.00  0.00     0.006 C 
ENDROOT
BRANCH   1   2
ATOM      2  C   UNL     1      -9.236   5.580  -8.264  1.00  0.00     0.053 C 
BRANCH   2   3
ATOM      3  C   UNL     1      -8.283   6.269  -9.189  1.00  0.00     0.041 C 
ATOM      4  O   UNL     1      -7.215   6.764  -8.743  1.00  0.00    -0.550 OA
ATOM      5  O   UNL     1      -8.598   6.408 -10.534  1.00  0.00    -0.550 OA
ENDBRANCH   2   3
ENDBRANCH   1   2
BRANCH   1   6
ATOM      6  C   UNL     1      -8.511   3.228  -8.841  1.00  0.00     0.000 C 
BRANCH   6   7
ATOM      7  C   UNL     1      -9.615   2.164  -8.757  1.00  0.00    -0.003 C 
ATOM      8  C   UNL     1      -9.069   0.767  -8.461  1.00  0.00     0.004 C 
ENDBRANCH   6   7
ENDBRANCH   1   6
TORSDOF 4
ENDMDL
MODEL 7
REMARK VINA RESULT:    -3.009      2.088      2.433
REMARK INTER + INTRA:          -3.919
REMARK INTER:                  -3.661
REMARK INTRA:                  -0.258
REMARK UNBOUND:                -0.206
REMARK SMILES CCCCCC(=O)[O-]
REMARK SMILES IDX 4 1 5 2 6 3 7 4 8 5 3 6 2 7 1 8
REMARK H PARENT
REMARK Flexibility Score: inf
ROOT
ATOM      1  C   UNL     1     -10.400   4.564  -7.992  1.00  0.00     0.006 C 
ENDROOT
BRANCH   1   2
ATOM      2  C   UNL     1      -9.064   4.058  -7.438  1.00  0.00     0.053 C 
BRANCH   2   3
ATOM      3  C   UNL     1      -7.994   4.154  -8.480  1.00  0.00     0.041 C 
ATOM      4  O   UNL     1      -7.422   3.114  -8.898  1.00  0.00    -0.550 OA
ATOM      5  O   UNL     1      -7.595   5.397  -8.953  1.00  0.00    -0.550 OA
ENDBRANCH   2   3
ENDBRANCH   1   2
BRANCH   1   6
ATOM      6  C   UNL     1     -10.887   3.676  -9.147  1.00  0.00     0.000 C 
BRANCH   6   7
ATOM      7  C   UNL     1     -11.123   4.468 -10.441  1.00  0.00    -0.003 C 
ATOM      8  C   UNL     1     -10.061   4.192 -11.506  1.00  0.00     0.004 C 
ENDBRANCH   6   7
ENDBRANCH   1   6
TORSDOF 4
ENDMDL
MODEL 8
REMARK VINA RESULT:    -2.976     15.346     16.945
REMARK INTER + INTRA:          -3.878
REMARK INTER:                  -3.702
REMARK INTRA:                  -0.176
REMARK UNBOUND:                -0.206
REMARK SMILES CCCCCC(=O)[O-]
REMARK SMILES IDX 4 1 5 2 6 3 7 4 8 5 3 6 2 7 1 8
REMARK H PARENT
REMARK Flexibility Score: inf
ROOT
ATOM      1  C   UNL     1      -1.390 -10.566 -10.867  1.00  0.00     0.006 C 
ENDROOT
BRANCH   1   2
ATOM      2  C   UNL     1      -1.066  -9.069 -10.881  1.00  0.00     0.053 C 
BRANCH   2   3
ATOM      3  C   UNL     1       0.274  -8.816 -10.268  1.00  0.00     0.041 C 
ATOM      4  O   UNL     1       0.438  -7.847  -9.480  1.00  0.00    -0.550 OA
ATOM      5  O   UNL     1       1.355  -9.620 -10.604  1.00  0.00    -0.550 OA
ENDBRANCH   2   3
ENDBRANCH   1   2
BRANCH   1   6
ATOM      6  C   UNL     1      -1.671 -11.053  -9.438  1.00  0.00     0.000 C 
BRANCH   6   7
ATOM      7  C   UNL     1      -1.485 -12.570  -9.284  1.00  0.00    -0.003 C 
ATOM      8  C   UNL     1      -0.015 -12.988  -9.268  1.00  0.00     0.004 C 
ENDBRANCH   6   7
ENDBRANCH   1   6
TORSDOF 4
ENDMDL
MODEL 9
REMARK VINA RESULT:    -2.895     15.435     16.958
REMARK INTER + INTRA:          -3.779
REMARK INTER:                  -3.646
REMARK INTRA:                  -0.133
REMARK UNBOUND:                -0.206
REMARK SMILES CCCCCC(=O)[O-]
REMARK SMILES IDX 4 1 5 2 6 3 7 4 8 5 3 6 2 7 1 8
REMARK H PARENT
REMARK Flexibility Score: inf
ROOT
ATOM      1  C   UNL     1      -1.690 -10.955  -9.509  1.00  0.00     0.006 C 
ENDROOT
BRANCH   1   2
ATOM      2  C   UNL     1      -0.901 -11.848 -10.471  1.00  0.00     0.053 C 
BRANCH   2   3
ATOM      3  C   UNL     1       0.424 -12.214  -9.881  1.00  0.00     0.041 C 
ATOM      4  O   UNL     1       0.502 -13.125  -9.015  1.00  0.00    -0.550 OA
ATOM      5  O   UNL     1       1.566 -11.515 -10.249  1.00  0.00    -0.550 OA
ENDBRANCH   2   3
ENDBRANCH   1   2
BRANCH   1   6
ATOM      6  C   UNL     1      -2.445  -9.856 -10.273  1.00  0.00     0.000 C 
BRANCH   6   7
ATOM      7  C   UNL     1      -1.538  -9.078 -11.238  1.00  0.00    -0.003 C 
ATOM      8  C   UNL     1      -0.997  -7.785 -10.628  1.00  0.00     0.004 C 
ENDBRANCH   6   7
ENDBRANCH   1   6
TORSDOF 4
ENDMDL
