MODEL 1
REMARK VINA RESULT:    22.352      0.000      0.000
REMARK INTER + INTRA:          32.004
REMARK INTER:                  31.499
REMARK INTRA:                   0.505
REMARK UNBOUND:                 0.505
REMARK SMILES CC1=CCC(=C(C)C)C(=O)CC(C)=CCC1
REMARK SMILES IDX 12 1 14 2 13 3 15 4 16 5 2 6 1 7 3 8 11 10 9 11 10 12 5 13
REMARK SMILES IDX 6 14 7 15 8 16 4 17
REMARK H PARENT
REMARK Flexibility Score: 60.00
ROOT
ATOM      1  C   UNL     1      32.789  11.412  41.455  1.00  0.00    -0.070 C 
ATOM      2  C   UNL     1      33.004  10.104  41.162  1.00  0.00    -0.027 C 
ATOM      3  C   UNL     1      32.675  11.783  42.914  1.00  0.00     0.039 C 
ENDROOT
BRANCH   2   4
ATOM      4  C   UNL     1      33.049   9.495  39.782  1.00  0.00     0.032 C 
BRANCH   4   5
ATOM      5  C   UNL     1      34.475   9.299  39.251  1.00  0.00     0.034 C 
BRANCH   5   6
ATOM      6  C   UNL     1      35.468   9.310  40.397  1.00  0.00    -0.077 C 
ATOM      7  C   UNL     1      35.690   8.029  41.162  1.00  0.00     0.039 C 
ATOM      8  C   UNL     1      36.223  10.386  40.721  1.00  0.00    -0.023 CG0
ATOM      9  G   UNL     1      36.131  11.751  40.081  1.00  0.00     0.000 G0
ENDBRANCH   5   6
ENDBRANCH   4   5
ENDBRANCH   2   4
BRANCH   1  10
ATOM     10  C   UNL     1      32.737  12.531  40.419  1.00  0.00     0.111 C 
BRANCH  10  11
ATOM     11  C   UNL     1      34.044  13.261  40.240  1.00  0.00     0.163 C 
ATOM     12  O   UNL     1      34.027  14.337  39.582  1.00  0.00    -0.294 OA
BRANCH  11  13
ATOM     13  C   UNL     1      35.327  12.791  40.860  1.00  0.00    -0.002 C 
ATOM     14  C   UNL     1      35.750  13.295  42.062  1.00  0.00    -0.069 C 
ATOM     15  C   UNL     1      37.085  12.910  42.660  1.00  0.00     0.039 C 
ATOM     16  C   UNL     1      34.885  14.226  42.884  1.00  0.00     0.039 C 
BRANCH  13  17
ATOM     17  C   UNL     1      36.184  11.780  40.099  1.00  0.00     0.066 CG0
ATOM     18  G   UNL     1      36.186  10.422  40.761  1.00  0.00     0.000 G0
ENDBRANCH  13  17
ENDBRANCH  11  13
ENDBRANCH  10  11
ENDBRANCH   1  10
TORSDOF 0
ENDMDL
MODEL 2
REMARK VINA RESULT:    22.935      3.011      5.194
REMARK INTER + INTRA:          32.825
REMARK INTER:                  30.693
REMARK INTRA:                   2.132
REMARK UNBOUND:                 0.505
REMARK SMILES CC1=CCC(=C(C)C)C(=O)CC(C)=CCC1
REMARK SMILES IDX 12 1 14 2 13 3 15 4 16 5 2 6 1 7 3 8 11 10 9 11 10 12 5 13
REMARK SMILES IDX 6 14 7 15 8 16 4 17
REMARK H PARENT
REMARK Flexibility Score: 60.00
ROOT
ATOM      1  C   UNL     1      33.962  12.327  40.873  1.00  0.00    -0.070 C 
ATOM      2  C   UNL     1      34.311  13.075  39.795  1.00  0.00    -0.027 C 
ATOM      3  C   UNL     1      33.399  10.952  40.606  1.00  0.00     0.039 C 
ENDROOT
BRANCH   2   4
ATOM      4  C   UNL     1      34.795  14.505  39.822  1.00  0.00     0.032 C 
BRANCH   4   5
ATOM      5  C   UNL     1      33.653  15.530  39.854  1.00  0.00     0.034 C 
BRANCH   5   6
ATOM      6  C   UNL     1      34.124  16.819  40.499  1.00  0.00    -0.077 C 
ATOM      7  C   UNL     1      34.492  17.974  39.602  1.00  0.00     0.039 C 
ATOM      8  C   UNL     1      34.157  17.016  41.838  1.00  0.00    -0.023 CG0
ATOM      9  G   UNL     1      33.840  15.978  42.889  1.00  0.00     0.000 G0
ENDBRANCH   5   6
ENDBRANCH   4   5
ENDBRANCH   2   4
BRANCH   1  10
ATOM     10  C   UNL     1      34.175  12.750  42.323  1.00  0.00     0.111 C 
BRANCH  10  11
ATOM     11  C   UNL     1      35.225  13.818  42.501  1.00  0.00     0.163 C 
ATOM     12  O   UNL     1      36.329  13.655  41.914  1.00  0.00    -0.294 OA
BRANCH  11  13
ATOM     13  C   UNL     1      34.982  15.072  43.289  1.00  0.00    -0.002 C 
ATOM     14  C   UNL     1      35.760  15.378  44.375  1.00  0.00    -0.069 C 
ATOM     15  C   UNL     1      35.474  16.585  45.242  1.00  0.00     0.039 C 
ATOM     16  C   UNL     1      36.979  14.558  44.737  1.00  0.00     0.039 C 
BRANCH  13  17
ATOM     17  C   UNL     1      33.813  15.973  42.893  1.00  0.00     0.066 CG0
ATOM     18  G   UNL     1      34.208  16.996  41.854  1.00  0.00     0.000 G0
ENDBRANCH  13  17
ENDBRANCH  11  13
ENDBRANCH  10  11
ENDBRANCH   1  10
TORSDOF 0
ENDMDL
MODEL 3
REMARK VINA RESULT:    23.081      1.846      3.479
REMARK INTER + INTRA:          33.032
REMARK INTER:                  31.054
REMARK INTRA:                   1.978
REMARK UNBOUND:                 0.505
REMARK SMILES CC1=CCC(=C(C)C)C(=O)CC(C)=CCC1
REMARK SMILES IDX 12 1 14 2 13 3 15 4 16 5 2 6 1 7 3 8 11 10 9 11 10 12 5 13
REMARK SMILES IDX 6 14 7 15 8 16 4 17
REMARK H PARENT
REMARK Flexibility Score: 60.00
ROOT
ATOM      1  C   UNL     1      35.158  10.377  40.759  1.00  0.00    -0.070 C 
ATOM      2  C   UNL     1      33.887  10.072  40.394  1.00  0.00    -0.027 C 
ATOM      3  C   UNL     1      36.276   9.752  39.961  1.00  0.00     0.039 C 
ENDROOT
BRANCH   2   4
ATOM      4  C   UNL     1      32.627  10.498  41.109  1.00  0.00     0.032 C 
BRANCH   4   5
ATOM      5  C   UNL     1      32.479  12.021  41.220  1.00  0.00     0.034 C 
BRANCH   5   6
ATOM      6  C   UNL     1      32.927  12.687  39.934  1.00  0.00    -0.077 C 
ATOM      7  C   UNL     1      32.514  12.064  38.625  1.00  0.00     0.039 C 
ATOM      8  C   UNL     1      33.611  13.855  39.897  1.00  0.00    -0.023 CG0
ATOM      9  G   UNL     1      34.122  14.615  41.098  1.00  0.00     0.000 G0
ENDBRANCH   5   6
ENDBRANCH   4   5
ENDBRANCH   2   4
BRANCH   1  10
ATOM     10  C   UNL     1      35.525  11.365  41.863  1.00  0.00     0.111 C 
BRANCH  10  11
ATOM     11  C   UNL     1      35.863  12.747  41.360  1.00  0.00     0.163 C 
ATOM     12  O   UNL     1      36.682  12.837  40.405  1.00  0.00    -0.294 OA
BRANCH  11  13
ATOM     13  C   UNL     1      35.223  13.988  41.909  1.00  0.00    -0.002 C 
ATOM     14  C   UNL     1      35.575  14.472  43.141  1.00  0.00    -0.069 C 
ATOM     15  C   UNL     1      34.877  15.664  43.757  1.00  0.00     0.039 C 
ATOM     16  C   UNL     1      36.718  13.874  43.934  1.00  0.00     0.039 C 
BRANCH  13  17
ATOM     17  C   UNL     1      34.127  14.672  41.092  1.00  0.00     0.066 CG0
ATOM     18  G   UNL     1      33.670  13.824  39.928  1.00  0.00     0.000 G0
ENDBRANCH  13  17
ENDBRANCH  11  13
ENDBRANCH  10  11
ENDBRANCH   1  10
TORSDOF 0
ENDMDL
MODEL 4
REMARK VINA RESULT:    23.515      1.873      3.007
REMARK INTER + INTRA:          33.643
REMARK INTER:                  31.954
REMARK INTRA:                   1.689
REMARK UNBOUND:                 0.505
REMARK SMILES CC1=CCC(=C(C)C)C(=O)CC(C)=CCC1
REMARK SMILES IDX 12 1 14 2 13 3 15 4 16 5 2 6 1 7 3 8 11 10 9 11 10 12 5 13
REMARK SMILES IDX 6 14 7 15 8 16 4 17
REMARK H PARENT
REMARK Flexibility Score: 60.00
ROOT
ATOM      1  C   UNL     1      33.288  12.835  39.600  1.00  0.00    -0.070 C 
ATOM      2  C   UNL     1      32.928  11.538  39.783  1.00  0.00    -0.027 C 
ATOM      3  C   UNL     1      32.212  13.794  39.153  1.00  0.00     0.039 C 
ENDROOT
BRANCH   2   4
ATOM      4  C   UNL     1      33.854  10.396  40.126  1.00  0.00     0.032 C 
BRANCH   4   5
ATOM      5  C   UNL     1      33.877  10.063  41.624  1.00  0.00     0.034 C 
BRANCH   5   6
ATOM      6  C   UNL     1      33.021  11.049  42.394  1.00  0.00    -0.077 C 
ATOM      7  C   UNL     1      31.566  10.716  42.608  1.00  0.00     0.039 C 
ATOM      8  C   UNL     1      33.509  12.174  42.968  1.00  0.00    -0.023 CG0
ATOM      9  G   UNL     1      34.928  12.677  42.851  1.00  0.00     0.000 G0
ENDBRANCH   5   6
ENDBRANCH   4   5
ENDBRANCH   2   4
BRANCH   1  10
ATOM     10  C   UNL     1      34.678  13.394  39.892  1.00  0.00     0.111 C 
BRANCH  10  11
ATOM     11  C   UNL     1      34.696  14.462  40.957  1.00  0.00     0.163 C 
ATOM     12  O   UNL     1      34.466  15.649  40.598  1.00  0.00    -0.294 OA
BRANCH  11  13
ATOM     13  C   UNL     1      34.915  14.155  42.409  1.00  0.00    -0.002 C 
ATOM     14  C   UNL     1      35.180  15.158  43.305  1.00  0.00    -0.069 C 
ATOM     15  C   UNL     1      35.499  14.866  44.755  1.00  0.00     0.039 C 
ATOM     16  C   UNL     1      35.117  16.616  42.907  1.00  0.00     0.039 C 
BRANCH  13  17
ATOM     17  C   UNL     1      34.894  12.696  42.863  1.00  0.00     0.066 CG0
ATOM     18  G   UNL     1      33.488  12.151  42.967  1.00  0.00     0.000 G0
ENDBRANCH  13  17
ENDBRANCH  11  13
ENDBRANCH  10  11
ENDBRANCH   1  10
TORSDOF 0
ENDMDL
MODEL 5
REMARK VINA RESULT:    23.686      2.081      4.641
REMARK INTER + INTRA:          33.884
REMARK INTER:                  33.574
REMARK INTRA:                   0.311
REMARK UNBOUND:                 0.505
REMARK SMILES CC1=CCC(=C(C)C)C(=O)CC(C)=CCC1
REMARK SMILES IDX 12 1 14 2 13 3 15 4 16 5 2 6 1 7 3 8 11 10 9 11 10 12 5 13
REMARK SMILES IDX 6 14 7 15 8 16 4 17
REMARK H PARENT
REMARK Flexibility Score: 60.00
ROOT
ATOM      1  C   UNL     1      33.913  13.872  39.849  1.00  0.00    -0.070 C 
ATOM      2  C   UNL     1      33.810  15.024  40.561  1.00  0.00    -0.027 C 
ATOM      3  C   UNL     1      32.703  13.440  39.057  1.00  0.00     0.039 C 
ENDROOT
BRANCH   2   4
ATOM      4  C   UNL     1      34.851  15.588  41.498  1.00  0.00     0.032 C 
BRANCH   4   5
ATOM      5  C   UNL     1      34.660  15.141  42.955  1.00  0.00     0.034 C 
BRANCH   5   6
ATOM      6  C   UNL     1      35.623  14.019  43.289  1.00  0.00    -0.077 C 
ATOM      7  C   UNL     1      37.014  14.382  43.742  1.00  0.00     0.039 C 
ATOM      8  C   UNL     1      35.276  12.710  43.279  1.00  0.00    -0.023 CG0
ATOM      9  G   UNL     1      33.941  12.156  42.842  1.00  0.00     0.000 G0
ENDBRANCH   5   6
ENDBRANCH   4   5
ENDBRANCH   2   4
BRANCH   1  10
ATOM     10  C   UNL     1      35.185  13.038  39.736  1.00  0.00     0.111 C 
BRANCH  10  11
ATOM     11  C   UNL     1      35.173  11.785  40.575  1.00  0.00     0.163 C 
ATOM     12  O   UNL     1      36.196  11.048  40.541  1.00  0.00    -0.294 OA
BRANCH  11  13
ATOM     13  C   UNL     1      34.029  11.426  41.479  1.00  0.00    -0.002 C 
ATOM     14  C   UNL     1      33.062  10.546  41.068  1.00  0.00    -0.069 C 
ATOM     15  C   UNL     1      31.850  10.242  41.920  1.00  0.00     0.039 C 
ATOM     16  C   UNL     1      33.177   9.790  39.762  1.00  0.00     0.039 C 
BRANCH  13  17
ATOM     17  C   UNL     1      33.931  12.103  42.845  1.00  0.00     0.066 CG0
ATOM     18  G   UNL     1      35.244  12.718  43.272  1.00  0.00     0.000 G0
ENDBRANCH  13  17
ENDBRANCH  11  13
ENDBRANCH  10  11
ENDBRANCH   1  10
TORSDOF 0
ENDMDL
MODEL 6
REMARK VINA RESULT:    23.855      2.346      4.493
REMARK INTER + INTRA:          34.122
REMARK INTER:                  31.592
REMARK INTRA:                   2.530
REMARK UNBOUND:                 0.505
REMARK SMILES CC1=CCC(=C(C)C)C(=O)CC(C)=CCC1
REMARK SMILES IDX 12 1 14 2 13 3 15 4 16 5 2 6 1 7 3 8 11 10 9 11 10 12 5 13
REMARK SMILES IDX 6 14 7 15 8 16 4 17
REMARK H PARENT
REMARK Flexibility Score: 60.00
ROOT
ATOM      1  C   UNL     1      34.686  13.062  41.767  1.00  0.00    -0.070 C 
ATOM      2  C   UNL     1      34.278  13.583  40.581  1.00  0.00    -0.027 C 
ATOM      3  C   UNL     1      35.194  14.030  42.807  1.00  0.00     0.039 C 
ENDROOT
BRANCH   2   4
ATOM      4  C   UNL     1      33.833  12.799  39.370  1.00  0.00     0.032 C 
BRANCH   4   5
ATOM      5  C   UNL     1      32.307  12.716  39.228  1.00  0.00     0.034 C 
BRANCH   5   6
ATOM      6  C   UNL     1      31.931  11.663  38.204  1.00  0.00    -0.077 C 
ATOM      7  C   UNL     1      31.752  12.094  36.770  1.00  0.00     0.039 C 
ATOM      8  C   UNL     1      31.826  10.344  38.492  1.00  0.00    -0.023 CG0
ATOM      9  G   UNL     1      31.956   9.730  39.866  1.00  0.00     0.000 G0
ENDBRANCH   5   6
ENDBRANCH   4   5
ENDBRANCH   2   4
BRANCH   1  10
ATOM     10  C   UNL     1      34.588  11.586  42.140  1.00  0.00     0.111 C 
BRANCH  10  11
ATOM     11  C   UNL     1      33.317  10.920  41.676  1.00  0.00     0.163 C 
ATOM     12  O   UNL     1      32.248  11.220  42.274  1.00  0.00    -0.294 OA
BRANCH  11  13
ATOM     13  C   UNL     1      33.276   9.976  40.510  1.00  0.00    -0.002 C 
ATOM     14  C   UNL     1      34.427   9.413  40.024  1.00  0.00    -0.069 C 
ATOM     15  C   UNL     1      34.424   8.536  38.791  1.00  0.00     0.039 C 
ATOM     16  C   UNL     1      35.758   9.594  40.721  1.00  0.00     0.039 C 
BRANCH  13  17
ATOM     17  C   UNL     1      31.932   9.697  39.838  1.00  0.00     0.066 CG0
ATOM     18  G   UNL     1      31.839  10.327  38.468  1.00  0.00     0.000 G0
ENDBRANCH  13  17
ENDBRANCH  11  13
ENDBRANCH  10  11
ENDBRANCH   1  10
TORSDOF 0
ENDMDL
MODEL 7
REMARK VINA RESULT:    23.931      2.452      5.309
REMARK INTER + INTRA:          34.230
REMARK INTER:                  32.810
REMARK INTRA:                   1.420
REMARK UNBOUND:                 0.505
REMARK SMILES CC1=CCC(=C(C)C)C(=O)CC(C)=CCC1
REMARK SMILES IDX 12 1 14 2 13 3 15 4 16 5 2 6 1 7 3 8 11 10 9 11 10 12 5 13
REMARK SMILES IDX 6 14 7 15 8 16 4 17
REMARK H PARENT
REMARK Flexibility Score: 60.00
ROOT
ATOM      1  C   UNL     1      35.981  14.400  43.646  1.00  0.00    -0.070 C 
ATOM      2  C   UNL     1      35.100  15.420  43.807  1.00  0.00    -0.027 C 
ATOM      3  C   UNL     1      36.854  14.048  44.826  1.00  0.00     0.039 C 
ENDROOT
BRANCH   2   4
ATOM      4  C   UNL     1      34.209  16.005  42.738  1.00  0.00     0.032 C 
BRANCH   4   5
ATOM      5  C   UNL     1      34.940  16.266  41.414  1.00  0.00     0.034 C 
BRANCH   5   6
ATOM      6  C   UNL     1      33.985  16.110  40.247  1.00  0.00    -0.077 C 
ATOM      7  C   UNL     1      33.098  17.276  39.889  1.00  0.00     0.039 C 
ATOM      8  C   UNL     1      33.941  15.010  39.460  1.00  0.00    -0.023 CG0
ATOM      9  G   UNL     1      34.739  13.745  39.670  1.00  0.00     0.000 G0
ENDBRANCH   5   6
ENDBRANCH   4   5
ENDBRANCH   2   4
BRANCH   1  10
ATOM     10  C   UNL     1      36.088  13.542  42.388  1.00  0.00     0.111 C 
BRANCH  10  11
ATOM     11  C   UNL     1      34.831  12.774  42.063  1.00  0.00     0.163 C 
ATOM     12  O   UNL     1      34.269  12.149  43.002  1.00  0.00    -0.294 OA
BRANCH  11  13
ATOM     13  C   UNL     1      34.207  12.782  40.698  1.00  0.00    -0.002 C 
ATOM     14  C   UNL     1      33.181  11.927  40.393  1.00  0.00    -0.069 C 
ATOM     15  C   UNL     1      32.600  11.847  38.997  1.00  0.00     0.039 C 
ATOM     16  C   UNL     1      32.534  11.053  41.445  1.00  0.00     0.039 C 
BRANCH  13  17
ATOM     17  C   UNL     1      34.777  13.720  39.634  1.00  0.00     0.066 CG0
ATOM     18  G   UNL     1      33.943  14.970  39.473  1.00  0.00     0.000 G0
ENDBRANCH  13  17
ENDBRANCH  11  13
ENDBRANCH  10  11
ENDBRANCH   1  10
TORSDOF 0
ENDMDL
MODEL 8
REMARK VINA RESULT:    24.302      2.609      4.449
REMARK INTER + INTRA:          34.753
REMARK INTER:                  32.301
REMARK INTRA:                   2.452
REMARK UNBOUND:                 0.505
REMARK SMILES CC1=CCC(=C(C)C)C(=O)CC(C)=CCC1
REMARK SMILES IDX 12 1 14 2 13 3 15 4 16 5 2 6 1 7 3 8 11 10 9 11 10 12 5 13
REMARK SMILES IDX 6 14 7 15 8 16 4 17
REMARK H PARENT
REMARK Flexibility Score: 60.00
ROOT
ATOM      1  C   UNL     1      36.113  14.098  43.369  1.00  0.00    -0.070 C 
ATOM      2  C   UNL     1      36.818  13.482  42.385  1.00  0.00    -0.027 C 
ATOM      3  C   UNL     1      36.840  14.393  44.658  1.00  0.00     0.039 C 
ENDROOT
BRANCH   2   4
ATOM      4  C   UNL     1      36.270  13.003  41.063  1.00  0.00     0.032 C 
BRANCH   4   5
ATOM      5  C   UNL     1      35.105  12.016  41.211  1.00  0.00     0.034 C 
BRANCH   5   6
ATOM      6  C   UNL     1      33.890  12.521  40.458  1.00  0.00    -0.077 C 
ATOM      7  C   UNL     1      32.735  11.575  40.248  1.00  0.00     0.039 C 
ATOM      8  C   UNL     1      33.753  13.799  40.033  1.00  0.00    -0.023 CG0
ATOM      9  G   UNL     1      34.802  14.880  40.140  1.00  0.00     0.000 G0
ENDBRANCH   5   6
ENDBRANCH   4   5
ENDBRANCH   2   4
BRANCH   1  10
ATOM     10  C   UNL     1      34.672  14.578  43.227  1.00  0.00     0.111 C 
BRANCH  10  11
ATOM     11  C   UNL     1      34.536  15.915  42.543  1.00  0.00     0.163 C 
ATOM     12  O   UNL     1      34.665  16.950  43.253  1.00  0.00    -0.294 OA
BRANCH  11  13
ATOM     13  C   UNL     1      34.319  16.051  41.064  1.00  0.00    -0.002 C 
ATOM     14  C   UNL     1      33.669  17.142  40.550  1.00  0.00    -0.069 C 
ATOM     15  C   UNL     1      33.353  17.256  39.074  1.00  0.00     0.039 C 
ATOM     16  C   UNL     1      33.277  18.317  41.418  1.00  0.00     0.039 C 
BRANCH  13  17
ATOM     17  C   UNL     1      34.787  14.922  40.146  1.00  0.00     0.066 CG0
ATOM     18  G   UNL     1      33.773  13.806  40.055  1.00  0.00     0.000 G0
ENDBRANCH  13  17
ENDBRANCH  11  13
ENDBRANCH  10  11
ENDBRANCH   1  10
TORSDOF 0
ENDMDL
MODEL 9
REMARK VINA RESULT:    24.623      1.827      3.979
REMARK INTER + INTRA:          35.205
REMARK INTER:                  33.171
REMARK INTRA:                   2.034
REMARK UNBOUND:                 0.505
REMARK SMILES CC1=CCC(=C(C)C)C(=O)CC(C)=CCC1
REMARK SMILES IDX 12 1 14 2 13 3 15 4 16 5 2 6 1 7 3 8 11 10 9 11 10 12 5 13
REMARK SMILES IDX 6 14 7 15 8 16 4 17
REMARK H PARENT
REMARK Flexibility Score: 60.00
ROOT
ATOM      1  C   UNL     1      35.247  13.580  42.754  1.00  0.00    -0.070 C 
ATOM      2  C   UNL     1      34.800  12.558  43.527  1.00  0.00    -0.027 C 
ATOM      3  C   UNL     1      36.047  14.663  43.436  1.00  0.00     0.039 C 
ENDROOT
BRANCH   2   4
ATOM      4  C   UNL     1      33.902  11.430  43.080  1.00  0.00     0.032 C 
BRANCH   4   5
ATOM      5  C   UNL     1      32.512  11.902  42.631  1.00  0.00     0.034 C 
BRANCH   5   6
ATOM      6  C   UNL     1      31.909  10.907  41.659  1.00  0.00    -0.077 C 
ATOM      7  C   UNL     1      30.850   9.962  42.170  1.00  0.00     0.039 C 
ATOM      8  C   UNL     1      32.211  10.873  40.340  1.00  0.00    -0.023 CG0
ATOM      9  G   UNL     1      33.251  11.727  39.653  1.00  0.00     0.000 G0
ENDBRANCH   5   6
ENDBRANCH   4   5
ENDBRANCH   2   4
BRANCH   1  10
ATOM     10  C   UNL     1      35.064  13.663  41.241  1.00  0.00     0.111 C 
BRANCH  10  11
ATOM     11  C   UNL     1      35.564  12.450  40.497  1.00  0.00     0.163 C 
ATOM     12  O   UNL     1      36.807  12.351  40.308  1.00  0.00    -0.294 OA
BRANCH  11  13
ATOM     13  C   UNL     1      34.653  11.348  40.038  1.00  0.00    -0.002 C 
ATOM     14  C   UNL     1      35.108  10.060  39.936  1.00  0.00    -0.069 C 
ATOM     15  C   UNL     1      34.239   8.951  39.384  1.00  0.00     0.039 C 
ATOM     16  C   UNL     1      36.487   9.663  40.416  1.00  0.00     0.039 C 
BRANCH  13  17
ATOM     17  C   UNL     1      33.222  11.700  39.632  1.00  0.00     0.066 CG0
ATOM     18  G   UNL     1      32.200  10.853  40.355  1.00  0.00     0.000 G0
ENDBRANCH  13  17
ENDBRANCH  11  13
ENDBRANCH  10  11
ENDBRANCH   1  10
TORSDOF 0
ENDMDL
