MODEL 1
REMARK VINA RESULT:    -3.322      0.000      0.000
REMARK INTER + INTRA:          -3.860
REMARK INTER:                  -3.807
REMARK INTRA:                  -0.053
REMARK UNBOUND:                -0.053
REMARK SMILES CC(C)[C@@H]([NH3+])C(=O)[O-]
REMARK SMILES IDX 4 1 5 2 6 6 7 7 8 8 2 9 1 10 3 11
REMARK H PARENT 5 3 5 4 5 5
REMARK Flexibility Score: inf
ROOT
ATOM      1  C   UNL     1      63.617   9.793   8.734  1.00  0.00     0.230 C 
ENDROOT
BRANCH   1   2
ATOM      2  N   UNL     1      63.957  10.786   9.764  1.00  0.00    -0.350 N 
ATOM      3  H   UNL     1      64.942  11.113   9.638  1.00  0.00     0.345 HD
ATOM      4  H   UNL     1      63.856  10.375  10.721  1.00  0.00     0.345 HD
ATOM      5  H   UNL     1      63.341  11.624   9.676  1.00  0.00     0.345 HD
ENDBRANCH   1   2
BRANCH   1   6
ATOM      6  C   UNL     1      64.475  10.027   7.515  1.00  0.00     0.099 C 
ATOM      7  O   UNL     1      65.696  10.308   7.644  1.00  0.00    -0.544 OA
ATOM      8  O   UNL     1      63.924   9.935   6.244  1.00  0.00    -0.544 OA
ENDBRANCH   1   6
BRANCH   1   9
ATOM      9  C   UNL     1      63.787   8.334   9.256  1.00  0.00     0.047 C 
ATOM     10  C   UNL     1      62.770   7.384   8.596  1.00  0.00     0.014 C 
ATOM     11  C   UNL     1      63.634   8.250  10.784  1.00  0.00     0.014 C 
ENDBRANCH   1   9
TORSDOF 3
ENDMDL
MODEL 2
REMARK VINA RESULT:    -3.265     17.856     18.481
REMARK INTER + INTRA:          -3.796
REMARK INTER:                  -3.783
REMARK INTRA:                  -0.013
REMARK UNBOUND:                -0.053
REMARK SMILES CC(C)[C@@H]([NH3+])C(=O)[O-]
REMARK SMILES IDX 4 1 5 2 6 6 7 7 8 8 2 9 1 10 3 11
REMARK H PARENT 5 3 5 4 5 5
REMARK Flexibility Score: inf
ROOT
ATOM      1  C   UNL     1      71.610  -7.211   5.736  1.00  0.00     0.230 C 
ENDROOT
BRANCH   1   2
ATOM      2  N   UNL     1      72.619  -6.144   5.669  1.00  0.00    -0.350 N 
ATOM      3  H   UNL     1      73.573  -6.539   5.835  1.00  0.00     0.345 HD
ATOM      4  H   UNL     1      72.427  -5.407   6.387  1.00  0.00     0.345 HD
ATOM      5  H   UNL     1      72.627  -5.712   4.718  1.00  0.00     0.345 HD
ENDBRANCH   1   2
BRANCH   1   6
ATOM      6  C   UNL     1      70.441  -6.739   6.566  1.00  0.00     0.099 C 
ATOM      7  O   UNL     1      69.864  -7.533   7.356  1.00  0.00    -0.544 OA
ATOM      8  O   UNL     1      69.994  -5.429   6.463  1.00  0.00    -0.544 OA
ENDBRANCH   1   6
BRANCH   1   9
ATOM      9  C   UNL     1      71.137  -7.653   4.318  1.00  0.00     0.047 C 
ATOM     10  C   UNL     1      70.461  -9.036   4.361  1.00  0.00     0.014 C 
ATOM     11  C   UNL     1      72.298  -7.693   3.312  1.00  0.00     0.014 C 
ENDBRANCH   1   9
TORSDOF 3
ENDMDL
MODEL 3
REMARK VINA RESULT:    -3.261      2.051      2.236
REMARK INTER + INTRA:          -3.791
REMARK INTER:                  -3.723
REMARK INTRA:                  -0.068
REMARK UNBOUND:                -0.053
REMARK SMILES CC(C)[C@@H]([NH3+])C(=O)[O-]
REMARK SMILES IDX 4 1 5 2 6 6 7 7 8 8 2 9 1 10 3 11
REMARK H PARENT 5 3 5 4 5 5
REMARK Flexibility Score: inf
ROOT
ATOM      1  C   UNL     1      64.860   9.456   8.889  1.00  0.00     0.230 C 
ENDROOT
BRANCH   1   2
ATOM      2  N   UNL     1      64.112  10.712   9.054  1.00  0.00    -0.350 N 
ATOM      3  H   UNL     1      64.219  11.309   8.202  1.00  0.00     0.345 HD
ATOM      4  H   UNL     1      64.458  11.242   9.887  1.00  0.00     0.345 HD
ATOM      5  H   UNL     1      63.092  10.514   9.165  1.00  0.00     0.345 HD
ENDBRANCH   1   2
BRANCH   1   6
ATOM      6  C   UNL     1      66.245   9.623   9.465  1.00  0.00     0.099 C 
ATOM      7  O   UNL     1      67.043   8.650   9.488  1.00  0.00    -0.544 OA
ATOM      8  O   UNL     1      66.646  10.851   9.976  1.00  0.00    -0.544 OA
ENDBRANCH   1   6
BRANCH   1   9
ATOM      9  C   UNL     1      64.127   8.253   9.554  1.00  0.00     0.047 C 
ATOM     10  C   UNL     1      62.962   7.756   8.678  1.00  0.00     0.014 C 
ATOM     11  C   UNL     1      63.588   8.608  10.950  1.00  0.00     0.014 C 
ENDBRANCH   1   9
TORSDOF 3
ENDMDL
MODEL 4
REMARK VINA RESULT:    -3.227      1.313      1.585
REMARK INTER + INTRA:          -3.751
REMARK INTER:                  -3.693
REMARK INTRA:                  -0.059
REMARK UNBOUND:                -0.053
REMARK SMILES CC(C)[C@@H]([NH3+])C(=O)[O-]
REMARK SMILES IDX 4 1 5 2 6 6 7 7 8 8 2 9 1 10 3 11
REMARK H PARENT 5 3 5 4 5 5
REMARK Flexibility Score: inf
ROOT
ATOM      1  C   UNL     1      64.195   9.384   9.242  1.00  0.00     0.230 C 
ENDROOT
BRANCH   1   2
ATOM      2  N   UNL     1      65.201   8.498   9.847  1.00  0.00    -0.350 N 
ATOM      3  H   UNL     1      66.020   9.058  10.181  1.00  0.00     0.345 HD
ATOM      4  H   UNL     1      65.534   7.789   9.153  1.00  0.00     0.345 HD
ATOM      5  H   UNL     1      64.801   8.012  10.680  1.00  0.00     0.345 HD
ENDBRANCH   1   2
BRANCH   1   6
ATOM      6  C   UNL     1      64.715   9.899   7.922  1.00  0.00     0.099 C 
ATOM      7  O   UNL     1      65.883  10.361   7.838  1.00  0.00    -0.544 OA
ATOM      8  O   UNL     1      63.907   9.868   6.793  1.00  0.00    -0.544 OA
ENDBRANCH   1   6
BRANCH   1   9
ATOM      9  C   UNL     1      62.826   8.664   9.053  1.00  0.00     0.047 C 
ATOM     10  C   UNL     1      61.834   9.051  10.165  1.00  0.00     0.014 C 
ATOM     11  C   UNL     1      62.981   7.134   9.029  1.00  0.00     0.014 C 
ENDBRANCH   1   9
TORSDOF 3
ENDMDL
MODEL 5
REMARK VINA RESULT:    -3.183     17.133     17.731
REMARK INTER + INTRA:          -3.701
REMARK INTER:                  -3.654
REMARK INTRA:                  -0.048
REMARK UNBOUND:                -0.053
REMARK SMILES CC(C)[C@@H]([NH3+])C(=O)[O-]
REMARK SMILES IDX 4 1 5 2 6 6 7 7 8 8 2 9 1 10 3 11
REMARK H PARENT 5 3 5 4 5 5
REMARK Flexibility Score: inf
ROOT
ATOM      1  C   UNL     1      70.111  -7.050   6.247  1.00  0.00     0.230 C 
ENDROOT
BRANCH   1   2
ATOM      2  N   UNL     1      69.976  -8.290   7.024  1.00  0.00    -0.350 N 
ATOM      3  H   UNL     1      69.745  -9.090   6.390  1.00  0.00     0.345 HD
ATOM      4  H   UNL     1      69.220  -8.196   7.742  1.00  0.00     0.345 HD
ATOM      5  H   UNL     1      70.879  -8.522   7.495  1.00  0.00     0.345 HD
ENDBRANCH   1   2
BRANCH   1   6
ATOM      6  C   UNL     1      69.616  -5.888   7.073  1.00  0.00     0.099 C 
ATOM      7  O   UNL     1      69.298  -4.804   6.516  1.00  0.00    -0.544 OA
ATOM      8  O   UNL     1      69.510  -6.007   8.452  1.00  0.00    -0.544 OA
ENDBRANCH   1   6
BRANCH   1   9
ATOM      9  C   UNL     1      71.580  -6.811   5.784  1.00  0.00     0.047 C 
ATOM     10  C   UNL     1      71.758  -7.155   4.294  1.00  0.00     0.014 C 
ATOM     11  C   UNL     1      72.583  -7.632   6.611  1.00  0.00     0.014 C 
ENDBRANCH   1   9
TORSDOF 3
ENDMDL
MODEL 6
REMARK VINA RESULT:    -3.178     19.006     19.590
REMARK INTER + INTRA:          -3.695
REMARK INTER:                  -3.652
REMARK INTRA:                  -0.043
REMARK UNBOUND:                -0.053
REMARK SMILES CC(C)[C@@H]([NH3+])C(=O)[O-]
REMARK SMILES IDX 4 1 5 2 6 6 7 7 8 8 2 9 1 10 3 11
REMARK H PARENT 5 3 5 4 5 5
REMARK Flexibility Score: inf
ROOT
ATOM      1  C   UNL     1      71.883  -7.440   5.086  1.00  0.00     0.230 C 
ENDROOT
BRANCH   1   2
ATOM      2  N   UNL     1      70.612  -6.701   5.038  1.00  0.00    -0.350 N 
ATOM      3  H   UNL     1      70.459  -6.189   5.937  1.00  0.00     0.345 HD
ATOM      4  H   UNL     1      69.810  -7.355   4.878  1.00  0.00     0.345 HD
ATOM      5  H   UNL     1      70.637  -5.986   4.277  1.00  0.00     0.345 HD
ENDBRANCH   1   2
BRANCH   1   6
ATOM      6  C   UNL     1      72.068  -8.023   6.465  1.00  0.00     0.099 C 
ATOM      7  O   UNL     1      73.200  -7.999   7.016  1.00  0.00    -0.544 OA
ATOM      8  O   UNL     1      70.991  -8.591   7.134  1.00  0.00    -0.544 OA
ENDBRANCH   1   6
BRANCH   1   9
ATOM      9  C   UNL     1      71.945  -8.558   4.001  1.00  0.00     0.047 C 
ATOM     10  C   UNL     1      72.597  -8.042   2.705  1.00  0.00     0.014 C 
ATOM     11  C   UNL     1      70.551  -9.118   3.673  1.00  0.00     0.014 C 
ENDBRANCH   1   9
TORSDOF 3
ENDMDL
MODEL 7
REMARK VINA RESULT:    -3.092      3.616      4.390
REMARK INTER + INTRA:          -3.597
REMARK INTER:                  -3.711
REMARK INTRA:                   0.114
REMARK UNBOUND:                -0.053
REMARK SMILES CC(C)[C@@H]([NH3+])C(=O)[O-]
REMARK SMILES IDX 4 1 5 2 6 6 7 7 8 8 2 9 1 10 3 11
REMARK H PARENT 5 3 5 4 5 5
REMARK Flexibility Score: inf
ROOT
ATOM      1  C   UNL     1      62.186   6.510   9.771  1.00  0.00     0.230 C 
ENDROOT
BRANCH   1   2
ATOM      2  N   UNL     1      62.135   5.936  11.124  1.00  0.00    -0.350 N 
ATOM      3  H   UNL     1      61.144   5.877  11.453  1.00  0.00     0.345 HD
ATOM      4  H   UNL     1      62.682   6.524  11.796  1.00  0.00     0.345 HD
ATOM      5  H   UNL     1      62.516   4.964  11.120  1.00  0.00     0.345 HD
ENDBRANCH   1   2
BRANCH   1   6
ATOM      6  C   UNL     1      60.903   7.257   9.499  1.00  0.00     0.099 C 
ATOM      7  O   UNL     1      60.214   6.982   8.482  1.00  0.00    -0.544 OA
ATOM      8  O   UNL     1      60.477   8.253  10.368  1.00  0.00    -0.544 OA
ENDBRANCH   1   6
BRANCH   1   9
ATOM      9  C   UNL     1      63.419   7.445   9.584  1.00  0.00     0.047 C 
ATOM     10  C   UNL     1      63.658   8.310  10.835  1.00  0.00     0.014 C 
ATOM     11  C   UNL     1      63.262   8.364   8.361  1.00  0.00     0.014 C 
ENDBRANCH   1   9
TORSDOF 3
ENDMDL
MODEL 8
REMARK VINA RESULT:    -3.019      2.450      3.631
REMARK INTER + INTRA:          -3.513
REMARK INTER:                  -3.480
REMARK INTRA:                  -0.033
REMARK UNBOUND:                -0.053
REMARK SMILES CC(C)[C@@H]([NH3+])C(=O)[O-]
REMARK SMILES IDX 4 1 5 2 6 6 7 7 8 8 2 9 1 10 3 11
REMARK H PARENT 5 3 5 4 5 5
REMARK Flexibility Score: inf
ROOT
ATOM      1  C   UNL     1      64.297  10.155   8.003  1.00  0.00     0.230 C 
ENDROOT
BRANCH   1   2
ATOM      2  N   UNL     1      64.030   9.980   6.568  1.00  0.00    -0.350 N 
ATOM      3  H   UNL     1      63.030   9.713   6.417  1.00  0.00     0.345 HD
ATOM      4  H   UNL     1      64.645   9.234   6.166  1.00  0.00     0.345 HD
ATOM      5  H   UNL     1      64.190  10.877   6.057  1.00  0.00     0.345 HD
ENDBRANCH   1   2
BRANCH   1   6
ATOM      6  C   UNL     1      63.569   9.085   8.779  1.00  0.00     0.099 C 
ATOM      7  O   UNL     1      63.165   8.044   8.197  1.00  0.00    -0.544 OA
ATOM      8  O   UNL     1      63.336   9.244  10.139  1.00  0.00    -0.544 OA
ENDBRANCH   1   6
BRANCH   1   9
ATOM      9  C   UNL     1      65.823  10.123   8.318  1.00  0.00     0.047 C 
ATOM     10  C   UNL     1      66.184  11.124   9.430  1.00  0.00     0.014 C 
ATOM     11  C   UNL     1      66.673  10.427   7.073  1.00  0.00     0.014 C 
ENDBRANCH   1   9
TORSDOF 3
ENDMDL
MODEL 9
REMARK VINA RESULT:    -2.978      2.715      3.507
REMARK INTER + INTRA:          -3.467
REMARK INTER:                  -3.419
REMARK INTRA:                  -0.048
REMARK UNBOUND:                -0.053
REMARK SMILES CC(C)[C@@H]([NH3+])C(=O)[O-]
REMARK SMILES IDX 4 1 5 2 6 6 7 7 8 8 2 9 1 10 3 11
REMARK H PARENT 5 3 5 4 5 5
REMARK Flexibility Score: inf
ROOT
ATOM      1  C   UNL     1      64.215   8.328   9.551  1.00  0.00     0.230 C 
ENDROOT
BRANCH   1   2
ATOM      2  N   UNL     1      64.726   8.581  10.907  1.00  0.00    -0.350 N 
ATOM      3  H   UNL     1      63.961   8.458  11.609  1.00  0.00     0.345 HD
ATOM      4  H   UNL     1      65.105   9.554  10.983  1.00  0.00     0.345 HD
ATOM      5  H   UNL     1      65.476   7.894  11.146  1.00  0.00     0.345 HD
ENDBRANCH   1   2
BRANCH   1   6
ATOM      6  C   UNL     1      63.210   7.203   9.601  1.00  0.00     0.099 C 
ATOM      7  O   UNL     1      62.611   6.843   8.553  1.00  0.00    -0.544 OA
ATOM      8  O   UNL     1      62.938   6.561  10.802  1.00  0.00    -0.544 OA
ENDBRANCH   1   6
BRANCH   1   9
ATOM      9  C   UNL     1      63.583   9.606   8.921  1.00  0.00     0.047 C 
ATOM     10  C   UNL     1      64.253   9.955   7.580  1.00  0.00     0.014 C 
ATOM     11  C   UNL     1      63.681  10.818   9.862  1.00  0.00     0.014 C 
ENDBRANCH   1   9
TORSDOF 3
ENDMDL
