MODEL 1
REMARK VINA RESULT:    -5.706      0.000      0.000
REMARK INTER + INTRA:          -6.843
REMARK INTER:                  -6.540
REMARK INTRA:                  -0.303
REMARK UNBOUND:                -0.303
REMARK SMILES COC(=O)c1ccccc1O
REMARK SMILES IDX 5 1 6 2 7 3 8 4 9 5 10 6 3 7 4 8 2 9 1 10 11 11
REMARK H PARENT 11 12
REMARK Flexibility Score: inf
ROOT
ATOM      1  C   UNL     1     -27.972  23.506  13.499  1.00  0.00     0.101 A 
ATOM      2  C   UNL     1     -27.160  23.623  12.352  1.00  0.00     0.019 A 
ATOM      3  C   UNL     1     -27.610  24.314  11.225  1.00  0.00     0.001 A 
ATOM      4  C   UNL     1     -28.876  24.898  11.222  1.00  0.00     0.004 A 
ATOM      5  C   UNL     1     -29.696  24.794  12.346  1.00  0.00     0.047 A 
ATOM      6  C   UNL     1     -29.255  24.103  13.487  1.00  0.00     0.130 A 
ENDROOT
BRANCH   1   7
ATOM      7  C   UNL     1     -27.465  22.765  14.683  1.00  0.00     0.341 C 
ATOM      8  O   UNL     1     -26.419  23.158  15.270  1.00  0.00    -0.246 OA
BRANCH   7   9
ATOM      9  O   UNL     1     -28.139  21.634  15.156  1.00  0.00    -0.465 OA
ATOM     10  C   UNL     1     -28.466  21.449  16.527  1.00  0.00     0.282 C 
ENDBRANCH   7   9
ENDBRANCH   1   7
BRANCH   6  11
ATOM     11  O   UNL     1     -30.095  24.015  14.596  1.00  0.00    -0.507 OA
ATOM     12  H   UNL     1     -30.200  23.153  15.120  1.00  0.00     0.293 HD
ENDBRANCH   6  11
TORSDOF 3
ENDMDL
MODEL 2
REMARK VINA RESULT:    -5.695      1.336      1.433
REMARK INTER + INTRA:          -6.831
REMARK INTER:                  -6.534
REMARK INTRA:                  -0.296
REMARK UNBOUND:                -0.303
REMARK SMILES COC(=O)c1ccccc1O
REMARK SMILES IDX 5 1 6 2 7 3 8 4 9 5 10 6 3 7 4 8 2 9 1 10 11 11
REMARK H PARENT 11 12
REMARK Flexibility Score: inf
ROOT
ATOM      1  C   UNL     1     -28.357  23.267  13.224  1.00  0.00     0.101 A 
ATOM      2  C   UNL     1     -27.467  23.408  12.140  1.00  0.00     0.019 A 
ATOM      3  C   UNL     1     -27.547  24.512  11.288  1.00  0.00     0.001 A 
ATOM      4  C   UNL     1     -28.515  25.492  11.504  1.00  0.00     0.004 A 
ATOM      5  C   UNL     1     -29.406  25.372  12.570  1.00  0.00     0.047 A 
ATOM      6  C   UNL     1     -29.337  24.267  13.435  1.00  0.00     0.130 A 
ENDROOT
BRANCH   1   7
ATOM      7  C   UNL     1     -28.247  22.081  14.113  1.00  0.00     0.341 C 
ATOM      8  O   UNL     1     -27.212  21.917  14.818  1.00  0.00    -0.246 OA
BRANCH   7   9
ATOM      9  O   UNL     1     -29.282  21.142  14.179  1.00  0.00    -0.465 OA
ATOM     10  C   UNL     1     -29.680  20.355  13.064  1.00  0.00     0.282 C 
ENDBRANCH   7   9
ENDBRANCH   1   7
BRANCH   6  11
ATOM     11  O   UNL     1     -30.240  24.172  14.493  1.00  0.00    -0.507 OA
ATOM     12  H   UNL     1     -31.241  24.234  14.348  1.00  0.00     0.293 HD
ENDBRANCH   6  11
TORSDOF 3
ENDMDL
MODEL 3
REMARK VINA RESULT:    -5.678     15.385     16.489
REMARK INTER + INTRA:          -6.810
REMARK INTER:                  -6.510
REMARK INTRA:                  -0.300
REMARK UNBOUND:                -0.303
REMARK SMILES COC(=O)c1ccccc1O
REMARK SMILES IDX 5 1 6 2 7 3 8 4 9 5 10 6 3 7 4 8 2 9 1 10 11 11
REMARK H PARENT 11 12
REMARK Flexibility Score: inf
ROOT
ATOM      1  C   UNL     1     -18.321  35.607  12.799  1.00  0.00     0.101 A 
ATOM      2  C   UNL     1     -19.573  35.928  13.364  1.00  0.00     0.019 A 
ATOM      3  C   UNL     1     -19.657  36.510  14.631  1.00  0.00     0.001 A 
ATOM      4  C   UNL     1     -18.497  36.782  15.354  1.00  0.00     0.004 A 
ATOM      5  C   UNL     1     -17.248  36.473  14.813  1.00  0.00     0.047 A 
ATOM      6  C   UNL     1     -17.149  35.887  13.541  1.00  0.00     0.130 A 
ENDROOT
BRANCH   1   7
ATOM      7  C   UNL     1     -18.263  34.989  11.449  1.00  0.00     0.341 C 
ATOM      8  O   UNL     1     -17.549  33.965  11.256  1.00  0.00    -0.246 OA
BRANCH   7   9
ATOM      9  O   UNL     1     -18.995  35.529  10.387  1.00  0.00    -0.465 OA
ATOM     10  C   UNL     1     -18.816  36.862   9.927  1.00  0.00     0.282 C 
ENDBRANCH   7   9
ENDBRANCH   1   7
BRANCH   6  11
ATOM     11  O   UNL     1     -15.888  35.589  13.025  1.00  0.00    -0.507 OA
ATOM     12  H   UNL     1     -15.080  35.468  13.626  1.00  0.00     0.293 HD
ENDBRANCH   6  11
TORSDOF 3
ENDMDL
MODEL 4
REMARK VINA RESULT:    -5.653     15.261     16.283
REMARK INTER + INTRA:          -6.783
REMARK INTER:                  -6.493
REMARK INTRA:                  -0.290
REMARK UNBOUND:                -0.303
REMARK SMILES COC(=O)c1ccccc1O
REMARK SMILES IDX 5 1 6 2 7 3 8 4 9 5 10 6 3 7 4 8 2 9 1 10 11 11
REMARK H PARENT 11 12
REMARK Flexibility Score: inf
ROOT
ATOM      1  C   UNL     1     -18.679  36.002  13.461  1.00  0.00     0.101 A 
ATOM      2  C   UNL     1     -19.519  35.934  12.331  1.00  0.00     0.019 A 
ATOM      3  C   UNL     1     -19.110  35.266  11.175  1.00  0.00     0.001 A 
ATOM      4  C   UNL     1     -17.858  34.655  11.127  1.00  0.00     0.004 A 
ATOM      5  C   UNL     1     -17.011  34.710  12.234  1.00  0.00     0.047 A 
ATOM      6  C   UNL     1     -17.409  35.379  13.403  1.00  0.00     0.130 A 
ENDROOT
BRANCH   1   7
ATOM      7  C   UNL     1     -19.142  36.721  14.676  1.00  0.00     0.341 C 
ATOM      8  O   UNL     1     -20.163  36.312  15.298  1.00  0.00    -0.246 OA
BRANCH   7   9
ATOM      9  O   UNL     1     -18.457  37.849  15.141  1.00  0.00    -0.465 OA
ATOM     10  C   UNL     1     -18.167  38.061  16.516  1.00  0.00     0.282 C 
ENDBRANCH   7   9
ENDBRANCH   1   7
BRANCH   6  11
ATOM     11  O   UNL     1     -16.543  35.418  14.494  1.00  0.00    -0.507 OA
ATOM     12  H   UNL     1     -15.539  35.335  14.382  1.00  0.00     0.293 HD
ENDBRANCH   6  11
TORSDOF 3
ENDMDL
MODEL 5
REMARK VINA RESULT:    -5.626      2.217      3.896
REMARK INTER + INTRA:          -6.751
REMARK INTER:                  -6.470
REMARK INTRA:                  -0.280
REMARK UNBOUND:                -0.303
REMARK SMILES COC(=O)c1ccccc1O
REMARK SMILES IDX 5 1 6 2 7 3 8 4 9 5 10 6 3 7 4 8 2 9 1 10 11 11
REMARK H PARENT 11 12
REMARK Flexibility Score: inf
ROOT
ATOM      1  C   UNL     1     -28.425  23.889  12.749  1.00  0.00     0.101 A 
ATOM      2  C   UNL     1     -27.150  23.647  13.301  1.00  0.00     0.019 A 
ATOM      3  C   UNL     1     -27.017  23.079  14.570  1.00  0.00     0.001 A 
ATOM      4  C   UNL     1     -28.151  22.743  15.308  1.00  0.00     0.004 A 
ATOM      5  C   UNL     1     -29.422  22.974  14.781  1.00  0.00     0.047 A 
ATOM      6  C   UNL     1     -29.570  23.544  13.506  1.00  0.00     0.130 A 
ENDROOT
BRANCH   1   7
ATOM      7  C   UNL     1     -28.535  24.494  11.397  1.00  0.00     0.341 C 
ATOM      8  O   UNL     1     -29.207  25.551  11.233  1.00  0.00    -0.246 OA
BRANCH   7   9
ATOM      9  O   UNL     1     -27.899  23.905  10.299  1.00  0.00    -0.465 OA
ATOM     10  C   UNL     1     -27.982  22.514  10.016  1.00  0.00     0.282 C 
ENDBRANCH   7   9
ENDBRANCH   1   7
BRANCH   6  11
ATOM     11  O   UNL     1     -30.852  23.763  13.004  1.00  0.00    -0.507 OA
ATOM     12  H   UNL     1     -31.391  24.584  13.255  1.00  0.00     0.293 HD
ENDBRANCH   6  11
TORSDOF 3
ENDMDL
MODEL 6
REMARK VINA RESULT:    -5.612     15.313     15.854
REMARK INTER + INTRA:          -6.735
REMARK INTER:                  -6.444
REMARK INTRA:                  -0.291
REMARK UNBOUND:                -0.303
REMARK SMILES COC(=O)c1ccccc1O
REMARK SMILES IDX 5 1 6 2 7 3 8 4 9 5 10 6 3 7 4 8 2 9 1 10 11 11
REMARK H PARENT 11 12
REMARK Flexibility Score: inf
ROOT
ATOM      1  C   UNL     1     -18.954  35.698  13.171  1.00  0.00     0.101 A 
ATOM      2  C   UNL     1     -17.896  34.834  13.518  1.00  0.00     0.019 A 
ATOM      3  C   UNL     1     -17.228  34.092  12.541  1.00  0.00     0.001 A 
ATOM      4  C   UNL     1     -17.605  34.199  11.204  1.00  0.00     0.004 A 
ATOM      5  C   UNL     1     -18.650  35.047  10.837  1.00  0.00     0.047 A 
ATOM      6  C   UNL     1     -19.329  35.800  11.809  1.00  0.00     0.130 A 
ENDROOT
BRANCH   1   7
ATOM      7  C   UNL     1     -19.645  36.474  14.232  1.00  0.00     0.341 C 
ATOM      8  O   UNL     1     -20.889  36.679  14.153  1.00  0.00    -0.246 OA
BRANCH   7   9
ATOM      9  O   UNL     1     -18.931  36.982  15.322  1.00  0.00    -0.465 OA
ATOM     10  C   UNL     1     -18.285  38.248  15.298  1.00  0.00     0.282 C 
ENDBRANCH   7   9
ENDBRANCH   1   7
BRANCH   6  11
ATOM     11  O   UNL     1     -20.370  36.640  11.415  1.00  0.00    -0.507 OA
ATOM     12  H   UNL     1     -21.192  36.779  11.992  1.00  0.00     0.293 HD
ENDBRANCH   6  11
TORSDOF 3
ENDMDL
MODEL 7
REMARK VINA RESULT:    -5.585     15.858     16.954
REMARK INTER + INTRA:          -6.704
REMARK INTER:                  -6.361
REMARK INTRA:                  -0.344
REMARK UNBOUND:                -0.303
REMARK SMILES COC(=O)c1ccccc1O
REMARK SMILES IDX 5 1 6 2 7 3 8 4 9 5 10 6 3 7 4 8 2 9 1 10 11 11
REMARK H PARENT 11 12
REMARK Flexibility Score: inf
ROOT
ATOM      1  C   UNL     1     -17.684  36.525  12.709  1.00  0.00     0.101 A 
ATOM      2  C   UNL     1     -18.494  36.485  11.557  1.00  0.00     0.019 A 
ATOM      3  C   UNL     1     -18.855  35.266  10.979  1.00  0.00     0.001 A 
ATOM      4  C   UNL     1     -18.414  34.068  11.540  1.00  0.00     0.004 A 
ATOM      5  C   UNL     1     -17.611  34.085  12.681  1.00  0.00     0.047 A 
ATOM      6  C   UNL     1     -17.241  35.304  13.272  1.00  0.00     0.130 A 
ENDROOT
BRANCH   1   7
ATOM      7  C   UNL     1     -17.316  37.837  13.302  1.00  0.00     0.341 C 
ATOM      8  O   UNL     1     -17.054  38.816  12.548  1.00  0.00    -0.246 OA
BRANCH   7   9
ATOM      9  O   UNL     1     -17.257  38.000  14.690  1.00  0.00    -0.465 OA
ATOM     10  C   UNL     1     -18.419  38.107  15.502  1.00  0.00     0.282 C 
ENDBRANCH   7   9
ENDBRANCH   1   7
BRANCH   6  11
ATOM     11  O   UNL     1     -16.438  35.291  14.412  1.00  0.00    -0.507 OA
ATOM     12  H   UNL     1     -15.591  34.737  14.462  1.00  0.00     0.293 HD
ENDBRANCH   6  11
TORSDOF 3
ENDMDL
MODEL 8
REMARK VINA RESULT:    -5.522     16.437     17.529
REMARK INTER + INTRA:          -6.632
REMARK INTER:                  -6.292
REMARK INTRA:                  -0.340
REMARK UNBOUND:                -0.303
REMARK SMILES COC(=O)c1ccccc1O
REMARK SMILES IDX 5 1 6 2 7 3 8 4 9 5 10 6 3 7 4 8 2 9 1 10 11 11
REMARK H PARENT 11 12
REMARK Flexibility Score: inf
ROOT
ATOM      1  C   UNL     1     -16.886  36.351  12.221  1.00  0.00     0.101 A 
ATOM      2  C   UNL     1     -16.782  35.075  12.810  1.00  0.00     0.019 A 
ATOM      3  C   UNL     1     -17.745  34.093  12.567  1.00  0.00     0.001 A 
ATOM      4  C   UNL     1     -18.828  34.369  11.733  1.00  0.00     0.004 A 
ATOM      5  C   UNL     1     -18.951  35.626  11.140  1.00  0.00     0.047 A 
ATOM      6  C   UNL     1     -17.989  36.621  11.376  1.00  0.00     0.130 A 
ENDROOT
BRANCH   1   7
ATOM      7  C   UNL     1     -15.845  37.374  12.499  1.00  0.00     0.341 C 
ATOM      8  O   UNL     1     -14.637  37.026  12.620  1.00  0.00    -0.246 OA
BRANCH   7   9
ATOM      9  O   UNL     1     -16.190  38.724  12.629  1.00  0.00    -0.465 OA
ATOM     10  C   UNL     1     -16.780  39.259  13.806  1.00  0.00     0.282 C 
ENDBRANCH   7   9
ENDBRANCH   1   7
BRANCH   6  11
ATOM     11  O   UNL     1     -18.137  37.868  10.770  1.00  0.00    -0.507 OA
ATOM     12  H   UNL     1     -18.353  37.961   9.784  1.00  0.00     0.293 HD
ENDBRANCH   6  11
TORSDOF 3
ENDMDL
MODEL 9
REMARK VINA RESULT:    -5.508      2.331      3.251
REMARK INTER + INTRA:          -6.616
REMARK INTER:                  -6.258
REMARK INTRA:                  -0.357
REMARK UNBOUND:                -0.303
REMARK SMILES COC(=O)c1ccccc1O
REMARK SMILES IDX 5 1 6 2 7 3 8 4 9 5 10 6 3 7 4 8 2 9 1 10 11 11
REMARK H PARENT 11 12
REMARK Flexibility Score: inf
ROOT
ATOM      1  C   UNL     1     -29.367  23.154  12.700  1.00  0.00     0.101 A 
ATOM      2  C   UNL     1     -29.305  24.504  13.102  1.00  0.00     0.019 A 
ATOM      3  C   UNL     1     -28.576  25.438  12.363  1.00  0.00     0.001 A 
ATOM      4  C   UNL     1     -27.896  25.041  11.212  1.00  0.00     0.004 A 
ATOM      5  C   UNL     1     -27.943  23.710  10.797  1.00  0.00     0.047 A 
ATOM      6  C   UNL     1     -28.673  22.761  11.530  1.00  0.00     0.130 A 
ENDROOT
BRANCH   1   7
ATOM      7  C   UNL     1     -30.151  22.184  13.507  1.00  0.00     0.341 C 
ATOM      8  O   UNL     1     -29.978  22.120  14.757  1.00  0.00    -0.246 OA
BRANCH   7   9
ATOM      9  O   UNL     1     -31.083  21.339  12.896  1.00  0.00    -0.465 OA
ATOM     10  C   UNL     1     -32.245  21.823  12.235  1.00  0.00     0.282 C 
ENDBRANCH   7   9
ENDBRANCH   1   7
BRANCH   6  11
ATOM     11  O   UNL     1     -28.703  21.438  11.092  1.00  0.00    -0.507 OA
ATOM     12  H   UNL     1     -29.574  20.967  10.874  1.00  0.00     0.293 HD
ENDBRANCH   6  11
TORSDOF 3
ENDMDL
