MODEL 1
REMARK VINA RESULT:    -4.134      0.000      0.000
REMARK INTER + INTRA:          -5.296
REMARK INTER:                  -5.101
REMARK INTRA:                  -0.195
REMARK UNBOUND:                -0.195
REMARK SMILES C=CC[C@@H](C)C(=O)CC
REMARK SMILES IDX 4 1 5 2 6 3 7 4 8 5 9 6 3 7 2 8 1 9
REMARK H PARENT
REMARK Flexibility Score: inf
ROOT
ATOM      1  C   UNL     1      16.831 -38.830  27.914  1.00  0.00     0.057 C 
ATOM      2  C   UNL     1      15.344 -39.125  27.674  1.00  0.00     0.016 C 
ENDROOT
BRANCH   1   3
ATOM      3  C   UNL     1      17.434 -38.192  26.682  1.00  0.00     0.135 C 
ATOM      4  O   UNL     1      18.362 -38.745  26.105  1.00  0.00    -0.299 OA
BRANCH   3   5
ATOM      5  C   UNL     1      16.908 -36.888  26.140  1.00  0.00     0.072 C 
ATOM      6  C   UNL     1      17.758 -36.406  24.969  1.00  0.00     0.012 C 
ENDBRANCH   3   5
ENDBRANCH   1   3
BRANCH   1   7
ATOM      7  C   UNL     1      17.042 -37.915  29.138  1.00  0.00     0.038 C 
BRANCH   7   8
ATOM      8  C   UNL     1      17.753 -38.618  30.264  1.00  0.00    -0.034 C 
ATOM      9  C   UNL     1      19.086 -38.705  30.310  1.00  0.00     0.004 C 
ENDBRANCH   7   8
ENDBRANCH   1   7
TORSDOF 4
ENDMDL
MODEL 2
REMARK VINA RESULT:    -4.012      1.014      4.022
REMARK INTER + INTRA:          -5.145
REMARK INTER:                  -5.003
REMARK INTRA:                  -0.142
REMARK UNBOUND:                -0.195
REMARK SMILES C=CC[C@@H](C)C(=O)CC
REMARK SMILES IDX 4 1 5 2 6 3 7 4 8 5 9 6 3 7 2 8 1 9
REMARK H PARENT
REMARK Flexibility Score: inf
ROOT
ATOM      1  C   UNL     1      16.721 -37.932  28.042  1.00  0.00     0.057 C 
ATOM      2  C   UNL     1      15.715 -39.041  28.379  1.00  0.00     0.016 C 
ENDROOT
BRANCH   1   3
ATOM      3  C   UNL     1      17.992 -38.130  28.840  1.00  0.00     0.135 C 
ATOM      4  O   UNL     1      19.077 -38.075  28.276  1.00  0.00    -0.299 OA
BRANCH   3   5
ATOM      5  C   UNL     1      17.950 -38.386  30.324  1.00  0.00     0.072 C 
ATOM      6  C   UNL     1      19.338 -38.732  30.853  1.00  0.00     0.012 C 
ENDBRANCH   3   5
ENDBRANCH   1   3
BRANCH   1   7
ATOM      7  C   UNL     1      17.046 -37.895  26.534  1.00  0.00     0.038 C 
BRANCH   7   8
ATOM      8  C   UNL     1      16.958 -36.504  25.962  1.00  0.00    -0.034 C 
ATOM      9  C   UNL     1      17.453 -36.206  24.757  1.00  0.00     0.004 C 
ENDBRANCH   7   8
ENDBRANCH   1   7
TORSDOF 4
ENDMDL
MODEL 3
REMARK VINA RESULT:    -3.921      8.359     10.051
REMARK INTER + INTRA:          -5.032
REMARK INTER:                  -4.870
REMARK INTRA:                  -0.162
REMARK UNBOUND:                -0.195
REMARK SMILES C=CC[C@@H](C)C(=O)CC
REMARK SMILES IDX 4 1 5 2 6 3 7 4 8 5 9 6 3 7 2 8 1 9
REMARK H PARENT
REMARK Flexibility Score: inf
ROOT
ATOM      1  C   UNL     1      14.086 -30.674  23.451  1.00  0.00     0.057 C 
ATOM      2  C   UNL     1      14.073 -32.000  24.224  1.00  0.00     0.016 C 
ENDROOT
BRANCH   1   3
ATOM      3  C   UNL     1      14.277 -30.942  21.974  1.00  0.00     0.135 C 
ATOM      4  O   UNL     1      15.166 -30.365  21.363  1.00  0.00    -0.299 OA
BRANCH   3   5
ATOM      5  C   UNL     1      13.395 -31.916  21.237  1.00  0.00     0.072 C 
ATOM      6  C   UNL     1      14.213 -33.081  20.691  1.00  0.00     0.012 C 
ENDBRANCH   3   5
ENDBRANCH   1   3
BRANCH   1   7
ATOM      7  C   UNL     1      12.791 -29.867  23.678  1.00  0.00     0.038 C 
BRANCH   7   8
ATOM      8  C   UNL     1      12.944 -28.826  24.755  1.00  0.00    -0.034 C 
ATOM      9  C   UNL     1      12.146 -27.756  24.818  1.00  0.00     0.004 C 
ENDBRANCH   7   8
ENDBRANCH   1   7
TORSDOF 4
ENDMDL
MODEL 4
REMARK VINA RESULT:    -3.877      6.989      8.912
REMARK INTER + INTRA:          -4.978
REMARK INTER:                  -4.562
REMARK INTRA:                  -0.416
REMARK UNBOUND:                -0.195
REMARK SMILES C=CC[C@@H](C)C(=O)CC
REMARK SMILES IDX 4 1 5 2 6 3 7 4 8 5 9 6 3 7 2 8 1 9
REMARK H PARENT
REMARK Flexibility Score: inf
ROOT
ATOM      1  C   UNL     1      13.015 -31.507  22.780  1.00  0.00     0.057 C 
ATOM      2  C   UNL     1      12.113 -30.266  22.727  1.00  0.00     0.016 C 
ENDROOT
BRANCH   1   3
ATOM      3  C   UNL     1      13.907 -31.547  21.557  1.00  0.00     0.135 C 
ATOM      4  O   UNL     1      14.782 -30.703  21.418  1.00  0.00    -0.299 OA
BRANCH   3   5
ATOM      5  C   UNL     1      13.745 -32.615  20.507  1.00  0.00     0.072 C 
ATOM      6  C   UNL     1      14.758 -33.735  20.713  1.00  0.00     0.012 C 
ENDBRANCH   3   5
ENDBRANCH   1   3
BRANCH   1   7
ATOM      7  C   UNL     1      13.875 -31.535  24.060  1.00  0.00     0.038 C 
BRANCH   7   8
ATOM      8  C   UNL     1      14.128 -32.935  24.552  1.00  0.00    -0.034 C 
ATOM      9  C   UNL     1      15.321 -33.522  24.425  1.00  0.00     0.004 C 
ENDBRANCH   7   8
ENDBRANCH   1   7
TORSDOF 4
ENDMDL
MODEL 5
REMARK VINA RESULT:    -3.868      6.879      9.380
REMARK INTER + INTRA:          -4.967
REMARK INTER:                  -4.593
REMARK INTRA:                  -0.374
REMARK UNBOUND:                -0.195
REMARK SMILES C=CC[C@@H](C)C(=O)CC
REMARK SMILES IDX 4 1 5 2 6 3 7 4 8 5 9 6 3 7 2 8 1 9
REMARK H PARENT
REMARK Flexibility Score: inf
ROOT
ATOM      1  C   UNL     1      13.737 -30.553  23.167  1.00  0.00     0.057 C 
ATOM      2  C   UNL     1      12.985 -29.656  24.160  1.00  0.00     0.016 C 
ENDROOT
BRANCH   1   3
ATOM      3  C   UNL     1      14.659 -31.491  23.917  1.00  0.00     0.135 C 
ATOM      4  O   UNL     1      15.839 -31.198  24.056  1.00  0.00    -0.299 OA
BRANCH   3   5
ATOM      5  C   UNL     1      14.149 -32.780  24.507  1.00  0.00     0.072 C 
ATOM      6  C   UNL     1      15.030 -33.953  24.089  1.00  0.00     0.012 C 
ENDBRANCH   3   5
ENDBRANCH   1   3
BRANCH   1   7
ATOM      7  C   UNL     1      12.768 -31.364  22.281  1.00  0.00     0.038 C 
BRANCH   7   8
ATOM      8  C   UNL     1      13.362 -31.700  20.939  1.00  0.00    -0.034 C 
ATOM      9  C   UNL     1      13.978 -32.864  20.713  1.00  0.00     0.004 C 
ENDBRANCH   7   8
ENDBRANCH   1   7
TORSDOF 4
ENDMDL
MODEL 6
REMARK VINA RESULT:    -3.857     13.354     15.625
REMARK INTER + INTRA:          -4.954
REMARK INTER:                  -4.705
REMARK INTRA:                  -0.249
REMARK UNBOUND:                -0.195
REMARK SMILES C=CC[C@@H](C)C(=O)CC
REMARK SMILES IDX 4 1 5 2 6 3 7 4 8 5 9 6 3 7 2 8 1 9
REMARK H PARENT
REMARK Flexibility Score: inf
ROOT
ATOM      1  C   UNL     1      22.672 -25.785  20.775  1.00  0.00     0.057 C 
ATOM      2  C   UNL     1      23.380 -27.142  20.895  1.00  0.00     0.016 C 
ENDROOT
BRANCH   1   3
ATOM      3  C   UNL     1      23.495 -24.850  19.916  1.00  0.00     0.135 C 
ATOM      4  O   UNL     1      23.603 -25.066  18.716  1.00  0.00    -0.299 OA
BRANCH   3   5
ATOM      5  C   UNL     1      24.180 -23.645  20.508  1.00  0.00     0.072 C 
ATOM      6  C   UNL     1      23.673 -23.374  21.920  1.00  0.00     0.012 C 
ENDBRANCH   3   5
ENDBRANCH   1   3
BRANCH   1   7
ATOM      7  C   UNL     1      21.254 -25.932  20.186  1.00  0.00     0.038 C 
BRANCH   7   8
ATOM      8  C   UNL     1      20.325 -26.681  21.104  1.00  0.00    -0.034 C 
ATOM      9  C   UNL     1      19.782 -27.851  20.755  1.00  0.00     0.004 C 
ENDBRANCH   7   8
ENDBRANCH   1   7
TORSDOF 4
ENDMDL
MODEL 7
REMARK VINA RESULT:    -3.840      8.156      9.924
REMARK INTER + INTRA:          -4.933
REMARK INTER:                  -4.713
REMARK INTRA:                  -0.220
REMARK UNBOUND:                -0.195
REMARK SMILES C=CC[C@@H](C)C(=O)CC
REMARK SMILES IDX 4 1 5 2 6 3 7 4 8 5 9 6 3 7 2 8 1 9
REMARK H PARENT
REMARK Flexibility Score: inf
ROOT
ATOM      1  C   UNL     1      13.690 -30.515  22.737  1.00  0.00     0.057 C 
ATOM      2  C   UNL     1      13.100 -31.554  21.773  1.00  0.00     0.016 C 
ENDROOT
BRANCH   1   3
ATOM      3  C   UNL     1      12.575 -29.730  23.393  1.00  0.00     0.135 C 
ATOM      4  O   UNL     1      11.482 -29.657  22.846  1.00  0.00    -0.299 OA
BRANCH   3   5
ATOM      5  C   UNL     1      12.779 -29.039  24.716  1.00  0.00     0.072 C 
ATOM      6  C   UNL     1      12.027 -27.713  24.757  1.00  0.00     0.012 C 
ENDBRANCH   3   5
ENDBRANCH   1   3
BRANCH   1   7
ATOM      7  C   UNL     1      14.575 -31.174  23.815  1.00  0.00     0.038 C 
BRANCH   7   8
ATOM      8  C   UNL     1      14.056 -32.522  24.239  1.00  0.00    -0.034 C 
ATOM      9  C   UNL     1      14.840 -33.604  24.260  1.00  0.00     0.004 C 
ENDBRANCH   7   8
ENDBRANCH   1   7
TORSDOF 4
ENDMDL
MODEL 8
REMARK VINA RESULT:    -3.824      1.816      4.034
REMARK INTER + INTRA:          -4.913
REMARK INTER:                  -4.666
REMARK INTRA:                  -0.248
REMARK UNBOUND:                -0.195
REMARK SMILES C=CC[C@@H](C)C(=O)CC
REMARK SMILES IDX 4 1 5 2 6 3 7 4 8 5 9 6 3 7 2 8 1 9
REMARK H PARENT
REMARK Flexibility Score: inf
ROOT
ATOM      1  C   UNL     1      17.506 -37.816  26.938  1.00  0.00     0.057 C 
ATOM      2  C   UNL     1      16.884 -36.787  25.984  1.00  0.00     0.016 C 
ENDROOT
BRANCH   1   3
ATOM      3  C   UNL     1      16.415 -38.539  27.697  1.00  0.00     0.135 C 
ATOM      4  O   UNL     1      15.356 -38.795  27.140  1.00  0.00    -0.299 OA
BRANCH   3   5
ATOM      5  C   UNL     1      16.609 -38.961  29.131  1.00  0.00     0.072 C 
ATOM      6  C   UNL     1      17.630 -38.065  29.825  1.00  0.00     0.012 C 
ENDBRANCH   3   5
ENDBRANCH   1   3
BRANCH   1   7
ATOM      7  C   UNL     1      18.387 -38.834  26.184  1.00  0.00     0.038 C 
BRANCH   7   8
ATOM      8  C   UNL     1      19.100 -38.217  25.009  1.00  0.00    -0.034 C 
ATOM      9  C   UNL     1      19.518 -38.953  23.975  1.00  0.00     0.004 C 
ENDBRANCH   7   8
ENDBRANCH   1   7
TORSDOF 4
ENDMDL
MODEL 9
REMARK VINA RESULT:    -3.786     13.787     15.747
REMARK INTER + INTRA:          -4.867
REMARK INTER:                  -4.540
REMARK INTRA:                  -0.326
REMARK UNBOUND:                -0.195
REMARK SMILES C=CC[C@@H](C)C(=O)CC
REMARK SMILES IDX 4 1 5 2 6 3 7 4 8 5 9 6 3 7 2 8 1 9
REMARK H PARENT
REMARK Flexibility Score: inf
ROOT
ATOM      1  C   UNL     1      22.799 -25.658  19.738  1.00  0.00     0.057 C 
ATOM      2  C   UNL     1      21.328 -25.649  20.176  1.00  0.00     0.016 C 
ENDROOT
BRANCH   1   3
ATOM      3  C   UNL     1      23.536 -24.508  20.391  1.00  0.00     0.135 C 
ATOM      4  O   UNL     1      24.372 -23.883  19.751  1.00  0.00    -0.299 OA
BRANCH   3   5
ATOM      5  C   UNL     1      23.254 -24.108  21.815  1.00  0.00     0.072 C 
ATOM      6  C   UNL     1      23.993 -22.823  22.173  1.00  0.00     0.012 C 
ENDBRANCH   3   5
ENDBRANCH   1   3
BRANCH   1   7
ATOM      7  C   UNL     1      23.491 -26.992  20.087  1.00  0.00     0.038 C 
BRANCH   7   8
ATOM      8  C   UNL     1      22.792 -27.728  21.200  1.00  0.00    -0.034 C 
ATOM      9  C   UNL     1      23.333 -27.843  22.416  1.00  0.00     0.004 C 
ENDBRANCH   7   8
ENDBRANCH   1   7
TORSDOF 4
ENDMDL
