MODEL 1
REMARK VINA RESULT:    -4.482      0.000      0.000
REMARK INTER + INTRA:          -4.613
REMARK INTER:                  -4.613
REMARK INTRA:                   0.000
REMARK UNBOUND:                 0.000
REMARK SMILES Cc1ccccc1O
REMARK SMILES IDX 1 1 2 2 3 3 4 4 5 5 6 6 7 7 8 8
REMARK H PARENT 8 9
REMARK Flexibility Score: inf
ROOT
ATOM      1  C   UNL     1       8.805   3.423 -10.511  1.00  0.00     0.048 C 
ATOM      2  C   UNL     1       8.988   4.461  -9.440  1.00  0.00    -0.009 A 
ATOM      3  C   UNL     1       9.358   5.773  -9.780  1.00  0.00     0.007 A 
ATOM      4  C   UNL     1       9.528   6.738  -8.783  1.00  0.00     0.001 A 
ATOM      5  C   UNL     1       9.329   6.403  -7.441  1.00  0.00     0.004 A 
ATOM      6  C   UNL     1       8.961   5.101  -7.093  1.00  0.00     0.046 A 
ATOM      7  C   UNL     1       8.789   4.126  -8.087  1.00  0.00     0.118 A 
ENDROOT
BRANCH   7   8
ATOM      8  O   UNL     1       8.420   2.827  -7.734  1.00  0.00    -0.508 OA
ATOM      9  H   UNL     1       7.759   2.647  -6.987  1.00  0.00     0.293 HD
ENDBRANCH   7   8
TORSDOF 1
ENDMDL
MODEL 2
REMARK VINA RESULT:    -4.457      6.335      7.853
REMARK INTER + INTRA:          -4.587
REMARK INTER:                  -4.587
REMARK INTRA:                   0.000
REMARK UNBOUND:                 0.000
REMARK SMILES Cc1ccccc1O
REMARK SMILES IDX 1 1 2 2 3 3 4 4 5 5 6 6 7 7 8 8
REMARK H PARENT 8 9
REMARK Flexibility Score: inf
ROOT
ATOM      1  C   UNL     1       6.278   3.758   0.258  1.00  0.00     0.048 C 
ATOM      2  C   UNL     1       6.542   4.462  -1.043  1.00  0.00    -0.009 A 
ATOM      3  C   UNL     1       6.442   3.766  -2.259  1.00  0.00     0.007 A 
ATOM      4  C   UNL     1       6.688   4.421  -3.470  1.00  0.00     0.001 A 
ATOM      5  C   UNL     1       7.034   5.774  -3.476  1.00  0.00     0.004 A 
ATOM      6  C   UNL     1       7.135   6.476  -2.272  1.00  0.00     0.046 A 
ATOM      7  C   UNL     1       6.891   5.827  -1.053  1.00  0.00     0.118 A 
ENDROOT
BRANCH   7   8
ATOM      8  O   UNL     1       6.992   6.531   0.147  1.00  0.00    -0.508 OA
ATOM      9  H   UNL     1       7.803   6.441   0.748  1.00  0.00     0.293 HD
ENDBRANCH   7   8
TORSDOF 1
ENDMDL
MODEL 3
REMARK VINA RESULT:    -4.424      6.191      7.622
REMARK INTER + INTRA:          -4.554
REMARK INTER:                  -4.554
REMARK INTRA:                   0.000
REMARK UNBOUND:                 0.000
REMARK SMILES Cc1ccccc1O
REMARK SMILES IDX 1 1 2 2 3 3 4 4 5 5 6 6 7 7 8 8
REMARK H PARENT 8 9
REMARK Flexibility Score: inf
ROOT
ATOM      1  C   UNL     1       7.433   6.368  -4.034  1.00  0.00     0.048 C 
ATOM      2  C   UNL     1       7.061   5.719  -2.731  1.00  0.00    -0.009 A 
ATOM      3  C   UNL     1       6.744   4.351  -2.685  1.00  0.00     0.007 A 
ATOM      4  C   UNL     1       6.398   3.748  -1.473  1.00  0.00     0.001 A 
ATOM      5  C   UNL     1       6.365   4.502  -0.298  1.00  0.00     0.004 A 
ATOM      6  C   UNL     1       6.679   5.864  -0.333  1.00  0.00     0.046 A 
ATOM      7  C   UNL     1       7.027   6.478  -1.545  1.00  0.00     0.118 A 
ENDROOT
BRANCH   7   8
ATOM      8  O   UNL     1       7.341   7.837  -1.575  1.00  0.00    -0.508 OA
ATOM      9  H   UNL     1       7.965   8.253  -0.893  1.00  0.00     0.293 HD
ENDBRANCH   7   8
TORSDOF 1
ENDMDL
MODEL 4
REMARK VINA RESULT:    -4.401      5.855      7.277
REMARK INTER + INTRA:          -4.530
REMARK INTER:                  -4.530
REMARK INTRA:                   0.000
REMARK UNBOUND:                 0.000
REMARK SMILES Cc1ccccc1O
REMARK SMILES IDX 1 1 2 2 3 3 4 4 5 5 6 6 7 7 8 8
REMARK H PARENT 8 9
REMARK Flexibility Score: inf
ROOT
ATOM      1  C   UNL     1       7.349   6.138  -4.048  1.00  0.00     0.048 C 
ATOM      2  C   UNL     1       6.991   5.662  -2.669  1.00  0.00    -0.009 A 
ATOM      3  C   UNL     1       7.020   6.552  -1.582  1.00  0.00     0.007 A 
ATOM      4  C   UNL     1       6.687   6.109  -0.299  1.00  0.00     0.001 A 
ATOM      5  C   UNL     1       6.321   4.778  -0.090  1.00  0.00     0.004 A 
ATOM      6  C   UNL     1       6.287   3.885  -1.164  1.00  0.00     0.046 A 
ATOM      7  C   UNL     1       6.621   4.320  -2.455  1.00  0.00     0.118 A 
ENDROOT
BRANCH   7   8
ATOM      8  O   UNL     1       6.586   3.425  -3.525  1.00  0.00    -0.508 OA
ATOM      9  H   UNL     1       5.758   2.880  -3.733  1.00  0.00     0.293 HD
ENDBRANCH   7   8
TORSDOF 1
ENDMDL
MODEL 5
REMARK VINA RESULT:    -4.364      6.889      8.311
REMARK INTER + INTRA:          -4.491
REMARK INTER:                  -4.491
REMARK INTRA:                   0.000
REMARK UNBOUND:                 0.000
REMARK SMILES Cc1ccccc1O
REMARK SMILES IDX 1 1 2 2 3 3 4 4 5 5 6 6 7 7 8 8
REMARK H PARENT 8 9
REMARK Flexibility Score: inf
ROOT
ATOM      1  C   UNL     1       6.810   7.684  -0.418  1.00  0.00     0.048 C 
ATOM      2  C   UNL     1       6.786   6.310  -1.024  1.00  0.00    -0.009 A 
ATOM      3  C   UNL     1       6.727   6.151  -2.419  1.00  0.00     0.007 A 
ATOM      4  C   UNL     1       6.704   4.871  -2.982  1.00  0.00     0.001 A 
ATOM      5  C   UNL     1       6.742   3.742  -2.161  1.00  0.00     0.004 A 
ATOM      6  C   UNL     1       6.801   3.890  -0.772  1.00  0.00     0.046 A 
ATOM      7  C   UNL     1       6.823   5.170  -0.198  1.00  0.00     0.118 A 
ENDROOT
BRANCH   7   8
ATOM      8  O   UNL     1       6.883   5.312   1.189  1.00  0.00    -0.508 OA
ATOM      9  H   UNL     1       7.312   4.606   1.776  1.00  0.00     0.293 HD
ENDBRANCH   7   8
TORSDOF 1
ENDMDL
MODEL 6
REMARK VINA RESULT:    -4.354      6.364      8.072
REMARK INTER + INTRA:          -4.481
REMARK INTER:                  -4.481
REMARK INTRA:                   0.000
REMARK UNBOUND:                 0.000
REMARK SMILES Cc1ccccc1O
REMARK SMILES IDX 1 1 2 2 3 3 4 4 5 5 6 6 7 7 8 8
REMARK H PARENT 8 9
REMARK Flexibility Score: inf
ROOT
ATOM      1  C   UNL     1       6.751   8.003  -0.679  1.00  0.00     0.048 C 
ATOM      2  C   UNL     1       6.730   6.583  -1.169  1.00  0.00    -0.009 A 
ATOM      3  C   UNL     1       6.459   5.529  -0.280  1.00  0.00     0.007 A 
ATOM      4  C   UNL     1       6.440   4.208  -0.738  1.00  0.00     0.001 A 
ATOM      5  C   UNL     1       6.689   3.928  -2.083  1.00  0.00     0.004 A 
ATOM      6  C   UNL     1       6.959   4.969  -2.976  1.00  0.00     0.046 A 
ATOM      7  C   UNL     1       6.981   6.298  -2.526  1.00  0.00     0.118 A 
ENDROOT
BRANCH   7   8
ATOM      8  O   UNL     1       7.250   7.334  -3.421  1.00  0.00    -0.508 OA
ATOM      9  H   UNL     1       6.926   8.279  -3.250  1.00  0.00     0.293 HD
ENDBRANCH   7   8
TORSDOF 1
ENDMDL
MODEL 7
REMARK VINA RESULT:    -4.315      6.002      7.527
REMARK INTER + INTRA:          -4.441
REMARK INTER:                  -4.441
REMARK INTRA:                   0.000
REMARK UNBOUND:                 0.000
REMARK SMILES Cc1ccccc1O
REMARK SMILES IDX 1 1 2 2 3 3 4 4 5 5 6 6 7 7 8 8
REMARK H PARENT 8 9
REMARK Flexibility Score: inf
ROOT
ATOM      1  C   UNL     1       6.233   3.761  -0.181  1.00  0.00     0.048 C 
ATOM      2  C   UNL     1       6.543   4.930  -1.072  1.00  0.00    -0.009 A 
ATOM      3  C   UNL     1       6.563   6.234  -0.549  1.00  0.00     0.007 A 
ATOM      4  C   UNL     1       6.852   7.322  -1.378  1.00  0.00     0.001 A 
ATOM      5  C   UNL     1       7.124   7.118  -2.732  1.00  0.00     0.004 A 
ATOM      6  C   UNL     1       7.108   5.825  -3.262  1.00  0.00     0.046 A 
ATOM      7  C   UNL     1       6.818   4.728  -2.438  1.00  0.00     0.118 A 
ENDROOT
BRANCH   7   8
ATOM      8  O   UNL     1       6.804   3.438  -2.971  1.00  0.00    -0.508 OA
ATOM      9  H   UNL     1       5.998   3.079  -3.469  1.00  0.00     0.293 HD
ENDBRANCH   7   8
TORSDOF 1
ENDMDL
MODEL 8
REMARK VINA RESULT:    -4.314      0.779      2.582
REMARK INTER + INTRA:          -4.440
REMARK INTER:                  -4.440
REMARK INTRA:                   0.000
REMARK UNBOUND:                 0.000
REMARK SMILES Cc1ccccc1O
REMARK SMILES IDX 1 1 2 2 3 3 4 4 5 5 6 6 7 7 8 8
REMARK H PARENT 8 9
REMARK Flexibility Score: inf
ROOT
ATOM      1  C   UNL     1       9.123   5.792  -6.853  1.00  0.00     0.048 C 
ATOM      2  C   UNL     1       9.075   5.270  -8.261  1.00  0.00    -0.009 A 
ATOM      3  C   UNL     1       9.344   6.125  -9.343  1.00  0.00     0.007 A 
ATOM      4  C   UNL     1       9.299   5.639 -10.653  1.00  0.00     0.001 A 
ATOM      5  C   UNL     1       8.987   4.299 -10.894  1.00  0.00     0.004 A 
ATOM      6  C   UNL     1       8.717   3.441  -9.824  1.00  0.00     0.046 A 
ATOM      7  C   UNL     1       8.760   3.920  -8.506  1.00  0.00     0.118 A 
ENDROOT
BRANCH   7   8
ATOM      8  O   UNL     1       8.491   3.059  -7.441  1.00  0.00    -0.508 OA
ATOM      9  H   UNL     1       7.913   3.347  -6.660  1.00  0.00     0.293 HD
ENDBRANCH   7   8
TORSDOF 1
ENDMDL
MODEL 9
REMARK VINA RESULT:    -3.932      1.143      2.009
REMARK INTER + INTRA:          -4.047
REMARK INTER:                  -4.047
REMARK INTRA:                   0.000
REMARK UNBOUND:                 0.000
REMARK SMILES Cc1ccccc1O
REMARK SMILES IDX 1 1 2 2 3 3 4 4 5 5 6 6 7 7 8 8
REMARK H PARENT 8 9
REMARK Flexibility Score: inf
ROOT
ATOM      1  C   UNL     1       8.388   1.473  -9.779  1.00  0.00     0.048 C 
ATOM      2  C   UNL     1       8.689   2.944  -9.827  1.00  0.00    -0.009 A 
ATOM      3  C   UNL     1       8.924   3.580 -11.058  1.00  0.00     0.007 A 
ATOM      4  C   UNL     1       9.204   4.949 -11.103  1.00  0.00     0.001 A 
ATOM      5  C   UNL     1       9.251   5.694  -9.922  1.00  0.00     0.004 A 
ATOM      6  C   UNL     1       9.018   5.071  -8.693  1.00  0.00     0.046 A 
ATOM      7  C   UNL     1       8.737   3.698  -8.638  1.00  0.00     0.118 A 
ENDROOT
BRANCH   7   8
ATOM      8  O   UNL     1       8.505   3.081  -7.409  1.00  0.00    -0.508 OA
ATOM      9  H   UNL     1       8.193   3.607  -6.602  1.00  0.00     0.293 HD
ENDBRANCH   7   8
TORSDOF 1
ENDMDL
