MODEL 1
REMARK VINA RESULT:    -5.454      0.000      0.000
REMARK INTER + INTRA:          -6.198
REMARK INTER:                  -5.773
REMARK INTRA:                  -0.425
REMARK UNBOUND:                -0.425
REMARK SMILES CC1=CC[C@H]2[C@H]3[C@@H]1[C@]2(C)CC[C@H]3C(C)C
REMARK SMILES IDX 1 1 2 2 3 3 4 4 5 5 6 6 7 7 8 8 10 9 11 10 12 11 9 12 13 13
REMARK SMILES IDX 14 14 15 15
REMARK H PARENT
REMARK Flexibility Score: inf
ROOT
ATOM      1  C   UNL     1     164.523 170.297 203.421  1.00  0.00     0.039 C 
ATOM      2  C   UNL     1     164.843 169.303 202.345  1.00  0.00    -0.073 C 
ATOM      3  C   UNL     1     165.988 168.571 202.381  1.00  0.00    -0.027 C 
ATOM      4  C   UNL     1     166.274 167.588 201.239  1.00  0.00     0.031 C 
ATOM      5  C   UNL     1     165.100 167.594 200.207  1.00  0.00     0.003 C 
ATOM      6  C   UNL     1     163.777 167.520 201.008  1.00  0.00     0.004 C 
ATOM      7  C   UNL     1     163.894 169.053 201.169  1.00  0.00     0.024 C 
ATOM      8  C   UNL     1     164.678 169.042 199.840  1.00  0.00    -0.022 C 
ATOM      9  C   UNL     1     163.662 169.044 198.663  1.00  0.00     0.008 C 
ATOM     10  C   UNL     1     162.737 167.800 198.677  1.00  0.00     0.005 C 
ATOM     11  C   UNL     1     162.557 167.168 200.098  1.00  0.00    -0.005 C 
ATOM     12  C   UNL     1     165.774 170.113 199.621  1.00  0.00     0.012 C 
ENDROOT
BRANCH  11  13
ATOM     13  C   UNL     1     162.298 165.629 200.006  1.00  0.00    -0.014 C 
ATOM     14  C   UNL     1     162.952 164.996 198.762  1.00  0.00     0.007 C 
ATOM     15  C   UNL     1     162.818 164.900 201.260  1.00  0.00     0.007 C 
ENDBRANCH  11  13
TORSDOF 1
ENDMDL
MODEL 2
REMARK VINA RESULT:    -5.449      4.443      6.768
REMARK INTER + INTRA:          -6.192
REMARK INTER:                  -5.772
REMARK INTRA:                  -0.420
REMARK UNBOUND:                -0.425
REMARK SMILES CC1=CC[C@H]2[C@H]3[C@@H]1[C@]2(C)CC[C@H]3C(C)C
REMARK SMILES IDX 1 1 2 2 3 3 4 4 5 5 6 6 7 7 8 8 10 9 11 10 12 11 9 12 13 13
REMARK SMILES IDX 14 14 15 15
REMARK H PARENT
REMARK Flexibility Score: inf
ROOT
ATOM      1  C   UNL     1     167.491 161.742 203.440  1.00  0.00     0.039 C 
ATOM      2  C   UNL     1     167.169 162.721 202.351  1.00  0.00    -0.073 C 
ATOM      3  C   UNL     1     166.020 163.447 202.374  1.00  0.00    -0.027 C 
ATOM      4  C   UNL     1     165.732 164.414 201.220  1.00  0.00     0.031 C 
ATOM      5  C   UNL     1     166.909 164.402 200.191  1.00  0.00     0.003 C 
ATOM      6  C   UNL     1     168.229 164.493 200.995  1.00  0.00     0.004 C 
ATOM      7  C   UNL     1     168.120 162.962 201.175  1.00  0.00     0.024 C 
ATOM      8  C   UNL     1     167.339 162.952 199.843  1.00  0.00    -0.022 C 
ATOM      9  C   UNL     1     168.360 162.940 198.669  1.00  0.00     0.008 C 
ATOM     10  C   UNL     1     169.277 164.189 198.671  1.00  0.00     0.005 C 
ATOM     11  C   UNL     1     169.451 164.840 200.084  1.00  0.00    -0.005 C 
ATOM     12  C   UNL     1     166.250 161.872 199.634  1.00  0.00     0.012 C 
ENDROOT
BRANCH  11  13
ATOM     13  C   UNL     1     169.701 166.379 199.974  1.00  0.00    -0.014 C 
ATOM     14  C   UNL     1     169.011 167.001 198.745  1.00  0.00     0.007 C 
ATOM     15  C   UNL     1     169.215 167.115 201.237  1.00  0.00     0.007 C 
ENDBRANCH  11  13
TORSDOF 1
ENDMDL
MODEL 3
REMARK VINA RESULT:    -5.397      1.710      2.989
REMARK INTER + INTRA:          -6.137
REMARK INTER:                  -5.744
REMARK INTRA:                  -0.393
REMARK UNBOUND:                -0.425
REMARK SMILES CC1=CC[C@H]2[C@H]3[C@@H]1[C@]2(C)CC[C@H]3C(C)C
REMARK SMILES IDX 1 1 2 2 3 3 4 4 5 5 6 6 7 7 8 8 10 9 11 10 12 11 9 12 13 13
REMARK SMILES IDX 14 14 15 15
REMARK H PARENT
REMARK Flexibility Score: inf
ROOT
ATOM      1  C   UNL     1     163.915 170.577 204.710  1.00  0.00     0.039 C 
ATOM      2  C   UNL     1     164.160 169.538 203.658  1.00  0.00    -0.073 C 
ATOM      3  C   UNL     1     163.790 168.243 203.846  1.00  0.00    -0.027 C 
ATOM      4  C   UNL     1     164.089 167.220 202.745  1.00  0.00     0.031 C 
ATOM      5  C   UNL     1     164.777 167.915 201.525  1.00  0.00     0.003 C 
ATOM      6  C   UNL     1     163.978 169.206 201.217  1.00  0.00     0.004 C 
ATOM      7  C   UNL     1     164.821 169.884 202.320  1.00  0.00     0.024 C 
ATOM      8  C   UNL     1     165.923 168.856 201.985  1.00  0.00    -0.022 C 
ATOM      9  C   UNL     1     166.736 169.379 200.766  1.00  0.00     0.008 C 
ATOM     10  C   UNL     1     165.857 169.561 199.503  1.00  0.00     0.005 C 
ATOM     11  C   UNL     1     164.343 169.803 199.819  1.00  0.00    -0.005 C 
ATOM     12  C   UNL     1     166.870 168.392 203.118  1.00  0.00     0.012 C 
ENDROOT
BRANCH  11  13
ATOM     13  C   UNL     1     163.428 169.260 198.675  1.00  0.00    -0.014 C 
ATOM     14  C   UNL     1     164.162 168.259 197.761  1.00  0.00     0.007 C 
ATOM     15  C   UNL     1     162.170 168.577 199.243  1.00  0.00     0.007 C 
ENDBRANCH  11  13
TORSDOF 1
ENDMDL
MODEL 4
REMARK VINA RESULT:    -5.388      5.224      6.732
REMARK INTER + INTRA:          -6.127
REMARK INTER:                  -5.736
REMARK INTRA:                  -0.391
REMARK UNBOUND:                -0.425
REMARK SMILES CC1=CC[C@H]2[C@H]3[C@@H]1[C@]2(C)CC[C@H]3C(C)C
REMARK SMILES IDX 1 1 2 2 3 3 4 4 5 5 6 6 7 7 8 8 10 9 11 10 12 11 9 12 13 13
REMARK SMILES IDX 14 14 15 15
REMARK H PARENT
REMARK Flexibility Score: inf
ROOT
ATOM      1  C   UNL     1     168.040 161.467 204.792  1.00  0.00     0.039 C 
ATOM      2  C   UNL     1     167.790 162.488 203.724  1.00  0.00    -0.073 C 
ATOM      3  C   UNL     1     168.141 163.790 203.898  1.00  0.00    -0.027 C 
ATOM      4  C   UNL     1     167.837 164.794 202.780  1.00  0.00     0.031 C 
ATOM      5  C   UNL     1     167.170 164.073 201.564  1.00  0.00     0.003 C 
ATOM      6  C   UNL     1     167.990 162.790 201.280  1.00  0.00     0.004 C 
ATOM      7  C   UNL     1     167.146 162.114 202.384  1.00  0.00     0.024 C 
ATOM      8  C   UNL     1     166.033 163.122 202.025  1.00  0.00    -0.022 C 
ATOM      9  C   UNL     1     165.240 162.572 200.806  1.00  0.00     0.008 C 
ATOM     10  C   UNL     1     166.133 162.386 199.554  1.00  0.00     0.005 C 
ATOM     11  C   UNL     1     167.647 162.169 199.887  1.00  0.00    -0.005 C 
ATOM     12  C   UNL     1     165.070 163.588 203.144  1.00  0.00     0.012 C 
ENDROOT
BRANCH  11  13
ATOM     13  C   UNL     1     168.565 162.710 198.744  1.00  0.00    -0.014 C 
ATOM     14  C   UNL     1     167.823 163.681 197.805  1.00  0.00     0.007 C 
ATOM     15  C   UNL     1     169.803 163.426 199.315  1.00  0.00     0.007 C 
ENDBRANCH  11  13
TORSDOF 1
ENDMDL
MODEL 5
REMARK VINA RESULT:    -5.380      3.221      5.339
REMARK INTER + INTRA:          -6.119
REMARK INTER:                  -5.698
REMARK INTRA:                  -0.421
REMARK UNBOUND:                -0.425
REMARK SMILES CC1=CC[C@H]2[C@H]3[C@@H]1[C@]2(C)CC[C@H]3C(C)C
REMARK SMILES IDX 1 1 2 2 3 3 4 4 5 5 6 6 7 7 8 8 10 9 11 10 12 11 9 12 13 13
REMARK SMILES IDX 14 14 15 15
REMARK H PARENT
REMARK Flexibility Score: inf
ROOT
ATOM      1  C   UNL     1     162.645 164.525 203.254  1.00  0.00     0.039 C 
ATOM      2  C   UNL     1     163.522 164.693 202.049  1.00  0.00    -0.073 C 
ATOM      3  C   UNL     1     163.980 165.917 201.677  1.00  0.00    -0.027 C 
ATOM      4  C   UNL     1     164.852 166.031 200.421  1.00  0.00     0.031 C 
ATOM      5  C   UNL     1     165.089 164.620 199.791  1.00  0.00     0.003 C 
ATOM      6  C   UNL     1     165.472 163.657 200.942  1.00  0.00     0.004 C 
ATOM      7  C   UNL     1     163.956 163.498 201.194  1.00  0.00     0.024 C 
ATOM      8  C   UNL     1     163.765 163.815 199.695  1.00  0.00    -0.022 C 
ATOM      9  C   UNL     1     163.968 162.506 198.881  1.00  0.00     0.008 C 
ATOM     10  C   UNL     1     165.387 161.910 199.062  1.00  0.00     0.005 C 
ATOM     11  C   UNL     1     166.071 162.315 200.411  1.00  0.00    -0.005 C 
ATOM     12  C   UNL     1     162.472 164.542 199.253  1.00  0.00     0.012 C 
ENDROOT
BRANCH  11  13
ATOM     13  C   UNL     1     167.627 162.364 200.267  1.00  0.00    -0.014 C 
ATOM     14  C   UNL     1     168.073 162.755 198.845  1.00  0.00     0.007 C 
ATOM     15  C   UNL     1     168.248 163.357 201.268  1.00  0.00     0.007 C 
ENDBRANCH  11  13
TORSDOF 1
ENDMDL
MODEL 6
REMARK VINA RESULT:    -5.356      2.306      4.076
REMARK INTER + INTRA:          -6.094
REMARK INTER:                  -5.682
REMARK INTRA:                  -0.412
REMARK UNBOUND:                -0.425
REMARK SMILES CC1=CC[C@H]2[C@H]3[C@@H]1[C@]2(C)CC[C@H]3C(C)C
REMARK SMILES IDX 1 1 2 2 3 3 4 4 5 5 6 6 7 7 8 8 10 9 11 10 12 11 9 12 13 13
REMARK SMILES IDX 14 14 15 15
REMARK H PARENT
REMARK Flexibility Score: inf
ROOT
ATOM      1  C   UNL     1     169.382 167.479 203.200  1.00  0.00     0.039 C 
ATOM      2  C   UNL     1     168.515 167.326 201.987  1.00  0.00    -0.073 C 
ATOM      3  C   UNL     1     168.034 166.110 201.613  1.00  0.00    -0.027 C 
ATOM      4  C   UNL     1     167.174 166.011 200.348  1.00  0.00     0.031 C 
ATOM      5  C   UNL     1     166.976 167.424 199.711  1.00  0.00     0.003 C 
ATOM      6  C   UNL     1     166.601 168.400 200.853  1.00  0.00     0.004 C 
ATOM      7  C   UNL     1     168.118 168.526 201.122  1.00  0.00     0.024 C 
ATOM      8  C   UNL     1     168.318 168.199 199.626  1.00  0.00    -0.022 C 
ATOM      9  C   UNL     1     168.154 169.510 198.805  1.00  0.00     0.008 C 
ATOM     10  C   UNL     1     166.746 170.137 198.969  1.00  0.00     0.005 C 
ATOM     11  C   UNL     1     166.038 169.753 200.311  1.00  0.00    -0.005 C 
ATOM     12  C   UNL     1     169.600 167.442 199.202  1.00  0.00     0.012 C 
ENDROOT
BRANCH  11  13
ATOM     13  C   UNL     1     164.483 169.737 200.149  1.00  0.00    -0.014 C 
ATOM     14  C   UNL     1     164.044 169.298 198.739  1.00  0.00     0.007 C 
ATOM     15  C   UNL     1     163.825 168.804 201.184  1.00  0.00     0.007 C 
ENDBRANCH  11  13
TORSDOF 1
ENDMDL
MODEL 7
REMARK VINA RESULT:    -5.132      1.549      4.060
REMARK INTER + INTRA:          -5.857
REMARK INTER:                  -5.441
REMARK INTRA:                  -0.416
REMARK UNBOUND:                -0.425
REMARK SMILES CC1=CC[C@H]2[C@H]3[C@@H]1[C@]2(C)CC[C@H]3C(C)C
REMARK SMILES IDX 1 1 2 2 3 3 4 4 5 5 6 6 7 7 8 8 10 9 11 10 12 11 9 12 13 13
REMARK SMILES IDX 14 14 15 15
REMARK H PARENT
REMARK Flexibility Score: inf
ROOT
ATOM      1  C   UNL     1     162.989 165.637 201.404  1.00  0.00     0.039 C 
ATOM      2  C   UNL     1     163.572 166.985 201.101  1.00  0.00    -0.073 C 
ATOM      3  C   UNL     1     163.516 167.997 202.006  1.00  0.00    -0.027 C 
ATOM      4  C   UNL     1     164.106 169.360 201.630  1.00  0.00     0.031 C 
ATOM      5  C   UNL     1     164.729 169.309 200.197  1.00  0.00     0.003 C 
ATOM      6  C   UNL     1     165.583 168.021 200.108  1.00  0.00     0.004 C 
ATOM      7  C   UNL     1     164.269 167.281 199.769  1.00  0.00     0.024 C 
ATOM      8  C   UNL     1     163.769 168.621 199.189  1.00  0.00    -0.022 C 
ATOM      9  C   UNL     1     164.299 168.760 197.733  1.00  0.00     0.008 C 
ATOM     10  C   UNL     1     165.847 168.761 197.664  1.00  0.00     0.005 C 
ATOM     11  C   UNL     1     166.531 168.027 198.865  1.00  0.00    -0.005 C 
ATOM     12  C   UNL     1     162.255 168.936 199.255  1.00  0.00     0.012 C 
ENDROOT
BRANCH  11  13
ATOM     13  C   UNL     1     167.934 168.638 199.181  1.00  0.00    -0.014 C 
ATOM     14  C   UNL     1     168.078 170.080 198.659  1.00  0.00     0.007 C 
ATOM     15  C   UNL     1     168.216 168.632 200.696  1.00  0.00     0.007 C 
ENDBRANCH  11  13
TORSDOF 1
ENDMDL
MODEL 8
REMARK VINA RESULT:    -5.124      2.763      4.374
REMARK INTER + INTRA:          -5.849
REMARK INTER:                  -5.517
REMARK INTRA:                  -0.331
REMARK UNBOUND:                -0.425
REMARK SMILES CC1=CC[C@H]2[C@H]3[C@@H]1[C@]2(C)CC[C@H]3C(C)C
REMARK SMILES IDX 1 1 2 2 3 3 4 4 5 5 6 6 7 7 8 8 10 9 11 10 12 11 9 12 13 13
REMARK SMILES IDX 14 14 15 15
REMARK H PARENT
REMARK Flexibility Score: inf
ROOT
ATOM      1  C   UNL     1     162.818 164.647 203.738  1.00  0.00     0.039 C 
ATOM      2  C   UNL     1     163.531 164.835 202.433  1.00  0.00    -0.073 C 
ATOM      3  C   UNL     1     164.670 165.572 202.352  1.00  0.00    -0.027 C 
ATOM      4  C   UNL     1     165.341 165.751 200.985  1.00  0.00     0.031 C 
ATOM      5  C   UNL     1     164.551 164.971 199.883  1.00  0.00     0.003 C 
ATOM      6  C   UNL     1     164.247 163.560 200.442  1.00  0.00     0.004 C 
ATOM      7  C   UNL     1     163.022 164.197 201.136  1.00  0.00     0.024 C 
ATOM      8  C   UNL     1     163.025 165.232 199.992  1.00  0.00    -0.022 C 
ATOM      9  C   UNL     1     162.270 164.628 198.774  1.00  0.00     0.008 C 
ATOM     10  C   UNL     1     162.939 163.335 198.244  1.00  0.00     0.005 C 
ATOM     11  C   UNL     1     163.777 162.573 199.325  1.00  0.00    -0.005 C 
ATOM     12  C   UNL     1     162.525 166.666 200.292  1.00  0.00     0.012 C 
ENDROOT
BRANCH  11  13
ATOM     13  C   UNL     1     164.963 161.789 198.675  1.00  0.00    -0.014 C 
ATOM     14  C   UNL     1     165.163 162.149 197.191  1.00  0.00     0.007 C 
ATOM     15  C   UNL     1     166.283 162.051 199.427  1.00  0.00     0.007 C 
ENDBRANCH  11  13
TORSDOF 1
ENDMDL
MODEL 9
REMARK VINA RESULT:    -5.113      4.423      5.499
REMARK INTER + INTRA:          -5.836
REMARK INTER:                  -5.417
REMARK INTRA:                  -0.419
REMARK UNBOUND:                -0.425
REMARK SMILES CC1=CC[C@H]2[C@H]3[C@@H]1[C@]2(C)CC[C@H]3C(C)C
REMARK SMILES IDX 1 1 2 2 3 3 4 4 5 5 6 6 7 7 8 8 10 9 11 10 12 11 9 12 13 13
REMARK SMILES IDX 14 14 15 15
REMARK H PARENT
REMARK Flexibility Score: inf
ROOT
ATOM      1  C   UNL     1     169.003 166.348 201.361  1.00  0.00     0.039 C 
ATOM      2  C   UNL     1     168.419 165.000 201.065  1.00  0.00    -0.073 C 
ATOM      3  C   UNL     1     168.465 163.996 201.981  1.00  0.00    -0.027 C 
ATOM      4  C   UNL     1     167.873 162.630 201.613  1.00  0.00     0.031 C 
ATOM      5  C   UNL     1     167.261 162.670 200.175  1.00  0.00     0.003 C 
ATOM      6  C   UNL     1     166.412 163.960 200.068  1.00  0.00     0.004 C 
ATOM      7  C   UNL     1     167.730 164.693 199.732  1.00  0.00     0.024 C 
ATOM      8  C   UNL     1     168.230 163.346 199.168  1.00  0.00    -0.022 C 
ATOM      9  C   UNL     1     167.711 163.195 197.709  1.00  0.00     0.008 C 
ATOM     10  C   UNL     1     166.164 163.197 197.629  1.00  0.00     0.005 C 
ATOM     11  C   UNL     1     165.473 163.945 198.818  1.00  0.00    -0.005 C 
ATOM     12  C   UNL     1     169.743 163.027 199.248  1.00  0.00     0.012 C 
ENDROOT
BRANCH  11  13
ATOM     13  C   UNL     1     164.066 163.341 199.130  1.00  0.00    -0.014 C 
ATOM     14  C   UNL     1     163.929 161.886 198.640  1.00  0.00     0.007 C 
ATOM     15  C   UNL     1     163.763 163.382 200.640  1.00  0.00     0.007 C 
ENDBRANCH  11  13
TORSDOF 1
ENDMDL
