MODEL 1
REMARK VINA RESULT:    -6.113      0.000      0.000
REMARK INTER + INTRA:         -12.995
REMARK INTER:                 -11.117
REMARK INTRA:                  -1.878
REMARK UNBOUND:                -1.878
REMARK SMILES CCCCCCCCCCCCCC[C@@H](C)C(=O)[O-]
REMARK SMILES IDX 9 1 10 2 11 3 12 4 13 5 14 6 15 7 16 8 17 9 18 10 19 11 8 12
REMARK SMILES IDX 7 13 6 14 5 15 4 16 3 17 2 18 1 19
REMARK H PARENT
REMARK Flexibility Score: inf
ROOT
ATOM      1  C   UNL     1       5.530  16.145   3.721  1.00  0.00     0.000 C 
ENDROOT
BRANCH   1   2
ATOM      2  C   UNL     1       7.036  15.914   3.924  1.00  0.00     0.000 C 
BRANCH   2   3
ATOM      3  C   UNL     1       7.549  14.667   3.182  1.00  0.00     0.000 C 
BRANCH   3   4
ATOM      4  C   UNL     1       8.836  14.946   2.391  1.00  0.00     0.000 C 
BRANCH   4   5
ATOM      5  C   UNL     1       8.966  14.057   1.141  1.00  0.00     0.001 C 
BRANCH   5   6
ATOM      6  C   UNL     1      10.036  14.584   0.160  1.00  0.00     0.009 C 
BRANCH   6   7
ATOM      7  C   UNL     1      11.271  15.195   0.859  1.00  0.00     0.032 C 
ATOM      8  C   UNL     1      12.571  14.464   0.505  1.00  0.00     0.014 C 
BRANCH   7   9
ATOM      9  C   UNL     1      11.391  16.652   0.505  1.00  0.00     0.044 C 
ATOM     10  O   UNL     1      11.449  17.528   1.409  1.00  0.00    -0.550 OA
ATOM     11  O   UNL     1      11.442  17.040  -0.827  1.00  0.00    -0.550 OA
ENDBRANCH   7   9
ENDBRANCH   6   7
ENDBRANCH   5   6
ENDBRANCH   4   5
ENDBRANCH   3   4
ENDBRANCH   2   3
ENDBRANCH   1   2
BRANCH   1  12
ATOM     12  C   UNL     1       4.699  15.766   4.955  1.00  0.00     0.000 C 
BRANCH  12  13
ATOM     13  C   UNL     1       3.326  15.219   4.544  1.00  0.00    -0.000 C 
BRANCH  13  14
ATOM     14  C   UNL     1       3.048  15.486   3.058  1.00  0.00    -0.000 C 
BRANCH  14  15
ATOM     15  C   UNL     1       2.147  14.406   2.422  1.00  0.00    -0.000 C 
BRANCH  15  16
ATOM     16  C   UNL     1       2.850  13.573   1.335  1.00  0.00    -0.000 C 
BRANCH  16  17
ATOM     17  C   UNL     1       4.321  13.225   1.630  1.00  0.00    -0.000 C 
BRANCH  17  18
ATOM     18  C   UNL     1       5.303  13.555   0.492  1.00  0.00    -0.003 C 
ATOM     19  C   UNL     1       5.367  15.049   0.174  1.00  0.00     0.004 C 
ENDBRANCH  17  18
ENDBRANCH  16  17
ENDBRANCH  15  16
ENDBRANCH  14  15
ENDBRANCH  13  14
ENDBRANCH  12  13
ENDBRANCH   1  12
TORSDOF 14
ENDMDL
MODEL 2
REMARK VINA RESULT:    -5.887      5.182      8.950
REMARK INTER + INTRA:         -12.584
REMARK INTER:                 -11.150
REMARK INTRA:                  -1.434
REMARK UNBOUND:                -1.878
REMARK SMILES CCCCCCCCCCCCCC[C@@H](C)C(=O)[O-]
REMARK SMILES IDX 9 1 10 2 11 3 12 4 13 5 14 6 15 7 16 8 17 9 18 10 19 11 8 12
REMARK SMILES IDX 7 13 6 14 5 15 4 16 3 17 2 18 1 19
REMARK H PARENT
REMARK Flexibility Score: inf
ROOT
ATOM      1  C   UNL     1       5.749  13.982   0.497  1.00  0.00     0.000 C 
ENDROOT
BRANCH   1   2
ATOM      2  C   UNL     1       4.623  13.285   1.278  1.00  0.00     0.000 C 
BRANCH   2   3
ATOM      3  C   UNL     1       3.236  13.875   0.967  1.00  0.00     0.000 C 
BRANCH   3   4
ATOM      4  C   UNL     1       2.307  13.860   2.191  1.00  0.00     0.000 C 
BRANCH   4   5
ATOM      5  C   UNL     1       0.818  13.822   1.803  1.00  0.00     0.001 C 
BRANCH   5   6
ATOM      6  C   UNL     1      -0.046  14.713   2.720  1.00  0.00     0.009 C 
BRANCH   6   7
ATOM      7  C   UNL     1      -0.839  13.923   3.786  1.00  0.00     0.032 C 
ATOM      8  C   UNL     1      -0.404  14.263   5.216  1.00  0.00     0.014 C 
BRANCH   7   9
ATOM      9  C   UNL     1      -2.311  14.180   3.624  1.00  0.00     0.044 C 
ATOM     10  O   UNL     1      -2.880  13.974   2.518  1.00  0.00    -0.550 OA
ATOM     11  O   UNL     1      -3.057  14.644   4.699  1.00  0.00    -0.550 OA
ENDBRANCH   7   9
ENDBRANCH   6   7
ENDBRANCH   5   6
ENDBRANCH   4   5
ENDBRANCH   3   4
ENDBRANCH   2   3
ENDBRANCH   1   2
BRANCH   1  12
ATOM     12  C   UNL     1       7.135  13.395   0.804  1.00  0.00     0.000 C 
BRANCH  12  13
ATOM     13  C   UNL     1       8.227  14.461   0.651  1.00  0.00    -0.000 C 
BRANCH  13  14
ATOM     14  C   UNL     1       8.822  14.842   2.016  1.00  0.00    -0.000 C 
BRANCH  14  15
ATOM     15  C   UNL     1       7.825  14.630   3.174  1.00  0.00    -0.000 C 
BRANCH  15  16
ATOM     16  C   UNL     1       7.195  15.934   3.697  1.00  0.00    -0.000 C 
BRANCH  16  17
ATOM     17  C   UNL     1       5.669  16.039   3.514  1.00  0.00    -0.000 C 
BRANCH  17  18
ATOM     18  C   UNL     1       4.839  15.519   4.701  1.00  0.00    -0.003 C 
ATOM     19  C   UNL     1       3.452  16.155   4.782  1.00  0.00     0.004 C 
ENDBRANCH  17  18
ENDBRANCH  16  17
ENDBRANCH  15  16
ENDBRANCH  14  15
ENDBRANCH  13  14
ENDBRANCH  12  13
ENDBRANCH   1  12
TORSDOF 14
ENDMDL
MODEL 3
REMARK VINA RESULT:    -5.805      5.549      9.348
REMARK INTER + INTRA:         -12.434
REMARK INTER:                 -11.248
REMARK INTRA:                  -1.186
REMARK UNBOUND:                -1.878
REMARK SMILES CCCCCCCCCCCCCC[C@@H](C)C(=O)[O-]
REMARK SMILES IDX 9 1 10 2 11 3 12 4 13 5 14 6 15 7 16 8 17 9 18 10 19 11 8 12
REMARK SMILES IDX 7 13 6 14 5 15 4 16 3 17 2 18 1 19
REMARK H PARENT
REMARK Flexibility Score: inf
ROOT
ATOM      1  C   UNL     1       4.229  13.545   2.020  1.00  0.00     0.000 C 
ENDROOT
BRANCH   1   2
ATOM      2  C   UNL     1       3.551  14.845   2.483  1.00  0.00     0.000 C 
BRANCH   2   3
ATOM      3  C   UNL     1       2.055  14.655   2.790  1.00  0.00     0.000 C 
BRANCH   3   4
ATOM      4  C   UNL     1       1.309  13.950   1.646  1.00  0.00     0.000 C 
BRANCH   4   5
ATOM      5  C   UNL     1      -0.052  13.383   2.089  1.00  0.00     0.001 C 
BRANCH   5   6
ATOM      6  C   UNL     1      -0.959  14.466   2.712  1.00  0.00     0.009 C 
BRANCH   6   7
ATOM      7  C   UNL     1      -1.665  14.012   4.010  1.00  0.00     0.032 C 
ATOM      8  C   UNL     1      -0.968  14.533   5.272  1.00  0.00     0.014 C 
BRANCH   7   9
ATOM      9  C   UNL     1      -3.100  14.460   3.996  1.00  0.00     0.044 C 
ATOM     10  O   UNL     1      -3.710  14.688   5.075  1.00  0.00    -0.550 OA
ATOM     11  O   UNL     1      -3.763  14.630   2.788  1.00  0.00    -0.550 OA
ENDBRANCH   7   9
ENDBRANCH   6   7
ENDBRANCH   5   6
ENDBRANCH   4   5
ENDBRANCH   3   4
ENDBRANCH   2   3
ENDBRANCH   1   2
BRANCH   1  12
ATOM     12  C   UNL     1       4.653  13.591   0.545  1.00  0.00     0.000 C 
BRANCH  12  13
ATOM     13  C   UNL     1       6.004  14.302   0.385  1.00  0.00    -0.000 C 
BRANCH  13  14
ATOM     14  C   UNL     1       7.159  13.403   0.852  1.00  0.00    -0.000 C 
BRANCH  14  15
ATOM     15  C   UNL     1       8.543  14.017   0.553  1.00  0.00    -0.000 C 
BRANCH  15  16
ATOM     16  C   UNL     1       9.212  14.666   1.779  1.00  0.00    -0.000 C 
BRANCH  16  17
ATOM     17  C   UNL     1       8.418  14.546   3.093  1.00  0.00    -0.000 C 
BRANCH  17  18
ATOM     18  C   UNL     1       7.988  15.888   3.712  1.00  0.00    -0.003 C 
ATOM     19  C   UNL     1       6.480  15.983   3.940  1.00  0.00     0.004 C 
ENDBRANCH  17  18
ENDBRANCH  16  17
ENDBRANCH  15  16
ENDBRANCH  14  15
ENDBRANCH  13  14
ENDBRANCH  12  13
ENDBRANCH   1  12
TORSDOF 14
ENDMDL
MODEL 4
REMARK VINA RESULT:    -5.743      3.497      7.673
REMARK INTER + INTRA:         -12.321
REMARK INTER:                 -11.071
REMARK INTRA:                  -1.250
REMARK UNBOUND:                -1.878
REMARK SMILES CCCCCCCCCCCCCC[C@@H](C)C(=O)[O-]
REMARK SMILES IDX 9 1 10 2 11 3 12 4 13 5 14 6 15 7 16 8 17 9 18 10 19 11 8 12
REMARK SMILES IDX 7 13 6 14 5 15 4 16 3 17 2 18 1 19
REMARK H PARENT
REMARK Flexibility Score: inf
ROOT
ATOM      1  C   UNL     1       8.455  14.556   1.317  1.00  0.00     0.000 C 
ENDROOT
BRANCH   1   2
ATOM      2  C   UNL     1       7.380  13.581   0.808  1.00  0.00     0.000 C 
BRANCH   2   3
ATOM      3  C   UNL     1       6.033  14.276   0.536  1.00  0.00     0.000 C 
BRANCH   3   4
ATOM      4  C   UNL     1       4.843  13.312   0.661  1.00  0.00     0.000 C 
BRANCH   4   5
ATOM      5  C   UNL     1       4.253  13.283   2.082  1.00  0.00     0.001 C 
BRANCH   5   6
ATOM      6  C   UNL     1       4.056  14.701   2.661  1.00  0.00     0.009 C 
BRANCH   6   7
ATOM      7  C   UNL     1       4.755  14.918   4.022  1.00  0.00     0.032 C 
ATOM      8  C   UNL     1       6.037  15.750   3.899  1.00  0.00     0.014 C 
BRANCH   7   9
ATOM      9  C   UNL     1       3.807  15.579   4.984  1.00  0.00     0.044 C 
ATOM     10  O   UNL     1       4.139  16.637   5.584  1.00  0.00    -0.550 OA
ATOM     11  O   UNL     1       2.555  15.026   5.215  1.00  0.00    -0.550 OA
ENDBRANCH   7   9
ENDBRANCH   6   7
ENDBRANCH   5   6
ENDBRANCH   4   5
ENDBRANCH   3   4
ENDBRANCH   2   3
ENDBRANCH   1   2
BRANCH   1  12
ATOM     12  C   UNL     1       9.606  14.744   0.318  1.00  0.00     0.000 C 
BRANCH  12  13
ATOM     13  C   UNL     1      10.944  14.323   0.939  1.00  0.00    -0.000 C 
BRANCH  13  14
ATOM     14  C   UNL     1      11.988  15.442   0.814  1.00  0.00    -0.000 C 
BRANCH  14  15
ATOM     15  C   UNL     1      11.343  16.837   0.669  1.00  0.00    -0.000 C 
BRANCH  15  16
ATOM     16  C   UNL     1      11.680  17.800   1.822  1.00  0.00    -0.000 C 
BRANCH  16  17
ATOM     17  C   UNL     1      10.543  18.022   2.837  1.00  0.00    -0.000 C 
BRANCH  17  18
ATOM     18  C   UNL     1      10.887  18.980   3.993  1.00  0.00    -0.003 C 
ATOM     19  C   UNL     1      12.340  19.453   3.961  1.00  0.00     0.004 C 
ENDBRANCH  17  18
ENDBRANCH  16  17
ENDBRANCH  15  16
ENDBRANCH  14  15
ENDBRANCH  13  14
ENDBRANCH  12  13
ENDBRANCH   1  12
TORSDOF 14
ENDMDL
MODEL 5
REMARK VINA RESULT:    -5.722      3.616      7.947
REMARK INTER + INTRA:         -12.283
REMARK INTER:                 -11.221
REMARK INTRA:                  -1.062
REMARK UNBOUND:                -1.878
REMARK SMILES CCCCCCCCCCCCCC[C@@H](C)C(=O)[O-]
REMARK SMILES IDX 9 1 10 2 11 3 12 4 13 5 14 6 15 7 16 8 17 9 18 10 19 11 8 12
REMARK SMILES IDX 7 13 6 14 5 15 4 16 3 17 2 18 1 19
REMARK H PARENT
REMARK Flexibility Score: inf
ROOT
ATOM      1  C   UNL     1       9.435  14.434   1.071  1.00  0.00     0.000 C 
ENDROOT
BRANCH   1   2
ATOM      2  C   UNL     1       8.581  14.591   2.339  1.00  0.00     0.000 C 
BRANCH   2   3
ATOM      3  C   UNL     1       7.100  14.244   2.101  1.00  0.00     0.000 C 
BRANCH   3   4
ATOM      4  C   UNL     1       6.790  13.990   0.618  1.00  0.00     0.000 C 
BRANCH   4   5
ATOM      5  C   UNL     1       5.390  13.387   0.401  1.00  0.00     0.001 C 
BRANCH   5   6
ATOM      6  C   UNL     1       4.589  13.289   1.717  1.00  0.00     0.009 C 
BRANCH   6   7
ATOM      7  C   UNL     1       3.467  14.346   1.840  1.00  0.00     0.032 C 
ATOM      8  C   UNL     1       2.129  13.852   1.278  1.00  0.00     0.014 C 
BRANCH   7   9
ATOM      9  C   UNL     1       3.300  14.750   3.278  1.00  0.00     0.044 C 
ATOM     10  O   UNL     1       4.237  14.581   4.104  1.00  0.00    -0.550 OA
ATOM     11  O   UNL     1       2.107  15.317   3.706  1.00  0.00    -0.550 OA
ENDBRANCH   7   9
ENDBRANCH   6   7
ENDBRANCH   5   6
ENDBRANCH   4   5
ENDBRANCH   3   4
ENDBRANCH   2   3
ENDBRANCH   1   2
BRANCH   1  12
ATOM     12  C   UNL     1      10.902  14.102   1.381  1.00  0.00     0.000 C 
BRANCH  12  13
ATOM     13  C   UNL     1      11.847  15.070   0.658  1.00  0.00    -0.000 C 
BRANCH  13  14
ATOM     14  C   UNL     1      11.179  16.435   0.440  1.00  0.00    -0.000 C 
BRANCH  14  15
ATOM     15  C   UNL     1      11.712  17.514   1.406  1.00  0.00    -0.000 C 
BRANCH  15  16
ATOM     16  C   UNL     1      10.774  17.805   2.592  1.00  0.00    -0.000 C 
BRANCH  16  17
ATOM     17  C   UNL     1      11.120  19.069   3.401  1.00  0.00    -0.000 C 
BRANCH  17  18
ATOM     18  C   UNL     1      12.616  19.240   3.722  1.00  0.00    -0.003 C 
ATOM     19  C   UNL     1      12.866  19.750   5.141  1.00  0.00     0.004 C 
ENDBRANCH  17  18
ENDBRANCH  16  17
ENDBRANCH  15  16
ENDBRANCH  14  15
ENDBRANCH  13  14
ENDBRANCH  12  13
ENDBRANCH   1  12
TORSDOF 14
ENDMDL
MODEL 6
REMARK VINA RESULT:    -5.717      1.317      3.033
REMARK INTER + INTRA:         -12.273
REMARK INTER:                 -10.867
REMARK INTRA:                  -1.407
REMARK UNBOUND:                -1.878
REMARK SMILES CCCCCCCCCCCCCC[C@@H](C)C(=O)[O-]
REMARK SMILES IDX 9 1 10 2 11 3 12 4 13 5 14 6 15 7 16 8 17 9 18 10 19 11 8 12
REMARK SMILES IDX 7 13 6 14 5 15 4 16 3 17 2 18 1 19
REMARK H PARENT
REMARK Flexibility Score: inf
ROOT
ATOM      1  C   UNL     1       5.704  13.593   0.600  1.00  0.00     0.000 C 
ENDROOT
BRANCH   1   2
ATOM      2  C   UNL     1       7.136  13.506   1.151  1.00  0.00     0.000 C 
BRANCH   2   3
ATOM      3  C   UNL     1       7.378  14.471   2.326  1.00  0.00     0.000 C 
BRANCH   3   4
ATOM      4  C   UNL     1       8.857  14.534   2.736  1.00  0.00     0.000 C 
BRANCH   4   5
ATOM      5  C   UNL     1       9.807  14.170   1.581  1.00  0.00     0.001 C 
BRANCH   5   6
ATOM      6  C   UNL     1      10.320  15.419   0.832  1.00  0.00     0.009 C 
BRANCH   6   7
ATOM      7  C   UNL     1      11.602  15.165   0.007  1.00  0.00     0.032 C 
ATOM      8  C   UNL     1      12.147  13.743   0.189  1.00  0.00     0.014 C 
BRANCH   7   9
ATOM      9  C   UNL     1      11.334  15.427  -1.449  1.00  0.00     0.044 C 
ATOM     10  O   UNL     1      11.396  16.598  -1.910  1.00  0.00    -0.550 OA
ATOM     11  O   UNL     1      11.019  14.374  -2.297  1.00  0.00    -0.550 OA
ENDBRANCH   7   9
ENDBRANCH   6   7
ENDBRANCH   5   6
ENDBRANCH   4   5
ENDBRANCH   3   4
ENDBRANCH   2   3
ENDBRANCH   1   2
BRANCH   1  12
ATOM     12  C   UNL     1       5.316  15.018   0.178  1.00  0.00     0.000 C 
BRANCH  12  13
ATOM     13  C   UNL     1       3.837  15.294   0.478  1.00  0.00    -0.000 C 
BRANCH  13  14
ATOM     14  C   UNL     1       3.063  13.985   0.690  1.00  0.00    -0.000 C 
BRANCH  14  15
ATOM     15  C   UNL     1       2.268  13.977   2.012  1.00  0.00    -0.000 C 
BRANCH  15  16
ATOM     16  C   UNL     1       2.790  14.981   3.057  1.00  0.00    -0.000 C 
BRANCH  16  17
ATOM     17  C   UNL     1       4.046  14.528   3.824  1.00  0.00    -0.000 C 
BRANCH  17  18
ATOM     18  C   UNL     1       4.859  15.669   4.462  1.00  0.00    -0.003 C 
ATOM     19  C   UNL     1       4.111  16.374   5.593  1.00  0.00     0.004 C 
ENDBRANCH  17  18
ENDBRANCH  16  17
ENDBRANCH  15  16
ENDBRANCH  14  15
ENDBRANCH  13  14
ENDBRANCH  12  13
ENDBRANCH   1  12
TORSDOF 14
ENDMDL
MODEL 7
REMARK VINA RESULT:    -5.689      2.528      4.399
REMARK INTER + INTRA:         -12.222
REMARK INTER:                 -11.312
REMARK INTRA:                  -0.910
REMARK UNBOUND:                -1.878
REMARK SMILES CCCCCCCCCCCCCC[C@@H](C)C(=O)[O-]
REMARK SMILES IDX 9 1 10 2 11 3 12 4 13 5 14 6 15 7 16 8 17 9 18 10 19 11 8 12
REMARK SMILES IDX 7 13 6 14 5 15 4 16 3 17 2 18 1 19
REMARK H PARENT
REMARK Flexibility Score: inf
ROOT
ATOM      1  C   UNL     1       8.891  14.395   2.139  1.00  0.00     0.000 C 
ENDROOT
BRANCH   1   2
ATOM      2  C   UNL     1       9.603  14.653   0.801  1.00  0.00     0.000 C 
BRANCH   2   3
ATOM      3  C   UNL     1      11.092  14.999   0.981  1.00  0.00     0.000 C 
BRANCH   3   4
ATOM      4  C   UNL     1      11.373  16.496   0.779  1.00  0.00     0.000 C 
BRANCH   4   5
ATOM      5  C   UNL     1      10.908  17.351   1.972  1.00  0.00     0.001 C 
BRANCH   5   6
ATOM      6  C   UNL     1      11.972  18.386   2.396  1.00  0.00     0.009 C 
BRANCH   6   7
ATOM      7  C   UNL     1      11.564  19.225   3.628  1.00  0.00     0.032 C 
ATOM      8  C   UNL     1      10.564  18.496   4.533  1.00  0.00     0.014 C 
BRANCH   7   9
ATOM      9  C   UNL     1      12.786  19.605   4.417  1.00  0.00     0.044 C 
ATOM     10  O   UNL     1      12.686  19.953   5.624  1.00  0.00    -0.550 OA
ATOM     11  O   UNL     1      14.038  19.569   3.818  1.00  0.00    -0.550 OA
ENDBRANCH   7   9
ENDBRANCH   6   7
ENDBRANCH   5   6
ENDBRANCH   4   5
ENDBRANCH   3   4
ENDBRANCH   2   3
ENDBRANCH   1   2
BRANCH   1  12
ATOM     12  C   UNL     1       7.366  14.293   1.989  1.00  0.00     0.000 C 
BRANCH  12  13
ATOM     13  C   UNL     1       6.990  13.623   0.661  1.00  0.00    -0.000 C 
BRANCH  13  14
ATOM     14  C   UNL     1       5.474  13.682   0.423  1.00  0.00    -0.000 C 
BRANCH  14  15
ATOM     15  C   UNL     1       4.664  13.218   1.652  1.00  0.00    -0.000 C 
BRANCH  15  16
ATOM     16  C   UNL     1       3.184  13.640   1.616  1.00  0.00    -0.000 C 
BRANCH  16  17
ATOM     17  C   UNL     1       2.790  14.719   2.642  1.00  0.00    -0.000 C 
BRANCH  17  18
ATOM     18  C   UNL     1       3.958  15.273   3.477  1.00  0.00    -0.003 C 
ATOM     19  C   UNL     1       3.671  15.270   4.979  1.00  0.00     0.004 C 
ENDBRANCH  17  18
ENDBRANCH  16  17
ENDBRANCH  15  16
ENDBRANCH  14  15
ENDBRANCH  13  14
ENDBRANCH  12  13
ENDBRANCH   1  12
TORSDOF 14
ENDMDL
MODEL 8
REMARK VINA RESULT:    -5.569      3.980      7.851
REMARK INTER + INTRA:         -12.005
REMARK INTER:                 -10.894
REMARK INTRA:                  -1.111
REMARK UNBOUND:                -1.878
REMARK SMILES CCCCCCCCCCCCCC[C@@H](C)C(=O)[O-]
REMARK SMILES IDX 9 1 10 2 11 3 12 4 13 5 14 6 15 7 16 8 17 9 18 10 19 11 8 12
REMARK SMILES IDX 7 13 6 14 5 15 4 16 3 17 2 18 1 19
REMARK H PARENT
REMARK Flexibility Score: inf
ROOT
ATOM      1  C   UNL     1       9.146  14.738   1.028  1.00  0.00     0.000 C 
ENDROOT
BRANCH   1   2
ATOM      2  C   UNL     1       8.236  14.222   2.154  1.00  0.00     0.000 C 
BRANCH   2   3
ATOM      3  C   UNL     1       8.262  15.129   3.397  1.00  0.00     0.000 C 
BRANCH   3   4
ATOM      4  C   UNL     1       6.919  15.839   3.631  1.00  0.00     0.000 C 
BRANCH   4   5
ATOM      5  C   UNL     1       5.713  14.963   3.245  1.00  0.00     0.001 C 
BRANCH   5   6
ATOM      6  C   UNL     1       4.963  15.515   2.013  1.00  0.00     0.009 C 
BRANCH   6   7
ATOM      7  C   UNL     1       4.353  14.415   1.115  1.00  0.00     0.032 C 
ATOM      8  C   UNL     1       5.021  13.050   1.319  1.00  0.00     0.014 C 
BRANCH   7   9
ATOM      9  C   UNL     1       2.876  14.304   1.374  1.00  0.00     0.044 C 
ATOM     10  O   UNL     1       2.406  14.547   2.518  1.00  0.00    -0.550 OA
ATOM     11  O   UNL     1       2.017  13.935   0.347  1.00  0.00    -0.550 OA
ENDBRANCH   7   9
ENDBRANCH   6   7
ENDBRANCH   5   6
ENDBRANCH   4   5
ENDBRANCH   3   4
ENDBRANCH   2   3
ENDBRANCH   1   2
BRANCH   1  12
ATOM     12  C   UNL     1      10.548  14.111   1.063  1.00  0.00     0.000 C 
BRANCH  12  13
ATOM     13  C   UNL     1      11.633  15.194   1.000  1.00  0.00    -0.000 C 
BRANCH  13  14
ATOM     14  C   UNL     1      11.011  16.597   0.947  1.00  0.00    -0.000 C 
BRANCH  14  15
ATOM     15  C   UNL     1      11.825  17.635   1.748  1.00  0.00    -0.000 C 
BRANCH  15  16
ATOM     16  C   UNL     1      11.006  18.369   2.826  1.00  0.00    -0.000 C 
BRANCH  16  17
ATOM     17  C   UNL     1      11.776  19.456   3.599  1.00  0.00    -0.000 C 
BRANCH  17  18
ATOM     18  C   UNL     1      12.025  19.138   5.084  1.00  0.00    -0.003 C 
ATOM     19  C   UNL     1      13.192  19.928   5.675  1.00  0.00     0.004 C 
ENDBRANCH  17  18
ENDBRANCH  16  17
ENDBRANCH  15  16
ENDBRANCH  14  15
ENDBRANCH  13  14
ENDBRANCH  12  13
ENDBRANCH   1  12
TORSDOF 14
ENDMDL
MODEL 9
REMARK VINA RESULT:    -5.547      2.038      3.785
REMARK INTER + INTRA:         -11.964
REMARK INTER:                 -10.385
REMARK INTRA:                  -1.580
REMARK UNBOUND:                -1.878
REMARK SMILES CCCCCCCCCCCCCC[C@@H](C)C(=O)[O-]
REMARK SMILES IDX 9 1 10 2 11 3 12 4 13 5 14 6 15 7 16 8 17 9 18 10 19 11 8 12
REMARK SMILES IDX 7 13 6 14 5 15 4 16 3 17 2 18 1 19
REMARK H PARENT
REMARK Flexibility Score: inf
ROOT
ATOM      1  C   UNL     1       7.439  13.977   1.309  1.00  0.00     0.000 C 
ENDROOT
BRANCH   1   2
ATOM      2  C   UNL     1       8.761  13.581   0.632  1.00  0.00     0.000 C 
BRANCH   2   3
ATOM      3  C   UNL     1       9.993  13.956   1.475  1.00  0.00     0.000 C 
BRANCH   3   4
ATOM      4  C   UNL     1      10.355  15.444   1.350  1.00  0.00     0.000 C 
BRANCH   4   5
ATOM      5  C   UNL     1      11.550  15.685   0.410  1.00  0.00     0.001 C 
BRANCH   5   6
ATOM      6  C   UNL     1      12.432  14.428   0.255  1.00  0.00     0.009 C 
BRANCH   6   7
ATOM      7  C   UNL     1      12.416  13.832  -1.171  1.00  0.00     0.032 C 
ATOM      8  C   UNL     1      11.638  14.702  -2.165  1.00  0.00     0.014 C 
BRANCH   7   9
ATOM      9  C   UNL     1      13.825  13.633  -1.658  1.00  0.00     0.044 C 
ATOM     10  O   UNL     1      14.357  14.471  -2.435  1.00  0.00    -0.550 OA
ATOM     11  O   UNL     1      14.551  12.522  -1.251  1.00  0.00    -0.550 OA
ENDBRANCH   7   9
ENDBRANCH   6   7
ENDBRANCH   5   6
ENDBRANCH   4   5
ENDBRANCH   3   4
ENDBRANCH   2   3
ENDBRANCH   1   2
BRANCH   1  12
ATOM     12  C   UNL     1       6.585  14.912   0.440  1.00  0.00     0.000 C 
BRANCH  12  13
ATOM     13  C   UNL     1       5.174  14.340   0.245  1.00  0.00    -0.000 C 
BRANCH  13  14
ATOM     14  C   UNL     1       4.962  13.088   1.110  1.00  0.00    -0.000 C 
BRANCH  14  15
ATOM     15  C   UNL     1       3.704  13.190   1.997  1.00  0.00    -0.000 C 
BRANCH  15  16
ATOM     16  C   UNL     1       3.552  14.549   2.706  1.00  0.00    -0.000 C 
BRANCH  16  17
ATOM     17  C   UNL     1       4.398  14.714   3.983  1.00  0.00    -0.000 C 
BRANCH  17  18
ATOM     18  C   UNL     1       5.036  16.104   4.160  1.00  0.00    -0.003 C 
ATOM     19  C   UNL     1       6.544  16.102   3.914  1.00  0.00     0.004 C 
ENDBRANCH  17  18
ENDBRANCH  16  17
ENDBRANCH  15  16
ENDBRANCH  14  15
ENDBRANCH  13  14
ENDBRANCH  12  13
ENDBRANCH   1  12
TORSDOF 14
ENDMDL
