MODEL 1
REMARK VINA RESULT:    -5.192      0.000      0.000
REMARK INTER + INTRA:          -5.702
REMARK INTER:                  -5.496
REMARK INTRA:                  -0.206
REMARK UNBOUND:                -0.206
REMARK SMILES C=C(C)[C@H]1CC[C@]2(C)CCCC(=C)[C@@H]2C1
REMARK SMILES IDX 4 1 5 2 6 3 7 4 9 5 10 6 11 7 12 8 13 9 14 10 15 11 8 12
REMARK SMILES IDX 2 13 3 14 1 15
REMARK H PARENT
REMARK Flexibility Score: inf
ROOT
ATOM      1  C   UNL     1     136.148 133.483 135.206  1.00  0.00     0.015 C 
ATOM      2  C   UNL     1     136.288 134.662 134.228  1.00  0.00     0.008 C 
ATOM      3  C   UNL     1     135.003 135.504 134.187  1.00  0.00     0.008 C 
ATOM      4  C   UNL     1     133.728 134.669 133.856  1.00  0.00    -0.026 C 
ATOM      5  C   UNL     1     132.464 135.578 133.936  1.00  0.00     0.008 C 
ATOM      6  C   UNL     1     132.091 136.007 135.359  1.00  0.00     0.005 C 
ATOM      7  C   UNL     1     131.885 134.794 136.260  1.00  0.00     0.031 C 
ATOM      8  C   UNL     1     133.101 133.899 136.226  1.00  0.00    -0.074 C 
ATOM      9  C   UNL     1     133.554 133.399 137.394  1.00  0.00     0.008 C 
ATOM     10  C   UNL     1     133.604 133.451 134.843  1.00  0.00     0.021 C 
ATOM     11  C   UNL     1     134.916 132.619 134.862  1.00  0.00     0.016 C 
ATOM     12  C   UNL     1     133.803 134.171 132.386  1.00  0.00     0.012 C 
ENDROOT
BRANCH   1  13
ATOM     13  C   UNL     1     137.418 132.643 135.250  1.00  0.00    -0.077 C 
ATOM     14  C   UNL     1     137.733 131.811 136.467  1.00  0.00     0.039 C 
ATOM     15  C   UNL     1     138.276 132.619 134.216  1.00  0.00     0.008 C 
ENDBRANCH   1  13
TORSDOF 1
ENDMDL
MODEL 2
REMARK VINA RESULT:    -5.182      3.299      5.232
REMARK INTER + INTRA:          -5.691
REMARK INTER:                  -5.484
REMARK INTRA:                  -0.207
REMARK UNBOUND:                -0.206
REMARK SMILES C=C(C)[C@H]1CC[C@]2(C)CCCC(=C)[C@@H]2C1
REMARK SMILES IDX 4 1 5 2 6 3 7 4 9 5 10 6 11 7 12 8 13 9 14 10 15 11 8 12
REMARK SMILES IDX 2 13 3 14 1 15
REMARK H PARENT
REMARK Flexibility Score: inf
ROOT
ATOM      1  C   UNL     1     133.502 136.467 135.283  1.00  0.00     0.015 C 
ATOM      2  C   UNL     1     134.676 136.324 134.299  1.00  0.00     0.008 C 
ATOM      3  C   UNL     1     135.509 137.614 134.239  1.00  0.00     0.008 C 
ATOM      4  C   UNL     1     134.663 138.879 133.899  1.00  0.00    -0.026 C 
ATOM      5  C   UNL     1     135.565 140.151 133.959  1.00  0.00     0.008 C 
ATOM      6  C   UNL     1     136.000 140.542 135.375  1.00  0.00     0.005 C 
ATOM      7  C   UNL     1     134.791 140.750 136.280  1.00  0.00     0.031 C 
ATOM      8  C   UNL     1     133.905 139.528 136.267  1.00  0.00    -0.074 C 
ATOM      9  C   UNL     1     133.415 139.085 137.443  1.00  0.00     0.008 C 
ATOM     10  C   UNL     1     133.451 139.007 134.892  1.00  0.00     0.021 C 
ATOM     11  C   UNL     1     132.628 137.689 134.931  1.00  0.00     0.016 C 
ATOM     12  C   UNL     1     134.156 138.785 132.432  1.00  0.00     0.012 C 
ENDROOT
BRANCH   1  13
ATOM     13  C   UNL     1     132.671 135.192 135.347  1.00  0.00    -0.077 C 
ATOM     14  C   UNL     1     131.842 134.890 136.569  1.00  0.00     0.039 C 
ATOM     15  C   UNL     1     132.652 134.319 134.325  1.00  0.00     0.008 C 
ENDBRANCH   1  13
TORSDOF 1
ENDMDL
MODEL 3
REMARK VINA RESULT:    -5.153      4.878      7.463
REMARK INTER + INTRA:          -5.661
REMARK INTER:                  -5.455
REMARK INTRA:                  -0.206
REMARK UNBOUND:                -0.206
REMARK SMILES C=C(C)[C@H]1CC[C@]2(C)CCCC(=C)[C@@H]2C1
REMARK SMILES IDX 4 1 5 2 6 3 7 4 9 5 10 6 11 7 12 8 13 9 14 10 15 11 8 12
REMARK SMILES IDX 2 13 3 14 1 15
REMARK H PARENT
REMARK Flexibility Score: inf
ROOT
ATOM      1  C   UNL     1     136.502 139.204 135.169  1.00  0.00     0.015 C 
ATOM      2  C   UNL     1     136.343 137.968 134.268  1.00  0.00     0.008 C 
ATOM      3  C   UNL     1     137.627 137.123 134.254  1.00  0.00     0.008 C 
ATOM      4  C   UNL     1     138.895 137.935 133.848  1.00  0.00    -0.026 C 
ATOM      5  C   UNL     1     140.161 137.030 133.959  1.00  0.00     0.008 C 
ATOM      6  C   UNL     1     140.561 136.689 135.398  1.00  0.00     0.005 C 
ATOM      7  C   UNL     1     140.784 137.954 136.219  1.00  0.00     0.031 C 
ATOM      8  C   UNL     1     139.568 138.846 136.154  1.00  0.00    -0.074 C 
ATOM      9  C   UNL     1     139.138 139.418 137.298  1.00  0.00     0.008 C 
ATOM     10  C   UNL     1     139.039 139.211 134.756  1.00  0.00     0.021 C 
ATOM     11  C   UNL     1     137.728 140.044 134.750  1.00  0.00     0.016 C 
ATOM     12  C   UNL     1     138.793 138.343 132.352  1.00  0.00     0.012 C 
ENDROOT
BRANCH   1  13
ATOM     13  C   UNL     1     135.233 140.047 135.187  1.00  0.00    -0.077 C 
ATOM     14  C   UNL     1     134.876 140.851 136.410  1.00  0.00     0.039 C 
ATOM     15  C   UNL     1     134.415 140.098 134.122  1.00  0.00     0.008 C 
ENDBRANCH   1  13
TORSDOF 1
ENDMDL
MODEL 4
REMARK VINA RESULT:    -5.115      3.384      5.415
REMARK INTER + INTRA:          -5.621
REMARK INTER:                  -5.423
REMARK INTRA:                  -0.197
REMARK UNBOUND:                -0.206
REMARK SMILES C=C(C)[C@H]1CC[C@]2(C)CCCC(=C)[C@@H]2C1
REMARK SMILES IDX 4 1 5 2 6 3 7 4 9 5 10 6 11 7 12 8 13 9 14 10 15 11 8 12
REMARK SMILES IDX 2 13 3 14 1 15
REMARK H PARENT
REMARK Flexibility Score: inf
ROOT
ATOM      1  C   UNL     1     139.039 136.361 135.467  1.00  0.00     0.015 C 
ATOM      2  C   UNL     1     137.941 136.462 134.394  1.00  0.00     0.008 C 
ATOM      3  C   UNL     1     137.198 135.126 134.235  1.00  0.00     0.008 C 
ATOM      4  C   UNL     1     138.146 133.924 133.935  1.00  0.00    -0.026 C 
ATOM      5  C   UNL     1     137.325 132.599 133.891  1.00  0.00     0.008 C 
ATOM      6  C   UNL     1     136.803 132.141 135.257  1.00  0.00     0.005 C 
ATOM      7  C   UNL     1     137.946 131.981 136.253  1.00  0.00     0.031 C 
ATOM      8  C   UNL     1     138.752 133.255 136.341  1.00  0.00    -0.074 C 
ATOM      9  C   UNL     1     139.118 133.693 137.563  1.00  0.00     0.008 C 
ATOM     10  C   UNL     1     139.281 133.842 135.021  1.00  0.00     0.021 C 
ATOM     11  C   UNL     1     140.014 135.205 135.158  1.00  0.00     0.016 C 
ATOM     12  C   UNL     1     138.762 134.091 132.518  1.00  0.00     0.012 C 
ENDROOT
BRANCH   1  13
ATOM     13  C   UNL     1     139.781 137.682 135.629  1.00  0.00    -0.077 C 
ATOM     14  C   UNL     1     139.272 138.924 134.944  1.00  0.00     0.039 C 
ATOM     15  C   UNL     1     140.890 137.772 136.382  1.00  0.00     0.008 C 
ENDBRANCH   1  13
TORSDOF 1
ENDMDL
MODEL 5
REMARK VINA RESULT:    -4.861      2.944      4.812
REMARK INTER + INTRA:          -5.352
REMARK INTER:                  -5.155
REMARK INTRA:                  -0.197
REMARK UNBOUND:                -0.206
REMARK SMILES C=C(C)[C@H]1CC[C@]2(C)CCCC(=C)[C@@H]2C1
REMARK SMILES IDX 4 1 5 2 6 3 7 4 9 5 10 6 11 7 12 8 13 9 14 10 15 11 8 12
REMARK SMILES IDX 2 13 3 14 1 15
REMARK H PARENT
REMARK Flexibility Score: inf
ROOT
ATOM      1  C   UNL     1     133.974 138.608 135.488  1.00  0.00     0.015 C 
ATOM      2  C   UNL     1     132.945 138.353 134.373  1.00  0.00     0.008 C 
ATOM      3  C   UNL     1     132.163 137.054 134.627  1.00  0.00     0.008 C 
ATOM      4  C   UNL     1     133.081 135.808 134.817  1.00  0.00    -0.026 C 
ATOM      5  C   UNL     1     132.214 134.560 135.170  1.00  0.00     0.008 C 
ATOM      6  C   UNL     1     131.597 134.605 136.572  1.00  0.00     0.005 C 
ATOM      7  C   UNL     1     132.673 134.776 137.638  1.00  0.00     0.031 C 
ATOM      8  C   UNL     1     133.520 135.991 137.343  1.00  0.00    -0.074 C 
ATOM      9  C   UNL     1     133.830 136.814 138.366  1.00  0.00     0.008 C 
ATOM     10  C   UNL     1     134.147 136.084 135.941  1.00  0.00     0.021 C 
ATOM     11  C   UNL     1     134.921 137.401 135.657  1.00  0.00     0.016 C 
ATOM     12  C   UNL     1     133.785 135.472 133.473  1.00  0.00     0.012 C 
ENDROOT
BRANCH   1  13
ATOM     13  C   UNL     1     134.755 139.893 135.241  1.00  0.00    -0.077 C 
ATOM     14  C   UNL     1     134.855 140.936 136.324  1.00  0.00     0.039 C 
ATOM     15  C   UNL     1     135.370 140.122 134.069  1.00  0.00     0.008 C 
ENDBRANCH   1  13
TORSDOF 1
ENDMDL
MODEL 6
REMARK VINA RESULT:    -4.819      5.039      5.728
REMARK INTER + INTRA:          -5.307
REMARK INTER:                  -5.102
REMARK INTRA:                  -0.205
REMARK UNBOUND:                -0.206
REMARK SMILES C=C(C)[C@H]1CC[C@]2(C)CCCC(=C)[C@@H]2C1
REMARK SMILES IDX 4 1 5 2 6 3 7 4 9 5 10 6 11 7 12 8 13 9 14 10 15 11 8 12
REMARK SMILES IDX 2 13 3 14 1 15
REMARK H PARENT
REMARK Flexibility Score: inf
ROOT
ATOM      1  C   UNL     1     138.423 138.682 136.832  1.00  0.00     0.015 C 
ATOM      2  C   UNL     1     138.664 139.574 135.602  1.00  0.00     0.008 C 
ATOM      3  C   UNL     1     137.356 140.222 135.122  1.00  0.00     0.008 C 
ATOM      4  C   UNL     1     136.225 139.188 134.833  1.00  0.00    -0.026 C 
ATOM      5  C   UNL     1     134.909 139.934 134.452  1.00  0.00     0.008 C 
ATOM      6  C   UNL     1     134.248 140.672 135.621  1.00  0.00     0.005 C 
ATOM      7  C   UNL     1     133.960 139.720 136.776  1.00  0.00     0.031 C 
ATOM      8  C   UNL     1     135.218 138.995 137.189  1.00  0.00    -0.074 C 
ATOM      9  C   UNL     1     135.477 138.871 138.507  1.00  0.00     0.008 C 
ATOM     10  C   UNL     1     136.000 138.263 136.085  1.00  0.00     0.021 C 
ATOM     11  C   UNL     1     137.338 137.622 136.546  1.00  0.00     0.016 C 
ATOM     12  C   UNL     1     136.607 138.336 133.590  1.00  0.00     0.012 C 
ENDROOT
BRANCH   1  13
ATOM     13  C   UNL     1     139.716 138.036 137.313  1.00  0.00    -0.077 C 
ATOM     14  C   UNL     1     140.905 137.946 136.391  1.00  0.00     0.039 C 
ATOM     15  C   UNL     1     139.828 137.541 138.557  1.00  0.00     0.008 C 
ENDBRANCH   1  13
TORSDOF 1
ENDMDL
MODEL 7
REMARK VINA RESULT:    -4.806      2.144      4.251
REMARK INTER + INTRA:          -5.294
REMARK INTER:                  -5.096
REMARK INTRA:                  -0.197
REMARK UNBOUND:                -0.206
REMARK SMILES C=C(C)[C@H]1CC[C@]2(C)CCCC(=C)[C@@H]2C1
REMARK SMILES IDX 4 1 5 2 6 3 7 4 9 5 10 6 11 7 12 8 13 9 14 10 15 11 8 12
REMARK SMILES IDX 2 13 3 14 1 15
REMARK H PARENT
REMARK Flexibility Score: inf
ROOT
ATOM      1  C   UNL     1     136.418 132.553 135.172  1.00  0.00     0.015 C 
ATOM      2  C   UNL     1     137.667 132.057 135.922  1.00  0.00     0.008 C 
ATOM      3  C   UNL     1     137.553 132.332 137.430  1.00  0.00     0.008 C 
ATOM      4  C   UNL     1     137.274 133.830 137.765  1.00  0.00    -0.026 C 
ATOM      5  C   UNL     1     137.073 134.000 139.302  1.00  0.00     0.008 C 
ATOM      6  C   UNL     1     135.766 133.402 139.831  1.00  0.00     0.005 C 
ATOM      7  C   UNL     1     134.561 133.992 139.107  1.00  0.00     0.031 C 
ATOM      8  C   UNL     1     134.709 133.824 137.614  1.00  0.00    -0.074 C 
ATOM      9  C   UNL     1     133.633 133.416 136.910  1.00  0.00     0.008 C 
ATOM     10  C   UNL     1     136.012 134.338 136.977  1.00  0.00     0.021 C 
ATOM     11  C   UNL     1     136.156 134.047 135.457  1.00  0.00     0.016 C 
ATOM     12  C   UNL     1     138.521 134.683 137.401  1.00  0.00     0.012 C 
ENDROOT
BRANCH   1  13
ATOM     13  C   UNL     1     136.525 132.285 133.677  1.00  0.00    -0.077 C 
ATOM     14  C   UNL     1     137.735 132.750 132.909  1.00  0.00     0.039 C 
ATOM     15  C   UNL     1     135.556 131.630 133.014  1.00  0.00     0.008 C 
ENDBRANCH   1  13
TORSDOF 1
ENDMDL
MODEL 8
REMARK VINA RESULT:    -4.793      1.593      5.483
REMARK INTER + INTRA:          -5.279
REMARK INTER:                  -5.074
REMARK INTRA:                  -0.205
REMARK UNBOUND:                -0.206
REMARK SMILES C=C(C)[C@H]1CC[C@]2(C)CCCC(=C)[C@@H]2C1
REMARK SMILES IDX 4 1 5 2 6 3 7 4 9 5 10 6 11 7 12 8 13 9 14 10 15 11 8 12
REMARK SMILES IDX 2 13 3 14 1 15
REMARK H PARENT
REMARK Flexibility Score: inf
ROOT
ATOM      1  C   UNL     1     135.346 133.942 135.045  1.00  0.00     0.015 C 
ATOM      2  C   UNL     1     135.784 133.871 136.518  1.00  0.00     0.008 C 
ATOM      3  C   UNL     1     137.306 134.035 136.653  1.00  0.00     0.008 C 
ATOM      4  C   UNL     1     138.115 133.016 135.793  1.00  0.00    -0.026 C 
ATOM      5  C   UNL     1     139.641 133.319 135.909  1.00  0.00     0.008 C 
ATOM      6  C   UNL     1     140.077 134.608 135.204  1.00  0.00     0.005 C 
ATOM      7  C   UNL     1     139.689 134.584 133.731  1.00  0.00     0.031 C 
ATOM      8  C   UNL     1     138.211 134.316 133.578  1.00  0.00    -0.074 C 
ATOM      9  C   UNL     1     137.519 135.055 132.687  1.00  0.00     0.008 C 
ATOM     10  C   UNL     1     137.647 133.076 134.293  1.00  0.00     0.021 C 
ATOM     11  C   UNL     1     136.105 132.906 134.189  1.00  0.00     0.016 C 
ATOM     12  C   UNL     1     137.920 131.584 136.366  1.00  0.00     0.012 C 
ENDROOT
BRANCH   1  13
ATOM     13  C   UNL     1     133.838 133.778 134.904  1.00  0.00    -0.077 C 
ATOM     14  C   UNL     1     133.101 134.483 133.795  1.00  0.00     0.039 C 
ATOM     15  C   UNL     1     133.138 133.006 135.753  1.00  0.00     0.008 C 
ENDBRANCH   1  13
TORSDOF 1
ENDMDL
MODEL 9
REMARK VINA RESULT:    -4.630      1.561      3.141
REMARK INTER + INTRA:          -5.107
REMARK INTER:                  -4.930
REMARK INTRA:                  -0.178
REMARK UNBOUND:                -0.206
REMARK SMILES C=C(C)[C@H]1CC[C@]2(C)CCCC(=C)[C@@H]2C1
REMARK SMILES IDX 4 1 5 2 6 3 7 4 9 5 10 6 11 7 12 8 13 9 14 10 15 11 8 12
REMARK SMILES IDX 2 13 3 14 1 15
REMARK H PARENT
REMARK Flexibility Score: inf
ROOT
ATOM      1  C   UNL     1     135.185 133.016 133.606  1.00  0.00     0.015 C 
ATOM      2  C   UNL     1     134.886 132.071 134.783  1.00  0.00     0.008 C 
ATOM      3  C   UNL     1     133.840 132.680 135.731  1.00  0.00     0.008 C 
ATOM      4  C   UNL     1     134.231 134.097 136.253  1.00  0.00    -0.026 C 
ATOM      5  C   UNL     1     133.074 134.680 137.121  1.00  0.00     0.008 C 
ATOM      6  C   UNL     1     131.827 135.069 136.320  1.00  0.00     0.005 C 
ATOM      7  C   UNL     1     132.173 136.069 135.222  1.00  0.00     0.031 C 
ATOM      8  C   UNL     1     133.277 135.528 134.344  1.00  0.00    -0.074 C 
ATOM      9  C   UNL     1     133.154 135.669 133.009  1.00  0.00     0.008 C 
ATOM     10  C   UNL     1     134.560 135.051 135.046  1.00  0.00     0.021 C 
ATOM     11  C   UNL     1     135.619 134.409 134.108  1.00  0.00     0.016 C 
ATOM     12  C   UNL     1     135.457 133.979 137.201  1.00  0.00     0.012 C 
ENDROOT
BRANCH   1  13
ATOM     13  C   UNL     1     136.222 132.419 132.663  1.00  0.00    -0.077 C 
ATOM     14  C   UNL     1     135.901 131.175 131.875  1.00  0.00     0.039 C 
ATOM     15  C   UNL     1     137.432 132.984 132.509  1.00  0.00     0.008 C 
ENDBRANCH   1  13
TORSDOF 1
ENDMDL
