MODEL 1
REMARK VINA RESULT:    -2.909      0.000      0.000
REMARK INTER + INTRA:          -3.523
REMARK INTER:                  -3.504
REMARK INTRA:                  -0.018
REMARK UNBOUND:                -0.018
REMARK SMILES CCCCCO
REMARK SMILES IDX 4 1 3 2 2 3 1 4 5 5 6 6
REMARK H PARENT 6 7
REMARK Flexibility Score: inf
ROOT
ATOM      1  C   UNL     1       9.514   6.599  42.344  1.00  0.00     0.028 C 
ENDROOT
BRANCH   1   2
ATOM      2  C   UNL     1       9.485   7.885  43.192  1.00  0.00     0.002 C 
BRANCH   2   3
ATOM      3  C   UNL     1       8.689   7.783  44.504  1.00  0.00    -0.003 C 
ATOM      4  C   UNL     1       7.897   6.480  44.621  1.00  0.00     0.004 C 
ENDBRANCH   2   3
ENDBRANCH   1   2
BRANCH   1   5
ATOM      5  C   UNL     1      10.574   6.616  41.237  1.00  0.00     0.156 C 
BRANCH   5   6
ATOM      6  O   UNL     1      11.604   5.716  41.537  1.00  0.00    -0.396 OA
ATOM      7  H   UNL     1      12.442   6.140  41.215  1.00  0.00     0.210 HD
ENDBRANCH   5   6
ENDBRANCH   1   5
TORSDOF 4
ENDMDL
MODEL 2
REMARK VINA RESULT:    -2.900      0.612      1.167
REMARK INTER + INTRA:          -3.511
REMARK INTER:                  -3.495
REMARK INTRA:                  -0.016
REMARK UNBOUND:                -0.018
REMARK SMILES CCCCCO
REMARK SMILES IDX 4 1 3 2 2 3 1 4 5 5 6 6
REMARK H PARENT 6 7
REMARK Flexibility Score: inf
ROOT
ATOM      1  C   UNL     1       9.896   7.125  42.392  1.00  0.00     0.028 C 
ENDROOT
BRANCH   1   2
ATOM      2  C   UNL     1       8.684   6.319  42.900  1.00  0.00     0.002 C 
BRANCH   2   3
ATOM      3  C   UNL     1       8.312   6.563  44.372  1.00  0.00    -0.003 C 
ATOM      4  C   UNL     1       8.709   7.955  44.865  1.00  0.00     0.004 C 
ENDBRANCH   2   3
ENDBRANCH   1   2
BRANCH   1   5
ATOM      5  C   UNL     1      10.562   6.517  41.152  1.00  0.00     0.156 C 
BRANCH   5   6
ATOM      6  O   UNL     1      11.692   5.778  41.521  1.00  0.00    -0.396 OA
ATOM      7  H   UNL     1      11.620   5.634  42.501  1.00  0.00     0.210 HD
ENDBRANCH   5   6
ENDBRANCH   1   5
TORSDOF 4
ENDMDL
MODEL 3
REMARK VINA RESULT:    -2.805      0.852      1.169
REMARK INTER + INTRA:          -3.397
REMARK INTER:                  -3.387
REMARK INTRA:                  -0.010
REMARK UNBOUND:                -0.018
REMARK SMILES CCCCCO
REMARK SMILES IDX 4 1 3 2 2 3 1 4 5 5 6 6
REMARK H PARENT 6 7
REMARK Flexibility Score: inf
ROOT
ATOM      1  C   UNL     1       9.568   7.161  42.564  1.00  0.00     0.028 C 
ENDROOT
BRANCH   1   2
ATOM      2  C   UNL     1       8.556   6.179  43.185  1.00  0.00     0.002 C 
BRANCH   2   3
ATOM      3  C   UNL     1       8.050   6.565  44.585  1.00  0.00    -0.003 C 
ATOM      4  C   UNL     1       6.689   5.953  44.918  1.00  0.00     0.004 C 
ENDBRANCH   2   3
ENDBRANCH   1   2
BRANCH   1   5
ATOM      5  C   UNL     1      10.170   6.670  41.243  1.00  0.00     0.156 C 
BRANCH   5   6
ATOM      6  O   UNL     1      11.202   5.756  41.489  1.00  0.00    -0.396 OA
ATOM      7  H   UNL     1      11.375   5.793  42.466  1.00  0.00     0.210 HD
ENDBRANCH   5   6
ENDBRANCH   1   5
TORSDOF 4
ENDMDL
MODEL 4
REMARK VINA RESULT:    -2.537      2.967      4.225
REMARK INTER + INTRA:          -3.075
REMARK INTER:                  -3.065
REMARK INTRA:                  -0.010
REMARK UNBOUND:                -0.018
REMARK SMILES CCCCCO
REMARK SMILES IDX 4 1 3 2 2 3 1 4 5 5 6 6
REMARK H PARENT 6 7
REMARK Flexibility Score: inf
ROOT
ATOM      1  C   UNL     1       7.822   6.471  44.567  1.00  0.00     0.028 C 
ENDROOT
BRANCH   1   2
ATOM      2  C   UNL     1       8.587   6.176  43.263  1.00  0.00     0.002 C 
BRANCH   2   3
ATOM      3  C   UNL     1       9.522   7.301  42.789  1.00  0.00    -0.003 C 
ATOM      4  C   UNL     1      10.640   6.802  41.873  1.00  0.00     0.004 C 
ENDBRANCH   2   3
ENDBRANCH   1   2
BRANCH   1   5
ATOM      5  C   UNL     1       6.387   5.932  44.573  1.00  0.00     0.156 C 
BRANCH   5   6
ATOM      6  O   UNL     1       6.163   5.156  45.717  1.00  0.00    -0.396 OA
ATOM      7  H   UNL     1       5.192   5.228  45.913  1.00  0.00     0.210 HD
ENDBRANCH   5   6
ENDBRANCH   1   5
TORSDOF 4
ENDMDL
MODEL 5
REMARK VINA RESULT:    -2.511     12.497     13.397
REMARK INTER + INTRA:          -3.043
REMARK INTER:                  -3.008
REMARK INTRA:                  -0.035
REMARK UNBOUND:                -0.018
REMARK SMILES CCCCCO
REMARK SMILES IDX 4 1 3 2 2 3 1 4 5 5 6 6
REMARK H PARENT 6 7
REMARK Flexibility Score: inf
ROOT
ATOM      1  C   UNL     1       9.226  -0.116  31.745  1.00  0.00     0.028 C 
ENDROOT
BRANCH   1   2
ATOM      2  C   UNL     1      10.309  -0.089  30.648  1.00  0.00     0.002 C 
BRANCH   2   3
ATOM      3  C   UNL     1      11.011   1.265  30.460  1.00  0.00    -0.003 C 
ATOM      4  C   UNL     1      10.595   2.304  31.502  1.00  0.00     0.004 C 
ENDBRANCH   2   3
ENDBRANCH   1   2
BRANCH   1   5
ATOM      5  C   UNL     1       9.330  -1.324  32.682  1.00  0.00     0.156 C 
BRANCH   5   6
ATOM      6  O   UNL     1       8.448  -1.181  33.760  1.00  0.00    -0.396 OA
ATOM      7  H   UNL     1       7.535  -1.287  33.384  1.00  0.00     0.210 HD
ENDBRANCH   5   6
ENDBRANCH   1   5
TORSDOF 4
ENDMDL
MODEL 6
REMARK VINA RESULT:    -2.488     11.228     12.283
REMARK INTER + INTRA:          -3.015
REMARK INTER:                  -3.005
REMARK INTRA:                  -0.010
REMARK UNBOUND:                -0.018
REMARK SMILES CCCCCO
REMARK SMILES IDX 4 1 3 2 2 3 1 4 5 5 6 6
REMARK H PARENT 6 7
REMARK Flexibility Score: inf
ROOT
ATOM      1  C   UNL     1       8.133  -1.028  35.204  1.00  0.00     0.028 C 
ENDROOT
BRANCH   1   2
ATOM      2  C   UNL     1       8.587  -1.533  33.821  1.00  0.00     0.002 C 
BRANCH   2   3
ATOM      3  C   UNL     1       9.607  -0.634  33.103  1.00  0.00    -0.003 C 
ATOM      4  C   UNL     1       9.187  -0.275  31.677  1.00  0.00     0.004 C 
ENDBRANCH   2   3
ENDBRANCH   1   2
BRANCH   1   5
ATOM      5  C   UNL     1       6.622  -1.138  35.434  1.00  0.00     0.156 C 
BRANCH   5   6
ATOM      6  O   UNL     1       6.186  -0.125  36.296  1.00  0.00    -0.396 OA
ATOM      7  H   UNL     1       6.793  -0.151  37.081  1.00  0.00     0.210 HD
ENDBRANCH   5   6
ENDBRANCH   1   5
TORSDOF 4
ENDMDL
MODEL 7
REMARK VINA RESULT:    -2.466     12.373     13.101
REMARK INTER + INTRA:          -2.989
REMARK INTER:                  -2.884
REMARK INTRA:                  -0.104
REMARK UNBOUND:                -0.018
REMARK SMILES CCCCCO
REMARK SMILES IDX 4 1 3 2 2 3 1 4 5 5 6 6
REMARK H PARENT 6 7
REMARK Flexibility Score: inf
ROOT
ATOM      1  C   UNL     1       9.865   0.972  31.595  1.00  0.00     0.028 C 
ENDROOT
BRANCH   1   2
ATOM      2  C   UNL     1       9.170  -0.383  31.833  1.00  0.00     0.002 C 
BRANCH   2   3
ATOM      3  C   UNL     1       9.194  -0.880  33.287  1.00  0.00    -0.003 C 
ATOM      4  C   UNL     1      10.570  -0.747  33.941  1.00  0.00     0.004 C 
ENDBRANCH   2   3
ENDBRANCH   1   2
BRANCH   1   5
ATOM      5  C   UNL     1      10.946   0.925  30.509  1.00  0.00     0.156 C 
BRANCH   5   6
ATOM      6  O   UNL     1      11.403  -0.387  30.334  1.00  0.00    -0.396 OA
ATOM      7  H   UNL     1      11.487  -0.521  29.354  1.00  0.00     0.210 HD
ENDBRANCH   5   6
ENDBRANCH   1   5
TORSDOF 4
ENDMDL
MODEL 8
REMARK VINA RESULT:    -2.457     12.978     13.754
REMARK INTER + INTRA:          -2.978
REMARK INTER:                  -2.963
REMARK INTRA:                  -0.015
REMARK UNBOUND:                -0.018
REMARK SMILES CCCCCO
REMARK SMILES IDX 4 1 3 2 2 3 1 4 5 5 6 6
REMARK H PARENT 6 7
REMARK Flexibility Score: inf
ROOT
ATOM      1  C   UNL     1      10.631   0.289  30.568  1.00  0.00     0.028 C 
ENDROOT
BRANCH   1   2
ATOM      2  C   UNL     1      10.290   1.593  31.314  1.00  0.00     0.002 C 
BRANCH   2   3
ATOM      3  C   UNL     1      11.352   2.701  31.207  1.00  0.00    -0.003 C 
ATOM      4  C   UNL     1      11.891   2.875  29.787  1.00  0.00     0.004 C 
ENDBRANCH   2   3
ENDBRANCH   1   2
BRANCH   1   5
ATOM      5  C   UNL     1      10.476  -0.970  31.428  1.00  0.00     0.156 C 
BRANCH   5   6
ATOM      6  O   UNL     1       9.168  -1.463  31.337  1.00  0.00    -0.396 OA
ATOM      7  H   UNL     1       8.604  -0.698  31.052  1.00  0.00     0.210 HD
ENDBRANCH   5   6
ENDBRANCH   1   5
TORSDOF 4
ENDMDL
MODEL 9
REMARK VINA RESULT:    -2.420     11.858     12.529
REMARK INTER + INTRA:          -2.934
REMARK INTER:                  -2.919
REMARK INTRA:                  -0.015
REMARK UNBOUND:                -0.018
REMARK SMILES CCCCCO
REMARK SMILES IDX 4 1 3 2 2 3 1 4 5 5 6 6
REMARK H PARENT 6 7
REMARK Flexibility Score: inf
ROOT
ATOM      1  C   UNL     1       9.625  -0.669  33.104  1.00  0.00     0.028 C 
ENDROOT
BRANCH   1   2
ATOM      2  C   UNL     1       8.689  -1.636  33.854  1.00  0.00     0.002 C 
BRANCH   2   3
ATOM      3  C   UNL     1       7.986  -1.039  35.084  1.00  0.00    -0.003 C 
ATOM      4  C   UNL     1       6.484  -1.322  35.109  1.00  0.00     0.004 C 
ENDBRANCH   2   3
ENDBRANCH   1   2
BRANCH   1   5
ATOM      5  C   UNL     1       9.100  -0.249  31.726  1.00  0.00     0.156 C 
BRANCH   5   6
ATOM      6  O   UNL     1       9.766  -0.955  30.716  1.00  0.00    -0.396 OA
ATOM      7  H   UNL     1       9.534  -0.501  29.864  1.00  0.00     0.210 HD
ENDBRANCH   5   6
ENDBRANCH   1   5
TORSDOF 4
ENDMDL
