MODEL 1
REMARK VINA RESULT:    -3.962      0.000      0.000
REMARK INTER + INTRA:         -13.761
REMARK INTER:                  -9.405
REMARK INTRA:                  -4.357
REMARK UNBOUND:                -4.357
REMARK SMILES O=C(OC[C@H]1O[C@H](OC(=O)c2cc(O)c(O)c(O)c2)[C@H](OC(=O)c2cc(O)c(O)c(O)c2)[C@@H](OC(=O)c2cc(O)c(O)c(O)c2)[C@H]1OC(=O)c1cc(O)c(O)c(O)c1)c1cc(O)c(O)c(O)c1
REMARK SMILES IDX 5 1 46 2 33 3 20 4 7 5 6 6 4 7 3 8 2 9 1 10 59 11 60 12
REMARK SMILES IDX 61 13 67 14 63 15 65 16 62 17 64 19 66 21 47 23 48 24 49 25
REMARK SMILES IDX 50 26 58 27 51 28 56 29 52 30 54 31 57 32 53 34 55 36 34 38
REMARK SMILES IDX 35 39 36 40 37 41 45 42 38 43 43 44 39 45 41 46 44 47 40 49
REMARK SMILES IDX 42 51 8 53 9 54 10 55 11 56 19 57 12 58 17 59 13 60 15 61
REMARK SMILES IDX 18 62 14 64 16 66 21 68 22 69 23 70 24 71 32 72 25 73 30 74
REMARK SMILES IDX 26 75 28 76 31 77 27 79 29 81
REMARK H PARENT 62 18 64 20 66 22 57 33 53 35 55 37 44 48 40 50 42 52 18 63
REMARK H PARENT 14 65 16 67 31 78 27 80 29 82
REMARK Flexibility Score: inf
ROOT
ATOM      1  C   UNL     1       3.607  22.600  54.435  1.00  0.00     0.205 C 
ATOM      2  C   UNL     1       2.481  23.295  55.221  1.00  0.00     0.254 C 
ATOM      3  C   UNL     1       1.657  24.111  54.218  1.00  0.00     0.267 C 
ATOM      4  C   UNL     1       1.124  23.182  53.111  1.00  0.00     0.290 C 
ATOM      5  C   UNL     1       2.294  22.380  52.499  1.00  0.00     0.357 C 
ATOM      6  O   UNL     1       3.055  21.696  53.487  1.00  0.00    -0.329 OA
ENDROOT
BRANCH   1   7
ATOM      7  C   UNL     1       4.577  21.836  55.355  1.00  0.00     0.269 C 
BRANCH   7   8
ATOM      8  O   UNL     1       4.920  22.656  56.469  1.00  0.00    -0.459 OA
BRANCH   8   9
ATOM      9  C   UNL     1       6.089  22.456  57.216  1.00  0.00     0.338 C 
ATOM     10  O   UNL     1       6.685  23.447  57.729  1.00  0.00    -0.246 OA
BRANCH   9  11
ATOM     11  C   UNL     1       6.641  21.095  57.374  1.00  0.00     0.067 A 
ATOM     12  C   UNL     1       7.605  20.615  56.477  1.00  0.00     0.066 A 
ATOM     13  C   UNL     1       8.098  19.312  56.582  1.00  0.00     0.162 A 
ATOM     14  C   UNL     1       6.173  20.249  58.400  1.00  0.00     0.066 A 
ATOM     15  C   UNL     1       7.600  18.453  57.590  1.00  0.00     0.200 A 
ATOM     16  C   UNL     1       6.641  18.935  58.499  1.00  0.00     0.162 A 
BRANCH  13  17
ATOM     17  O   UNL     1       9.084  18.919  55.677  1.00  0.00    -0.504 OA
ATOM     18  H   UNL     1       8.939  18.864  54.683  1.00  0.00     0.293 HD
ENDBRANCH  13  17
BRANCH  15  19
ATOM     19  O   UNL     1       8.028  17.127  57.711  1.00  0.00    -0.502 OA
ATOM     20  H   UNL     1       8.820  16.830  58.260  1.00  0.00     0.293 HD
ENDBRANCH  15  19
BRANCH  16  21
ATOM     21  O   UNL     1       6.133  18.119  59.511  1.00  0.00    -0.504 OA
ATOM     22  H   UNL     1       5.266  18.332  59.988  1.00  0.00     0.293 HD
ENDBRANCH  16  21
ENDBRANCH   9  11
ENDBRANCH   8   9
ENDBRANCH   7   8
ENDBRANCH   1   7
BRANCH   2  23
ATOM     23  O   UNL     1       1.633  22.324  55.836  1.00  0.00    -0.452 OA
BRANCH  23  24
ATOM     24  C   UNL     1       1.210  22.381  57.172  1.00  0.00     0.338 C 
ATOM     25  O   UNL     1       0.089  22.876  57.452  1.00  0.00    -0.246 OA
BRANCH  24  26
ATOM     26  C   UNL     1       2.083  21.839  58.236  1.00  0.00     0.067 A 
ATOM     27  C   UNL     1       2.785  22.699  59.101  1.00  0.00     0.066 A 
ATOM     28  C   UNL     1       2.264  20.452  58.359  1.00  0.00     0.066 A 
ATOM     29  C   UNL     1       3.666  22.180  60.065  1.00  0.00     0.162 A 
ATOM     30  C   UNL     1       3.132  19.930  59.324  1.00  0.00     0.162 A 
ATOM     31  C   UNL     1       3.837  20.790  60.179  1.00  0.00     0.200 A 
BRANCH  29  32
ATOM     32  O   UNL     1       4.373  23.038  60.903  1.00  0.00    -0.504 OA
ATOM     33  H   UNL     1       5.089  22.693  61.532  1.00  0.00     0.293 HD
ENDBRANCH  29  32
BRANCH  30  34
ATOM     34  O   UNL     1       3.286  18.549  59.413  1.00  0.00    -0.504 OA
ATOM     35  H   UNL     1       3.577  17.986  58.619  1.00  0.00     0.293 HD
ENDBRANCH  30  34
BRANCH  31  36
ATOM     36  O   UNL     1       4.706  20.249  61.125  1.00  0.00    -0.502 OA
ATOM     37  H   UNL     1       5.627  20.631  61.295  1.00  0.00     0.293 HD
ENDBRANCH  31  36
ENDBRANCH  24  26
ENDBRANCH  23  24
ENDBRANCH   2  23
BRANCH   3  38
ATOM     38  O   UNL     1       0.591  24.788  54.883  1.00  0.00    -0.450 OA
BRANCH  38  39
ATOM     39  C   UNL     1       0.770  26.010  55.546  1.00  0.00     0.338 C 
ATOM     40  O   UNL     1       0.342  27.078  55.028  1.00  0.00    -0.246 OA
BRANCH  39  41
ATOM     41  C   UNL     1       1.442  26.050  56.863  1.00  0.00     0.067 A 
ATOM     42  C   UNL     1       0.708  26.339  58.027  1.00  0.00     0.066 A 
ATOM     43  C   UNL     1       2.820  25.796  56.966  1.00  0.00     0.066 A 
ATOM     44  C   UNL     1       1.339  26.379  59.273  1.00  0.00     0.162 A 
ATOM     45  C   UNL     1       3.463  25.837  58.207  1.00  0.00     0.162 A 
ATOM     46  C   UNL     1       2.719  26.142  59.376  1.00  0.00     0.200 A 
BRANCH  44  47
ATOM     47  O   UNL     1       0.590  26.655  60.419  1.00  0.00    -0.504 OA
ATOM     48  H   UNL     1       0.387  25.936  61.109  1.00  0.00     0.293 HD
ENDBRANCH  44  47
BRANCH  45  49
ATOM     49  O   UNL     1       4.833  25.574  58.232  1.00  0.00    -0.504 OA
ATOM     50  H   UNL     1       5.239  24.714  58.571  1.00  0.00     0.293 HD
ENDBRANCH  45  49
BRANCH  46  51
ATOM     51  O   UNL     1       3.301  26.222  60.644  1.00  0.00    -0.502 OA
ATOM     52  H   UNL     1       3.872  27.002  60.952  1.00  0.00     0.293 HD
ENDBRANCH  46  51
ENDBRANCH  39  41
ENDBRANCH  38  39
ENDBRANCH   3  38
BRANCH   5  53
ATOM     53  O   UNL     1       3.127  23.232  51.714  1.00  0.00    -0.428 OA
BRANCH  53  54
ATOM     54  C   UNL     1       4.360  22.831  51.189  1.00  0.00     0.340 C 
ATOM     55  O   UNL     1       4.508  21.679  50.705  1.00  0.00    -0.246 OA
BRANCH  54  56
ATOM     56  C   UNL     1       5.490  23.774  51.200  1.00  0.00     0.067 A 
ATOM     57  C   UNL     1       5.412  24.994  50.516  1.00  0.00     0.066 A 
ATOM     58  C   UNL     1       6.653  23.460  51.911  1.00  0.00     0.066 A 
ATOM     59  C   UNL     1       6.466  25.915  50.563  1.00  0.00     0.162 A 
ATOM     60  C   UNL     1       7.727  24.350  51.947  1.00  0.00     0.162 A 
ATOM     61  C   UNL     1       7.642  25.594  51.288  1.00  0.00     0.200 A 
BRANCH  59  62
ATOM     62  O   UNL     1       6.297  27.125  49.882  1.00  0.00    -0.504 OA
ATOM     63  H   UNL     1       5.972  27.196  48.925  1.00  0.00     0.293 HD
ENDBRANCH  59  62
BRANCH  60  64
ATOM     64  O   UNL     1       8.879  23.975  52.640  1.00  0.00    -0.504 OA
ATOM     65  H   UNL     1       9.195  24.474  53.465  1.00  0.00     0.293 HD
ENDBRANCH  60  64
BRANCH  61  66
ATOM     66  O   UNL     1       8.728  26.478  51.379  1.00  0.00    -0.502 OA
ATOM     67  H   UNL     1       9.683  26.227  51.161  1.00  0.00     0.293 HD
ENDBRANCH  61  66
ENDBRANCH  54  56
ENDBRANCH  53  54
ENDBRANCH   5  53
BRANCH   4  68
ATOM     68  O   UNL     1       0.521  23.952  52.072  1.00  0.00    -0.448 OA
BRANCH  68  69
ATOM     69  C   UNL     1       0.388  23.519  50.750  1.00  0.00     0.339 C 
ATOM     70  O   UNL     1      -0.229  22.449  50.489  1.00  0.00    -0.246 OA
BRANCH  69  71
ATOM     71  C   UNL     1       0.987  24.317  49.659  1.00  0.00     0.067 A 
ATOM     72  C   UNL     1       1.882  25.358  49.936  1.00  0.00     0.066 A 
ATOM     73  C   UNL     1       0.670  24.033  48.321  1.00  0.00     0.066 A 
ATOM     74  C   UNL     1       2.467  26.098  48.897  1.00  0.00     0.162 A 
ATOM     75  C   UNL     1       1.249  24.762  47.278  1.00  0.00     0.162 A 
ATOM     76  C   UNL     1       2.151  25.798  47.562  1.00  0.00     0.200 A 
BRANCH  74  77
ATOM     77  O   UNL     1       3.367  27.123  49.186  1.00  0.00    -0.504 OA
ATOM     78  H   UNL     1       3.790  27.681  48.451  1.00  0.00     0.293 HD
ENDBRANCH  74  77
BRANCH  75  79
ATOM     79  O   UNL     1       0.917  24.440  45.961  1.00  0.00    -0.504 OA
ATOM     80  H   UNL     1      -0.020  24.550  45.597  1.00  0.00     0.293 HD
ENDBRANCH  75  79
BRANCH  76  81
ATOM     81  O   UNL     1       2.725  26.521  46.514  1.00  0.00    -0.502 OA
ATOM     82  H   UNL     1       2.496  26.350  45.547  1.00  0.00     0.293 HD
ENDBRANCH  76  81
ENDBRANCH  69  71
ENDBRANCH  68  69
ENDBRANCH   4  68
TORSDOF 31
ENDMDL
MODEL 2
REMARK VINA RESULT:    -3.868      1.937      6.765
REMARK INTER + INTRA:         -13.539
REMARK INTER:                 -11.998
REMARK INTRA:                  -1.541
REMARK UNBOUND:                -4.357
REMARK SMILES O=C(OC[C@H]1O[C@H](OC(=O)c2cc(O)c(O)c(O)c2)[C@H](OC(=O)c2cc(O)c(O)c(O)c2)[C@@H](OC(=O)c2cc(O)c(O)c(O)c2)[C@H]1OC(=O)c1cc(O)c(O)c(O)c1)c1cc(O)c(O)c(O)c1
REMARK SMILES IDX 5 1 46 2 33 3 20 4 7 5 6 6 4 7 3 8 2 9 1 10 59 11 60 12
REMARK SMILES IDX 61 13 67 14 63 15 65 16 62 17 64 19 66 21 47 23 48 24 49 25
REMARK SMILES IDX 50 26 58 27 51 28 56 29 52 30 54 31 57 32 53 34 55 36 34 38
REMARK SMILES IDX 35 39 36 40 37 41 45 42 38 43 43 44 39 45 41 46 44 47 40 49
REMARK SMILES IDX 42 51 8 53 9 54 10 55 11 56 19 57 12 58 17 59 13 60 15 61
REMARK SMILES IDX 18 62 14 64 16 66 21 68 22 69 23 70 24 71 32 72 25 73 30 74
REMARK SMILES IDX 26 75 28 76 31 77 27 79 29 81
REMARK H PARENT 62 18 64 20 66 22 57 33 53 35 55 37 44 48 40 50 42 52 18 63
REMARK H PARENT 14 65 16 67 31 78 27 80 29 82
REMARK Flexibility Score: inf
ROOT
ATOM      1  C   UNL     1       3.062  25.994  57.457  1.00  0.00     0.205 C 
ATOM      2  C   UNL     1       3.898  24.720  57.236  1.00  0.00     0.254 C 
ATOM      3  C   UNL     1       3.923  24.443  55.729  1.00  0.00     0.267 C 
ATOM      4  C   UNL     1       4.496  25.666  54.988  1.00  0.00     0.290 C 
ATOM      5  C   UNL     1       3.723  26.937  55.408  1.00  0.00     0.357 C 
ATOM      6  O   UNL     1       3.684  27.102  56.820  1.00  0.00    -0.329 OA
ENDROOT
BRANCH   1   7
ATOM      7  C   UNL     1       2.867  26.314  58.951  1.00  0.00     0.269 C 
BRANCH   7   8
ATOM      8  O   UNL     1       1.492  26.588  59.202  1.00  0.00    -0.459 OA
BRANCH   8   9
ATOM      9  C   UNL     1       0.533  25.571  59.311  1.00  0.00     0.338 C 
ATOM     10  O   UNL     1      -0.633  25.847  59.716  1.00  0.00    -0.246 OA
BRANCH   9  11
ATOM     11  C   UNL     1       0.895  24.176  58.986  1.00  0.00     0.067 A 
ATOM     12  C   UNL     1       1.484  23.354  59.957  1.00  0.00     0.066 A 
ATOM     13  C   UNL     1       1.879  22.050  59.650  1.00  0.00     0.162 A 
ATOM     14  C   UNL     1       0.694  23.671  57.686  1.00  0.00     0.066 A 
ATOM     15  C   UNL     1       1.710  21.557  58.335  1.00  0.00     0.200 A 
ATOM     16  C   UNL     1       1.109  22.375  57.360  1.00  0.00     0.162 A 
BRANCH  13  17
ATOM     17  O   UNL     1       2.422  21.280  60.679  1.00  0.00    -0.504 OA
ATOM     18  H   UNL     1       1.894  20.610  61.211  1.00  0.00     0.293 HD
ENDBRANCH  13  17
BRANCH  15  19
ATOM     19  O   UNL     1       2.128  20.275  57.964  1.00  0.00    -0.502 OA
ATOM     20  H   UNL     1       1.510  19.490  57.829  1.00  0.00     0.293 HD
ENDBRANCH  15  19
BRANCH  16  21
ATOM     21  O   UNL     1       0.918  21.920  56.056  1.00  0.00    -0.504 OA
ATOM     22  H   UNL     1       0.429  22.471  55.361  1.00  0.00     0.293 HD
ENDBRANCH  16  21
ENDBRANCH   9  11
ENDBRANCH   8   9
ENDBRANCH   7   8
ENDBRANCH   1   7
BRANCH   2  23
ATOM     23  O   UNL     1       5.236  24.920  57.693  1.00  0.00    -0.452 OA
BRANCH  23  24
ATOM     24  C   UNL     1       5.872  24.110  58.645  1.00  0.00     0.338 C 
ATOM     25  O   UNL     1       6.302  24.618  59.712  1.00  0.00    -0.246 OA
BRANCH  24  26
ATOM     26  C   UNL     1       6.014  22.660  58.389  1.00  0.00     0.067 A 
ATOM     27  C   UNL     1       5.203  21.726  59.061  1.00  0.00     0.066 A 
ATOM     28  C   UNL     1       7.005  22.194  57.509  1.00  0.00     0.066 A 
ATOM     29  C   UNL     1       5.390  20.347  58.866  1.00  0.00     0.162 A 
ATOM     30  C   UNL     1       7.187  20.823  57.304  1.00  0.00     0.162 A 
ATOM     31  C   UNL     1       6.383  19.894  57.982  1.00  0.00     0.200 A 
BRANCH  29  32
ATOM     32  O   UNL     1       4.598  19.430  59.551  1.00  0.00    -0.504 OA
ATOM     33  H   UNL     1       4.966  18.537  59.857  1.00  0.00     0.293 HD
ENDBRANCH  29  32
BRANCH  30  34
ATOM     34  O   UNL     1       8.181  20.401  56.425  1.00  0.00    -0.504 OA
ATOM     35  H   UNL     1       8.324  19.420  56.202  1.00  0.00     0.293 HD
ENDBRANCH  30  34
BRANCH  31  36
ATOM     36  O   UNL     1       6.590  18.532  57.772  1.00  0.00    -0.502 OA
ATOM     37  H   UNL     1       7.482  18.160  57.473  1.00  0.00     0.293 HD
ENDBRANCH  31  36
ENDBRANCH  24  26
ENDBRANCH  23  24
ENDBRANCH   2  23
BRANCH   3  38
ATOM     38  O   UNL     1       4.683  23.268  55.451  1.00  0.00    -0.450 OA
BRANCH  38  39
ATOM     39  C   UNL     1       4.145  22.163  54.775  1.00  0.00     0.338 C 
ATOM     40  O   UNL     1       3.961  21.076  55.387  1.00  0.00    -0.246 OA
BRANCH  39  41
ATOM     41  C   UNL     1       3.773  22.275  53.347  1.00  0.00     0.067 A 
ATOM     42  C   UNL     1       4.741  22.615  52.385  1.00  0.00     0.066 A 
ATOM     43  C   UNL     1       2.451  22.039  52.937  1.00  0.00     0.066 A 
ATOM     44  C   UNL     1       4.394  22.722  51.036  1.00  0.00     0.162 A 
ATOM     45  C   UNL     1       2.091  22.147  51.590  1.00  0.00     0.162 A 
ATOM     46  C   UNL     1       3.070  22.503  50.626  1.00  0.00     0.200 A 
BRANCH  44  47
ATOM     47  O   UNL     1       5.372  23.048  50.094  1.00  0.00    -0.504 OA
ATOM     48  H   UNL     1       6.240  23.505  50.362  1.00  0.00     0.293 HD
ENDBRANCH  44  47
BRANCH  45  49
ATOM     49  O   UNL     1       0.759  21.898  51.257  1.00  0.00    -0.504 OA
ATOM     50  H   UNL     1       0.460  21.497  50.379  1.00  0.00     0.293 HD
ENDBRANCH  45  49
BRANCH  46  51
ATOM     51  O   UNL     1       2.775  22.652  49.268  1.00  0.00    -0.502 OA
ATOM     52  H   UNL     1       3.426  23.032  48.590  1.00  0.00     0.293 HD
ENDBRANCH  46  51
ENDBRANCH  39  41
ENDBRANCH  38  39
ENDBRANCH   3  38
BRANCH   5  53
ATOM     53  O   UNL     1       2.405  26.922  54.861  1.00  0.00    -0.428 OA
BRANCH  53  54
ATOM     54  C   UNL     1       1.699  25.746  54.588  1.00  0.00     0.340 C 
ATOM     55  O   UNL     1       2.243  24.801  53.961  1.00  0.00    -0.246 OA
BRANCH  54  56
ATOM     56  C   UNL     1       0.307  25.618  55.048  1.00  0.00     0.067 A 
ATOM     57  C   UNL     1      -0.565  24.701  54.448  1.00  0.00     0.066 A 
ATOM     58  C   UNL     1      -0.153  26.408  56.107  1.00  0.00     0.066 A 
ATOM     59  C   UNL     1      -1.877  24.542  54.914  1.00  0.00     0.162 A 
ATOM     60  C   UNL     1      -1.464  26.288  56.569  1.00  0.00     0.162 A 
ATOM     61  C   UNL     1      -2.337  25.343  55.990  1.00  0.00     0.200 A 
BRANCH  59  62
ATOM     62  O   UNL     1      -2.674  23.581  54.284  1.00  0.00    -0.504 OA
ATOM     63  H   UNL     1      -3.551  23.788  53.819  1.00  0.00     0.293 HD
ENDBRANCH  59  62
BRANCH  60  64
ATOM     64  O   UNL     1      -1.884  27.124  57.603  1.00  0.00    -0.504 OA
ATOM     65  H   UNL     1      -2.297  26.758  58.456  1.00  0.00     0.293 HD
ENDBRANCH  60  64
BRANCH  61  66
ATOM     66  O   UNL     1      -3.636  25.225  56.506  1.00  0.00    -0.502 OA
ATOM     67  H   UNL     1      -4.084  25.925  57.082  1.00  0.00     0.293 HD
ENDBRANCH  61  66
ENDBRANCH  54  56
ENDBRANCH  53  54
ENDBRANCH   5  53
BRANCH   4  68
ATOM     68  O   UNL     1       4.348  25.501  53.579  1.00  0.00    -0.448 OA
BRANCH  68  69
ATOM     69  C   UNL     1       4.830  26.403  52.626  1.00  0.00     0.339 C 
ATOM     70  O   UNL     1       5.834  27.125  52.884  1.00  0.00    -0.246 OA
BRANCH  69  71
ATOM     71  C   UNL     1       4.148  26.517  51.320  1.00  0.00     0.067 A 
ATOM     72  C   UNL     1       4.871  26.781  50.150  1.00  0.00     0.066 A 
ATOM     73  C   UNL     1       2.756  26.352  51.235  1.00  0.00     0.066 A 
ATOM     74  C   UNL     1       4.223  26.866  48.909  1.00  0.00     0.162 A 
ATOM     75  C   UNL     1       2.100  26.432  50.003  1.00  0.00     0.162 A 
ATOM     76  C   UNL     1       2.831  26.688  48.833  1.00  0.00     0.200 A 
BRANCH  74  77
ATOM     77  O   UNL     1       4.956  27.116  47.749  1.00  0.00    -0.504 OA
ATOM     78  H   UNL     1       4.868  26.526  46.928  1.00  0.00     0.293 HD
ENDBRANCH  74  77
BRANCH  75  79
ATOM     79  O   UNL     1       0.717  26.250  49.959  1.00  0.00    -0.504 OA
ATOM     80  H   UNL     1       0.294  25.335  49.873  1.00  0.00     0.293 HD
ENDBRANCH  75  79
BRANCH  76  81
ATOM     81  O   UNL     1       2.168  26.765  47.607  1.00  0.00    -0.502 OA
ATOM     82  H   UNL     1       2.659  26.839  46.728  1.00  0.00     0.293 HD
ENDBRANCH  76  81
ENDBRANCH  69  71
ENDBRANCH  68  69
ENDBRANCH   4  68
TORSDOF 31
ENDMDL
MODEL 3
REMARK VINA RESULT:    -2.957      1.565      3.176
REMARK INTER + INTRA:         -11.376
REMARK INTER:                 -11.798
REMARK INTRA:                   0.422
REMARK UNBOUND:                -4.357
REMARK SMILES O=C(OC[C@H]1O[C@H](OC(=O)c2cc(O)c(O)c(O)c2)[C@H](OC(=O)c2cc(O)c(O)c(O)c2)[C@@H](OC(=O)c2cc(O)c(O)c(O)c2)[C@H]1OC(=O)c1cc(O)c(O)c(O)c1)c1cc(O)c(O)c(O)c1
REMARK SMILES IDX 5 1 46 2 33 3 20 4 7 5 6 6 4 7 3 8 2 9 1 10 59 11 60 12
REMARK SMILES IDX 61 13 67 14 63 15 65 16 62 17 64 19 66 21 47 23 48 24 49 25
REMARK SMILES IDX 50 26 58 27 51 28 56 29 52 30 54 31 57 32 53 34 55 36 34 38
REMARK SMILES IDX 35 39 36 40 37 41 45 42 38 43 43 44 39 45 41 46 44 47 40 49
REMARK SMILES IDX 42 51 8 53 9 54 10 55 11 56 19 57 12 58 17 59 13 60 15 61
REMARK SMILES IDX 18 62 14 64 16 66 21 68 22 69 23 70 24 71 32 72 25 73 30 74
REMARK SMILES IDX 26 75 28 76 31 77 27 79 29 81
REMARK H PARENT 62 18 64 20 66 22 57 33 53 35 55 37 44 48 40 50 42 52 18 63
REMARK H PARENT 14 65 16 67 31 78 27 80 29 82
REMARK Flexibility Score: inf
ROOT
ATOM      1  C   UNL     1       5.031  23.151  54.755  1.00  0.00     0.205 C 
ATOM      2  C   UNL     1       4.059  24.337  54.627  1.00  0.00     0.254 C 
ATOM      3  C   UNL     1       3.429  24.267  53.231  1.00  0.00     0.267 C 
ATOM      4  C   UNL     1       2.732  22.906  53.046  1.00  0.00     0.290 C 
ATOM      5  C   UNL     1       3.724  21.767  53.376  1.00  0.00     0.357 C 
ATOM      6  O   UNL     1       4.319  21.924  54.658  1.00  0.00    -0.329 OA
ENDROOT
BRANCH   1   7
ATOM      7  C   UNL     1       5.815  23.177  56.079  1.00  0.00     0.269 C 
BRANCH   7   8
ATOM      8  O   UNL     1       5.342  22.139  56.932  1.00  0.00    -0.459 OA
BRANCH   8   9
ATOM      9  C   UNL     1       6.085  20.978  57.185  1.00  0.00     0.338 C 
ATOM     10  O   UNL     1       7.190  20.797  56.596  1.00  0.00    -0.246 OA
BRANCH   9  11
ATOM     11  C   UNL     1       5.562  19.954  58.113  1.00  0.00     0.067 A 
ATOM     12  C   UNL     1       6.433  19.041  58.722  1.00  0.00     0.066 A 
ATOM     13  C   UNL     1       5.948  18.035  59.560  1.00  0.00     0.162 A 
ATOM     14  C   UNL     1       4.178  19.857  58.361  1.00  0.00     0.066 A 
ATOM     15  C   UNL     1       4.555  17.915  59.779  1.00  0.00     0.200 A 
ATOM     16  C   UNL     1       3.678  18.837  59.179  1.00  0.00     0.162 A 
BRANCH  13  17
ATOM     17  O   UNL     1       6.880  17.188  60.160  1.00  0.00    -0.504 OA
ATOM     18  H   UNL     1       6.631  16.361  60.676  1.00  0.00     0.293 HD
ENDBRANCH  13  17
BRANCH  15  19
ATOM     19  O   UNL     1       4.015  16.899  60.574  1.00  0.00    -0.502 OA
ATOM     20  H   UNL     1       3.758  17.008  61.544  1.00  0.00     0.293 HD
ENDBRANCH  15  19
BRANCH  16  21
ATOM     21  O   UNL     1       2.300  18.756  59.379  1.00  0.00    -0.504 OA
ATOM     22  H   UNL     1       1.717  19.582  59.442  1.00  0.00     0.293 HD
ENDBRANCH  16  21
ENDBRANCH   9  11
ENDBRANCH   8   9
ENDBRANCH   7   8
ENDBRANCH   1   7
BRANCH   2  23
ATOM     23  O   UNL     1       3.025  24.239  55.608  1.00  0.00    -0.452 OA
BRANCH  23  24
ATOM     24  C   UNL     1       3.140  24.709  56.923  1.00  0.00     0.338 C 
ATOM     25  O   UNL     1       3.577  25.869  57.138  1.00  0.00    -0.246 OA
BRANCH  24  26
ATOM     26  C   UNL     1       2.726  23.839  58.047  1.00  0.00     0.067 A 
ATOM     27  C   UNL     1       3.642  23.475  59.052  1.00  0.00     0.066 A 
ATOM     28  C   UNL     1       1.422  23.319  58.091  1.00  0.00     0.066 A 
ATOM     29  C   UNL     1       3.262  22.593  60.078  1.00  0.00     0.162 A 
ATOM     30  C   UNL     1       1.037  22.449  59.117  1.00  0.00     0.162 A 
ATOM     31  C   UNL     1       1.955  22.081  60.112  1.00  0.00     0.200 A 
BRANCH  29  32
ATOM     32  O   UNL     1       4.180  22.221  61.057  1.00  0.00    -0.504 OA
ATOM     33  H   UNL     1       4.785  22.902  61.502  1.00  0.00     0.293 HD
ENDBRANCH  29  32
BRANCH  30  34
ATOM     34  O   UNL     1      -0.264  21.954  59.124  1.00  0.00    -0.504 OA
ATOM     35  H   UNL     1      -1.037  22.461  58.705  1.00  0.00     0.293 HD
ENDBRANCH  30  34
BRANCH  31  36
ATOM     36  O   UNL     1       1.553  21.204  61.117  1.00  0.00    -0.502 OA
ATOM     37  H   UNL     1       2.204  20.593  61.595  1.00  0.00     0.293 HD
ENDBRANCH  31  36
ENDBRANCH  24  26
ENDBRANCH  23  24
ENDBRANCH   2  23
BRANCH   3  38
ATOM     38  O   UNL     1       2.514  25.346  53.043  1.00  0.00    -0.450 OA
BRANCH  38  39
ATOM     39  C   UNL     1       2.090  26.169  54.096  1.00  0.00     0.338 C 
ATOM     40  O   UNL     1       2.817  27.125  54.482  1.00  0.00    -0.246 OA
BRANCH  39  41
ATOM     41  C   UNL     1       0.780  25.934  54.743  1.00  0.00     0.067 A 
ATOM     42  C   UNL     1       0.430  26.632  55.912  1.00  0.00     0.066 A 
ATOM     43  C   UNL     1      -0.128  25.014  54.195  1.00  0.00     0.066 A 
ATOM     44  C   UNL     1      -0.805  26.412  56.527  1.00  0.00     0.162 A 
ATOM     45  C   UNL     1      -1.366  24.782  54.803  1.00  0.00     0.162 A 
ATOM     46  C   UNL     1      -1.708  25.481  55.990  1.00  0.00     0.200 A 
BRANCH  44  47
ATOM     47  O   UNL     1      -1.141  27.125  57.680  1.00  0.00    -0.504 OA
ATOM     48  H   UNL     1      -0.938  28.117  57.772  1.00  0.00     0.293 HD
ENDBRANCH  44  47
BRANCH  45  49
ATOM     49  O   UNL     1      -2.216  23.854  54.202  1.00  0.00    -0.504 OA
ATOM     50  H   UNL     1      -3.211  23.987  54.090  1.00  0.00     0.293 HD
ENDBRANCH  45  49
BRANCH  46  51
ATOM     51  O   UNL     1      -2.917  25.282  56.663  1.00  0.00    -0.502 OA
ATOM     52  H   UNL     1      -3.410  24.396  56.683  1.00  0.00     0.293 HD
ENDBRANCH  46  51
ENDBRANCH  39  41
ENDBRANCH  38  39
ENDBRANCH   3  38
BRANCH   5  53
ATOM     53  O   UNL     1       4.722  21.665  52.361  1.00  0.00    -0.428 OA
BRANCH  53  54
ATOM     54  C   UNL     1       4.785  22.521  51.256  1.00  0.00     0.340 C 
ATOM     55  O   UNL     1       4.028  22.349  50.266  1.00  0.00    -0.246 OA
BRANCH  54  56
ATOM     56  C   UNL     1       5.745  23.636  51.262  1.00  0.00     0.067 A 
ATOM     57  C   UNL     1       7.009  23.491  51.846  1.00  0.00     0.066 A 
ATOM     58  C   UNL     1       5.401  24.855  50.666  1.00  0.00     0.066 A 
ATOM     59  C   UNL     1       7.943  24.535  51.812  1.00  0.00     0.162 A 
ATOM     60  C   UNL     1       6.305  25.918  50.646  1.00  0.00     0.162 A 
ATOM     61  C   UNL     1       7.592  25.767  51.204  1.00  0.00     0.200 A 
BRANCH  59  62
ATOM     62  O   UNL     1       9.196  24.298  52.387  1.00  0.00    -0.504 OA
ATOM     63  H   UNL     1       9.502  24.702  53.265  1.00  0.00     0.293 HD
ENDBRANCH  59  62
BRANCH  60  64
ATOM     64  O   UNL     1       5.902  27.124  50.072  1.00  0.00    -0.504 OA
ATOM     65  H   UNL     1       6.480  27.957  50.110  1.00  0.00     0.293 HD
ENDBRANCH  60  64
BRANCH  61  66
ATOM     66  O   UNL     1       8.486  26.845  51.132  1.00  0.00    -0.502 OA
ATOM     67  H   UNL     1       9.282  26.964  51.744  1.00  0.00     0.293 HD
ENDBRANCH  61  66
ENDBRANCH  54  56
ENDBRANCH  53  54
ENDBRANCH   5  53
BRANCH   4  68
ATOM     68  O   UNL     1       2.311  22.750  51.693  1.00  0.00    -0.448 OA
BRANCH  68  69
ATOM     69  C   UNL     1       1.246  23.448  51.115  1.00  0.00     0.339 C 
ATOM     70  O   UNL     1       0.095  23.397  51.634  1.00  0.00    -0.246 OA
BRANCH  69  71
ATOM     71  C   UNL     1       1.473  24.235  49.885  1.00  0.00     0.067 A 
ATOM     72  C   UNL     1       0.775  23.947  48.706  1.00  0.00     0.066 A 
ATOM     73  C   UNL     1       2.393  25.296  49.886  1.00  0.00     0.066 A 
ATOM     74  C   UNL     1       0.977  24.710  47.546  1.00  0.00     0.162 A 
ATOM     75  C   UNL     1       2.600  26.065  48.737  1.00  0.00     0.162 A 
ATOM     76  C   UNL     1       1.891  25.776  47.561  1.00  0.00     0.200 A 
BRANCH  74  77
ATOM     77  O   UNL     1       0.265  24.420  46.382  1.00  0.00    -0.504 OA
ATOM     78  H   UNL     1       0.200  23.474  46.022  1.00  0.00     0.293 HD
ENDBRANCH  74  77
BRANCH  75  79
ATOM     79  O   UNL     1       3.515  27.119  48.783  1.00  0.00    -0.504 OA
ATOM     80  H   UNL     1       3.497  27.880  48.117  1.00  0.00     0.293 HD
ENDBRANCH  75  79
BRANCH  76  81
ATOM     81  O   UNL     1       2.103  26.550  46.418  1.00  0.00    -0.502 OA
ATOM     82  H   UNL     1       1.509  26.491  45.605  1.00  0.00     0.293 HD
ENDBRANCH  76  81
ENDBRANCH  69  71
ENDBRANCH  68  69
ENDBRANCH   4  68
TORSDOF 31
ENDMDL
MODEL 4
REMARK VINA RESULT:    -2.475      2.505      8.403
REMARK INTER + INTRA:         -10.233
REMARK INTER:                  -9.399
REMARK INTRA:                  -0.834
REMARK UNBOUND:                -4.357
REMARK SMILES O=C(OC[C@H]1O[C@H](OC(=O)c2cc(O)c(O)c(O)c2)[C@H](OC(=O)c2cc(O)c(O)c(O)c2)[C@@H](OC(=O)c2cc(O)c(O)c(O)c2)[C@H]1OC(=O)c1cc(O)c(O)c(O)c1)c1cc(O)c(O)c(O)c1
REMARK SMILES IDX 5 1 46 2 33 3 20 4 7 5 6 6 4 7 3 8 2 9 1 10 59 11 60 12
REMARK SMILES IDX 61 13 67 14 63 15 65 16 62 17 64 19 66 21 47 23 48 24 49 25
REMARK SMILES IDX 50 26 58 27 51 28 56 29 52 30 54 31 57 32 53 34 55 36 34 38
REMARK SMILES IDX 35 39 36 40 37 41 45 42 38 43 43 44 39 45 41 46 44 47 40 49
REMARK SMILES IDX 42 51 8 53 9 54 10 55 11 56 19 57 12 58 17 59 13 60 15 61
REMARK SMILES IDX 18 62 14 64 16 66 21 68 22 69 23 70 24 71 32 72 25 73 30 74
REMARK SMILES IDX 26 75 28 76 31 77 27 79 29 81
REMARK H PARENT 62 18 64 20 66 22 57 33 53 35 55 37 44 48 40 50 42 52 18 63
REMARK H PARENT 14 65 16 67 31 78 27 80 29 82
REMARK Flexibility Score: inf
ROOT
ATOM      1  C   UNL     1       5.905  25.414  52.234  1.00  0.00     0.205 C 
ATOM      2  C   UNL     1       5.799  23.879  52.188  1.00  0.00     0.254 C 
ATOM      3  C   UNL     1       4.732  23.462  53.206  1.00  0.00     0.267 C 
ATOM      4  C   UNL     1       3.400  24.159  52.874  1.00  0.00     0.290 C 
ATOM      5  C   UNL     1       3.629  25.683  52.751  1.00  0.00     0.357 C 
ATOM      6  O   UNL     1       4.672  26.000  51.838  1.00  0.00    -0.329 OA
ENDROOT
BRANCH   1   7
ATOM      7  C   UNL     1       7.032  25.950  51.331  1.00  0.00     0.269 C 
BRANCH   7   8
ATOM      8  O   UNL     1       8.238  26.045  52.083  1.00  0.00    -0.459 OA
BRANCH   8   9
ATOM      9  C   UNL     1       9.301  25.147  51.913  1.00  0.00     0.338 C 
ATOM     10  O   UNL     1       9.067  23.911  51.788  1.00  0.00    -0.246 OA
BRANCH   9  11
ATOM     11  C   UNL     1      10.693  25.643  51.914  1.00  0.00     0.067 A 
ATOM     12  C   UNL     1      11.259  26.160  50.742  1.00  0.00     0.066 A 
ATOM     13  C   UNL     1      12.590  26.584  50.714  1.00  0.00     0.162 A 
ATOM     14  C   UNL     1      11.479  25.560  53.081  1.00  0.00     0.066 A 
ATOM     15  C   UNL     1      13.389  26.466  51.875  1.00  0.00     0.200 A 
ATOM     16  C   UNL     1      12.821  25.958  53.057  1.00  0.00     0.162 A 
BRANCH  13  17
ATOM     17  O   UNL     1      13.071  27.125  49.520  1.00  0.00    -0.504 OA
ATOM     18  H   UNL     1      12.903  26.717  48.616  1.00  0.00     0.293 HD
ENDBRANCH  13  17
BRANCH  15  19
ATOM     19  O   UNL     1      14.738  26.836  51.888  1.00  0.00    -0.502 OA
ATOM     20  H   UNL     1      15.418  26.538  51.205  1.00  0.00     0.293 HD
ENDBRANCH  15  19
BRANCH  16  21
ATOM     21  O   UNL     1      13.574  25.835  54.225  1.00  0.00    -0.504 OA
ATOM     22  H   UNL     1      13.739  26.620  54.843  1.00  0.00     0.293 HD
ENDBRANCH  16  21
ENDBRANCH   9  11
ENDBRANCH   8   9
ENDBRANCH   7   8
ENDBRANCH   1   7
BRANCH   2  23
ATOM     23  O   UNL     1       5.394  23.448  50.888  1.00  0.00    -0.452 OA
BRANCH  23  24
ATOM     24  C   UNL     1       4.208  22.748  50.624  1.00  0.00     0.338 C 
ATOM     25  O   UNL     1       3.944  21.700  51.266  1.00  0.00    -0.246 OA
BRANCH  24  26
ATOM     26  C   UNL     1       3.270  23.264  49.602  1.00  0.00     0.067 A 
ATOM     27  C   UNL     1       3.244  22.717  48.306  1.00  0.00     0.066 A 
ATOM     28  C   UNL     1       2.429  24.348  49.903  1.00  0.00     0.066 A 
ATOM     29  C   UNL     1       2.400  23.256  47.320  1.00  0.00     0.162 A 
ATOM     30  C   UNL     1       1.579  24.881  48.928  1.00  0.00     0.162 A 
ATOM     31  C   UNL     1       1.563  24.340  47.633  1.00  0.00     0.200 A 
BRANCH  29  32
ATOM     32  O   UNL     1       2.396  22.724  46.033  1.00  0.00    -0.504 OA
ATOM     33  H   UNL     1       2.914  23.159  45.279  1.00  0.00     0.293 HD
ENDBRANCH  29  32
BRANCH  30  34
ATOM     34  O   UNL     1       0.762  25.957  49.264  1.00  0.00    -0.504 OA
ATOM     35  H   UNL     1       0.656  26.765  48.658  1.00  0.00     0.293 HD
ENDBRANCH  30  34
BRANCH  31  36
ATOM     36  O   UNL     1       0.717  24.894  46.674  1.00  0.00    -0.502 OA
ATOM     37  H   UNL     1       0.926  25.768  46.208  1.00  0.00     0.293 HD
ENDBRANCH  31  36
ENDBRANCH  24  26
ENDBRANCH  23  24
ENDBRANCH   2  23
BRANCH   3  38
ATOM     38  O   UNL     1       4.583  22.042  53.218  1.00  0.00    -0.450 OA
BRANCH  38  39
ATOM     39  C   UNL     1       4.649  21.286  54.397  1.00  0.00     0.338 C 
ATOM     40  O   UNL     1       4.519  20.032  54.351  1.00  0.00    -0.246 OA
BRANCH  39  41
ATOM     41  C   UNL     1       4.892  21.953  55.696  1.00  0.00     0.067 A 
ATOM     42  C   UNL     1       3.812  22.387  56.484  1.00  0.00     0.066 A 
ATOM     43  C   UNL     1       6.202  22.155  56.156  1.00  0.00     0.066 A 
ATOM     44  C   UNL     1       4.036  23.018  57.710  1.00  0.00     0.162 A 
ATOM     45  C   UNL     1       6.441  22.789  57.380  1.00  0.00     0.162 A 
ATOM     46  C   UNL     1       5.346  23.236  58.165  1.00  0.00     0.200 A 
BRANCH  44  47
ATOM     47  O   UNL     1       2.950  23.430  58.486  1.00  0.00    -0.504 OA
ATOM     48  H   UNL     1       3.071  24.032  59.296  1.00  0.00     0.293 HD
ENDBRANCH  44  47
BRANCH  45  49
ATOM     49  O   UNL     1       7.769  22.956  57.772  1.00  0.00    -0.504 OA
ATOM     50  H   UNL     1       8.504  23.278  57.159  1.00  0.00     0.293 HD
ENDBRANCH  45  49
BRANCH  46  51
ATOM     51  O   UNL     1       5.511  23.897  59.386  1.00  0.00    -0.502 OA
ATOM     52  H   UNL     1       6.407  24.219  59.734  1.00  0.00     0.293 HD
ENDBRANCH  46  51
ENDBRANCH  39  41
ENDBRANCH  38  39
ENDBRANCH   3  38
BRANCH   5  53
ATOM     53  O   UNL     1       3.883  26.254  54.034  1.00  0.00    -0.428 OA
BRANCH  53  54
ATOM     54  C   UNL     1       2.874  26.736  54.875  1.00  0.00     0.340 C 
ATOM     55  O   UNL     1       1.776  27.125  54.402  1.00  0.00    -0.246 OA
BRANCH  54  56
ATOM     56  C   UNL     1       3.106  26.779  56.328  1.00  0.00     0.067 A 
ATOM     57  C   UNL     1       2.031  26.775  57.226  1.00  0.00     0.066 A 
ATOM     58  C   UNL     1       4.414  26.811  56.825  1.00  0.00     0.066 A 
ATOM     59  C   UNL     1       2.248  26.769  58.610  1.00  0.00     0.162 A 
ATOM     60  C   UNL     1       4.653  26.835  58.199  1.00  0.00     0.162 A 
ATOM     61  C   UNL     1       3.575  26.797  59.109  1.00  0.00     0.200 A 
BRANCH  59  62
ATOM     62  O   UNL     1       1.122  26.730  59.439  1.00  0.00    -0.504 OA
ATOM     63  H   UNL     1       1.121  26.340  60.375  1.00  0.00     0.293 HD
ENDBRANCH  59  62
BRANCH  60  64
ATOM     64  O   UNL     1       5.973  26.903  58.643  1.00  0.00    -0.504 OA
ATOM     65  H   UNL     1       6.306  27.666  59.224  1.00  0.00     0.293 HD
ENDBRANCH  60  64
BRANCH  61  66
ATOM     66  O   UNL     1       3.856  26.785  60.483  1.00  0.00    -0.502 OA
ATOM     67  H   UNL     1       3.568  26.050  61.114  1.00  0.00     0.293 HD
ENDBRANCH  61  66
ENDBRANCH  54  56
ENDBRANCH  53  54
ENDBRANCH   5  53
BRANCH   4  68
ATOM     68  O   UNL     1       2.454  23.934  53.917  1.00  0.00    -0.448 OA
BRANCH  68  69
ATOM     69  C   UNL     1       1.068  24.027  53.756  1.00  0.00     0.339 C 
ATOM     70  O   UNL     1       0.571  24.190  52.607  1.00  0.00    -0.246 OA
BRANCH  69  71
ATOM     71  C   UNL     1       0.190  23.947  54.942  1.00  0.00     0.067 A 
ATOM     72  C   UNL     1      -1.044  24.609  54.971  1.00  0.00     0.066 A 
ATOM     73  C   UNL     1       0.582  23.195  56.061  1.00  0.00     0.066 A 
ATOM     74  C   UNL     1      -1.884  24.513  56.090  1.00  0.00     0.162 A 
ATOM     75  C   UNL     1      -0.249  23.089  57.180  1.00  0.00     0.162 A 
ATOM     76  C   UNL     1      -1.487  23.748  57.199  1.00  0.00     0.200 A 
BRANCH  74  77
ATOM     77  O   UNL     1      -3.117  25.166  56.100  1.00  0.00    -0.504 OA
ATOM     78  H   UNL     1      -3.186  26.167  56.248  1.00  0.00     0.293 HD
ENDBRANCH  74  77
BRANCH  75  79
ATOM     79  O   UNL     1       0.172  22.321  58.267  1.00  0.00    -0.504 OA
ATOM     80  H   UNL     1       1.074  22.453  58.704  1.00  0.00     0.293 HD
ENDBRANCH  75  79
BRANCH  76  81
ATOM     81  O   UNL     1      -2.312  23.637  58.320  1.00  0.00    -0.502 OA
ATOM     82  H   UNL     1      -3.044  24.301  58.523  1.00  0.00     0.293 HD
ENDBRANCH  76  81
ENDBRANCH  69  71
ENDBRANCH  68  69
ENDBRANCH   4  68
TORSDOF 31
ENDMDL
MODEL 5
REMARK VINA RESULT:    -2.273      1.927      6.601
REMARK INTER + INTRA:          -9.751
REMARK INTER:                  -8.476
REMARK INTRA:                  -1.275
REMARK UNBOUND:                -4.357
REMARK SMILES O=C(OC[C@H]1O[C@H](OC(=O)c2cc(O)c(O)c(O)c2)[C@H](OC(=O)c2cc(O)c(O)c(O)c2)[C@@H](OC(=O)c2cc(O)c(O)c(O)c2)[C@H]1OC(=O)c1cc(O)c(O)c(O)c1)c1cc(O)c(O)c(O)c1
REMARK SMILES IDX 5 1 46 2 33 3 20 4 7 5 6 6 4 7 3 8 2 9 1 10 59 11 60 12
REMARK SMILES IDX 61 13 67 14 63 15 65 16 62 17 64 19 66 21 47 23 48 24 49 25
REMARK SMILES IDX 50 26 58 27 51 28 56 29 52 30 54 31 57 32 53 34 55 36 34 38
REMARK SMILES IDX 35 39 36 40 37 41 45 42 38 43 43 44 39 45 41 46 44 47 40 49
REMARK SMILES IDX 42 51 8 53 9 54 10 55 11 56 19 57 12 58 17 59 13 60 15 61
REMARK SMILES IDX 18 62 14 64 16 66 21 68 22 69 23 70 24 71 32 72 25 73 30 74
REMARK SMILES IDX 26 75 28 76 31 77 27 79 29 81
REMARK H PARENT 62 18 64 20 66 22 57 33 53 35 55 37 44 48 40 50 42 52 18 63
REMARK H PARENT 14 65 16 67 31 78 27 80 29 82
REMARK Flexibility Score: inf
ROOT
ATOM      1  C   UNL     1       3.021  23.701  57.141  1.00  0.00     0.205 C 
ATOM      2  C   UNL     1       3.089  23.320  55.651  1.00  0.00     0.254 C 
ATOM      3  C   UNL     1       2.837  24.595  54.838  1.00  0.00     0.267 C 
ATOM      4  C   UNL     1       3.873  25.667  55.225  1.00  0.00     0.290 C 
ATOM      5  C   UNL     1       3.875  25.857  56.759  1.00  0.00     0.357 C 
ATOM      6  O   UNL     1       4.051  24.629  57.454  1.00  0.00    -0.329 OA
ENDROOT
BRANCH   1   7
ATOM      7  C   UNL     1       3.146  22.476  58.065  1.00  0.00     0.269 C 
BRANCH   7   8
ATOM      8  O   UNL     1       3.048  22.894  59.423  1.00  0.00    -0.459 OA
BRANCH   8   9
ATOM      9  C   UNL     1       3.852  22.351  60.435  1.00  0.00     0.338 C 
ATOM     10  O   UNL     1       4.596  23.107  61.123  1.00  0.00    -0.246 OA
BRANCH   9  11
ATOM     11  C   UNL     1       3.853  20.892  60.674  1.00  0.00     0.067 A 
ATOM     12  C   UNL     1       5.064  20.194  60.771  1.00  0.00     0.066 A 
ATOM     13  C   UNL     1       5.081  18.808  60.944  1.00  0.00     0.162 A 
ATOM     14  C   UNL     1       2.639  20.182  60.762  1.00  0.00     0.066 A 
ATOM     15  C   UNL     1       3.862  18.092  60.996  1.00  0.00     0.200 A 
ATOM     16  C   UNL     1       2.644  18.791  60.910  1.00  0.00     0.162 A 
BRANCH  13  17
ATOM     17  O   UNL     1       6.325  18.188  61.072  1.00  0.00    -0.504 OA
ATOM     18  H   UNL     1       6.526  17.476  61.754  1.00  0.00     0.293 HD
ENDBRANCH  13  17
BRANCH  15  19
ATOM     19  O   UNL     1       3.825  16.700  61.125  1.00  0.00    -0.502 OA
ATOM     20  H   UNL     1       4.641  16.108  61.166  1.00  0.00     0.293 HD
ENDBRANCH  15  19
BRANCH  16  21
ATOM     21  O   UNL     1       1.422  18.120  60.966  1.00  0.00    -0.504 OA
ATOM     22  H   UNL     1       1.258  17.259  60.459  1.00  0.00     0.293 HD
ENDBRANCH  16  21
ENDBRANCH   9  11
ENDBRANCH   8   9
ENDBRANCH   7   8
ENDBRANCH   1   7
BRANCH   2  23
ATOM     23  O   UNL     1       4.384  22.811  55.328  1.00  0.00    -0.452 OA
BRANCH  23  24
ATOM     24  C   UNL     1       4.657  21.462  55.063  1.00  0.00     0.338 C 
ATOM     25  O   UNL     1       4.270  20.945  53.984  1.00  0.00    -0.246 OA
BRANCH  24  26
ATOM     26  C   UNL     1       5.417  20.665  56.052  1.00  0.00     0.067 A 
ATOM     27  C   UNL     1       6.790  20.894  56.260  1.00  0.00     0.066 A 
ATOM     28  C   UNL     1       4.784  19.628  56.756  1.00  0.00     0.066 A 
ATOM     29  C   UNL     1       7.521  20.089  57.150  1.00  0.00     0.162 A 
ATOM     30  C   UNL     1       5.506  18.830  57.649  1.00  0.00     0.162 A 
ATOM     31  C   UNL     1       6.876  19.055  57.849  1.00  0.00     0.200 A 
BRANCH  29  32
ATOM     32  O   UNL     1       8.884  20.308  57.335  1.00  0.00    -0.504 OA
ATOM     33  H   UNL     1       9.520  20.378  56.549  1.00  0.00     0.293 HD
ENDBRANCH  29  32
BRANCH  30  34
ATOM     34  O   UNL     1       4.842  17.810  58.327  1.00  0.00    -0.504 OA
ATOM     35  H   UNL     1       5.209  17.401  59.181  1.00  0.00     0.293 HD
ENDBRANCH  30  34
BRANCH  31  36
ATOM     36  O   UNL     1       7.578  18.240  58.735  1.00  0.00    -0.502 OA
ATOM     37  H   UNL     1       8.532  17.949  58.563  1.00  0.00     0.293 HD
ENDBRANCH  31  36
ENDBRANCH  24  26
ENDBRANCH  23  24
ENDBRANCH   2  23
BRANCH   3  38
ATOM     38  O   UNL     1       2.883  24.311  53.441  1.00  0.00    -0.450 OA
BRANCH  38  39
ATOM     39  C   UNL     1       1.775  23.826  52.731  1.00  0.00     0.338 C 
ATOM     40  O   UNL     1       0.817  23.286  53.349  1.00  0.00    -0.246 OA
BRANCH  39  41
ATOM     41  C   UNL     1       1.716  23.966  51.259  1.00  0.00     0.067 A 
ATOM     42  C   UNL     1       2.419  23.073  50.432  1.00  0.00     0.066 A 
ATOM     43  C   UNL     1       0.953  24.989  50.673  1.00  0.00     0.066 A 
ATOM     44  C   UNL     1       2.366  23.201  49.042  1.00  0.00     0.162 A 
ATOM     45  C   UNL     1       0.896  25.131  49.283  1.00  0.00     0.162 A 
ATOM     46  C   UNL     1       1.618  24.233  48.454  1.00  0.00     0.200 A 
BRANCH  44  47
ATOM     47  O   UNL     1       3.061  22.296  48.237  1.00  0.00    -0.504 OA
ATOM     48  H   UNL     1       3.826  22.593  47.637  1.00  0.00     0.293 HD
ENDBRANCH  44  47
BRANCH  45  49
ATOM     49  O   UNL     1       0.119  26.170  48.772  1.00  0.00    -0.504 OA
ATOM     50  H   UNL     1      -0.461  26.092  47.949  1.00  0.00     0.293 HD
ENDBRANCH  45  49
BRANCH  46  51
ATOM     51  O   UNL     1       1.625  24.330  47.060  1.00  0.00    -0.502 OA
ATOM     52  H   UNL     1       0.792  24.487  46.503  1.00  0.00     0.293 HD
ENDBRANCH  46  51
ENDBRANCH  39  41
ENDBRANCH  38  39
ENDBRANCH   3  38
BRANCH   5  53
ATOM     53  O   UNL     1       2.682  26.515  57.181  1.00  0.00    -0.428 OA
BRANCH  53  54
ATOM     54  C   UNL     1       1.616  25.853  57.800  1.00  0.00     0.340 C 
ATOM     55  O   UNL     1       1.677  25.536  59.016  1.00  0.00    -0.246 OA
BRANCH  54  56
ATOM     56  C   UNL     1       0.412  25.533  57.016  1.00  0.00     0.067 A 
ATOM     57  C   UNL     1       0.112  26.238  55.844  1.00  0.00     0.066 A 
ATOM     58  C   UNL     1      -0.439  24.504  57.434  1.00  0.00     0.066 A 
ATOM     59  C   UNL     1      -1.008  25.906  55.070  1.00  0.00     0.162 A 
ATOM     60  C   UNL     1      -1.575  24.175  56.694  1.00  0.00     0.162 A 
ATOM     61  C   UNL     1      -1.865  24.859  55.496  1.00  0.00     0.200 A 
BRANCH  59  62
ATOM     62  O   UNL     1      -1.219  26.635  53.896  1.00  0.00    -0.504 OA
ATOM     63  H   UNL     1      -1.912  27.368  53.801  1.00  0.00     0.293 HD
ENDBRANCH  59  62
BRANCH  60  64
ATOM     64  O   UNL     1      -2.411  23.165  57.172  1.00  0.00    -0.504 OA
ATOM     65  H   UNL     1      -3.049  23.319  57.946  1.00  0.00     0.293 HD
ENDBRANCH  60  64
BRANCH  61  66
ATOM     66  O   UNL     1      -2.996  24.475  54.760  1.00  0.00    -0.502 OA
ATOM     67  H   UNL     1      -2.958  24.008  53.864  1.00  0.00     0.293 HD
ENDBRANCH  61  66
ENDBRANCH  54  56
ENDBRANCH  53  54
ENDBRANCH   5  53
BRANCH   4  68
ATOM     68  O   UNL     1       3.536  26.915  54.622  1.00  0.00    -0.448 OA
BRANCH  68  69
ATOM     69  C   UNL     1       2.959  27.047  53.356  1.00  0.00     0.339 C 
ATOM     70  O   UNL     1       1.704  27.125  53.234  1.00  0.00    -0.246 OA
BRANCH  69  71
ATOM     71  C   UNL     1       3.826  27.079  52.160  1.00  0.00     0.067 A 
ATOM     72  C   UNL     1       5.222  27.083  52.282  1.00  0.00     0.066 A 
ATOM     73  C   UNL     1       3.258  27.099  50.876  1.00  0.00     0.066 A 
ATOM     74  C   UNL     1       6.042  27.091  51.144  1.00  0.00     0.162 A 
ATOM     75  C   UNL     1       4.066  27.104  49.735  1.00  0.00     0.162 A 
ATOM     76  C   UNL     1       5.463  27.099  49.864  1.00  0.00     0.200 A 
BRANCH  74  77
ATOM     77  O   UNL     1       7.430  27.082  51.280  1.00  0.00    -0.504 OA
ATOM     78  H   UNL     1       8.024  26.589  50.620  1.00  0.00     0.293 HD
ENDBRANCH  74  77
BRANCH  75  79
ATOM     79  O   UNL     1       3.461  27.110  48.477  1.00  0.00    -0.504 OA
ATOM     80  H   UNL     1       3.997  27.107  47.620  1.00  0.00     0.293 HD
ENDBRANCH  75  79
BRANCH  76  81
ATOM     81  O   UNL     1       6.263  27.104  48.720  1.00  0.00    -0.502 OA
ATOM     82  H   UNL     1       6.952  26.390  48.536  1.00  0.00     0.293 HD
ENDBRANCH  76  81
ENDBRANCH  69  71
ENDBRANCH  68  69
ENDBRANCH   4  68
TORSDOF 31
ENDMDL
MODEL 6
REMARK VINA RESULT:    -2.252      1.759      6.414
REMARK INTER + INTRA:          -9.703
REMARK INTER:                  -8.441
REMARK INTRA:                  -1.261
REMARK UNBOUND:                -4.357
REMARK SMILES O=C(OC[C@H]1O[C@H](OC(=O)c2cc(O)c(O)c(O)c2)[C@H](OC(=O)c2cc(O)c(O)c(O)c2)[C@@H](OC(=O)c2cc(O)c(O)c(O)c2)[C@H]1OC(=O)c1cc(O)c(O)c(O)c1)c1cc(O)c(O)c(O)c1
REMARK SMILES IDX 5 1 46 2 33 3 20 4 7 5 6 6 4 7 3 8 2 9 1 10 59 11 60 12
REMARK SMILES IDX 61 13 67 14 63 15 65 16 62 17 64 19 66 21 47 23 48 24 49 25
REMARK SMILES IDX 50 26 58 27 51 28 56 29 52 30 54 31 57 32 53 34 55 36 34 38
REMARK SMILES IDX 35 39 36 40 37 41 45 42 38 43 43 44 39 45 41 46 44 47 40 49
REMARK SMILES IDX 42 51 8 53 9 54 10 55 11 56 19 57 12 58 17 59 13 60 15 61
REMARK SMILES IDX 18 62 14 64 16 66 21 68 22 69 23 70 24 71 32 72 25 73 30 74
REMARK SMILES IDX 26 75 28 76 31 77 27 79 29 81
REMARK H PARENT 62 18 64 20 66 22 57 33 53 35 55 37 44 48 40 50 42 52 18 63
REMARK H PARENT 14 65 16 67 31 78 27 80 29 82
REMARK Flexibility Score: inf
ROOT
ATOM      1  C   UNL     1       1.969  24.152  54.558  1.00  0.00     0.205 C 
ATOM      2  C   UNL     1       2.787  23.169  53.701  1.00  0.00     0.254 C 
ATOM      3  C   UNL     1       2.189  23.183  52.289  1.00  0.00     0.267 C 
ATOM      4  C   UNL     1       2.214  24.618  51.732  1.00  0.00     0.290 C 
ATOM      5  C   UNL     1       1.539  25.577  52.739  1.00  0.00     0.357 C 
ATOM      6  O   UNL     1       2.098  25.471  54.043  1.00  0.00    -0.329 OA
ENDROOT
BRANCH   1   7
ATOM      7  C   UNL     1       2.404  24.142  56.035  1.00  0.00     0.269 C 
BRANCH   7   8
ATOM      8  O   UNL     1       2.273  25.452  56.577  1.00  0.00    -0.459 OA
BRANCH   8   9
ATOM      9  C   UNL     1       2.528  25.735  57.926  1.00  0.00     0.338 C 
ATOM     10  O   UNL     1       2.236  26.872  58.398  1.00  0.00    -0.246 OA
BRANCH   9  11
ATOM     11  C   UNL     1       3.168  24.717  58.785  1.00  0.00     0.067 A 
ATOM     12  C   UNL     1       4.565  24.604  58.825  1.00  0.00     0.066 A 
ATOM     13  C   UNL     1       5.183  23.613  59.592  1.00  0.00     0.162 A 
ATOM     14  C   UNL     1       2.382  23.822  59.539  1.00  0.00     0.066 A 
ATOM     15  C   UNL     1       4.392  22.692  60.319  1.00  0.00     0.200 A 
ATOM     16  C   UNL     1       2.990  22.810  60.290  1.00  0.00     0.162 A 
BRANCH  13  17
ATOM     17  O   UNL     1       6.578  23.588  59.612  1.00  0.00    -0.504 OA
ATOM     18  H   UNL     1       7.136  24.140  60.240  1.00  0.00     0.293 HD
ENDBRANCH  13  17
BRANCH  15  19
ATOM     19  O   UNL     1       4.960  21.656  61.067  1.00  0.00    -0.502 OA
ATOM     20  H   UNL     1       4.603  20.713  61.099  1.00  0.00     0.293 HD
ENDBRANCH  15  19
BRANCH  16  21
ATOM     21  O   UNL     1       2.178  21.927  61.001  1.00  0.00    -0.504 OA
ATOM     22  H   UNL     1       2.536  21.360  61.760  1.00  0.00     0.293 HD
ENDBRANCH  16  21
ENDBRANCH   9  11
ENDBRANCH   8   9
ENDBRANCH   7   8
ENDBRANCH   1   7
BRANCH   2  23
ATOM     23  O   UNL     1       4.151  23.587  53.631  1.00  0.00    -0.452 OA
BRANCH  23  24
ATOM     24  C   UNL     1       4.994  23.713  54.744  1.00  0.00     0.338 C 
ATOM     25  O   UNL     1       5.534  24.820  54.998  1.00  0.00    -0.246 OA
BRANCH  24  26
ATOM     26  C   UNL     1       5.223  22.543  55.621  1.00  0.00     0.067 A 
ATOM     27  C   UNL     1       4.151  21.915  56.280  1.00  0.00     0.066 A 
ATOM     28  C   UNL     1       6.530  22.080  55.848  1.00  0.00     0.066 A 
ATOM     29  C   UNL     1       4.383  20.848  57.165  1.00  0.00     0.162 A 
ATOM     30  C   UNL     1       6.764  21.011  56.720  1.00  0.00     0.162 A 
ATOM     31  C   UNL     1       5.694  20.393  57.383  1.00  0.00     0.200 A 
BRANCH  29  32
ATOM     32  O   UNL     1       3.318  20.245  57.830  1.00  0.00    -0.504 OA
ATOM     33  H   UNL     1       2.603  19.731  57.329  1.00  0.00     0.293 HD
ENDBRANCH  29  32
BRANCH  30  34
ATOM     34  O   UNL     1       8.074  20.583  56.920  1.00  0.00    -0.504 OA
ATOM     35  H   UNL     1       8.289  19.691  57.356  1.00  0.00     0.293 HD
ENDBRANCH  30  34
BRANCH  31  36
ATOM     36  O   UNL     1       5.952  19.338  58.256  1.00  0.00    -0.502 OA
ATOM     37  H   UNL     1       5.261  18.998  58.914  1.00  0.00     0.293 HD
ENDBRANCH  31  36
ENDBRANCH  24  26
ENDBRANCH  23  24
ENDBRANCH   2  23
BRANCH   3  38
ATOM     38  O   UNL     1       2.901  22.286  51.438  1.00  0.00    -0.450 OA
BRANCH  38  39
ATOM     39  C   UNL     1       3.709  22.728  50.381  1.00  0.00     0.338 C 
ATOM     40  O   UNL     1       3.481  22.333  49.205  1.00  0.00    -0.246 OA
BRANCH  39  41
ATOM     41  C   UNL     1       4.817  23.674  50.637  1.00  0.00     0.067 A 
ATOM     42  C   UNL     1       5.906  23.293  51.441  1.00  0.00     0.066 A 
ATOM     43  C   UNL     1       4.796  24.961  50.077  1.00  0.00     0.066 A 
ATOM     44  C   UNL     1       6.954  24.183  51.686  1.00  0.00     0.162 A 
ATOM     45  C   UNL     1       5.837  25.864  50.318  1.00  0.00     0.162 A 
ATOM     46  C   UNL     1       6.926  25.477  51.141  1.00  0.00     0.200 A 
BRANCH  44  47
ATOM     47  O   UNL     1       8.033  23.781  52.476  1.00  0.00    -0.504 OA
ATOM     48  H   UNL     1       8.952  23.608  52.076  1.00  0.00     0.293 HD
ENDBRANCH  44  47
BRANCH  45  49
ATOM     49  O   UNL     1       5.747  27.125  49.729  1.00  0.00    -0.504 OA
ATOM     50  H   UNL     1       4.879  27.618  49.577  1.00  0.00     0.293 HD
ENDBRANCH  45  49
BRANCH  46  51
ATOM     51  O   UNL     1       7.988  26.334  51.443  1.00  0.00    -0.502 OA
ATOM     52  H   UNL     1       8.932  26.014  51.629  1.00  0.00     0.293 HD
ENDBRANCH  46  51
ENDBRANCH  39  41
ENDBRANCH  38  39
ENDBRANCH   3  38
BRANCH   5  53
ATOM     53  O   UNL     1       0.129  25.357  52.770  1.00  0.00    -0.428 OA
BRANCH  53  54
ATOM     54  C   UNL     1      -0.746  26.089  53.580  1.00  0.00     0.340 C 
ATOM     55  O   UNL     1      -1.311  27.124  53.142  1.00  0.00    -0.246 OA
BRANCH  54  56
ATOM     56  C   UNL     1      -1.007  25.634  54.954  1.00  0.00     0.067 A 
ATOM     57  C   UNL     1      -0.933  24.275  55.286  1.00  0.00     0.066 A 
ATOM     58  C   UNL     1      -1.320  26.566  55.950  1.00  0.00     0.066 A 
ATOM     59  C   UNL     1      -1.135  23.842  56.603  1.00  0.00     0.162 A 
ATOM     60  C   UNL     1      -1.554  26.154  57.263  1.00  0.00     0.162 A 
ATOM     61  C   UNL     1      -1.449  24.791  57.609  1.00  0.00     0.200 A 
BRANCH  59  62
ATOM     62  O   UNL     1      -1.010  22.473  56.858  1.00  0.00    -0.504 OA
ATOM     63  H   UNL     1      -1.743  21.795  56.686  1.00  0.00     0.293 HD
ENDBRANCH  59  62
BRANCH  60  64
ATOM     64  O   UNL     1      -1.898  27.118  58.211  1.00  0.00    -0.504 OA
ATOM     65  H   UNL     1      -2.661  26.979  58.866  1.00  0.00     0.293 HD
ENDBRANCH  60  64
BRANCH  61  66
ATOM     66  O   UNL     1      -1.654  24.420  58.947  1.00  0.00    -0.502 OA
ATOM     67  H   UNL     1      -1.210  23.627  59.390  1.00  0.00     0.293 HD
ENDBRANCH  61  66
ENDBRANCH  54  56
ENDBRANCH  53  54
ENDBRANCH   5  53
BRANCH   4  68
ATOM     68  O   UNL     1       1.490  24.681  50.505  1.00  0.00    -0.448 OA
BRANCH  68  69
ATOM     69  C   UNL     1       1.465  25.797  49.663  1.00  0.00     0.339 C 
ATOM     70  O   UNL     1       1.133  26.928  50.115  1.00  0.00    -0.246 OA
BRANCH  69  71
ATOM     71  C   UNL     1       1.815  25.640  48.236  1.00  0.00     0.067 A 
ATOM     72  C   UNL     1       2.770  26.468  47.633  1.00  0.00     0.066 A 
ATOM     73  C   UNL     1       1.196  24.644  47.462  1.00  0.00     0.066 A 
ATOM     74  C   UNL     1       3.116  26.301  46.283  1.00  0.00     0.162 A 
ATOM     75  C   UNL     1       1.536  24.467  46.118  1.00  0.00     0.162 A 
ATOM     76  C   UNL     1       2.499  25.295  45.522  1.00  0.00     0.200 A 
BRANCH  74  77
ATOM     77  O   UNL     1       4.079  27.125  45.699  1.00  0.00    -0.504 OA
ATOM     78  H   UNL     1       3.854  27.730  44.916  1.00  0.00     0.293 HD
ENDBRANCH  74  77
BRANCH  75  79
ATOM     79  O   UNL     1       0.906  23.458  45.388  1.00  0.00    -0.504 OA
ATOM     80  H   UNL     1       0.523  22.632  45.826  1.00  0.00     0.293 HD
ENDBRANCH  75  79
BRANCH  76  81
ATOM     81  O   UNL     1       2.833  25.111  44.179  1.00  0.00    -0.502 OA
ATOM     82  H   UNL     1       3.350  25.797  43.649  1.00  0.00     0.293 HD
ENDBRANCH  76  81
ENDBRANCH  69  71
ENDBRANCH  68  69
ENDBRANCH   4  68
TORSDOF 31
ENDMDL
MODEL 7
REMARK VINA RESULT:    -2.172      2.515      9.091
REMARK INTER + INTRA:          -9.512
REMARK INTER:                  -7.029
REMARK INTRA:                  -2.483
REMARK UNBOUND:                -4.357
REMARK SMILES O=C(OC[C@H]1O[C@H](OC(=O)c2cc(O)c(O)c(O)c2)[C@H](OC(=O)c2cc(O)c(O)c(O)c2)[C@@H](OC(=O)c2cc(O)c(O)c(O)c2)[C@H]1OC(=O)c1cc(O)c(O)c(O)c1)c1cc(O)c(O)c(O)c1
REMARK SMILES IDX 5 1 46 2 33 3 20 4 7 5 6 6 4 7 3 8 2 9 1 10 59 11 60 12
REMARK SMILES IDX 61 13 67 14 63 15 65 16 62 17 64 19 66 21 47 23 48 24 49 25
REMARK SMILES IDX 50 26 58 27 51 28 56 29 52 30 54 31 57 32 53 34 55 36 34 38
REMARK SMILES IDX 35 39 36 40 37 41 45 42 38 43 43 44 39 45 41 46 44 47 40 49
REMARK SMILES IDX 42 51 8 53 9 54 10 55 11 56 19 57 12 58 17 59 13 60 15 61
REMARK SMILES IDX 18 62 14 64 16 66 21 68 22 69 23 70 24 71 32 72 25 73 30 74
REMARK SMILES IDX 26 75 28 76 31 77 27 79 29 81
REMARK H PARENT 62 18 64 20 66 22 57 33 53 35 55 37 44 48 40 50 42 52 18 63
REMARK H PARENT 14 65 16 67 31 78 27 80 29 82
REMARK Flexibility Score: inf
ROOT
ATOM      1  C   UNL     1       6.889  23.338  53.030  1.00  0.00     0.205 C 
ATOM      2  C   UNL     1       5.945  23.821  51.913  1.00  0.00     0.254 C 
ATOM      3  C   UNL     1       4.581  23.163  52.148  1.00  0.00     0.267 C 
ATOM      4  C   UNL     1       4.069  23.522  53.555  1.00  0.00     0.290 C 
ATOM      5  C   UNL     1       5.152  23.179  54.604  1.00  0.00     0.357 C 
ATOM      6  O   UNL     1       6.408  23.770  54.295  1.00  0.00    -0.329 OA
ENDROOT
BRANCH   1   7
ATOM      7  C   UNL     1       8.330  23.844  52.837  1.00  0.00     0.269 C 
BRANCH   7   8
ATOM      8  O   UNL     1       8.348  24.855  51.834  1.00  0.00    -0.459 OA
BRANCH   8   9
ATOM      9  C   UNL     1       9.005  26.080  52.015  1.00  0.00     0.338 C 
ATOM     10  O   UNL     1       8.334  27.125  52.258  1.00  0.00    -0.246 OA
BRANCH   9  11
ATOM     11  C   UNL     1      10.475  26.155  51.889  1.00  0.00     0.067 A 
ATOM     12  C   UNL     1      11.294  25.875  52.992  1.00  0.00     0.066 A 
ATOM     13  C   UNL     1      12.683  25.992  52.903  1.00  0.00     0.162 A 
ATOM     14  C   UNL     1      11.068  26.552  50.674  1.00  0.00     0.066 A 
ATOM     15  C   UNL     1      13.275  26.425  51.693  1.00  0.00     0.200 A 
ATOM     16  C   UNL     1      12.457  26.697  50.581  1.00  0.00     0.162 A 
BRANCH  13  17
ATOM     17  O   UNL     1      13.433  25.657  54.031  1.00  0.00    -0.504 OA
ATOM     18  H   UNL     1      13.796  26.335  54.679  1.00  0.00     0.293 HD
ENDBRANCH  13  17
BRANCH  15  19
ATOM     19  O   UNL     1      14.656  26.601  51.565  1.00  0.00    -0.502 OA
ATOM     20  H   UNL     1      15.348  25.939  51.883  1.00  0.00     0.293 HD
ENDBRANCH  15  19
BRANCH  16  21
ATOM     21  O   UNL     1      13.005  27.118  49.369  1.00  0.00    -0.504 OA
ATOM     22  H   UNL     1      13.509  26.486  48.759  1.00  0.00     0.293 HD
ENDBRANCH  16  21
ENDBRANCH   9  11
ENDBRANCH   8   9
ENDBRANCH   7   8
ENDBRANCH   1   7
BRANCH   2  23
ATOM     23  O   UNL     1       5.792  25.240  51.973  1.00  0.00    -0.452 OA
BRANCH  23  24
ATOM     24  C   UNL     1       4.905  25.971  51.170  1.00  0.00     0.338 C 
ATOM     25  O   UNL     1       5.246  26.308  50.007  1.00  0.00    -0.246 OA
BRANCH  24  26
ATOM     26  C   UNL     1       3.567  26.322  51.695  1.00  0.00     0.067 A 
ATOM     27  C   UNL     1       3.379  26.599  53.062  1.00  0.00     0.066 A 
ATOM     28  C   UNL     1       2.454  26.327  50.839  1.00  0.00     0.066 A 
ATOM     29  C   UNL     1       2.094  26.863  53.567  1.00  0.00     0.162 A 
ATOM     30  C   UNL     1       1.175  26.601  51.335  1.00  0.00     0.162 A 
ATOM     31  C   UNL     1       0.989  26.867  52.699  1.00  0.00     0.200 A 
BRANCH  29  32
ATOM     32  O   UNL     1       1.913  27.115  54.924  1.00  0.00    -0.504 OA
ATOM     33  H   UNL     1       1.288  26.552  55.488  1.00  0.00     0.293 HD
ENDBRANCH  29  32
BRANCH  30  34
ATOM     34  O   UNL     1       0.097  26.595  50.453  1.00  0.00    -0.504 OA
ATOM     35  H   UNL     1      -0.259  27.446  50.031  1.00  0.00     0.293 HD
ENDBRANCH  30  34
BRANCH  31  36
ATOM     36  O   UNL     1      -0.295  27.125  53.174  1.00  0.00    -0.502 OA
ATOM     37  H   UNL     1      -0.798  27.973  52.944  1.00  0.00     0.293 HD
ENDBRANCH  31  36
ENDBRANCH  24  26
ENDBRANCH  23  24
ENDBRANCH   2  23
BRANCH   3  38
ATOM     38  O   UNL     1       3.653  23.566  51.142  1.00  0.00    -0.450 OA
BRANCH  38  39
ATOM     39  C   UNL     1       3.051  22.657  50.261  1.00  0.00     0.338 C 
ATOM     40  O   UNL     1       2.913  21.449  50.597  1.00  0.00    -0.246 OA
BRANCH  39  41
ATOM     41  C   UNL     1       2.557  23.115  48.943  1.00  0.00     0.067 A 
ATOM     42  C   UNL     1       2.975  22.472  47.765  1.00  0.00     0.066 A 
ATOM     43  C   UNL     1       1.662  24.193  48.856  1.00  0.00     0.066 A 
ATOM     44  C   UNL     1       2.512  22.901  46.519  1.00  0.00     0.162 A 
ATOM     45  C   UNL     1       1.194  24.635  47.614  1.00  0.00     0.162 A 
ATOM     46  C   UNL     1       1.630  23.990  46.428  1.00  0.00     0.200 A 
BRANCH  44  47
ATOM     47  O   UNL     1       2.928  22.241  45.361  1.00  0.00    -0.504 OA
ATOM     48  H   UNL     1       2.560  22.486  44.445  1.00  0.00     0.293 HD
ENDBRANCH  44  47
BRANCH  45  49
ATOM     49  O   UNL     1       0.308  25.712  47.605  1.00  0.00    -0.504 OA
ATOM     50  H   UNL     1       0.567  26.660  47.837  1.00  0.00     0.293 HD
ENDBRANCH  45  49
BRANCH  46  51
ATOM     51  O   UNL     1       1.222  24.392  45.153  1.00  0.00    -0.502 OA
ATOM     52  H   UNL     1       1.863  24.566  44.387  1.00  0.00     0.293 HD
ENDBRANCH  46  51
ENDBRANCH  39  41
ENDBRANCH  38  39
ENDBRANCH   3  38
BRANCH   5  53
ATOM     53  O   UNL     1       5.275  21.765  54.750  1.00  0.00    -0.428 OA
BRANCH  53  54
ATOM     54  C   UNL     1       5.774  21.151  55.904  1.00  0.00     0.340 C 
ATOM     55  O   UNL     1       6.982  20.811  55.979  1.00  0.00    -0.246 OA
BRANCH  54  56
ATOM     56  C   UNL     1       4.870  20.911  57.040  1.00  0.00     0.067 A 
ATOM     57  C   UNL     1       4.568  19.608  57.454  1.00  0.00     0.066 A 
ATOM     58  C   UNL     1       4.313  21.995  57.730  1.00  0.00     0.066 A 
ATOM     59  C   UNL     1       3.746  19.376  58.564  1.00  0.00     0.162 A 
ATOM     60  C   UNL     1       3.468  21.787  58.820  1.00  0.00     0.162 A 
ATOM     61  C   UNL     1       3.187  20.477  59.261  1.00  0.00     0.200 A 
BRANCH  59  62
ATOM     62  O   UNL     1       3.521  18.046  58.933  1.00  0.00    -0.504 OA
ATOM     63  H   UNL     1       2.718  17.734  59.469  1.00  0.00     0.293 HD
ENDBRANCH  59  62
BRANCH  60  64
ATOM     64  O   UNL     1       2.910  22.899  59.451  1.00  0.00    -0.504 OA
ATOM     65  H   UNL     1       2.154  23.431  59.031  1.00  0.00     0.293 HD
ENDBRANCH  60  64
BRANCH  61  66
ATOM     66  O   UNL     1       2.363  20.309  60.384  1.00  0.00    -0.502 OA
ATOM     67  H   UNL     1       1.957  19.426  60.663  1.00  0.00     0.293 HD
ENDBRANCH  61  66
ENDBRANCH  54  56
ENDBRANCH  53  54
ENDBRANCH   5  53
BRANCH   4  68
ATOM     68  O   UNL     1       2.899  22.765  53.861  1.00  0.00    -0.448 OA
BRANCH  68  69
ATOM     69  C   UNL     1       1.593  23.234  53.693  1.00  0.00     0.339 C 
ATOM     70  O   UNL     1       1.023  23.142  52.570  1.00  0.00    -0.246 OA
BRANCH  69  71
ATOM     71  C   UNL     1       0.889  23.853  54.835  1.00  0.00     0.067 A 
ATOM     72  C   UNL     1       1.549  24.084  56.049  1.00  0.00     0.066 A 
ATOM     73  C   UNL     1      -0.459  24.229  54.715  1.00  0.00     0.066 A 
ATOM     74  C   UNL     1       0.884  24.692  57.124  1.00  0.00     0.162 A 
ATOM     75  C   UNL     1      -1.130  24.839  55.778  1.00  0.00     0.162 A 
ATOM     76  C   UNL     1      -0.461  25.074  56.989  1.00  0.00     0.200 A 
BRANCH  74  77
ATOM     77  O   UNL     1       1.557  24.927  58.323  1.00  0.00    -0.504 OA
ATOM     78  H   UNL     1       2.569  24.886  58.381  1.00  0.00     0.293 HD
ENDBRANCH  74  77
BRANCH  75  79
ATOM     79  O   UNL     1      -2.466  25.208  55.613  1.00  0.00    -0.504 OA
ATOM     80  H   UNL     1      -2.744  26.162  55.422  1.00  0.00     0.293 HD
ENDBRANCH  75  79
BRANCH  76  81
ATOM     81  O   UNL     1      -1.139  25.684  58.046  1.00  0.00    -0.502 OA
ATOM     82  H   UNL     1      -2.146  25.712  58.101  1.00  0.00     0.293 HD
ENDBRANCH  76  81
ENDBRANCH  69  71
ENDBRANCH  68  69
ENDBRANCH   4  68
TORSDOF 31
ENDMDL
