MODEL 1
REMARK VINA RESULT:    -4.953      0.000      0.000
REMARK INTER + INTRA:         -14.146
REMARK INTER:                 -11.323
REMARK INTRA:                  -2.823
REMARK UNBOUND:                -2.823
REMARK SMILES CCCCCCCCCCCCCCCCCCCCCCCC(=O)[O-]
REMARK SMILES IDX 13 1 14 2 15 3 16 4 17 5 18 6 19 7 20 8 21 9 22 10 23 11
REMARK SMILES IDX 24 12 25 13 26 14 12 15 11 16 10 17 9 18 8 19 7 20 6 21 5 22
REMARK SMILES IDX 4 23 3 24 2 25 1 26
REMARK H PARENT
REMARK Flexibility Score: inf
ROOT
ATOM      1  C   UNL     1       5.510  -2.010  50.361  1.00  0.00     0.000 C 
ENDROOT
BRANCH   1   2
ATOM      2  C   UNL     1       5.177  -3.454  49.928  1.00  0.00     0.000 C 
BRANCH   2   3
ATOM      3  C   UNL     1       6.304  -4.441  50.269  1.00  0.00     0.000 C 
BRANCH   3   4
ATOM      4  C   UNL     1       6.613  -5.360  49.082  1.00  0.00     0.000 C 
BRANCH   4   5
ATOM      5  C   UNL     1       7.751  -4.786  48.224  1.00  0.00     0.000 C 
BRANCH   5   6
ATOM      6  C   UNL     1       9.002  -4.452  49.051  1.00  0.00     0.000 C 
BRANCH   6   7
ATOM      7  C   UNL     1       9.508  -3.024  48.800  1.00  0.00     0.000 C 
BRANCH   7   8
ATOM      8  C   UNL     1       8.866  -2.428  47.540  1.00  0.00     0.000 C 
BRANCH   8   9
ATOM      9  C   UNL     1       7.972  -1.233  47.891  1.00  0.00     0.000 C 
BRANCH   9  10
ATOM     10  C   UNL     1       7.107  -0.820  46.691  1.00  0.00     0.006 C 
BRANCH  10  11
ATOM     11  C   UNL     1       5.623  -1.148  46.901  1.00  0.00     0.053 C 
BRANCH  11  12
ATOM     12  C   UNL     1       5.152  -2.221  45.969  1.00  0.00     0.041 C 
ATOM     13  O   UNL     1       5.178  -3.429  46.327  1.00  0.00    -0.550 OA
ATOM     14  O   UNL     1       4.732  -1.895  44.685  1.00  0.00    -0.550 OA
ENDBRANCH  11  12
ENDBRANCH  10  11
ENDBRANCH   9  10
ENDBRANCH   8   9
ENDBRANCH   7   8
ENDBRANCH   6   7
ENDBRANCH   5   6
ENDBRANCH   4   5
ENDBRANCH   3   4
ENDBRANCH   2   3
ENDBRANCH   1   2
BRANCH   1  15
ATOM     15  C   UNL     1       6.732  -1.906  51.295  1.00  0.00     0.000 C 
BRANCH  15  16
ATOM     16  C   UNL     1       6.637  -0.803  52.363  1.00  0.00     0.000 C 
BRANCH  16  17
ATOM     17  C   UNL     1       7.798  -0.854  53.372  1.00  0.00     0.000 C 
BRANCH  17  18
ATOM     18  C   UNL     1       8.104   0.519  53.991  1.00  0.00    -0.000 C 
BRANCH  18  19
ATOM     19  C   UNL     1       8.891   0.407  55.308  1.00  0.00    -0.000 C 
BRANCH  19  20
ATOM     20  C   UNL     1       9.907   1.548  55.484  1.00  0.00    -0.000 C 
BRANCH  20  21
ATOM     21  C   UNL     1      10.710   1.825  54.202  1.00  0.00    -0.000 C 
BRANCH  21  22
ATOM     22  C   UNL     1      11.059   3.315  54.086  1.00  0.00    -0.000 C 
BRANCH  22  23
ATOM     23  C   UNL     1      10.527   3.949  52.791  1.00  0.00    -0.000 C 
BRANCH  23  24
ATOM     24  C   UNL     1       8.990   3.927  52.707  1.00  0.00    -0.000 C 
BRANCH  24  25
ATOM     25  C   UNL     1       8.330   4.840  53.750  1.00  0.00    -0.003 C 
ATOM     26  C   UNL     1       6.854   5.106  53.454  1.00  0.00     0.004 C 
ENDBRANCH  24  25
ENDBRANCH  23  24
ENDBRANCH  22  23
ENDBRANCH  21  22
ENDBRANCH  20  21
ENDBRANCH  19  20
ENDBRANCH  18  19
ENDBRANCH  17  18
ENDBRANCH  16  17
ENDBRANCH  15  16
ENDBRANCH   1  15
TORSDOF 22
ENDMDL
MODEL 2
REMARK VINA RESULT:    -4.944      3.087      8.020
REMARK INTER + INTRA:         -14.125
REMARK INTER:                 -11.113
REMARK INTRA:                  -3.012
REMARK UNBOUND:                -2.823
REMARK SMILES CCCCCCCCCCCCCCCCCCCCCCCC(=O)[O-]
REMARK SMILES IDX 13 1 14 2 15 3 16 4 17 5 18 6 19 7 20 8 21 9 22 10 23 11
REMARK SMILES IDX 24 12 25 13 26 14 12 15 11 16 10 17 9 18 8 19 7 20 6 21 5 22
REMARK SMILES IDX 4 23 3 24 2 25 1 26
REMARK H PARENT
REMARK Flexibility Score: inf
ROOT
ATOM      1  C   UNL     1       5.883  -1.616  50.527  1.00  0.00     0.000 C 
ENDROOT
BRANCH   1   2
ATOM      2  C   UNL     1       6.635  -1.856  51.854  1.00  0.00     0.000 C 
BRANCH   2   3
ATOM      3  C   UNL     1       6.739  -0.581  52.705  1.00  0.00     0.000 C 
BRANCH   3   4
ATOM      4  C   UNL     1       8.054  -0.548  53.493  1.00  0.00     0.000 C 
BRANCH   4   5
ATOM      5  C   UNL     1       8.206   0.776  54.256  1.00  0.00     0.000 C 
BRANCH   5   6
ATOM      6  C   UNL     1       8.921   0.601  55.604  1.00  0.00     0.000 C 
BRANCH   6   7
ATOM      7  C   UNL     1       9.773   1.821  55.981  1.00  0.00     0.000 C 
BRANCH   7   8
ATOM      8  C   UNL     1      10.183   2.611  54.731  1.00  0.00     0.000 C 
BRANCH   8   9
ATOM      9  C   UNL     1      10.094   4.122  54.981  1.00  0.00     0.000 C 
BRANCH   9  10
ATOM     10  C   UNL     1       9.601   4.860  53.728  1.00  0.00     0.006 C 
BRANCH  10  11
ATOM     11  C   UNL     1       8.633   4.011  52.894  1.00  0.00     0.053 C 
BRANCH  11  12
ATOM     12  C   UNL     1       7.205   4.393  53.136  1.00  0.00     0.041 C 
ATOM     13  O   UNL     1       6.291   3.532  53.033  1.00  0.00    -0.550 OA
ATOM     14  O   UNL     1       6.877   5.712  53.426  1.00  0.00    -0.550 OA
ENDBRANCH  11  12
ENDBRANCH  10  11
ENDBRANCH   9  10
ENDBRANCH   8   9
ENDBRANCH   7   8
ENDBRANCH   6   7
ENDBRANCH   5   6
ENDBRANCH   4   5
ENDBRANCH   3   4
ENDBRANCH   2   3
ENDBRANCH   1   2
BRANCH   1  15
ATOM     15  C   UNL     1       5.293  -2.898  49.905  1.00  0.00     0.000 C 
BRANCH  15  16
ATOM     16  C   UNL     1       5.167  -4.087  50.872  1.00  0.00     0.000 C 
BRANCH  16  17
ATOM     17  C   UNL     1       5.720  -5.394  50.278  1.00  0.00     0.000 C 
BRANCH  17  18
ATOM     18  C   UNL     1       7.204  -5.288  49.894  1.00  0.00    -0.000 C 
BRANCH  18  19
ATOM     19  C   UNL     1       7.433  -5.455  48.381  1.00  0.00    -0.000 C 
BRANCH  19  20
ATOM     20  C   UNL     1       8.539  -4.529  47.849  1.00  0.00    -0.000 C 
BRANCH  20  21
ATOM     21  C   UNL     1       9.106  -3.603  48.937  1.00  0.00    -0.000 C 
BRANCH  21  22
ATOM     22  C   UNL     1       8.884  -2.128  48.572  1.00  0.00    -0.000 C 
BRANCH  22  23
ATOM     23  C   UNL     1       8.139  -1.953  47.239  1.00  0.00    -0.000 C 
BRANCH  23  24
ATOM     24  C   UNL     1       7.342  -0.638  47.172  1.00  0.00    -0.000 C 
BRANCH  24  25
ATOM     25  C   UNL     1       5.871  -0.861  46.793  1.00  0.00    -0.003 C 
ATOM     26  C   UNL     1       5.601  -2.273  46.273  1.00  0.00     0.004 C 
ENDBRANCH  24  25
ENDBRANCH  23  24
ENDBRANCH  22  23
ENDBRANCH  21  22
ENDBRANCH  20  21
ENDBRANCH  19  20
ENDBRANCH  18  19
ENDBRANCH  17  18
ENDBRANCH  16  17
ENDBRANCH  15  16
ENDBRANCH   1  15
TORSDOF 22
ENDMDL
MODEL 3
REMARK VINA RESULT:    -4.891      1.111      2.003
REMARK INTER + INTRA:         -14.003
REMARK INTER:                 -11.249
REMARK INTRA:                  -2.754
REMARK UNBOUND:                -2.823
REMARK SMILES CCCCCCCCCCCCCCCCCCCCCCCC(=O)[O-]
REMARK SMILES IDX 13 1 14 2 15 3 16 4 17 5 18 6 19 7 20 8 21 9 22 10 23 11
REMARK SMILES IDX 24 12 25 13 26 14 12 15 11 16 10 17 9 18 8 19 7 20 6 21 5 22
REMARK SMILES IDX 4 23 3 24 2 25 1 26
REMARK H PARENT
REMARK Flexibility Score: inf
ROOT
ATOM      1  C   UNL     1       6.724  -1.828  51.561  1.00  0.00     0.000 C 
ENDROOT
BRANCH   1   2
ATOM      2  C   UNL     1       5.814  -1.669  50.323  1.00  0.00     0.000 C 
BRANCH   2   3
ATOM      3  C   UNL     1       5.233  -3.010  49.850  1.00  0.00     0.000 C 
BRANCH   3   4
ATOM      4  C   UNL     1       5.708  -4.164  50.741  1.00  0.00     0.000 C 
BRANCH   4   5
ATOM      5  C   UNL     1       6.249  -5.326  49.895  1.00  0.00     0.000 C 
BRANCH   5   6
ATOM      6  C   UNL     1       7.769  -5.501  50.039  1.00  0.00     0.000 C 
BRANCH   6   7
ATOM      7  C   UNL     1       8.484  -5.572  48.681  1.00  0.00     0.000 C 
BRANCH   7   8
ATOM      8  C   UNL     1       8.264  -4.283  47.878  1.00  0.00     0.000 C 
BRANCH   8   9
ATOM      9  C   UNL     1       9.004  -3.102  48.519  1.00  0.00     0.000 C 
BRANCH   9  10
ATOM     10  C   UNL     1       8.438  -1.763  48.025  1.00  0.00     0.006 C 
BRANCH  10  11
ATOM     11  C   UNL     1       7.683  -1.904  46.697  1.00  0.00     0.053 C 
BRANCH  11  12
ATOM     12  C   UNL     1       6.447  -1.058  46.666  1.00  0.00     0.041 C 
ATOM     13  O   UNL     1       6.535   0.196  46.747  1.00  0.00    -0.550 OA
ATOM     14  O   UNL     1       5.195  -1.656  46.597  1.00  0.00    -0.550 OA
ENDBRANCH  11  12
ENDBRANCH  10  11
ENDBRANCH   9  10
ENDBRANCH   8   9
ENDBRANCH   7   8
ENDBRANCH   6   7
ENDBRANCH   5   6
ENDBRANCH   4   5
ENDBRANCH   3   4
ENDBRANCH   2   3
ENDBRANCH   1   2
BRANCH   1  15
ATOM     15  C   UNL     1       6.615  -0.665  52.568  1.00  0.00     0.000 C 
BRANCH  15  16
ATOM     16  C   UNL     1       7.795  -0.545  53.547  1.00  0.00     0.000 C 
BRANCH  16  17
ATOM     17  C   UNL     1       8.141   0.917  53.881  1.00  0.00     0.000 C 
BRANCH  17  18
ATOM     18  C   UNL     1       8.439   1.128  55.373  1.00  0.00    -0.000 C 
BRANCH  18  19
ATOM     19  C   UNL     1       9.947   1.224  55.664  1.00  0.00    -0.000 C 
BRANCH  19  20
ATOM     20  C   UNL     1      10.698   2.045  54.603  1.00  0.00    -0.000 C 
BRANCH  20  21
ATOM     21  C   UNL     1      10.733   3.546  54.935  1.00  0.00    -0.000 C 
BRANCH  21  22
ATOM     22  C   UNL     1      10.572   4.392  53.664  1.00  0.00    -0.000 C 
BRANCH  22  23
ATOM     23  C   UNL     1       9.346   5.317  53.718  1.00  0.00    -0.000 C 
BRANCH  23  24
ATOM     24  C   UNL     1       8.028   4.545  53.908  1.00  0.00    -0.000 C 
BRANCH  24  25
ATOM     25  C   UNL     1       7.228   4.417  52.604  1.00  0.00    -0.003 C 
ATOM     26  C   UNL     1       5.734   4.675  52.800  1.00  0.00     0.004 C 
ENDBRANCH  24  25
ENDBRANCH  23  24
ENDBRANCH  22  23
ENDBRANCH  21  22
ENDBRANCH  20  21
ENDBRANCH  19  20
ENDBRANCH  18  19
ENDBRANCH  17  18
ENDBRANCH  16  17
ENDBRANCH  15  16
ENDBRANCH   1  15
TORSDOF 22
ENDMDL
MODEL 4
REMARK VINA RESULT:    -4.887      3.076      8.364
REMARK INTER + INTRA:         -13.995
REMARK INTER:                 -11.052
REMARK INTRA:                  -2.943
REMARK UNBOUND:                -2.823
REMARK SMILES CCCCCCCCCCCCCCCCCCCCCCCC(=O)[O-]
REMARK SMILES IDX 13 1 14 2 15 3 16 4 17 5 18 6 19 7 20 8 21 9 22 10 23 11
REMARK SMILES IDX 24 12 25 13 26 14 12 15 11 16 10 17 9 18 8 19 7 20 6 21 5 22
REMARK SMILES IDX 4 23 3 24 2 25 1 26
REMARK H PARENT
REMARK Flexibility Score: inf
ROOT
ATOM      1  C   UNL     1       5.929  -2.057  50.770  1.00  0.00     0.000 C 
ENDROOT
BRANCH   1   2
ATOM      2  C   UNL     1       7.197  -1.643  51.547  1.00  0.00     0.000 C 
BRANCH   2   3
ATOM      3  C   UNL     1       6.889  -0.658  52.685  1.00  0.00     0.000 C 
BRANCH   3   4
ATOM      4  C   UNL     1       8.097  -0.495  53.616  1.00  0.00     0.000 C 
BRANCH   4   5
ATOM      5  C   UNL     1       8.122   0.907  54.243  1.00  0.00     0.000 C 
BRANCH   5   6
ATOM      6  C   UNL     1       8.895   0.945  55.570  1.00  0.00     0.000 C 
BRANCH   6   7
ATOM      7  C   UNL     1      10.065   1.939  55.542  1.00  0.00     0.000 C 
BRANCH   7   8
ATOM      8  C   UNL     1       9.948   2.889  54.343  1.00  0.00     0.000 C 
BRANCH   8   9
ATOM      9  C   UNL     1       9.806   4.345  54.805  1.00  0.00     0.000 C 
BRANCH   9  10
ATOM     10  C   UNL     1       9.150   5.207  53.717  1.00  0.00     0.006 C 
BRANCH  10  11
ATOM     11  C   UNL     1       8.309   4.374  52.741  1.00  0.00     0.053 C 
BRANCH  11  12
ATOM     12  C   UNL     1       6.842   4.515  53.007  1.00  0.00     0.041 C 
ATOM     13  O   UNL     1       6.343   5.653  53.219  1.00  0.00    -0.550 OA
ATOM     14  O   UNL     1       6.033   3.388  53.070  1.00  0.00    -0.550 OA
ENDBRANCH  11  12
ENDBRANCH  10  11
ENDBRANCH   9  10
ENDBRANCH   8   9
ENDBRANCH   7   8
ENDBRANCH   6   7
ENDBRANCH   5   6
ENDBRANCH   4   5
ENDBRANCH   3   4
ENDBRANCH   2   3
ENDBRANCH   1   2
BRANCH   1  15
ATOM     15  C   UNL     1       5.520  -3.528  50.982  1.00  0.00     0.000 C 
BRANCH  15  16
ATOM     16  C   UNL     1       5.161  -4.291  49.695  1.00  0.00     0.000 C 
BRANCH  16  17
ATOM     17  C   UNL     1       4.664  -3.363  48.574  1.00  0.00     0.000 C 
BRANCH  17  18
ATOM     18  C   UNL     1       5.144  -3.804  47.183  1.00  0.00    -0.000 C 
BRANCH  18  19
ATOM     19  C   UNL     1       5.622  -2.621  46.323  1.00  0.00    -0.000 C 
BRANCH  19  20
ATOM     20  C   UNL     1       5.565  -1.284  47.081  1.00  0.00    -0.000 C 
BRANCH  20  21
ATOM     21  C   UNL     1       6.959  -0.682  47.321  1.00  0.00    -0.000 C 
BRANCH  21  22
ATOM     22  C   UNL     1       8.057  -1.732  47.090  1.00  0.00    -0.000 C 
BRANCH  22  23
ATOM     23  C   UNL     1       8.849  -2.052  48.367  1.00  0.00    -0.000 C 
BRANCH  23  24
ATOM     24  C   UNL     1       9.509  -3.442  48.323  1.00  0.00    -0.000 C 
BRANCH  24  25
ATOM     25  C   UNL     1       8.634  -4.530  48.961  1.00  0.00    -0.003 C 
ATOM     26  C   UNL     1       8.706  -5.861  48.214  1.00  0.00     0.004 C 
ENDBRANCH  24  25
ENDBRANCH  23  24
ENDBRANCH  22  23
ENDBRANCH  21  22
ENDBRANCH  20  21
ENDBRANCH  19  20
ENDBRANCH  18  19
ENDBRANCH  17  18
ENDBRANCH  16  17
ENDBRANCH  15  16
ENDBRANCH   1  15
TORSDOF 22
ENDMDL
MODEL 5
REMARK VINA RESULT:    -4.830      1.421      2.798
REMARK INTER + INTRA:         -13.865
REMARK INTER:                 -11.183
REMARK INTRA:                  -2.681
REMARK UNBOUND:                -2.823
REMARK SMILES CCCCCCCCCCCCCCCCCCCCCCCC(=O)[O-]
REMARK SMILES IDX 13 1 14 2 15 3 16 4 17 5 18 6 19 7 20 8 21 9 22 10 23 11
REMARK SMILES IDX 24 12 25 13 26 14 12 15 11 16 10 17 9 18 8 19 7 20 6 21 5 22
REMARK SMILES IDX 4 23 3 24 2 25 1 26
REMARK H PARENT
REMARK Flexibility Score: inf
ROOT
ATOM      1  C   UNL     1       6.901  -2.030  51.440  1.00  0.00     0.000 C 
ENDROOT
BRANCH   1   2
ATOM      2  C   UNL     1       5.674  -2.321  50.549  1.00  0.00     0.000 C 
BRANCH   2   3
ATOM      3  C   UNL     1       5.384  -3.825  50.427  1.00  0.00     0.000 C 
BRANCH   3   4
ATOM      4  C   UNL     1       4.710  -4.151  49.089  1.00  0.00     0.000 C 
BRANCH   4   5
ATOM      5  C   UNL     1       4.650  -2.909  48.186  1.00  0.00     0.000 C 
BRANCH   5   6
ATOM      6  C   UNL     1       5.132  -3.196  46.756  1.00  0.00     0.000 C 
BRANCH   6   7
ATOM      7  C   UNL     1       5.491  -1.916  45.988  1.00  0.00     0.000 C 
BRANCH   7   8
ATOM      8  C   UNL     1       5.932  -0.805  46.951  1.00  0.00     0.000 C 
BRANCH   8   9
ATOM      9  C   UNL     1       7.459  -0.657  46.959  1.00  0.00     0.000 C 
BRANCH   9  10
ATOM     10  C   UNL     1       8.092  -1.539  48.045  1.00  0.00     0.006 C 
BRANCH  10  11
ATOM     11  C   UNL     1       8.945  -2.669  47.454  1.00  0.00     0.053 C 
BRANCH  11  12
ATOM     12  C   UNL     1       8.645  -3.988  48.096  1.00  0.00     0.041 C 
ATOM     13  O   UNL     1       7.929  -4.836  47.499  1.00  0.00    -0.550 OA
ATOM     14  O   UNL     1       9.114  -4.264  49.374  1.00  0.00    -0.550 OA
ENDBRANCH  11  12
ENDBRANCH  10  11
ENDBRANCH   9  10
ENDBRANCH   8   9
ENDBRANCH   7   8
ENDBRANCH   6   7
ENDBRANCH   5   6
ENDBRANCH   4   5
ENDBRANCH   3   4
ENDBRANCH   2   3
ENDBRANCH   1   2
BRANCH   1  15
ATOM     15  C   UNL     1       6.723  -0.811  52.366  1.00  0.00     0.000 C 
BRANCH  15  16
ATOM     16  C   UNL     1       7.780  -0.683  53.477  1.00  0.00     0.000 C 
BRANCH  16  17
ATOM     17  C   UNL     1       8.081   0.781  53.842  1.00  0.00     0.000 C 
BRANCH  17  18
ATOM     18  C   UNL     1       8.536   0.945  55.301  1.00  0.00    -0.000 C 
BRANCH  18  19
ATOM     19  C   UNL     1      10.052   1.183  55.420  1.00  0.00    -0.000 C 
BRANCH  19  20
ATOM     20  C   UNL     1      10.653   1.789  54.142  1.00  0.00    -0.000 C 
BRANCH  20  21
ATOM     21  C   UNL     1      11.176   3.219  54.356  1.00  0.00    -0.000 C 
BRANCH  21  22
ATOM     22  C   UNL     1      10.867   4.104  53.140  1.00  0.00    -0.000 C 
BRANCH  22  23
ATOM     23  C   UNL     1       9.384   4.064  52.739  1.00  0.00    -0.000 C 
BRANCH  23  24
ATOM     24  C   UNL     1       8.449   4.519  53.874  1.00  0.00    -0.000 C 
BRANCH  24  25
ATOM     25  C   UNL     1       6.969   4.257  53.558  1.00  0.00    -0.003 C 
ATOM     26  C   UNL     1       6.198   5.537  53.236  1.00  0.00     0.004 C 
ENDBRANCH  24  25
ENDBRANCH  23  24
ENDBRANCH  22  23
ENDBRANCH  21  22
ENDBRANCH  20  21
ENDBRANCH  19  20
ENDBRANCH  18  19
ENDBRANCH  17  18
ENDBRANCH  16  17
ENDBRANCH  15  16
ENDBRANCH   1  15
TORSDOF 22
ENDMDL
MODEL 6
REMARK VINA RESULT:    -4.722      3.169      8.330
REMARK INTER + INTRA:         -13.617
REMARK INTER:                 -10.932
REMARK INTRA:                  -2.685
REMARK UNBOUND:                -2.823
REMARK SMILES CCCCCCCCCCCCCCCCCCCCCCCC(=O)[O-]
REMARK SMILES IDX 13 1 14 2 15 3 16 4 17 5 18 6 19 7 20 8 21 9 22 10 23 11
REMARK SMILES IDX 24 12 25 13 26 14 12 15 11 16 10 17 9 18 8 19 7 20 6 21 5 22
REMARK SMILES IDX 4 23 3 24 2 25 1 26
REMARK H PARENT
REMARK Flexibility Score: inf
ROOT
ATOM      1  C   UNL     1       6.689  -0.778  52.388  1.00  0.00     0.000 C 
ENDROOT
BRANCH   1   2
ATOM      2  C   UNL     1       7.772  -0.687  53.486  1.00  0.00     0.000 C 
BRANCH   2   3
ATOM      3  C   UNL     1       8.075   0.765  53.888  1.00  0.00     0.000 C 
BRANCH   3   4
ATOM      4  C   UNL     1       8.787   0.825  55.245  1.00  0.00     0.000 C 
BRANCH   4   5
ATOM      5  C   UNL     1       9.886   1.898  55.242  1.00  0.00     0.000 C 
BRANCH   5   6
ATOM      6  C   UNL     1      10.810   1.792  54.019  1.00  0.00     0.000 C 
BRANCH   6   7
ATOM      7  C   UNL     1      11.475   3.130  53.666  1.00  0.00     0.000 C 
BRANCH   7   8
ATOM      8  C   UNL     1      10.930   3.681  52.342  1.00  0.00     0.000 C 
BRANCH   8   9
ATOM      9  C   UNL     1      10.222   5.025  52.555  1.00  0.00     0.000 C 
BRANCH   9  10
ATOM     10  C   UNL     1       8.757   4.954  52.101  1.00  0.00     0.006 C 
BRANCH  10  11
ATOM     11  C   UNL     1       7.840   4.364  53.181  1.00  0.00     0.053 C 
BRANCH  11  12
ATOM     12  C   UNL     1       6.456   4.930  53.108  1.00  0.00     0.041 C 
ATOM     13  O   UNL     1       5.485   4.194  52.788  1.00  0.00    -0.550 OA
ATOM     14  O   UNL     1       6.243   6.283  53.344  1.00  0.00    -0.550 OA
ENDBRANCH  11  12
ENDBRANCH  10  11
ENDBRANCH   9  10
ENDBRANCH   8   9
ENDBRANCH   7   8
ENDBRANCH   6   7
ENDBRANCH   5   6
ENDBRANCH   4   5
ENDBRANCH   3   4
ENDBRANCH   2   3
ENDBRANCH   1   2
BRANCH   1  15
ATOM     15  C   UNL     1       6.974  -1.852  51.320  1.00  0.00     0.000 C 
BRANCH  15  16
ATOM     16  C   UNL     1       5.739  -2.328  50.537  1.00  0.00     0.000 C 
BRANCH  16  17
ATOM     17  C   UNL     1       5.401  -3.805  50.804  1.00  0.00     0.000 C 
BRANCH  17  18
ATOM     18  C   UNL     1       4.898  -4.533  49.548  1.00  0.00    -0.000 C 
BRANCH  18  19
ATOM     19  C   UNL     1       5.798  -4.283  48.324  1.00  0.00    -0.000 C 
BRANCH  19  20
ATOM     20  C   UNL     1       5.034  -3.640  47.155  1.00  0.00    -0.000 C 
BRANCH  20  21
ATOM     21  C   UNL     1       5.892  -2.634  46.372  1.00  0.00    -0.000 C 
BRANCH  21  22
ATOM     22  C   UNL     1       5.929  -1.274  47.084  1.00  0.00    -0.000 C 
BRANCH  22  23
ATOM     23  C   UNL     1       7.351  -0.858  47.492  1.00  0.00    -0.000 C 
BRANCH  23  24
ATOM     24  C   UNL     1       8.382  -1.983  47.288  1.00  0.00    -0.000 C 
BRANCH  24  25
ATOM     25  C   UNL     1       9.203  -2.266  48.553  1.00  0.00    -0.003 C 
ATOM     26  C   UNL     1       9.532  -3.748  48.726  1.00  0.00     0.004 C 
ENDBRANCH  24  25
ENDBRANCH  23  24
ENDBRANCH  22  23
ENDBRANCH  21  22
ENDBRANCH  20  21
ENDBRANCH  19  20
ENDBRANCH  18  19
ENDBRANCH  17  18
ENDBRANCH  16  17
ENDBRANCH  15  16
ENDBRANCH   1  15
TORSDOF 22
ENDMDL
MODEL 7
REMARK VINA RESULT:    -4.717      2.960      8.052
REMARK INTER + INTRA:         -13.606
REMARK INTER:                 -10.649
REMARK INTRA:                  -2.957
REMARK UNBOUND:                -2.823
REMARK SMILES CCCCCCCCCCCCCCCCCCCCCCCC(=O)[O-]
REMARK SMILES IDX 13 1 14 2 15 3 16 4 17 5 18 6 19 7 20 8 21 9 22 10 23 11
REMARK SMILES IDX 24 12 25 13 26 14 12 15 11 16 10 17 9 18 8 19 7 20 6 21 5 22
REMARK SMILES IDX 4 23 3 24 2 25 1 26
REMARK H PARENT
REMARK Flexibility Score: inf
ROOT
ATOM      1  C   UNL     1       6.623  -0.827  52.301  1.00  0.00     0.000 C 
ENDROOT
BRANCH   1   2
ATOM      2  C   UNL     1       7.734  -0.901  53.372  1.00  0.00     0.000 C 
BRANCH   2   3
ATOM      3  C   UNL     1       8.123   0.486  53.907  1.00  0.00     0.000 C 
BRANCH   3   4
ATOM      4  C   UNL     1       8.886   0.373  55.232  1.00  0.00     0.000 C 
BRANCH   4   5
ATOM      5  C   UNL     1       9.639   1.674  55.546  1.00  0.00     0.000 C 
BRANCH   5   6
ATOM      6  C   UNL     1      10.751   1.972  54.528  1.00  0.00     0.000 C 
BRANCH   6   7
ATOM      7  C   UNL     1      10.661   3.394  53.957  1.00  0.00     0.000 C 
BRANCH   7   8
ATOM      8  C   UNL     1       9.321   4.047  54.323  1.00  0.00     0.000 C 
BRANCH   8   9
ATOM      9  C   UNL     1       9.013   5.228  53.393  1.00  0.00     0.000 C 
BRANCH   9  10
ATOM     10  C   UNL     1       8.663   4.740  51.980  1.00  0.00     0.006 C 
BRANCH  10  11
ATOM     11  C   UNL     1       9.344   5.578  50.889  1.00  0.00     0.053 C 
BRANCH  11  12
ATOM     12  C   UNL     1      10.319   4.768  50.091  1.00  0.00     0.041 C 
ATOM     13  O   UNL     1      10.023   4.383  48.928  1.00  0.00    -0.550 OA
ATOM     14  O   UNL     1      11.535   4.394  50.649  1.00  0.00    -0.550 OA
ENDBRANCH  11  12
ENDBRANCH  10  11
ENDBRANCH   9  10
ENDBRANCH   8   9
ENDBRANCH   7   8
ENDBRANCH   6   7
ENDBRANCH   5   6
ENDBRANCH   4   5
ENDBRANCH   3   4
ENDBRANCH   2   3
ENDBRANCH   1   2
BRANCH   1  15
ATOM     15  C   UNL     1       6.686  -1.961  51.259  1.00  0.00     0.000 C 
BRANCH  15  16
ATOM     16  C   UNL     1       5.513  -1.991  50.265  1.00  0.00     0.000 C 
BRANCH  16  17
ATOM     17  C   UNL     1       5.186  -3.413  49.777  1.00  0.00     0.000 C 
BRANCH  17  18
ATOM     18  C   UNL     1       6.345  -4.396  50.002  1.00  0.00    -0.000 C 
BRANCH  18  19
ATOM     19  C   UNL     1       6.721  -5.164  48.722  1.00  0.00    -0.000 C 
BRANCH  19  20
ATOM     20  C   UNL     1       7.948  -4.564  48.017  1.00  0.00    -0.000 C 
BRANCH  20  21
ATOM     21  C   UNL     1       8.901  -3.855  48.993  1.00  0.00    -0.000 C 
BRANCH  21  22
ATOM     22  C   UNL     1       9.151  -2.404  48.558  1.00  0.00    -0.000 C 
BRANCH  22  23
ATOM     23  C   UNL     1       8.335  -2.008  47.317  1.00  0.00    -0.000 C 
BRANCH  23  24
ATOM     24  C   UNL     1       7.460  -0.764  47.554  1.00  0.00    -0.000 C 
BRANCH  24  25
ATOM     25  C   UNL     1       6.254  -0.703  46.606  1.00  0.00    -0.003 C 
ATOM     26  C   UNL     1       5.617  -2.073  46.372  1.00  0.00     0.004 C 
ENDBRANCH  24  25
ENDBRANCH  23  24
ENDBRANCH  22  23
ENDBRANCH  21  22
ENDBRANCH  20  21
ENDBRANCH  19  20
ENDBRANCH  18  19
ENDBRANCH  17  18
ENDBRANCH  16  17
ENDBRANCH  15  16
ENDBRANCH   1  15
TORSDOF 22
ENDMDL
MODEL 8
REMARK VINA RESULT:    -4.604     10.755     14.914
REMARK INTER + INTRA:         -13.348
REMARK INTER:                 -11.007
REMARK INTRA:                  -2.342
REMARK UNBOUND:                -2.823
REMARK SMILES CCCCCCCCCCCCCCCCCCCCCCCC(=O)[O-]
REMARK SMILES IDX 13 1 14 2 15 3 16 4 17 5 18 6 19 7 20 8 21 9 22 10 23 11
REMARK SMILES IDX 24 12 25 13 26 14 12 15 11 16 10 17 9 18 8 19 7 20 6 21 5 22
REMARK SMILES IDX 4 23 3 24 2 25 1 26
REMARK H PARENT
REMARK Flexibility Score: inf
ROOT
ATOM      1  C   UNL     1       1.391   9.594  47.054  1.00  0.00     0.000 C 
ENDROOT
BRANCH   1   2
ATOM      2  C   UNL     1       2.230  10.847  47.387  1.00  0.00     0.000 C 
BRANCH   2   3
ATOM      3  C   UNL     1       2.532  10.965  48.890  1.00  0.00     0.000 C 
BRANCH   3   4
ATOM      4  C   UNL     1       2.822  12.418  49.283  1.00  0.00     0.000 C 
BRANCH   4   5
ATOM      5  C   UNL     1       4.318  12.624  49.561  1.00  0.00     0.000 C 
BRANCH   5   6
ATOM      6  C   UNL     1       5.055  13.268  48.376  1.00  0.00     0.000 C 
BRANCH   6   7
ATOM      7  C   UNL     1       6.452  12.669  48.156  1.00  0.00     0.000 C 
BRANCH   7   8
ATOM      8  C   UNL     1       6.421  11.142  48.294  1.00  0.00     0.000 C 
BRANCH   8   9
ATOM      9  C   UNL     1       5.936  10.482  46.997  1.00  0.00     0.000 C 
BRANCH   9  10
ATOM     10  C   UNL     1       7.109  10.205  46.047  1.00  0.00     0.006 C 
BRANCH  10  11
ATOM     11  C   UNL     1       8.344   9.670  46.785  1.00  0.00     0.053 C 
BRANCH  11  12
ATOM     12  C   UNL     1       8.435   8.177  46.708  1.00  0.00     0.041 C 
ATOM     13  O   UNL     1       8.488   7.490  47.763  1.00  0.00    -0.550 OA
ATOM     14  O   UNL     1       8.513   7.546  45.473  1.00  0.00    -0.550 OA
ENDBRANCH  11  12
ENDBRANCH  10  11
ENDBRANCH   9  10
ENDBRANCH   8   9
ENDBRANCH   7   8
ENDBRANCH   6   7
ENDBRANCH   5   6
ENDBRANCH   4   5
ENDBRANCH   3   4
ENDBRANCH   2   3
ENDBRANCH   1   2
BRANCH   1  15
ATOM     15  C   UNL     1       0.840   8.865  48.295  1.00  0.00     0.000 C 
BRANCH  15  16
ATOM     16  C   UNL     1      -0.645   8.473  48.209  1.00  0.00     0.000 C 
BRANCH  16  17
ATOM     17  C   UNL     1      -1.354   9.102  46.997  1.00  0.00     0.000 C 
BRANCH  17  18
ATOM     18  C   UNL     1      -2.617   8.329  46.584  1.00  0.00    -0.000 C 
BRANCH  18  19
ATOM     19  C   UNL     1      -2.483   7.684  45.193  1.00  0.00    -0.000 C 
BRANCH  19  20
ATOM     20  C   UNL     1      -1.244   8.184  44.432  1.00  0.00    -0.000 C 
BRANCH  20  21
ATOM     21  C   UNL     1      -1.600   9.178  43.314  1.00  0.00    -0.000 C 
BRANCH  21  22
ATOM     22  C   UNL     1      -0.733   8.936  42.070  1.00  0.00    -0.000 C 
BRANCH  22  23
ATOM     23  C   UNL     1      -0.577   7.444  41.736  1.00  0.00    -0.000 C 
BRANCH  23  24
ATOM     24  C   UNL     1      -1.591   6.961  40.684  1.00  0.00    -0.000 C 
BRANCH  24  25
ATOM     25  C   UNL     1      -2.136   5.559  40.991  1.00  0.00    -0.003 C 
ATOM     26  C   UNL     1      -1.909   5.143  42.444  1.00  0.00     0.004 C 
ENDBRANCH  24  25
ENDBRANCH  23  24
ENDBRANCH  22  23
ENDBRANCH  21  22
ENDBRANCH  20  21
ENDBRANCH  19  20
ENDBRANCH  18  19
ENDBRANCH  17  18
ENDBRANCH  16  17
ENDBRANCH  15  16
ENDBRANCH   1  15
TORSDOF 22
ENDMDL
MODEL 9
REMARK VINA RESULT:    -4.555      9.955     13.901
REMARK INTER + INTRA:         -13.237
REMARK INTER:                  -9.805
REMARK INTRA:                  -3.432
REMARK UNBOUND:                -2.823
REMARK SMILES CCCCCCCCCCCCCCCCCCCCCCCC(=O)[O-]
REMARK SMILES IDX 13 1 14 2 15 3 16 4 17 5 18 6 19 7 20 8 21 9 22 10 23 11
REMARK SMILES IDX 24 12 25 13 26 14 12 15 11 16 10 17 9 18 8 19 7 20 6 21 5 22
REMARK SMILES IDX 4 23 3 24 2 25 1 26
REMARK H PARENT
REMARK Flexibility Score: inf
ROOT
ATOM      1  C   UNL     1       6.665  11.312  47.450  1.00  0.00     0.000 C 
ENDROOT
BRANCH   1   2
ATOM      2  C   UNL     1       6.563  10.717  48.872  1.00  0.00     0.000 C 
BRANCH   2   3
ATOM      3  C   UNL     1       5.359  11.270  49.651  1.00  0.00     0.000 C 
BRANCH   3   4
ATOM      4  C   UNL     1       4.722  12.455  48.916  1.00  0.00     0.000 C 
BRANCH   4   5
ATOM      5  C   UNL     1       3.312  12.741  49.452  1.00  0.00     0.000 C 
BRANCH   5   6
ATOM      6  C   UNL     1       2.213  12.089  48.598  1.00  0.00     0.000 C 
BRANCH   6   7
ATOM      7  C   UNL     1       2.670  11.820  47.157  1.00  0.00     0.000 C 
BRANCH   7   8
ATOM      8  C   UNL     1       2.528  10.333  46.805  1.00  0.00     0.000 C 
BRANCH   8   9
ATOM      9  C   UNL     1       1.770   9.578  47.905  1.00  0.00     0.000 C 
BRANCH   9  10
ATOM     10  C   UNL     1       0.488   8.939  47.351  1.00  0.00     0.006 C 
BRANCH  10  11
ATOM     11  C   UNL     1      -0.779   9.632  47.870  1.00  0.00     0.053 C 
BRANCH  11  12
ATOM     12  C   UNL     1      -1.230  10.728  46.953  1.00  0.00     0.041 C 
ATOM     13  O   UNL     1      -0.858  10.741  45.749  1.00  0.00    -0.550 OA
ATOM     14  O   UNL     1      -2.020  11.762  47.439  1.00  0.00    -0.550 OA
ENDBRANCH  11  12
ENDBRANCH  10  11
ENDBRANCH   9  10
ENDBRANCH   8   9
ENDBRANCH   7   8
ENDBRANCH   6   7
ENDBRANCH   5   6
ENDBRANCH   4   5
ENDBRANCH   3   4
ENDBRANCH   2   3
ENDBRANCH   1   2
BRANCH   1  15
ATOM     15  C   UNL     1       6.124  10.382  46.346  1.00  0.00     0.000 C 
BRANCH  15  16
ATOM     16  C   UNL     1       6.240  10.939  44.917  1.00  0.00     0.000 C 
BRANCH  16  17
ATOM     17  C   UNL     1       6.838  12.356  44.881  1.00  0.00     0.000 C 
BRANCH  17  18
ATOM     18  C   UNL     1       8.190  12.408  44.153  1.00  0.00    -0.000 C 
BRANCH  18  19
ATOM     19  C   UNL     1       9.350  12.779  45.095  1.00  0.00    -0.000 C 
BRANCH  19  20
ATOM     20  C   UNL     1      10.002  11.545  45.737  1.00  0.00    -0.000 C 
BRANCH  20  21
ATOM     21  C   UNL     1       9.800  10.269  44.903  1.00  0.00    -0.000 C 
BRANCH  21  22
ATOM     22  C   UNL     1      10.882   9.228  45.222  1.00  0.00    -0.000 C 
BRANCH  22  23
ATOM     23  C   UNL     1      10.301   7.828  45.477  1.00  0.00    -0.000 C 
BRANCH  23  24
ATOM     24  C   UNL     1       8.776   7.847  45.687  1.00  0.00    -0.000 C 
BRANCH  24  25
ATOM     25  C   UNL     1       8.383   7.685  47.162  1.00  0.00    -0.003 C 
ATOM     26  C   UNL     1       8.948   6.410  47.788  1.00  0.00     0.004 C 
ENDBRANCH  24  25
ENDBRANCH  23  24
ENDBRANCH  22  23
ENDBRANCH  21  22
ENDBRANCH  20  21
ENDBRANCH  19  20
ENDBRANCH  18  19
ENDBRANCH  17  18
ENDBRANCH  16  17
ENDBRANCH  15  16
ENDBRANCH   1  15
TORSDOF 22
ENDMDL
