MODEL 1
REMARK VINA RESULT:     0.042      0.000      0.000
REMARK INTER + INTRA:          -0.569
REMARK INTER:                   0.078
REMARK INTRA:                  -0.647
REMARK UNBOUND:                -0.647
REMARK SMILES O=C([O-])CCCCCCCCCCCCCCC(=O)[O-]
REMARK SMILES IDX 10 1 9 2 8 3 7 4 6 5 5 6 4 7 2 8 1 9 3 10 11 11 12 12 13 13
REMARK SMILES IDX 14 14 15 15 16 16 17 17 18 18 19 19 20 20
REMARK H PARENT
REMARK Flexibility Score: inf
ROOT
ATOM      1  C   UNL     1      -5.041  38.364  20.550  1.00  0.00     0.000 C 
ENDROOT
BRANCH   1   2
ATOM      2  C   UNL     1      -5.434  37.228  19.582  1.00  0.00     0.000 C 
BRANCH   2   3
ATOM      3  C   UNL     1      -4.670  35.924  19.871  1.00  0.00     0.000 C 
BRANCH   3   4
ATOM      4  C   UNL     1      -5.353  34.688  19.248  1.00  0.00     0.000 C 
BRANCH   4   5
ATOM      5  C   UNL     1      -4.876  34.368  17.819  1.00  0.00     0.000 C 
BRANCH   5   6
ATOM      6  C   UNL     1      -3.915  35.405  17.207  1.00  0.00     0.006 C 
BRANCH   6   7
ATOM      7  C   UNL     1      -3.395  35.041  15.806  1.00  0.00     0.053 C 
BRANCH   7   8
ATOM      8  C   UNL     1      -3.127  36.257  14.976  1.00  0.00     0.041 C 
ATOM      9  O   UNL     1      -2.085  36.325  14.270  1.00  0.00    -0.550 OA
ATOM     10  O   UNL     1      -4.008  37.330  15.009  1.00  0.00    -0.550 OA
ENDBRANCH   7   8
ENDBRANCH   6   7
ENDBRANCH   5   6
ENDBRANCH   4   5
ENDBRANCH   3   4
ENDBRANCH   2   3
ENDBRANCH   1   2
BRANCH   1  11
ATOM     11  C   UNL     1      -6.088  39.488  20.637  1.00  0.00     0.000 C 
BRANCH  11  12
ATOM     12  C   UNL     1      -5.952  40.333  21.914  1.00  0.00     0.000 C 
BRANCH  12  13
ATOM     13  C   UNL     1      -4.888  39.779  22.876  1.00  0.00     0.000 C 
BRANCH  13  14
ATOM     14  C   UNL     1      -5.492  39.300  24.206  1.00  0.00     0.000 C 
BRANCH  14  15
ATOM     15  C   UNL     1      -6.125  37.902  24.105  1.00  0.00     0.000 C 
BRANCH  15  16
ATOM     16  C   UNL     1      -5.216  36.774  24.637  1.00  0.00     0.006 C 
BRANCH  16  17
ATOM     17  C   UNL     1      -6.008  35.507  24.990  1.00  0.00     0.053 C 
BRANCH  17  18
ATOM     18  C   UNL     1      -6.027  34.561  23.831  1.00  0.00     0.041 C 
ATOM     19  O   UNL     1      -5.915  34.998  22.655  1.00  0.00    -0.550 OA
ATOM     20  O   UNL     1      -6.122  33.193  24.052  1.00  0.00    -0.550 OA
ENDBRANCH  17  18
ENDBRANCH  16  17
ENDBRANCH  15  16
ENDBRANCH  14  15
ENDBRANCH  13  14
ENDBRANCH  12  13
ENDBRANCH  11  12
ENDBRANCH   1  11
TORSDOF 15
ENDMDL
MODEL 2
REMARK VINA RESULT:     0.076      2.006      3.516
REMARK INTER + INTRA:          -0.503
REMARK INTER:                   0.049
REMARK INTRA:                  -0.552
REMARK UNBOUND:                -0.647
REMARK SMILES O=C([O-])CCCCCCCCCCCCCCC(=O)[O-]
REMARK SMILES IDX 10 1 9 2 8 3 7 4 6 5 5 6 4 7 2 8 1 9 3 10 11 11 12 12 13 13
REMARK SMILES IDX 14 14 15 15 16 16 17 17 18 18 19 19 20 20
REMARK H PARENT
REMARK Flexibility Score: inf
ROOT
ATOM      1  C   UNL     1      -5.714  35.331  22.245  1.00  0.00     0.000 C 
ENDROOT
BRANCH   1   2
ATOM      2  C   UNL     1      -4.670  35.486  21.118  1.00  0.00     0.000 C 
BRANCH   2   3
ATOM      3  C   UNL     1      -5.323  35.771  19.754  1.00  0.00     0.000 C 
BRANCH   3   4
ATOM      4  C   UNL     1      -5.742  34.479  19.019  1.00  0.00     0.000 C 
BRANCH   4   5
ATOM      5  C   UNL     1      -4.932  34.201  17.739  1.00  0.00     0.000 C 
BRANCH   5   6
ATOM      6  C   UNL     1      -4.280  35.442  17.099  1.00  0.00     0.006 C 
BRANCH   6   7
ATOM      7  C   UNL     1      -3.107  35.129  16.156  1.00  0.00     0.053 C 
BRANCH   7   8
ATOM      8  C   UNL     1      -3.057  36.070  14.994  1.00  0.00     0.041 C 
ATOM      9  O   UNL     1      -1.971  36.274  14.389  1.00  0.00    -0.550 OA
ATOM     10  O   UNL     1      -4.203  36.750  14.600  1.00  0.00    -0.550 OA
ENDBRANCH   7   8
ENDBRANCH   6   7
ENDBRANCH   5   6
ENDBRANCH   4   5
ENDBRANCH   3   4
ENDBRANCH   2   3
ENDBRANCH   1   2
BRANCH   1  11
ATOM     11  C   UNL     1      -5.169  34.616  23.493  1.00  0.00     0.000 C 
BRANCH  11  12
ATOM     12  C   UNL     1      -6.125  34.700  24.694  1.00  0.00     0.000 C 
BRANCH  12  13
ATOM     13  C   UNL     1      -6.071  36.066  25.395  1.00  0.00     0.000 C 
BRANCH  13  14
ATOM     14  C   UNL     1      -4.739  36.797  25.157  1.00  0.00     0.000 C 
BRANCH  14  15
ATOM     15  C   UNL     1      -4.837  38.312  25.402  1.00  0.00     0.000 C 
BRANCH  15  16
ATOM     16  C   UNL     1      -5.663  39.057  24.332  1.00  0.00     0.006 C 
BRANCH  16  17
ATOM     17  C   UNL     1      -5.613  38.356  22.968  1.00  0.00     0.053 C 
BRANCH  17  18
ATOM     18  C   UNL     1      -5.674  39.361  21.861  1.00  0.00     0.041 C 
ATOM     19  O   UNL     1      -5.611  40.592  22.119  1.00  0.00    -0.550 OA
ATOM     20  O   UNL     1      -5.754  38.937  20.540  1.00  0.00    -0.550 OA
ENDBRANCH  17  18
ENDBRANCH  16  17
ENDBRANCH  15  16
ENDBRANCH  14  15
ENDBRANCH  13  14
ENDBRANCH  12  13
ENDBRANCH  11  12
ENDBRANCH   1  11
TORSDOF 15
ENDMDL
MODEL 3
REMARK VINA RESULT:     0.309      1.563      8.289
REMARK INTER + INTRA:          -0.066
REMARK INTER:                   0.303
REMARK INTRA:                  -0.369
REMARK UNBOUND:                -0.647
REMARK SMILES O=C([O-])CCCCCCCCCCCCCCC(=O)[O-]
REMARK SMILES IDX 10 1 9 2 8 3 7 4 6 5 5 6 4 7 2 8 1 9 3 10 11 11 12 12 13 13
REMARK SMILES IDX 14 14 15 15 16 16 17 17 18 18 19 19 20 20
REMARK H PARENT
REMARK Flexibility Score: inf
ROOT
ATOM      1  C   UNL     1      -5.631  36.847  21.202  1.00  0.00     0.000 C 
ENDROOT
BRANCH   1   2
ATOM      2  C   UNL     1      -5.846  37.713  19.942  1.00  0.00     0.000 C 
BRANCH   2   3
ATOM      3  C   UNL     1      -5.554  39.202  20.202  1.00  0.00     0.000 C 
BRANCH   3   4
ATOM      4  C   UNL     1      -6.005  39.656  21.607  1.00  0.00     0.000 C 
BRANCH   4   5
ATOM      5  C   UNL     1      -4.924  39.490  22.691  1.00  0.00     0.000 C 
BRANCH   5   6
ATOM      6  C   UNL     1      -5.461  39.216  24.108  1.00  0.00     0.006 C 
BRANCH   6   7
ATOM      7  C   UNL     1      -6.109  37.833  24.286  1.00  0.00     0.053 C 
BRANCH   7   8
ATOM      8  C   UNL     1      -5.361  36.987  25.268  1.00  0.00     0.041 C 
ATOM      9  O   UNL     1      -5.590  35.749  25.341  1.00  0.00    -0.550 OA
ATOM     10  O   UNL     1      -4.438  37.569  26.127  1.00  0.00    -0.550 OA
ENDBRANCH   7   8
ENDBRANCH   6   7
ENDBRANCH   5   6
ENDBRANCH   4   5
ENDBRANCH   3   4
ENDBRANCH   2   3
ENDBRANCH   1   2
BRANCH   1  11
ATOM     11  C   UNL     1      -5.874  35.347  20.964  1.00  0.00     0.000 C 
BRANCH  11  12
ATOM     12  C   UNL     1      -5.796  34.958  19.479  1.00  0.00     0.000 C 
BRANCH  12  13
ATOM     13  C   UNL     1      -4.349  34.780  18.991  1.00  0.00     0.000 C 
BRANCH  13  14
ATOM     14  C   UNL     1      -4.263  34.561  17.472  1.00  0.00     0.000 C 
BRANCH  14  15
ATOM     15  C   UNL     1      -3.727  35.790  16.720  1.00  0.00     0.000 C 
BRANCH  15  16
ATOM     16  C   UNL     1      -3.179  35.463  15.315  1.00  0.00     0.006 C 
BRANCH  16  17
ATOM     17  C   UNL     1      -2.876  36.728  14.500  1.00  0.00     0.053 C 
BRANCH  17  18
ATOM     18  C   UNL     1      -4.137  37.481  14.215  1.00  0.00     0.041 C 
ATOM     19  O   UNL     1      -5.181  36.864  13.875  1.00  0.00    -0.550 OA
ATOM     20  O   UNL     1      -4.172  38.861  14.371  1.00  0.00    -0.550 OA
ENDBRANCH  17  18
ENDBRANCH  16  17
ENDBRANCH  15  16
ENDBRANCH  14  15
ENDBRANCH  13  14
ENDBRANCH  12  13
ENDBRANCH  11  12
ENDBRANCH   1  11
TORSDOF 15
ENDMDL
MODEL 4
REMARK VINA RESULT:     0.433      2.104      7.263
REMARK INTER + INTRA:           0.166
REMARK INTER:                   1.119
REMARK INTRA:                  -0.953
REMARK UNBOUND:                -0.647
REMARK SMILES O=C([O-])CCCCCCCCCCCCCCC(=O)[O-]
REMARK SMILES IDX 10 1 9 2 8 3 7 4 6 5 5 6 4 7 2 8 1 9 3 10 11 11 12 12 13 13
REMARK SMILES IDX 14 14 15 15 16 16 17 17 18 18 19 19 20 20
REMARK H PARENT
REMARK Flexibility Score: inf
ROOT
ATOM      1  C   UNL     1      -6.063  34.666  23.578  1.00  0.00     0.000 C 
ENDROOT
BRANCH   1   2
ATOM      2  C   UNL     1      -5.739  35.248  24.971  1.00  0.00     0.000 C 
BRANCH   2   3
ATOM      3  C   UNL     1      -6.112  36.737  25.081  1.00  0.00     0.000 C 
BRANCH   3   4
ATOM      4  C   UNL     1      -4.941  37.602  25.595  1.00  0.00     0.000 C 
BRANCH   4   5
ATOM      5  C   UNL     1      -4.614  38.806  24.691  1.00  0.00     0.000 C 
BRANCH   5   6
ATOM      6  C   UNL     1      -5.743  39.225  23.731  1.00  0.00     0.006 C 
BRANCH   6   7
ATOM      7  C   UNL     1      -5.780  38.438  22.410  1.00  0.00     0.053 C 
BRANCH   7   8
ATOM      8  C   UNL     1      -5.916  39.342  21.225  1.00  0.00     0.041 C 
ATOM      9  O   UNL     1      -5.815  38.876  20.059  1.00  0.00    -0.550 OA
ATOM     10  O   UNL     1      -6.118  40.704  21.408  1.00  0.00    -0.550 OA
ENDBRANCH   7   8
ENDBRANCH   6   7
ENDBRANCH   5   6
ENDBRANCH   4   5
ENDBRANCH   3   4
ENDBRANCH   2   3
ENDBRANCH   1   2
BRANCH   1  11
ATOM     11  C   UNL     1      -4.812  34.326  22.749  1.00  0.00     0.000 C 
BRANCH  11  12
ATOM     12  C   UNL     1      -4.662  35.217  21.505  1.00  0.00     0.000 C 
BRANCH  12  13
ATOM     13  C   UNL     1      -5.967  35.331  20.700  1.00  0.00     0.000 C 
BRANCH  13  14
ATOM     14  C   UNL     1      -5.717  35.623  19.212  1.00  0.00     0.000 C 
BRANCH  14  15
ATOM     15  C   UNL     1      -4.380  35.054  18.708  1.00  0.00     0.000 C 
BRANCH  15  16
ATOM     16  C   UNL     1      -4.367  34.759  17.194  1.00  0.00     0.006 C 
BRANCH  16  17
ATOM     17  C   UNL     1      -2.982  34.981  16.570  1.00  0.00     0.053 C 
BRANCH  17  18
ATOM     18  C   UNL     1      -3.089  35.836  15.347  1.00  0.00     0.041 C 
ATOM     19  O   UNL     1      -2.091  35.995  14.596  1.00  0.00    -0.550 OA
ATOM     20  O   UNL     1      -4.304  36.420  15.012  1.00  0.00    -0.550 OA
ENDBRANCH  17  18
ENDBRANCH  16  17
ENDBRANCH  15  16
ENDBRANCH  14  15
ENDBRANCH  13  14
ENDBRANCH  12  13
ENDBRANCH  11  12
ENDBRANCH   1  11
TORSDOF 15
ENDMDL
MODEL 5
REMARK VINA RESULT:     1.177      1.705      3.522
REMARK INTER + INTRA:           1.562
REMARK INTER:                   1.846
REMARK INTRA:                  -0.284
REMARK UNBOUND:                -0.647
REMARK SMILES O=C([O-])CCCCCCCCCCCCCCC(=O)[O-]
REMARK SMILES IDX 10 1 9 2 8 3 7 4 6 5 5 6 4 7 2 8 1 9 3 10 11 11 12 12 13 13
REMARK SMILES IDX 14 14 15 15 16 16 17 17 18 18 19 19 20 20
REMARK H PARENT
REMARK Flexibility Score: inf
ROOT
ATOM      1  C   UNL     1      -5.615  34.786  23.192  1.00  0.00     0.000 C 
ENDROOT
BRANCH   1   2
ATOM      2  C   UNL     1      -5.943  34.593  21.696  1.00  0.00     0.000 C 
BRANCH   2   3
ATOM      3  C   UNL     1      -4.815  35.103  20.782  1.00  0.00     0.000 C 
BRANCH   3   4
ATOM      4  C   UNL     1      -5.285  35.317  19.327  1.00  0.00     0.000 C 
BRANCH   4   5
ATOM      5  C   UNL     1      -4.389  34.634  18.277  1.00  0.00     0.000 C 
BRANCH   5   6
ATOM      6  C   UNL     1      -4.411  35.285  16.881  1.00  0.00     0.006 C 
BRANCH   6   7
ATOM      7  C   UNL     1      -3.066  35.239  16.137  1.00  0.00     0.053 C 
BRANCH   7   8
ATOM      8  C   UNL     1      -3.057  36.138  14.941  1.00  0.00     0.041 C 
ATOM      9  O   UNL     1      -2.062  36.155  14.168  1.00  0.00    -0.550 OA
ATOM     10  O   UNL     1      -4.131  36.985  14.700  1.00  0.00    -0.550 OA
ENDBRANCH   7   8
ENDBRANCH   6   7
ENDBRANCH   5   6
ENDBRANCH   4   5
ENDBRANCH   3   4
ENDBRANCH   2   3
ENDBRANCH   1   2
BRANCH   1  11
ATOM     11  C   UNL     1      -6.125  36.119  23.765  1.00  0.00     0.000 C 
BRANCH  11  12
ATOM     12  C   UNL     1      -6.106  36.154  25.303  1.00  0.00     0.000 C 
BRANCH  12  13
ATOM     13  C   UNL     1      -5.215  37.278  25.856  1.00  0.00     0.000 C 
BRANCH  13  14
ATOM     14  C   UNL     1      -4.466  38.034  24.747  1.00  0.00     0.000 C 
BRANCH  14  15
ATOM     15  C   UNL     1      -5.023  39.447  24.506  1.00  0.00     0.000 C 
BRANCH  15  16
ATOM     16  C   UNL     1      -6.121  39.500  23.424  1.00  0.00     0.006 C 
BRANCH  16  17
ATOM     17  C   UNL     1      -5.627  40.152  22.125  1.00  0.00     0.053 C 
BRANCH  17  18
ATOM     18  C   UNL     1      -5.723  39.188  20.986  1.00  0.00     0.041 C 
ATOM     19  O   UNL     1      -5.647  37.948  21.197  1.00  0.00    -0.550 OA
ATOM     20  O   UNL     1      -5.942  39.655  19.696  1.00  0.00    -0.550 OA
ENDBRANCH  17  18
ENDBRANCH  16  17
ENDBRANCH  15  16
ENDBRANCH  14  15
ENDBRANCH  13  14
ENDBRANCH  12  13
ENDBRANCH  11  12
ENDBRANCH   1  11
TORSDOF 15
ENDMDL
MODEL 6
REMARK VINA RESULT:     1.889      2.314      2.709
REMARK INTER + INTRA:           2.899
REMARK INTER:                   3.526
REMARK INTRA:                  -0.628
REMARK UNBOUND:                -0.647
REMARK SMILES O=C([O-])CCCCCCCCCCCCCCC(=O)[O-]
REMARK SMILES IDX 10 1 9 2 8 3 7 4 6 5 5 6 4 7 2 8 1 9 3 10 11 11 12 12 13 13
REMARK SMILES IDX 14 14 15 15 16 16 17 17 18 18 19 19 20 20
REMARK H PARENT
REMARK Flexibility Score: inf
ROOT
ATOM      1  C   UNL     1      -5.189  38.671  20.309  1.00  0.00     0.000 C 
ENDROOT
BRANCH   1   2
ATOM      2  C   UNL     1      -5.724  37.351  19.714  1.00  0.00     0.000 C 
BRANCH   2   3
ATOM      3  C   UNL     1      -4.757  36.175  19.942  1.00  0.00     0.000 C 
BRANCH   3   4
ATOM      4  C   UNL     1      -5.317  34.839  19.409  1.00  0.00     0.000 C 
BRANCH   4   5
ATOM      5  C   UNL     1      -4.730  34.417  18.049  1.00  0.00     0.000 C 
BRANCH   5   6
ATOM      6  C   UNL     1      -4.249  35.578  17.159  1.00  0.00     0.006 C 
BRANCH   6   7
ATOM      7  C   UNL     1      -3.209  35.179  16.100  1.00  0.00     0.053 C 
BRANCH   7   8
ATOM      8  C   UNL     1      -3.151  36.164  14.974  1.00  0.00     0.041 C 
ATOM      9  O   UNL     1      -4.142  36.902  14.727  1.00  0.00    -0.550 OA
ATOM     10  O   UNL     1      -2.018  36.241  14.174  1.00  0.00    -0.550 OA
ENDBRANCH   7   8
ENDBRANCH   6   7
ENDBRANCH   5   6
ENDBRANCH   4   5
ENDBRANCH   3   4
ENDBRANCH   2   3
ENDBRANCH   1   2
BRANCH   1  11
ATOM     11  C   UNL     1      -6.044  39.213  21.467  1.00  0.00     0.000 C 
BRANCH  11  12
ATOM     12  C   UNL     1      -5.197  39.794  22.612  1.00  0.00     0.000 C 
BRANCH  12  13
ATOM     13  C   UNL     1      -5.534  39.163  23.973  1.00  0.00     0.000 C 
BRANCH  13  14
ATOM     14  C   UNL     1      -5.875  37.669  23.860  1.00  0.00     0.000 C 
BRANCH  14  15
ATOM     15  C   UNL     1      -5.915  36.960  25.224  1.00  0.00     0.000 C 
BRANCH  15  16
ATOM     16  C   UNL     1      -4.521  36.572  25.758  1.00  0.00     0.006 C 
BRANCH  16  17
ATOM     17  C   UNL     1      -3.881  37.696  26.585  1.00  0.00     0.053 C 
BRANCH  17  18
ATOM     18  C   UNL     1      -2.502  37.310  27.016  1.00  0.00     0.041 C 
ATOM     19  O   UNL     1      -1.543  38.112  26.863  1.00  0.00    -0.550 OA
ATOM     20  O   UNL     1      -2.283  36.082  27.628  1.00  0.00    -0.550 OA
ENDBRANCH  17  18
ENDBRANCH  16  17
ENDBRANCH  15  16
ENDBRANCH  14  15
ENDBRANCH  13  14
ENDBRANCH  12  13
ENDBRANCH  11  12
ENDBRANCH   1  11
TORSDOF 15
ENDMDL
MODEL 7
REMARK VINA RESULT:     2.479      2.501      3.467
REMARK INTER + INTRA:           4.006
REMARK INTER:                   3.483
REMARK INTRA:                   0.522
REMARK UNBOUND:                -0.647
REMARK SMILES O=C([O-])CCCCCCCCCCCCCCC(=O)[O-]
REMARK SMILES IDX 10 1 9 2 8 3 7 4 6 5 5 6 4 7 2 8 1 9 3 10 11 11 12 12 13 13
REMARK SMILES IDX 14 14 15 15 16 16 17 17 18 18 19 19 20 20
REMARK H PARENT
REMARK Flexibility Score: inf
ROOT
ATOM      1  C   UNL     1      -4.030  35.794  19.765  1.00  0.00     0.000 C 
ENDROOT
BRANCH   1   2
ATOM      2  C   UNL     1      -4.161  34.484  18.958  1.00  0.00     0.000 C 
BRANCH   2   3
ATOM      3  C   UNL     1      -4.895  34.695  17.622  1.00  0.00     0.000 C 
BRANCH   3   4
ATOM      4  C   UNL     1      -3.976  34.469  16.402  1.00  0.00     0.000 C 
BRANCH   4   5
ATOM      5  C   UNL     1      -3.182  35.720  15.982  1.00  0.00     0.000 C 
BRANCH   5   6
ATOM      6  C   UNL     1      -3.098  35.958  14.463  1.00  0.00     0.006 C 
BRANCH   6   7
ATOM      7  C   UNL     1      -4.268  36.767  13.880  1.00  0.00     0.053 C 
BRANCH   7   8
ATOM      8  C   UNL     1      -4.308  38.162  14.421  1.00  0.00     0.041 C 
ATOM      9  O   UNL     1      -3.495  38.518  15.317  1.00  0.00    -0.550 OA
ATOM     10  O   UNL     1      -5.265  39.059  13.964  1.00  0.00    -0.550 OA
ENDBRANCH   7   8
ENDBRANCH   6   7
ENDBRANCH   5   6
ENDBRANCH   4   5
ENDBRANCH   3   4
ENDBRANCH   2   3
ENDBRANCH   1   2
BRANCH   1  11
ATOM     11  C   UNL     1      -5.375  36.337  20.276  1.00  0.00     0.000 C 
BRANCH  11  12
ATOM     12  C   UNL     1      -5.539  36.190  21.798  1.00  0.00     0.000 C 
BRANCH  12  13
ATOM     13  C   UNL     1      -4.680  35.054  22.376  1.00  0.00     0.000 C 
BRANCH  13  14
ATOM     14  C   UNL     1      -5.510  34.037  23.176  1.00  0.00     0.000 C 
BRANCH  14  15
ATOM     15  C   UNL     1      -6.125  34.639  24.451  1.00  0.00     0.000 C 
BRANCH  15  16
ATOM     16  C   UNL     1      -6.123  36.182  24.467  1.00  0.00     0.006 C 
BRANCH  16  17
ATOM     17  C   UNL     1      -5.852  36.749  25.867  1.00  0.00     0.053 C 
BRANCH  17  18
ATOM     18  C   UNL     1      -4.750  37.759  25.819  1.00  0.00     0.041 C 
ATOM     19  O   UNL     1      -4.966  38.911  25.356  1.00  0.00    -0.550 OA
ATOM     20  O   UNL     1      -3.497  37.446  26.329  1.00  0.00    -0.550 OA
ENDBRANCH  17  18
ENDBRANCH  16  17
ENDBRANCH  15  16
ENDBRANCH  14  15
ENDBRANCH  13  14
ENDBRANCH  12  13
ENDBRANCH  11  12
ENDBRANCH   1  11
TORSDOF 15
ENDMDL
MODEL 8
REMARK VINA RESULT:     2.591      2.093      3.780
REMARK INTER + INTRA:           4.216
REMARK INTER:                   5.227
REMARK INTRA:                  -1.012
REMARK UNBOUND:                -0.647
REMARK SMILES O=C([O-])CCCCCCCCCCCCCCC(=O)[O-]
REMARK SMILES IDX 10 1 9 2 8 3 7 4 6 5 5 6 4 7 2 8 1 9 3 10 11 11 12 12 13 13
REMARK SMILES IDX 14 14 15 15 16 16 17 17 18 18 19 19 20 20
REMARK H PARENT
REMARK Flexibility Score: inf
ROOT
ATOM      1  C   UNL     1      -4.969  39.319  23.036  1.00  0.00     0.000 C 
ENDROOT
BRANCH   1   2
ATOM      2  C   UNL     1      -5.612  40.447  22.201  1.00  0.00     0.000 C 
BRANCH   2   3
ATOM      3  C   UNL     1      -6.124  39.945  20.839  1.00  0.00     0.000 C 
BRANCH   3   4
ATOM      4  C   UNL     1      -6.100  38.405  20.731  1.00  0.00     0.000 C 
BRANCH   4   5
ATOM      5  C   UNL     1      -5.332  37.879  19.503  1.00  0.00     0.000 C 
BRANCH   5   6
ATOM      6  C   UNL     1      -4.746  36.463  19.660  1.00  0.00     0.006 C 
BRANCH   6   7
ATOM      7  C   UNL     1      -5.712  35.329  19.278  1.00  0.00     0.053 C 
BRANCH   7   8
ATOM      8  C   UNL     1      -5.164  34.477  18.176  1.00  0.00     0.041 C 
ATOM      9  O   UNL     1      -5.480  33.259  18.101  1.00  0.00    -0.550 OA
ATOM     10  O   UNL     1      -4.277  35.017  17.254  1.00  0.00    -0.550 OA
ENDBRANCH   7   8
ENDBRANCH   6   7
ENDBRANCH   5   6
ENDBRANCH   4   5
ENDBRANCH   3   4
ENDBRANCH   2   3
ENDBRANCH   1   2
BRANCH   1  11
ATOM     11  C   UNL     1      -5.282  39.413  24.539  1.00  0.00     0.000 C 
BRANCH  11  12
ATOM     12  C   UNL     1      -5.914  38.127  25.098  1.00  0.00     0.000 C 
BRANCH  12  13
ATOM     13  C   UNL     1      -4.894  37.237  25.826  1.00  0.00     0.000 C 
BRANCH  13  14
ATOM     14  C   UNL     1      -5.023  35.756  25.436  1.00  0.00     0.000 C 
BRANCH  14  15
ATOM     15  C   UNL     1      -6.124  35.506  24.392  1.00  0.00     0.000 C 
BRANCH  15  16
ATOM     16  C   UNL     1      -5.579  35.222  22.977  1.00  0.00     0.006 C 
BRANCH  16  17
ATOM     17  C   UNL     1      -4.869  33.863  22.890  1.00  0.00     0.053 C 
BRANCH  17  18
ATOM     18  C   UNL     1      -3.645  33.966  22.036  1.00  0.00     0.041 C 
ATOM     19  O   UNL     1      -3.038  32.925  21.670  1.00  0.00    -0.550 OA
ATOM     20  O   UNL     1      -3.200  35.210  21.606  1.00  0.00    -0.550 OA
ENDBRANCH  17  18
ENDBRANCH  16  17
ENDBRANCH  15  16
ENDBRANCH  14  15
ENDBRANCH  13  14
ENDBRANCH  12  13
ENDBRANCH  11  12
ENDBRANCH   1  11
TORSDOF 15
ENDMDL
