MODEL 1
REMARK VINA RESULT:    -4.051      0.000      0.000
REMARK INTER + INTRA:          -5.588
REMARK INTER:                  -5.472
REMARK INTRA:                  -0.116
REMARK UNBOUND:                -0.116
REMARK SMILES [NH3+]CCCC[C@H]([NH3+])C(=O)[O-]
REMARK SMILES IDX 4 1 3 2 2 3 1 4 5 8 6 9 7 10 8 14 9 15 10 16
REMARK H PARENT 1 5 1 6 1 7 7 11 7 12 7 13
REMARK Flexibility Score: inf
ROOT
ATOM      1  C   UNL     1     -10.358  34.270 -20.512  1.00  0.00     0.012 C 
ENDROOT
BRANCH   1   2
ATOM      2  C   UNL     1      -9.753  33.001 -21.124  1.00  0.00     0.061 C 
BRANCH   2   3
ATOM      3  C   UNL     1      -8.333  32.756 -20.597  1.00  0.00     0.258 C 
BRANCH   3   4
ATOM      4  N   UNL     1      -7.400  33.750 -21.126  1.00  0.00    -0.358 N 
ATOM      5  H   UNL     1      -6.623  33.275 -21.641  1.00  0.00     0.344 HD
ATOM      6  H   UNL     1      -6.996  34.296 -20.332  1.00  0.00     0.344 HD
ATOM      7  H   UNL     1      -7.900  34.406 -21.769  1.00  0.00     0.344 HD
ENDBRANCH   3   4
ENDBRANCH   2   3
ENDBRANCH   1   2
BRANCH   1   8
ATOM      8  C   UNL     1     -11.869  34.107 -20.289  1.00  0.00     0.072 C 
BRANCH   8   9
ATOM      9  C   UNL     1     -12.302  34.471 -18.851  1.00  0.00     0.227 C 
BRANCH   9  10
ATOM     10  N   UNL     1     -11.158  34.496 -17.929  1.00  0.00    -0.350 N 
ATOM     11  H   UNL     1     -11.345  35.167 -17.148  1.00  0.00     0.345 HD
ATOM     12  H   UNL     1     -10.301  34.825 -18.427  1.00  0.00     0.345 HD
ATOM     13  H   UNL     1     -10.984  33.546 -17.526  1.00  0.00     0.345 HD
ENDBRANCH   9  10
BRANCH   9  14
ATOM     14  C   UNL     1     -13.328  33.479 -18.371  1.00  0.00     0.099 C 
ATOM     15  O   UNL     1     -12.993  32.291 -18.121  1.00  0.00    -0.544 OA
ATOM     16  O   UNL     1     -14.648  33.872 -18.181  1.00  0.00    -0.544 OA
ENDBRANCH   9  14
ENDBRANCH   8   9
ENDBRANCH   1   8
TORSDOF 7
ENDMDL
MODEL 2
REMARK VINA RESULT:    -3.847      3.332      5.142
REMARK INTER + INTRA:          -5.313
REMARK INTER:                  -5.156
REMARK INTRA:                  -0.157
REMARK UNBOUND:                -0.116
REMARK SMILES [NH3+]CCCC[C@H]([NH3+])C(=O)[O-]
REMARK SMILES IDX 4 1 3 2 2 3 1 4 5 8 6 9 7 10 8 14 9 15 10 16
REMARK H PARENT 1 5 1 6 1 7 7 11 7 12 7 13
REMARK Flexibility Score: inf
ROOT
ATOM      1  C   UNL     1     -11.319  34.092 -18.070  1.00  0.00     0.012 C 
ENDROOT
BRANCH   1   2
ATOM      2  C   UNL     1     -12.664  33.368 -17.936  1.00  0.00     0.061 C 
BRANCH   2   3
ATOM      3  C   UNL     1     -13.724  33.998 -18.850  1.00  0.00     0.258 C 
BRANCH   3   4
ATOM      4  N   UNL     1     -15.004  34.124 -18.156  1.00  0.00    -0.358 N 
ATOM      5  H   UNL     1     -14.868  34.597 -17.233  1.00  0.00     0.344 HD
ATOM      6  H   UNL     1     -15.401  33.171 -17.993  1.00  0.00     0.344 HD
ATOM      7  H   UNL     1     -15.676  34.675 -18.739  1.00  0.00     0.344 HD
ENDBRANCH   3   4
ENDBRANCH   2   3
ENDBRANCH   1   2
BRANCH   1   8
ATOM      8  C   UNL     1     -10.294  33.218 -18.809  1.00  0.00     0.072 C 
BRANCH   8   9
ATOM      9  C   UNL     1      -9.995  33.728 -20.236  1.00  0.00     0.227 C 
BRANCH   9  10
ATOM     10  N   UNL     1     -10.980  33.235 -21.208  1.00  0.00    -0.350 N 
ATOM     11  H   UNL     1     -10.579  32.430 -21.745  1.00  0.00     0.345 HD
ATOM     12  H   UNL     1     -11.214  33.985 -21.897  1.00  0.00     0.345 HD
ATOM     13  H   UNL     1     -11.854  32.920 -20.727  1.00  0.00     0.345 HD
ENDBRANCH   9  10
BRANCH   9  14
ATOM     14  C   UNL     1      -8.611  33.297 -20.642  1.00  0.00     0.099 C 
ATOM     15  O   UNL     1      -8.168  32.174 -20.285  1.00  0.00    -0.544 OA
ATOM     16  O   UNL     1      -7.821  34.126 -21.430  1.00  0.00    -0.544 OA
ENDBRANCH   9  14
ENDBRANCH   8   9
ENDBRANCH   1   8
TORSDOF 7
ENDMDL
MODEL 3
REMARK VINA RESULT:    -3.779      3.407      4.943
REMARK INTER + INTRA:          -5.221
REMARK INTER:                  -5.087
REMARK INTRA:                  -0.134
REMARK UNBOUND:                -0.116
REMARK SMILES [NH3+]CCCC[C@H]([NH3+])C(=O)[O-]
REMARK SMILES IDX 4 1 3 2 2 3 1 4 5 8 6 9 7 10 8 14 9 15 10 16
REMARK H PARENT 1 5 1 6 1 7 7 11 7 12 7 13
REMARK Flexibility Score: inf
ROOT
ATOM      1  C   UNL     1     -11.410  34.142 -20.016  1.00  0.00     0.012 C 
ENDROOT
BRANCH   1   2
ATOM      2  C   UNL     1     -12.599  33.264 -19.610  1.00  0.00     0.061 C 
BRANCH   2   3
ATOM      3  C   UNL     1     -12.947  33.456 -18.127  1.00  0.00     0.258 C 
BRANCH   3   4
ATOM      4  N   UNL     1     -11.891  34.192 -17.433  1.00  0.00    -0.358 N 
ATOM      5  H   UNL     1     -10.979  34.063 -17.928  1.00  0.00     0.344 HD
ATOM      6  H   UNL     1     -11.802  33.825 -16.459  1.00  0.00     0.344 HD
ATOM      7  H   UNL     1     -12.130  35.209 -17.391  1.00  0.00     0.344 HD
ENDBRANCH   3   4
ENDBRANCH   2   3
ENDBRANCH   1   2
BRANCH   1   8
ATOM      8  C   UNL     1     -10.565  33.457 -21.100  1.00  0.00     0.072 C 
BRANCH   8   9
ATOM      9  C   UNL     1      -9.255  32.856 -20.544  1.00  0.00     0.227 C 
BRANCH   9  10
ATOM     10  N   UNL     1      -9.117  33.094 -19.100  1.00  0.00    -0.350 N 
ATOM     11  H   UNL     1      -9.571  32.317 -18.566  1.00  0.00     0.345 HD
ATOM     12  H   UNL     1      -9.601  33.981 -18.834  1.00  0.00     0.345 HD
ATOM     13  H   UNL     1      -8.109  33.152 -18.827  1.00  0.00     0.345 HD
ENDBRANCH   9  10
BRANCH   9  14
ATOM     14  C   UNL     1      -8.081  33.447 -21.278  1.00  0.00     0.099 C 
ATOM     15  O   UNL     1      -7.332  34.281 -20.704  1.00  0.00    -0.544 OA
ATOM     16  O   UNL     1      -7.804  33.062 -22.584  1.00  0.00    -0.544 OA
ENDBRANCH   9  14
ENDBRANCH   8   9
ENDBRANCH   1   8
TORSDOF 7
ENDMDL
MODEL 4
REMARK VINA RESULT:    -3.502      1.571      1.898
REMARK INTER + INTRA:          -4.847
REMARK INTER:                  -4.639
REMARK INTRA:                  -0.209
REMARK UNBOUND:                -0.116
REMARK SMILES [NH3+]CCCC[C@H]([NH3+])C(=O)[O-]
REMARK SMILES IDX 4 1 3 2 2 3 1 4 5 8 6 9 7 10 8 14 9 15 10 16
REMARK H PARENT 1 5 1 6 1 7 7 11 7 12 7 13
REMARK Flexibility Score: inf
ROOT
ATOM      1  C   UNL     1      -9.048  32.685 -19.793  1.00  0.00     0.012 C 
ENDROOT
BRANCH   1   2
ATOM      2  C   UNL     1      -7.810  33.562 -20.020  1.00  0.00     0.061 C 
BRANCH   2   3
ATOM      3  C   UNL     1      -7.559  33.788 -21.517  1.00  0.00     0.258 C 
BRANCH   3   4
ATOM      4  N   UNL     1      -8.514  33.032 -22.327  1.00  0.00    -0.358 N 
ATOM      5  H   UNL     1      -9.446  33.506 -22.320  1.00  0.00     0.344 HD
ATOM      6  H   UNL     1      -8.619  32.072 -21.925  1.00  0.00     0.344 HD
ATOM      7  H   UNL     1      -8.166  32.950 -23.309  1.00  0.00     0.344 HD
ENDBRANCH   3   4
ENDBRANCH   2   3
ENDBRANCH   1   2
BRANCH   1   8
ATOM      8  C   UNL     1     -10.040  33.370 -18.841  1.00  0.00     0.072 C 
BRANCH   8   9
ATOM      9  C   UNL     1     -11.398  33.673 -19.513  1.00  0.00     0.227 C 
BRANCH   9  10
ATOM     10  N   UNL     1     -11.311  34.829 -20.417  1.00  0.00    -0.350 N 
ATOM     11  H   UNL     1     -10.865  34.542 -21.319  1.00  0.00     0.345 HD
ATOM     12  H   UNL     1     -10.712  35.573 -19.993  1.00  0.00     0.345 HD
ATOM     13  H   UNL     1     -12.261  35.218 -20.615  1.00  0.00     0.345 HD
ENDBRANCH   9  10
BRANCH   9  14
ATOM     14  C   UNL     1     -12.436  33.927 -18.452  1.00  0.00     0.099 C 
ATOM     15  O   UNL     1     -12.174  33.696 -17.242  1.00  0.00    -0.544 OA
ATOM     16  O   UNL     1     -13.682  34.435 -18.798  1.00  0.00    -0.544 OA
ENDBRANCH   9  14
ENDBRANCH   8   9
ENDBRANCH   1   8
TORSDOF 7
ENDMDL
MODEL 5
REMARK VINA RESULT:    -3.470     15.142     15.883
REMARK INTER + INTRA:          -4.803
REMARK INTER:                  -4.734
REMARK INTRA:                  -0.068
REMARK UNBOUND:                -0.116
REMARK SMILES [NH3+]CCCC[C@H]([NH3+])C(=O)[O-]
REMARK SMILES IDX 4 1 3 2 2 3 1 4 5 8 6 9 7 10 8 14 9 15 10 16
REMARK H PARENT 1 5 1 6 1 7 7 11 7 12 7 13
REMARK Flexibility Score: inf
ROOT
ATOM      1  C   UNL     1      -1.336  20.575 -22.017  1.00  0.00     0.012 C 
ENDROOT
BRANCH   1   2
ATOM      2  C   UNL     1      -2.651  20.598 -22.804  1.00  0.00     0.061 C 
BRANCH   2   3
ATOM      3  C   UNL     1      -2.418  20.250 -24.281  1.00  0.00     0.258 C 
BRANCH   3   4
ATOM      4  N   UNL     1      -3.684  19.987 -24.963  1.00  0.00    -0.358 N 
ATOM      5  H   UNL     1      -4.290  19.373 -24.371  1.00  0.00     0.344 HD
ATOM      6  H   UNL     1      -3.491  19.500 -25.868  1.00  0.00     0.344 HD
ATOM      7  H   UNL     1      -4.179  20.886 -25.161  1.00  0.00     0.344 HD
ENDBRANCH   3   4
ENDBRANCH   2   3
ENDBRANCH   1   2
BRANCH   1   8
ATOM      8  C   UNL     1      -1.548  20.003 -20.607  1.00  0.00     0.072 C 
BRANCH   8   9
ATOM      9  C   UNL     1      -2.191  21.023 -19.641  1.00  0.00     0.227 C 
BRANCH   9  10
ATOM     10  N   UNL     1      -1.491  21.065 -18.350  1.00  0.00    -0.350 N 
ATOM     11  H   UNL     1      -1.034  21.998 -18.222  1.00  0.00     0.345 HD
ATOM     12  H   UNL     1      -0.738  20.341 -18.325  1.00  0.00     0.345 HD
ATOM     13  H   UNL     1      -2.157  20.901 -17.560  1.00  0.00     0.345 HD
ENDBRANCH   9  10
BRANCH   9  14
ATOM     14  C   UNL     1      -3.639  20.668 -19.430  1.00  0.00     0.099 C 
ATOM     15  O   UNL     1      -3.950  19.662 -18.738  1.00  0.00    -0.544 OA
ATOM     16  O   UNL     1      -4.641  21.458 -19.979  1.00  0.00    -0.544 OA
ENDBRANCH   9  14
ENDBRANCH   8   9
ENDBRANCH   1   8
TORSDOF 7
ENDMDL
MODEL 6
REMARK VINA RESULT:    -3.349      2.794      4.647
REMARK INTER + INTRA:          -4.640
REMARK INTER:                  -4.199
REMARK INTRA:                  -0.440
REMARK UNBOUND:                -0.116
REMARK SMILES [NH3+]CCCC[C@H]([NH3+])C(=O)[O-]
REMARK SMILES IDX 4 1 3 2 2 3 1 4 5 8 6 9 7 10 8 14 9 15 10 16
REMARK H PARENT 1 5 1 6 1 7 7 11 7 12 7 13
REMARK Flexibility Score: inf
ROOT
ATOM      1  C   UNL     1     -10.923  32.855 -18.011  1.00  0.00     0.012 C 
ENDROOT
BRANCH   1   2
ATOM      2  C   UNL     1     -11.883  34.011 -17.708  1.00  0.00     0.061 C 
BRANCH   2   3
ATOM      3  C   UNL     1     -13.204  33.847 -18.474  1.00  0.00     0.258 C 
BRANCH   3   4
ATOM      4  N   UNL     1     -13.062  32.878 -19.559  1.00  0.00    -0.358 N 
ATOM      5  H   UNL     1     -14.005  32.558 -19.881  1.00  0.00     0.344 HD
ATOM      6  H   UNL     1     -12.525  32.051 -19.212  1.00  0.00     0.344 HD
ATOM      7  H   UNL     1     -12.543  33.307 -20.359  1.00  0.00     0.344 HD
ENDBRANCH   3   4
ENDBRANCH   2   3
ENDBRANCH   1   2
BRANCH   1   8
ATOM      8  C   UNL     1      -9.607  33.375 -18.609  1.00  0.00     0.072 C 
BRANCH   8   9
ATOM      9  C   UNL     1      -9.270  32.722 -19.968  1.00  0.00     0.227 C 
BRANCH   9  10
ATOM     10  N   UNL     1      -7.836  32.426 -20.089  1.00  0.00    -0.350 N 
ATOM     11  H   UNL     1      -7.697  31.569 -20.675  1.00  0.00     0.345 HD
ATOM     12  H   UNL     1      -7.428  32.231 -19.148  1.00  0.00     0.345 HD
ATOM     13  H   UNL     1      -7.327  33.226 -20.531  1.00  0.00     0.345 HD
ENDBRANCH   9  10
BRANCH   9  14
ATOM     14  C   UNL     1      -9.703  33.635 -21.084  1.00  0.00     0.099 C 
ATOM     15  O   UNL     1     -10.778  33.414 -21.702  1.00  0.00    -0.544 OA
ATOM     16  O   UNL     1      -8.931  34.739 -21.426  1.00  0.00    -0.544 OA
ENDBRANCH   9  14
ENDBRANCH   8   9
ENDBRANCH   1   8
TORSDOF 7
ENDMDL
MODEL 7
REMARK VINA RESULT:    -3.252     15.982     16.365
REMARK INTER + INTRA:          -4.509
REMARK INTER:                  -4.566
REMARK INTRA:                   0.057
REMARK UNBOUND:                -0.116
REMARK SMILES [NH3+]CCCC[C@H]([NH3+])C(=O)[O-]
REMARK SMILES IDX 4 1 3 2 2 3 1 4 5 8 6 9 7 10 8 14 9 15 10 16
REMARK H PARENT 1 5 1 6 1 7 7 11 7 12 7 13
REMARK Flexibility Score: inf
ROOT
ATOM      1  C   UNL     1      -2.506  20.612 -22.498  1.00  0.00     0.012 C 
ENDROOT
BRANCH   1   2
ATOM      2  C   UNL     1      -2.131  20.206 -23.929  1.00  0.00     0.061 C 
BRANCH   2   3
ATOM      3  C   UNL     1      -3.195  20.672 -24.932  1.00  0.00     0.258 C 
BRANCH   3   4
ATOM      4  N   UNL     1      -4.349  19.775 -24.926  1.00  0.00    -0.358 N 
ATOM      5  H   UNL     1      -4.445  19.306 -25.857  1.00  0.00     0.344 HD
ATOM      6  H   UNL     1      -5.214  20.330 -24.737  1.00  0.00     0.344 HD
ATOM      7  H   UNL     1      -4.239  19.054 -24.177  1.00  0.00     0.344 HD
ENDBRANCH   3   4
ENDBRANCH   2   3
ENDBRANCH   1   2
BRANCH   1   8
ATOM      8  C   UNL     1      -1.552  19.974 -21.477  1.00  0.00     0.072 C 
BRANCH   8   9
ATOM      9  C   UNL     1      -1.147  20.949 -20.350  1.00  0.00     0.227 C 
BRANCH   9  10
ATOM     10  N   UNL     1       0.221  20.696 -19.876  1.00  0.00    -0.350 N 
ATOM     11  H   UNL     1       0.346  21.096 -18.917  1.00  0.00     0.345 HD
ATOM     12  H   UNL     1       0.912  21.165 -20.504  1.00  0.00     0.345 HD
ATOM     13  H   UNL     1       0.420  19.669 -19.846  1.00  0.00     0.345 HD
ENDBRANCH   9  10
BRANCH   9  14
ATOM     14  C   UNL     1      -2.118  20.824 -19.206  1.00  0.00     0.099 C 
ATOM     15  O   UNL     1      -1.718  20.952 -18.019  1.00  0.00    -0.544 OA
ATOM     16  O   UNL     1      -3.465  20.587 -19.453  1.00  0.00    -0.544 OA
ENDBRANCH   9  14
ENDBRANCH   8   9
ENDBRANCH   1   8
TORSDOF 7
ENDMDL
MODEL 8
REMARK VINA RESULT:    -2.863      2.824      5.028
REMARK INTER + INTRA:          -3.983
REMARK INTER:                  -3.924
REMARK INTRA:                  -0.059
REMARK UNBOUND:                -0.116
REMARK SMILES [NH3+]CCCC[C@H]([NH3+])C(=O)[O-]
REMARK SMILES IDX 4 1 3 2 2 3 1 4 5 8 6 9 7 10 8 14 9 15 10 16
REMARK H PARENT 1 5 1 6 1 7 7 11 7 12 7 13
REMARK Flexibility Score: inf
ROOT
ATOM      1  C   UNL     1     -12.764  32.916 -18.678  1.00  0.00     0.012 C 
ENDROOT
BRANCH   1   2
ATOM      2  C   UNL     1     -13.888  33.422 -17.765  1.00  0.00     0.061 C 
BRANCH   2   3
ATOM      3  C   UNL     1     -14.839  34.356 -18.526  1.00  0.00     0.258 C 
BRANCH   3   4
ATOM      4  N   UNL     1     -16.234  34.043 -18.221  1.00  0.00    -0.358 N 
ATOM      5  H   UNL     1     -16.309  33.635 -17.260  1.00  0.00     0.344 HD
ATOM      6  H   UNL     1     -16.588  33.344 -18.913  1.00  0.00     0.344 HD
ATOM      7  H   UNL     1     -16.819  34.907 -18.284  1.00  0.00     0.344 HD
ENDBRANCH   3   4
ENDBRANCH   2   3
ENDBRANCH   1   2
BRANCH   1   8
ATOM      8  C   UNL     1     -11.390  33.366 -18.161  1.00  0.00     0.072 C 
BRANCH   8   9
ATOM      9  C   UNL     1     -10.255  33.099 -19.175  1.00  0.00     0.227 C 
BRANCH   9  10
ATOM     10  N   UNL     1      -8.953  33.552 -18.666  1.00  0.00    -0.350 N 
ATOM     11  H   UNL     1      -8.192  32.934 -19.034  1.00  0.00     0.345 HD
ATOM     12  H   UNL     1      -8.932  33.487 -17.623  1.00  0.00     0.345 HD
ATOM     13  H   UNL     1      -8.762  34.538 -18.957  1.00  0.00     0.345 HD
ENDBRANCH   9  10
BRANCH   9  14
ATOM     14  C   UNL     1     -10.569  33.793 -20.473  1.00  0.00     0.099 C 
ATOM     15  O   UNL     1     -10.923  35.001 -20.476  1.00  0.00    -0.544 OA
ATOM     16  O   UNL     1     -10.452  33.111 -21.679  1.00  0.00    -0.544 OA
ENDBRANCH   9  14
ENDBRANCH   8   9
ENDBRANCH   1   8
TORSDOF 7
ENDMDL
MODEL 9
REMARK VINA RESULT:    -2.463     15.235     16.275
REMARK INTER + INTRA:          -3.443
REMARK INTER:                  -3.336
REMARK INTRA:                  -0.107
REMARK UNBOUND:                -0.116
REMARK SMILES [NH3+]CCCC[C@H]([NH3+])C(=O)[O-]
REMARK SMILES IDX 4 1 3 2 2 3 1 4 5 8 6 9 7 10 8 14 9 15 10 16
REMARK H PARENT 1 5 1 6 1 7 7 11 7 12 7 13
REMARK Flexibility Score: inf
ROOT
ATOM      1  C   UNL     1      -1.807  20.301 -21.527  1.00  0.00     0.012 C 
ENDROOT
BRANCH   1   2
ATOM      2  C   UNL     1      -2.234  20.683 -20.105  1.00  0.00     0.061 C 
BRANCH   2   3
ATOM      3  C   UNL     1      -3.701  21.134 -20.071  1.00  0.00     0.258 C 
BRANCH   3   4
ATOM      4  N   UNL     1      -4.527  20.175 -19.339  1.00  0.00    -0.358 N 
ATOM      5  H   UNL     1      -5.476  20.112 -19.774  1.00  0.00     0.344 HD
ATOM      6  H   UNL     1      -4.629  20.496 -18.349  1.00  0.00     0.344 HD
ATOM      7  H   UNL     1      -4.072  19.233 -19.343  1.00  0.00     0.344 HD
ENDBRANCH   3   4
ENDBRANCH   2   3
ENDBRANCH   1   2
BRANCH   1   8
ATOM      8  C   UNL     1      -2.884  20.696 -22.549  1.00  0.00     0.072 C 
BRANCH   8   9
ATOM      9  C   UNL     1      -2.503  20.307 -23.995  1.00  0.00     0.227 C 
BRANCH   9  10
ATOM     10  N   UNL     1      -1.360  21.090 -24.486  1.00  0.00    -0.350 N 
ATOM     11  H   UNL     1      -1.067  21.785 -23.761  1.00  0.00     0.345 HD
ATOM     12  H   UNL     1      -1.632  21.624 -25.342  1.00  0.00     0.345 HD
ATOM     13  H   UNL     1      -0.550  20.466 -24.708  1.00  0.00     0.345 HD
ENDBRANCH   9  10
BRANCH   9  14
ATOM     14  C   UNL     1      -3.691  20.509 -24.898  1.00  0.00     0.099 C 
ATOM     15  O   UNL     1      -3.749  21.517 -25.651  1.00  0.00    -0.544 OA
ATOM     16  O   UNL     1      -4.721  19.577 -24.921  1.00  0.00    -0.544 OA
ENDBRANCH   9  14
ENDBRANCH   8   9
ENDBRANCH   1   8
TORSDOF 7
ENDMDL
