MODEL 1
REMARK VINA RESULT:    -5.044      0.000      0.000
REMARK INTER + INTRA:          -8.296
REMARK INTER:                  -7.403
REMARK INTRA:                  -0.893
REMARK UNBOUND:                -0.893
REMARK SMILES CC(C)COC(=O)c1ccccc1C(=O)OCC(C)C
REMARK SMILES IDX 8 1 9 2 10 3 11 4 12 5 13 6 6 7 7 8 5 9 4 10 2 11 1 12 3 13
REMARK SMILES IDX 14 14 15 15 16 16 17 17 18 18 19 19 20 20
REMARK H PARENT
REMARK Flexibility Score: inf
ROOT
ATOM      1  C   UNL     1     120.232 120.128 129.686  1.00  0.00     0.074 A 
ATOM      2  C   UNL     1     121.090 119.324 128.913  1.00  0.00     0.016 A 
ATOM      3  C   UNL     1     122.458 119.276 129.183  1.00  0.00     0.001 A 
ATOM      4  C   UNL     1     122.991 120.027 130.227  1.00  0.00     0.001 A 
ATOM      5  C   UNL     1     122.163 120.850 130.991  1.00  0.00     0.016 A 
ATOM      6  C   UNL     1     120.785 120.932 130.722  1.00  0.00     0.074 A 
ENDROOT
BRANCH   1   7
ATOM      7  C   UNL     1     118.779 120.044 129.417  1.00  0.00     0.339 C 
ATOM      8  O   UNL     1     118.065 119.200 130.026  1.00  0.00    -0.246 OA
BRANCH   7   9
ATOM      9  O   UNL     1     118.213 120.868 128.440  1.00  0.00    -0.462 OA
BRANCH   9  10
ATOM     10  C   UNL     1     118.146 122.287 128.570  1.00  0.00     0.236 C 
BRANCH  10  11
ATOM     11  C   UNL     1     116.699 122.776 128.408  1.00  0.00     0.021 C 
ATOM     12  C   UNL     1     116.393 123.125 126.946  1.00  0.00     0.011 C 
ATOM     13  C   UNL     1     115.701 121.739 128.939  1.00  0.00     0.011 C 
ENDBRANCH  10  11
ENDBRANCH   9  10
ENDBRANCH   7   9
ENDBRANCH   1   7
BRANCH   6  14
ATOM     14  C   UNL     1     119.987 121.909 131.497  1.00  0.00     0.339 C 
ATOM     15  O   UNL     1     120.325 123.124 131.533  1.00  0.00    -0.246 OA
BRANCH  14  16
ATOM     16  O   UNL     1     118.890 121.463 132.241  1.00  0.00    -0.462 OA
BRANCH  16  17
ATOM     17  C   UNL     1     117.620 122.108 132.205  1.00  0.00     0.236 C 
BRANCH  17  18
ATOM     18  C   UNL     1     116.525 121.136 132.665  1.00  0.00     0.021 C 
ATOM     19  C   UNL     1     115.146 121.801 132.578  1.00  0.00     0.011 C 
ATOM     20  C   UNL     1     116.788 120.645 134.096  1.00  0.00     0.011 C 
ENDBRANCH  17  18
ENDBRANCH  16  17
ENDBRANCH  14  16
ENDBRANCH   6  14
TORSDOF 8
ENDMDL
MODEL 2
REMARK VINA RESULT:    -4.812      1.466      4.598
REMARK INTER + INTRA:          -7.956
REMARK INTER:                  -6.586
REMARK INTRA:                  -1.370
REMARK UNBOUND:                -0.893
REMARK SMILES CC(C)COC(=O)c1ccccc1C(=O)OCC(C)C
REMARK SMILES IDX 8 1 9 2 10 3 11 4 12 5 13 6 6 7 7 8 5 9 4 10 2 11 1 12 3 13
REMARK SMILES IDX 14 14 15 15 16 16 17 17 18 18 19 19 20 20
REMARK H PARENT
REMARK Flexibility Score: inf
ROOT
ATOM      1  C   UNL     1     118.739 121.840 130.230  1.00  0.00     0.074 A 
ATOM      2  C   UNL     1     118.766 122.797 129.200  1.00  0.00     0.016 A 
ATOM      3  C   UNL     1     117.650 123.004 128.389  1.00  0.00     0.001 A 
ATOM      4  C   UNL     1     116.490 122.261 128.594  1.00  0.00     0.001 A 
ATOM      5  C   UNL     1     116.449 121.290 129.595  1.00  0.00     0.016 A 
ATOM      6  C   UNL     1     117.570 121.048 130.409  1.00  0.00     0.074 A 
ENDROOT
BRANCH   1   7
ATOM      7  C   UNL     1     119.917 121.753 131.123  1.00  0.00     0.339 C 
ATOM      8  O   UNL     1     119.904 122.313 132.254  1.00  0.00    -0.246 OA
BRANCH   7   9
ATOM      9  O   UNL     1     121.068 121.095 130.678  1.00  0.00    -0.462 OA
BRANCH   9  10
ATOM     10  C   UNL     1     121.024 119.865 129.957  1.00  0.00     0.236 C 
BRANCH  10  11
ATOM     11  C   UNL     1     122.203 119.773 128.977  1.00  0.00     0.021 C 
ATOM     12  C   UNL     1     122.993 121.088 128.935  1.00  0.00     0.011 C 
ATOM     13  C   UNL     1     123.125 118.598 129.328  1.00  0.00     0.011 C 
ENDBRANCH  10  11
ENDBRANCH   9  10
ENDBRANCH   7   9
ENDBRANCH   1   7
BRANCH   6  14
ATOM     14  C   UNL     1     117.494 119.927 131.374  1.00  0.00     0.339 C 
ATOM     15  O   UNL     1     117.542 118.733 130.971  1.00  0.00    -0.246 OA
BRANCH  14  16
ATOM     16  O   UNL     1     117.307 120.203 132.732  1.00  0.00    -0.462 OA
BRANCH  16  17
ATOM     17  C   UNL     1     116.057 120.630 133.268  1.00  0.00     0.236 C 
BRANCH  17  18
ATOM     18  C   UNL     1     116.229 121.970 133.996  1.00  0.00     0.021 C 
ATOM     19  C   UNL     1     116.283 123.125 132.989  1.00  0.00     0.011 C 
ATOM     20  C   UNL     1     117.494 121.966 134.867  1.00  0.00     0.011 C 
ENDBRANCH  17  18
ENDBRANCH  16  17
ENDBRANCH  14  16
ENDBRANCH   6  14
TORSDOF 8
ENDMDL
MODEL 3
REMARK VINA RESULT:    -4.631      1.528      4.925
REMARK INTER + INTRA:          -7.691
REMARK INTER:                  -6.614
REMARK INTRA:                  -1.077
REMARK UNBOUND:                -0.893
REMARK SMILES CC(C)COC(=O)c1ccccc1C(=O)OCC(C)C
REMARK SMILES IDX 8 1 9 2 10 3 11 4 12 5 13 6 6 7 7 8 5 9 4 10 2 11 1 12 3 13
REMARK SMILES IDX 14 14 15 15 16 16 17 17 18 18 19 19 20 20
REMARK H PARENT
REMARK Flexibility Score: inf
ROOT
ATOM      1  C   UNL     1     118.075 119.732 130.813  1.00  0.00     0.074 A 
ATOM      2  C   UNL     1     117.548 118.441 131.000  1.00  0.00     0.016 A 
ATOM      3  C   UNL     1     116.503 118.220 131.897  1.00  0.00     0.001 A 
ATOM      4  C   UNL     1     115.967 119.282 132.620  1.00  0.00     0.001 A 
ATOM      5  C   UNL     1     116.490 120.567 132.469  1.00  0.00     0.016 A 
ATOM      6  C   UNL     1     117.559 120.809 131.587  1.00  0.00     0.074 A 
ENDROOT
BRANCH   1   7
ATOM      7  C   UNL     1     119.104 119.912 129.764  1.00  0.00     0.339 C 
ATOM      8  O   UNL     1     118.785 119.878 128.544  1.00  0.00    -0.246 OA
BRANCH   7   9
ATOM      9  O   UNL     1     120.444 120.062 130.135  1.00  0.00    -0.462 OA
BRANCH   9  10
ATOM     10  C   UNL     1     121.275 121.103 129.626  1.00  0.00     0.236 C 
BRANCH  10  11
ATOM     11  C   UNL     1     122.757 120.769 129.851  1.00  0.00     0.021 C 
ATOM     12  C   UNL     1     123.125 120.858 131.338  1.00  0.00     0.011 C 
ATOM     13  C   UNL     1     123.104 119.385 129.288  1.00  0.00     0.011 C 
ENDBRANCH  10  11
ENDBRANCH   9  10
ENDBRANCH   7   9
ENDBRANCH   1   7
BRANCH   6  14
ATOM     14  C   UNL     1     118.137 122.171 131.561  1.00  0.00     0.339 C 
ATOM     15  O   UNL     1     119.024 122.505 132.393  1.00  0.00    -0.246 OA
BRANCH  14  16
ATOM     16  O   UNL     1     117.648 123.107 130.643  1.00  0.00    -0.462 OA
BRANCH  16  17
ATOM     17  C   UNL     1     118.021 123.107 129.268  1.00  0.00     0.236 C 
BRANCH  17  18
ATOM     18  C   UNL     1     116.766 123.114 128.385  1.00  0.00     0.021 C 
ATOM     19  C   UNL     1     115.881 121.902 128.701  1.00  0.00     0.011 C 
ATOM     20  C   UNL     1     117.139 123.125 126.896  1.00  0.00     0.011 C 
ENDBRANCH  17  18
ENDBRANCH  16  17
ENDBRANCH  14  16
ENDBRANCH   6  14
TORSDOF 8
ENDMDL
MODEL 4
REMARK VINA RESULT:    -4.533      1.987      5.109
REMARK INTER + INTRA:          -7.547
REMARK INTER:                  -6.085
REMARK INTRA:                  -1.462
REMARK UNBOUND:                -0.893
REMARK SMILES CC(C)COC(=O)c1ccccc1C(=O)OCC(C)C
REMARK SMILES IDX 8 1 9 2 10 3 11 4 12 5 13 6 6 7 7 8 5 9 4 10 2 11 1 12 3 13
REMARK SMILES IDX 14 14 15 15 16 16 17 17 18 18 19 19 20 20
REMARK H PARENT
REMARK Flexibility Score: inf
ROOT
ATOM      1  C   UNL     1     116.347 121.993 130.108  1.00  0.00     0.074 A 
ATOM      2  C   UNL     1     115.619 122.121 128.911  1.00  0.00     0.016 A 
ATOM      3  C   UNL     1     116.258 122.460 127.719  1.00  0.00     0.001 A 
ATOM      4  C   UNL     1     117.635 122.674 127.701  1.00  0.00     0.001 A 
ATOM      5  C   UNL     1     118.374 122.574 128.880  1.00  0.00     0.016 A 
ATOM      6  C   UNL     1     117.746 122.258 130.098  1.00  0.00     0.074 A 
ENDROOT
BRANCH   1   7
ATOM      7  C   UNL     1     115.623 121.521 131.310  1.00  0.00     0.339 C 
ATOM      8  O   UNL     1     115.110 122.349 132.112  1.00  0.00    -0.246 OA
BRANCH   7   9
ATOM      9  O   UNL     1     115.562 120.151 131.580  1.00  0.00    -0.462 OA
BRANCH   9  10
ATOM     10  C   UNL     1     116.453 119.502 132.485  1.00  0.00     0.236 C 
BRANCH  10  11
ATOM     11  C   UNL     1     117.090 118.270 131.825  1.00  0.00     0.021 C 
ATOM     12  C   UNL     1     116.058 117.151 131.628  1.00  0.00     0.011 C 
ATOM     13  C   UNL     1     117.753 118.637 130.491  1.00  0.00     0.011 C 
ENDBRANCH  10  11
ENDBRANCH   9  10
ENDBRANCH   7   9
ENDBRANCH   1   7
BRANCH   6  14
ATOM     14  C   UNL     1     118.571 122.281 131.327  1.00  0.00     0.339 C 
ATOM     15  O   UNL     1     118.338 123.124 132.236  1.00  0.00    -0.246 OA
BRANCH  14  16
ATOM     16  O   UNL     1     119.651 121.401 131.446  1.00  0.00    -0.462 OA
BRANCH  16  17
ATOM     17  C   UNL     1     121.000 121.846 131.555  1.00  0.00     0.236 C 
BRANCH  17  18
ATOM     18  C   UNL     1     121.871 121.141 130.505  1.00  0.00     0.021 C 
ATOM     19  C   UNL     1     122.307 122.132 129.419  1.00  0.00     0.011 C 
ATOM     20  C   UNL     1     121.125 119.956 129.876  1.00  0.00     0.011 C 
ENDBRANCH  17  18
ENDBRANCH  16  17
ENDBRANCH  14  16
ENDBRANCH   6  14
TORSDOF 8
ENDMDL
MODEL 5
REMARK VINA RESULT:    -4.509      1.555      4.768
REMARK INTER + INTRA:          -7.511
REMARK INTER:                  -6.490
REMARK INTRA:                  -1.021
REMARK UNBOUND:                -0.893
REMARK SMILES CC(C)COC(=O)c1ccccc1C(=O)OCC(C)C
REMARK SMILES IDX 8 1 9 2 10 3 11 4 12 5 13 6 6 7 7 8 5 9 4 10 2 11 1 12 3 13
REMARK SMILES IDX 14 14 15 15 16 16 17 17 18 18 19 19 20 20
REMARK H PARENT
REMARK Flexibility Score: inf
ROOT
ATOM      1  C   UNL     1     117.872 120.942 131.460  1.00  0.00     0.074 A 
ATOM      2  C   UNL     1     116.769 120.946 132.333  1.00  0.00     0.016 A 
ATOM      3  C   UNL     1     116.070 119.770 132.605  1.00  0.00     0.001 A 
ATOM      4  C   UNL     1     116.461 118.572 132.013  1.00  0.00     0.001 A 
ATOM      5  C   UNL     1     117.538 118.549 131.125  1.00  0.00     0.016 A 
ATOM      6  C   UNL     1     118.242 119.727 130.818  1.00  0.00     0.074 A 
ENDROOT
BRANCH   1   7
ATOM      7  C   UNL     1     118.635 122.202 131.306  1.00  0.00     0.339 C 
ATOM      8  O   UNL     1     119.587 122.471 132.088  1.00  0.00    -0.246 OA
BRANCH   7   9
ATOM      9  O   UNL     1     118.254 123.119 130.321  1.00  0.00    -0.462 OA
BRANCH   9  10
ATOM     10  C   UNL     1     118.209 122.789 128.934  1.00  0.00     0.236 C 
BRANCH  10  11
ATOM     11  C   UNL     1     116.774 122.905 128.399  1.00  0.00     0.021 C 
ATOM     12  C   UNL     1     116.765 123.122 126.880  1.00  0.00     0.011 C 
ATOM     13  C   UNL     1     115.941 121.673 128.775  1.00  0.00     0.011 C 
ENDBRANCH  10  11
ENDBRANCH   9  10
ENDBRANCH   7   9
ENDBRANCH   1   7
BRANCH   6  14
ATOM     14  C   UNL     1     119.299 119.650 129.784  1.00  0.00     0.339 C 
ATOM     15  O   UNL     1     119.003 119.382 128.588  1.00  0.00    -0.246 OA
BRANCH  14  16
ATOM     16  O   UNL     1     120.636 119.816 130.156  1.00  0.00    -0.462 OA
BRANCH  16  17
ATOM     17  C   UNL     1     121.693 119.931 129.207  1.00  0.00     0.236 C 
BRANCH  17  18
ATOM     18  C   UNL     1     122.770 120.889 129.735  1.00  0.00     0.021 C 
ATOM     19  C   UNL     1     122.685 121.002 131.262  1.00  0.00     0.011 C 
ATOM     20  C   UNL     1     122.638 122.276 129.091  1.00  0.00     0.011 C 
ENDBRANCH  17  18
ENDBRANCH  16  17
ENDBRANCH  14  16
ENDBRANCH   6  14
TORSDOF 8
ENDMDL
MODEL 6
REMARK VINA RESULT:    -4.474      1.809      5.290
REMARK INTER + INTRA:          -7.460
REMARK INTER:                  -6.335
REMARK INTRA:                  -1.124
REMARK UNBOUND:                -0.893
REMARK SMILES CC(C)COC(=O)c1ccccc1C(=O)OCC(C)C
REMARK SMILES IDX 8 1 9 2 10 3 11 4 12 5 13 6 6 7 7 8 5 9 4 10 2 11 1 12 3 13
REMARK SMILES IDX 14 14 15 15 16 16 17 17 18 18 19 19 20 20
REMARK H PARENT
REMARK Flexibility Score: inf
ROOT
ATOM      1  C   UNL     1     116.834 120.748 130.568  1.00  0.00     0.074 A 
ATOM      2  C   UNL     1     115.762 120.456 131.430  1.00  0.00     0.016 A 
ATOM      3  C   UNL     1     115.720 119.253 132.135  1.00  0.00     0.001 A 
ATOM      4  C   UNL     1     116.747 118.323 131.991  1.00  0.00     0.001 A 
ATOM      5  C   UNL     1     117.809 118.582 131.123  1.00  0.00     0.016 A 
ATOM      6  C   UNL     1     117.860 119.778 130.385  1.00  0.00     0.074 A 
ENDROOT
BRANCH   1   7
ATOM      7  C   UNL     1     116.870 122.089 129.941  1.00  0.00     0.339 C 
ATOM      8  O   UNL     1     116.329 122.284 128.818  1.00  0.00    -0.246 OA
BRANCH   7   9
ATOM      9  O   UNL     1     117.561 123.125 130.577  1.00  0.00    -0.462 OA
BRANCH   9  10
ATOM     10  C   UNL     1     118.978 123.120 130.744  1.00  0.00     0.236 C 
BRANCH  10  11
ATOM     11  C   UNL     1     119.355 122.569 132.128  1.00  0.00     0.021 C 
ATOM     12  C   UNL     1     120.787 122.965 132.510  1.00  0.00     0.011 C 
ATOM     13  C   UNL     1     118.360 123.033 133.199  1.00  0.00     0.011 C 
ENDBRANCH  10  11
ENDBRANCH   9  10
ENDBRANCH   7   9
ENDBRANCH   1   7
BRANCH   6  14
ATOM     14  C   UNL     1     118.953 119.936 129.400  1.00  0.00     0.339 C 
ATOM     15  O   UNL     1     118.695 120.045 128.171  1.00  0.00    -0.246 OA
BRANCH  14  16
ATOM     16  O   UNL     1     120.281 119.901 129.838  1.00  0.00    -0.462 OA
BRANCH  16  17
ATOM     17  C   UNL     1     121.316 120.667 129.227  1.00  0.00     0.236 C 
BRANCH  17  18
ATOM     18  C   UNL     1     122.688 120.111 129.630  1.00  0.00     0.021 C 
ATOM     19  C   UNL     1     122.706 118.583 129.502  1.00  0.00     0.011 C 
ATOM     20  C   UNL     1     123.054 120.529 131.061  1.00  0.00     0.011 C 
ENDBRANCH  17  18
ENDBRANCH  16  17
ENDBRANCH  14  16
ENDBRANCH   6  14
TORSDOF 8
ENDMDL
MODEL 7
REMARK VINA RESULT:    -4.433      1.957      4.865
REMARK INTER + INTRA:          -7.400
REMARK INTER:                  -5.987
REMARK INTRA:                  -1.414
REMARK UNBOUND:                -0.893
REMARK SMILES CC(C)COC(=O)c1ccccc1C(=O)OCC(C)C
REMARK SMILES IDX 8 1 9 2 10 3 11 4 12 5 13 6 6 7 7 8 5 9 4 10 2 11 1 12 3 13
REMARK SMILES IDX 14 14 15 15 16 16 17 17 18 18 19 19 20 20
REMARK H PARENT
REMARK Flexibility Score: inf
ROOT
ATOM      1  C   UNL     1     117.940 122.141 130.212  1.00  0.00     0.074 A 
ATOM      2  C   UNL     1     118.411 122.331 128.899  1.00  0.00     0.016 A 
ATOM      3  C   UNL     1     117.524 122.389 127.825  1.00  0.00     0.001 A 
ATOM      4  C   UNL     1     116.154 122.260 128.041  1.00  0.00     0.001 A 
ATOM      5  C   UNL     1     115.667 122.047 129.332  1.00  0.00     0.016 A 
ATOM      6  C   UNL     1     116.545 121.961 130.427  1.00  0.00     0.074 A 
ENDROOT
BRANCH   1   7
ATOM      7  C   UNL     1     118.926 122.203 131.315  1.00  0.00     0.339 C 
ATOM      8  O   UNL     1     118.865 123.125 132.174  1.00  0.00    -0.246 OA
BRANCH   7   9
ATOM      9  O   UNL     1     119.962 121.266 131.362  1.00  0.00    -0.462 OA
BRANCH   9  10
ATOM     10  C   UNL     1     121.334 121.636 131.479  1.00  0.00     0.236 C 
BRANCH  10  11
ATOM     11  C   UNL     1     122.144 121.085 130.296  1.00  0.00     0.021 C 
ATOM     12  C   UNL     1     121.542 119.773 129.776  1.00  0.00     0.011 C 
ATOM     13  C   UNL     1     122.248 122.118 129.167  1.00  0.00     0.011 C 
ENDBRANCH  10  11
ENDBRANCH   9  10
ENDBRANCH   7   9
ENDBRANCH   1   7
BRANCH   6  14
ATOM     14  C   UNL     1     115.970 121.621 131.748  1.00  0.00     0.339 C 
ATOM     15  O   UNL     1     115.682 122.531 132.572  1.00  0.00    -0.246 OA
BRANCH  14  16
ATOM     16  O   UNL     1     115.807 120.278 132.101  1.00  0.00    -0.462 OA
BRANCH  16  17
ATOM     17  C   UNL     1     116.836 119.512 132.721  1.00  0.00     0.236 C 
BRANCH  17  18
ATOM     18  C   UNL     1     117.130 118.257 131.888  1.00  0.00     0.021 C 
ATOM     19  C   UNL     1     117.721 118.643 130.527  1.00  0.00     0.011 C 
ATOM     20  C   UNL     1     115.863 117.412 131.698  1.00  0.00     0.011 C 
ENDBRANCH  17  18
ENDBRANCH  16  17
ENDBRANCH  14  16
ENDBRANCH   6  14
TORSDOF 8
ENDMDL
MODEL 8
REMARK VINA RESULT:    -4.356      1.429      5.078
REMARK INTER + INTRA:          -7.287
REMARK INTER:                  -6.468
REMARK INTRA:                  -0.819
REMARK UNBOUND:                -0.893
REMARK SMILES CC(C)COC(=O)c1ccccc1C(=O)OCC(C)C
REMARK SMILES IDX 8 1 9 2 10 3 11 4 12 5 13 6 6 7 7 8 5 9 4 10 2 11 1 12 3 13
REMARK SMILES IDX 14 14 15 15 16 16 17 17 18 18 19 19 20 20
REMARK H PARENT
REMARK Flexibility Score: inf
ROOT
ATOM      1  C   UNL     1     117.618 121.203 130.541  1.00  0.00     0.074 A 
ATOM      2  C   UNL     1     116.486 121.255 129.707  1.00  0.00     0.016 A 
ATOM      3  C   UNL     1     116.450 122.107 128.604  1.00  0.00     0.001 A 
ATOM      4  C   UNL     1     117.543 122.920 128.313  1.00  0.00     0.001 A 
ATOM      5  C   UNL     1     118.667 122.903 129.139  1.00  0.00     0.016 A 
ATOM      6  C   UNL     1     118.716 122.069 130.271  1.00  0.00     0.074 A 
ENDROOT
BRANCH   1   7
ATOM      7  C   UNL     1     117.632 120.195 131.625  1.00  0.00     0.339 C 
ATOM      8  O   UNL     1     117.802 118.974 131.359  1.00  0.00    -0.246 OA
BRANCH   7   9
ATOM      9  O   UNL     1     117.396 120.601 132.942  1.00  0.00    -0.462 OA
BRANCH   9  10
ATOM     10  C   UNL     1     117.070 121.946 133.289  1.00  0.00     0.236 C 
BRANCH  10  11
ATOM     11  C   UNL     1     115.616 122.040 133.773  1.00  0.00     0.021 C 
ATOM     12  C   UNL     1     114.637 122.023 132.592  1.00  0.00     0.011 C 
ATOM     13  C   UNL     1     115.288 120.918 134.765  1.00  0.00     0.011 C 
ENDBRANCH  10  11
ENDBRANCH   9  10
ENDBRANCH   7   9
ENDBRANCH   1   7
BRANCH   6  14
ATOM     14  C   UNL     1     119.890 122.184 131.165  1.00  0.00     0.339 C 
ATOM     15  O   UNL     1     119.959 123.117 132.010  1.00  0.00    -0.246 OA
BRANCH  14  16
ATOM     16  O   UNL     1     120.952 121.285 131.023  1.00  0.00    -0.462 OA
BRANCH  16  17
ATOM     17  C   UNL     1     121.081 120.415 129.902  1.00  0.00     0.236 C 
BRANCH  17  18
ATOM     18  C   UNL     1     122.559 120.064 129.679  1.00  0.00     0.021 C 
ATOM     19  C   UNL     1     123.124 120.854 128.492  1.00  0.00     0.011 C 
ATOM     20  C   UNL     1     122.740 118.557 129.449  1.00  0.00     0.011 C 
ENDBRANCH  17  18
ENDBRANCH  16  17
ENDBRANCH  14  16
ENDBRANCH   6  14
TORSDOF 8
ENDMDL
MODEL 9
REMARK VINA RESULT:    -4.307      1.739      2.646
REMARK INTER + INTRA:          -7.214
REMARK INTER:                  -6.383
REMARK INTRA:                  -0.831
REMARK UNBOUND:                -0.893
REMARK SMILES CC(C)COC(=O)c1ccccc1C(=O)OCC(C)C
REMARK SMILES IDX 8 1 9 2 10 3 11 4 12 5 13 6 6 7 7 8 5 9 4 10 2 11 1 12 3 13
REMARK SMILES IDX 14 14 15 15 16 16 17 17 18 18 19 19 20 20
REMARK H PARENT
REMARK Flexibility Score: inf
ROOT
ATOM      1  C   UNL     1     120.027 120.208 129.621  1.00  0.00     0.074 A 
ATOM      2  C   UNL     1     120.978 119.376 129.002  1.00  0.00     0.016 A 
ATOM      3  C   UNL     1     122.317 119.409 129.391  1.00  0.00     0.001 A 
ATOM      4  C   UNL     1     122.729 120.270 130.406  1.00  0.00     0.001 A 
ATOM      5  C   UNL     1     121.808 121.121 131.018  1.00  0.00     0.016 A 
ATOM      6  C   UNL     1     120.457 121.122 130.624  1.00  0.00     0.074 A 
ENDROOT
BRANCH   1   7
ATOM      7  C   UNL     1     118.608 120.039 129.237  1.00  0.00     0.339 C 
ATOM      8  O   UNL     1     118.110 120.736 128.310  1.00  0.00    -0.246 OA
BRANCH   7   9
ATOM      9  O   UNL     1     117.806 119.143 129.949  1.00  0.00    -0.462 OA
BRANCH   9  10
ATOM     10  C   UNL     1     117.879 118.999 131.366  1.00  0.00     0.236 C 
BRANCH  10  11
ATOM     11  C   UNL     1     116.472 119.000 131.981  1.00  0.00     0.021 C 
ATOM     12  C   UNL     1     115.620 120.142 131.413  1.00  0.00     0.011 C 
ATOM     13  C   UNL     1     115.776 117.649 131.775  1.00  0.00     0.011 C 
ENDBRANCH  10  11
ENDBRANCH   9  10
ENDBRANCH   7   9
ENDBRANCH   1   7
BRANCH   6  14
ATOM     14  C   UNL     1     119.560 122.128 131.236  1.00  0.00     0.339 C 
ATOM     15  O   UNL     1     119.164 123.121 130.566  1.00  0.00    -0.246 OA
BRANCH  14  16
ATOM     16  O   UNL     1     119.204 122.003 132.582  1.00  0.00    -0.462 OA
BRANCH  16  17
ATOM     17  C   UNL     1     118.831 123.116 133.389  1.00  0.00     0.236 C 
BRANCH  17  18
ATOM     18  C   UNL     1     117.361 122.988 133.813  1.00  0.00     0.021 C 
ATOM     19  C   UNL     1     117.122 121.648 134.520  1.00  0.00     0.011 C 
ATOM     20  C   UNL     1     116.425 123.125 132.604  1.00  0.00     0.011 C 
ENDBRANCH  17  18
ENDBRANCH  16  17
ENDBRANCH  14  16
ENDBRANCH   6  14
TORSDOF 8
ENDMDL
