MODEL 1
REMARK VINA RESULT:    -4.707      0.000      0.000
REMARK INTER + INTRA:          -6.194
REMARK INTER:                  -6.082
REMARK INTRA:                  -0.112
REMARK UNBOUND:                -0.112
REMARK SMILES C=CC(=O)CCCCC
REMARK SMILES IDX 6 1 7 2 8 3 9 4 5 5 3 6 4 7 2 8 1 9
REMARK H PARENT
REMARK Flexibility Score: inf
ROOT
ATOM      1  C   UNL     1     -23.654  20.837 -31.621  1.00  0.00     0.008 C 
ENDROOT
BRANCH   1   2
ATOM      2  C   UNL     1     -23.259  22.156 -30.931  1.00  0.00     0.000 C 
BRANCH   2   3
ATOM      3  C   UNL     1     -23.782  23.429 -31.620  1.00  0.00    -0.003 C 
ATOM      4  C   UNL     1     -22.919  24.658 -31.338  1.00  0.00     0.004 C 
ENDBRANCH   2   3
ENDBRANCH   1   2
BRANCH   1   5
ATOM      5  C   UNL     1     -23.894  19.688 -30.625  1.00  0.00     0.080 C 
BRANCH   5   6
ATOM      6  C   UNL     1     -23.961  18.334 -31.294  1.00  0.00     0.155 C 
ATOM      7  O   UNL     1     -23.199  18.069 -32.263  1.00  0.00    -0.295 OA
BRANCH   6   8
ATOM      8  C   UNL     1     -24.920  17.298 -30.860  1.00  0.00     0.039 C 
ATOM      9  C   UNL     1     -26.148  17.568 -30.418  1.00  0.00     0.012 C 
ENDBRANCH   6   8
ENDBRANCH   5   6
ENDBRANCH   1   5
TORSDOF 5
ENDMDL
MODEL 2
REMARK VINA RESULT:    -4.663      2.613      3.907
REMARK INTER + INTRA:          -6.138
REMARK INTER:                  -5.629
REMARK INTRA:                  -0.509
REMARK UNBOUND:                -0.112
REMARK SMILES C=CC(=O)CCCCC
REMARK SMILES IDX 6 1 7 2 8 3 9 4 5 5 3 6 4 7 2 8 1 9
REMARK H PARENT
REMARK Flexibility Score: inf
ROOT
ATOM      1  C   UNL     1     -24.809  20.247 -34.294  1.00  0.00     0.008 C 
ENDROOT
BRANCH   1   2
ATOM      2  C   UNL     1     -26.317  20.260 -34.608  1.00  0.00     0.000 C 
BRANCH   2   3
ATOM      3  C   UNL     1     -27.234  20.367 -33.377  1.00  0.00    -0.003 C 
ATOM      4  C   UNL     1     -27.984  19.070 -33.076  1.00  0.00     0.004 C 
ENDBRANCH   2   3
ENDBRANCH   1   2
BRANCH   1   5
ATOM      5  C   UNL     1     -24.485  20.783 -32.888  1.00  0.00     0.080 C 
BRANCH   5   6
ATOM      6  C   UNL     1     -23.670  19.815 -32.063  1.00  0.00     0.155 C 
ATOM      7  O   UNL     1     -22.480  19.552 -32.389  1.00  0.00    -0.295 OA
BRANCH   6   8
ATOM      8  C   UNL     1     -24.232  19.134 -30.878  1.00  0.00     0.039 C 
ATOM      9  C   UNL     1     -25.079  18.108 -30.951  1.00  0.00     0.012 C 
ENDBRANCH   6   8
ENDBRANCH   5   6
ENDBRANCH   1   5
TORSDOF 5
ENDMDL
MODEL 3
REMARK VINA RESULT:    -4.641      3.021      4.442
REMARK INTER + INTRA:          -6.110
REMARK INTER:                  -5.970
REMARK INTRA:                  -0.140
REMARK UNBOUND:                -0.112
REMARK SMILES C=CC(=O)CCCCC
REMARK SMILES IDX 6 1 7 2 8 3 9 4 5 5 3 6 4 7 2 8 1 9
REMARK H PARENT
REMARK Flexibility Score: inf
ROOT
ATOM      1  C   UNL     1     -25.401  20.384 -33.352  1.00  0.00     0.008 C 
ENDROOT
BRANCH   1   2
ATOM      2  C   UNL     1     -26.837  19.832 -33.431  1.00  0.00     0.000 C 
BRANCH   2   3
ATOM      3  C   UNL     1     -27.838  20.736 -34.172  1.00  0.00    -0.003 C 
ATOM      4  C   UNL     1     -28.694  21.578 -33.227  1.00  0.00     0.004 C 
ENDBRANCH   2   3
ENDBRANCH   1   2
BRANCH   1   5
ATOM      5  C   UNL     1     -24.536  19.656 -32.308  1.00  0.00     0.080 C 
BRANCH   5   6
ATOM      6  C   UNL     1     -23.332  20.461 -31.878  1.00  0.00     0.155 C 
ATOM      7  O   UNL     1     -22.177  20.126 -32.260  1.00  0.00    -0.295 OA
BRANCH   6   8
ATOM      8  C   UNL     1     -23.455  21.636 -30.991  1.00  0.00     0.039 C 
ATOM      9  C   UNL     1     -23.650  22.878 -31.436  1.00  0.00     0.012 C 
ENDBRANCH   6   8
ENDBRANCH   5   6
ENDBRANCH   1   5
TORSDOF 5
ENDMDL
MODEL 4
REMARK VINA RESULT:    -4.599      2.851      4.605
REMARK INTER + INTRA:          -6.055
REMARK INTER:                  -5.669
REMARK INTRA:                  -0.386
REMARK UNBOUND:                -0.112
REMARK SMILES C=CC(=O)CCCCC
REMARK SMILES IDX 6 1 7 2 8 3 9 4 5 5 3 6 4 7 2 8 1 9
REMARK H PARENT
REMARK Flexibility Score: inf
ROOT
ATOM      1  C   UNL     1     -23.881  19.446 -32.461  1.00  0.00     0.008 C 
ENDROOT
BRANCH   1   2
ATOM      2  C   UNL     1     -24.325  19.054 -31.039  1.00  0.00     0.000 C 
BRANCH   2   3
ATOM      3  C   UNL     1     -24.902  17.633 -30.909  1.00  0.00    -0.003 C 
ATOM      4  C   UNL     1     -26.345  17.618 -30.407  1.00  0.00     0.004 C 
ENDBRANCH   2   3
ENDBRANCH   1   2
BRANCH   1   5
ATOM      5  C   UNL     1     -24.692  20.618 -33.040  1.00  0.00     0.080 C 
BRANCH   5   6
ATOM      6  C   UNL     1     -25.817  20.167 -33.943  1.00  0.00     0.155 C 
ATOM      7  O   UNL     1     -25.655  20.147 -35.193  1.00  0.00    -0.295 OA
BRANCH   6   8
ATOM      8  C   UNL     1     -27.132  19.760 -33.406  1.00  0.00     0.039 C 
ATOM      9  C   UNL     1     -28.225  20.520 -33.480  1.00  0.00     0.012 C 
ENDBRANCH   6   8
ENDBRANCH   5   6
ENDBRANCH   1   5
TORSDOF 5
ENDMDL
MODEL 5
REMARK VINA RESULT:    -4.572      3.465      3.887
REMARK INTER + INTRA:          -6.020
REMARK INTER:                  -5.845
REMARK INTRA:                  -0.175
REMARK UNBOUND:                -0.112
REMARK SMILES C=CC(=O)CCCCC
REMARK SMILES IDX 6 1 7 2 8 3 9 4 5 5 3 6 4 7 2 8 1 9
REMARK H PARENT
REMARK Flexibility Score: inf
ROOT
ATOM      1  C   UNL     1     -25.199  19.942 -32.781  1.00  0.00     0.008 C 
ENDROOT
BRANCH   1   2
ATOM      2  C   UNL     1     -24.243  21.149 -32.826  1.00  0.00     0.000 C 
BRANCH   2   3
ATOM      3  C   UNL     1     -23.713  21.607 -31.456  1.00  0.00    -0.003 C 
ATOM      4  C   UNL     1     -23.599  23.126 -31.337  1.00  0.00     0.004 C 
ENDBRANCH   2   3
ENDBRANCH   1   2
BRANCH   1   5
ATOM      5  C   UNL     1     -26.355  20.056 -33.789  1.00  0.00     0.080 C 
BRANCH   5   6
ATOM      6  C   UNL     1     -27.677  19.591 -33.223  1.00  0.00     0.155 C 
ATOM      7  O   UNL     1     -27.817  18.397 -32.841  1.00  0.00    -0.295 OA
BRANCH   6   8
ATOM      8  C   UNL     1     -28.842  20.495 -33.119  1.00  0.00     0.039 C 
ATOM      9  C   UNL     1     -28.742  21.823 -33.079  1.00  0.00     0.012 C 
ENDBRANCH   6   8
ENDBRANCH   5   6
ENDBRANCH   1   5
TORSDOF 5
ENDMDL
MODEL 6
REMARK VINA RESULT:    -4.553      1.813      2.618
REMARK INTER + INTRA:          -5.995
REMARK INTER:                  -5.581
REMARK INTRA:                  -0.414
REMARK UNBOUND:                -0.112
REMARK SMILES C=CC(=O)CCCCC
REMARK SMILES IDX 6 1 7 2 8 3 9 4 5 5 3 6 4 7 2 8 1 9
REMARK H PARENT
REMARK Flexibility Score: inf
ROOT
ATOM      1  C   UNL     1     -23.329  20.377 -32.026  1.00  0.00     0.008 C 
ENDROOT
BRANCH   1   2
ATOM      2  C   UNL     1     -24.520  21.104 -32.677  1.00  0.00     0.000 C 
BRANCH   2   3
ATOM      3  C   UNL     1     -25.249  20.304 -33.771  1.00  0.00    -0.003 C 
ATOM      4  C   UNL     1     -26.769  20.435 -33.695  1.00  0.00     0.004 C 
ENDBRANCH   2   3
ENDBRANCH   1   2
BRANCH   1   5
ATOM      5  C   UNL     1     -23.752  19.442 -30.879  1.00  0.00     0.080 C 
BRANCH   5   6
ATOM      6  C   UNL     1     -23.884  18.001 -31.312  1.00  0.00     0.155 C 
ATOM      7  O   UNL     1     -23.031  17.493 -32.090  1.00  0.00    -0.295 OA
BRANCH   6   8
ATOM      8  C   UNL     1     -25.010  17.153 -30.868  1.00  0.00     0.039 C 
ATOM      9  C   UNL     1     -26.173  17.640 -30.436  1.00  0.00     0.012 C 
ENDBRANCH   6   8
ENDBRANCH   5   6
ENDBRANCH   1   5
TORSDOF 5
ENDMDL
MODEL 7
REMARK VINA RESULT:    -4.491      3.575      4.219
REMARK INTER + INTRA:          -5.915
REMARK INTER:                  -5.819
REMARK INTRA:                  -0.096
REMARK UNBOUND:                -0.112
REMARK SMILES C=CC(=O)CCCCC
REMARK SMILES IDX 6 1 7 2 8 3 9 4 5 5 3 6 4 7 2 8 1 9
REMARK H PARENT
REMARK Flexibility Score: inf
ROOT
ATOM      1  C   UNL     1     -25.327  19.872 -32.791  1.00  0.00     0.008 C 
ENDROOT
BRANCH   1   2
ATOM      2  C   UNL     1     -24.349  21.025 -32.499  1.00  0.00     0.000 C 
BRANCH   2   3
ATOM      3  C   UNL     1     -23.122  20.637 -31.655  1.00  0.00    -0.003 C 
ATOM      4  C   UNL     1     -23.425  20.568 -30.159  1.00  0.00     0.004 C 
ENDBRANCH   2   3
ENDBRANCH   1   2
BRANCH   1   5
ATOM      5  C   UNL     1     -26.458  20.274 -33.753  1.00  0.00     0.080 C 
BRANCH   5   6
ATOM      6  C   UNL     1     -27.759  19.563 -33.462  1.00  0.00     0.155 C 
ATOM      7  O   UNL     1     -27.758  18.335 -33.175  1.00  0.00    -0.295 OA
BRANCH   6   8
ATOM      8  C   UNL     1     -29.060  20.260 -33.525  1.00  0.00     0.039 C 
ATOM      9  C   UNL     1     -30.226  19.632 -33.675  1.00  0.00     0.012 C 
ENDBRANCH   6   8
ENDBRANCH   5   6
ENDBRANCH   1   5
TORSDOF 5
ENDMDL
MODEL 8
REMARK VINA RESULT:    -4.403      1.327      5.332
REMARK INTER + INTRA:          -5.801
REMARK INTER:                  -5.644
REMARK INTRA:                  -0.157
REMARK UNBOUND:                -0.112
REMARK SMILES C=CC(=O)CCCCC
REMARK SMILES IDX 6 1 7 2 8 3 9 4 5 5 3 6 4 7 2 8 1 9
REMARK H PARENT
REMARK Flexibility Score: inf
ROOT
ATOM      1  C   UNL     1     -24.953  18.094 -30.896  1.00  0.00     0.008 C 
ENDROOT
BRANCH   1   2
ATOM      2  C   UNL     1     -26.264  17.400 -30.482  1.00  0.00     0.000 C 
BRANCH   2   3
ATOM      3  C   UNL     1     -26.132  15.900 -30.165  1.00  0.00    -0.003 C 
ATOM      4  C   UNL     1     -24.766  15.328 -30.543  1.00  0.00     0.004 C 
ENDBRANCH   2   3
ENDBRANCH   1   2
BRANCH   1   5
ATOM      5  C   UNL     1     -25.146  19.110 -32.035  1.00  0.00     0.080 C 
BRANCH   5   6
ATOM      6  C   UNL     1     -23.937  19.991 -32.248  1.00  0.00     0.155 C 
ATOM      7  O   UNL     1     -22.801  19.474 -32.429  1.00  0.00    -0.295 OA
BRANCH   6   8
ATOM      8  C   UNL     1     -24.033  21.465 -32.231  1.00  0.00     0.039 C 
ATOM      9  C   UNL     1     -23.550  22.224 -31.248  1.00  0.00     0.012 C 
ENDBRANCH   6   8
ENDBRANCH   5   6
ENDBRANCH   1   5
TORSDOF 5
ENDMDL
MODEL 9
REMARK VINA RESULT:    -4.387      2.441      5.088
REMARK INTER + INTRA:          -5.782
REMARK INTER:                  -5.523
REMARK INTRA:                  -0.258
REMARK UNBOUND:                -0.112
REMARK SMILES C=CC(=O)CCCCC
REMARK SMILES IDX 6 1 7 2 8 3 9 4 5 5 3 6 4 7 2 8 1 9
REMARK H PARENT
REMARK Flexibility Score: inf
ROOT
ATOM      1  C   UNL     1     -24.463  17.937 -30.977  1.00  0.00     0.008 C 
ENDROOT
BRANCH   1   2
ATOM      2  C   UNL     1     -25.943  17.663 -30.650  1.00  0.00     0.000 C 
BRANCH   2   3
ATOM      3  C   UNL     1     -26.252  16.222 -30.205  1.00  0.00    -0.003 C 
ATOM      4  C   UNL     1     -25.099  15.255 -30.469  1.00  0.00     0.004 C 
ENDBRANCH   2   3
ENDBRANCH   1   2
BRANCH   1   5
ATOM      5  C   UNL     1     -24.140  19.438 -31.080  1.00  0.00     0.080 C 
BRANCH   5   6
ATOM      6  C   UNL     1     -23.470  19.808 -32.382  1.00  0.00     0.155 C 
ATOM      7  O   UNL     1     -22.211  19.804 -32.470  1.00  0.00    -0.295 OA
BRANCH   6   8
ATOM      8  C   UNL     1     -24.247  20.204 -33.574  1.00  0.00     0.039 C 
ATOM      9  C   UNL     1     -25.577  20.299 -33.589  1.00  0.00     0.012 C 
ENDBRANCH   6   8
ENDBRANCH   5   6
ENDBRANCH   1   5
TORSDOF 5
ENDMDL
