MODEL 1
REMARK VINA RESULT:    -1.008      0.000      0.000
REMARK INTER + INTRA:          -2.889
REMARK INTER:                  -1.951
REMARK INTRA:                  -0.938
REMARK UNBOUND:                -0.938
REMARK SMILES CCCCCCCCCCCCCCCCCC(=O)[O-]
REMARK SMILES IDX 10 1 11 2 12 3 13 4 14 5 15 6 16 7 17 8 18 9 19 10 20 11
REMARK SMILES IDX 9 12 8 13 7 14 6 15 5 16 4 17 3 18 2 19 1 20
REMARK H PARENT
REMARK Flexibility Score: inf
ROOT
ATOM      1  C   UNL     1      -3.965 -21.809  16.431  1.00  0.00     0.000 C 
ENDROOT
BRANCH   1   2
ATOM      2  C   UNL     1      -4.648 -23.123  16.854  1.00  0.00     0.000 C 
BRANCH   2   3
ATOM      3  C   UNL     1      -5.308 -23.101  18.246  1.00  0.00     0.000 C 
BRANCH   3   4
ATOM      4  C   UNL     1      -6.849 -23.124  18.242  1.00  0.00     0.000 C 
BRANCH   4   5
ATOM      5  C   UNL     1      -7.461 -22.367  19.432  1.00  0.00     0.000 C 
BRANCH   5   6
ATOM      6  C   UNL     1      -8.774 -22.997  19.933  1.00  0.00     0.000 C 
BRANCH   6   7
ATOM      7  C   UNL     1      -9.119 -22.717  21.410  1.00  0.00     0.006 C 
BRANCH   7   8
ATOM      8  C   UNL     1     -10.350 -21.822  21.621  1.00  0.00     0.053 C 
BRANCH   8   9
ATOM      9  C   UNL     1     -10.778 -21.786  23.057  1.00  0.00     0.041 C 
ATOM     10  O   UNL     1     -10.851 -20.687  23.668  1.00  0.00    -0.550 OA
ATOM     11  O   UNL     1     -11.125 -22.962  23.710  1.00  0.00    -0.550 OA
ENDBRANCH   8   9
ENDBRANCH   7   8
ENDBRANCH   6   7
ENDBRANCH   5   6
ENDBRANCH   4   5
ENDBRANCH   3   4
ENDBRANCH   2   3
ENDBRANCH   1   2
BRANCH   1  12
ATOM     12  C   UNL     1      -4.765 -20.997  15.388  1.00  0.00     0.000 C 
BRANCH  12  13
ATOM     13  C   UNL     1      -6.236 -20.798  15.795  1.00  0.00    -0.000 C 
BRANCH  13  14
ATOM     14  C   UNL     1      -7.189 -20.870  14.582  1.00  0.00    -0.000 C 
BRANCH  14  15
ATOM     15  C   UNL     1      -8.594 -21.391  14.934  1.00  0.00    -0.000 C 
BRANCH  15  16
ATOM     16  C   UNL     1      -9.716 -20.480  14.411  1.00  0.00    -0.000 C 
BRANCH  16  17
ATOM     17  C   UNL     1     -11.054 -20.722  15.127  1.00  0.00    -0.000 C 
BRANCH  17  18
ATOM     18  C   UNL     1     -11.091 -20.098  16.534  1.00  0.00    -0.000 C 
BRANCH  18  19
ATOM     19  C   UNL     1     -10.360 -20.957  17.577  1.00  0.00    -0.003 C 
ATOM     20  C   UNL     1     -10.943 -22.364  17.696  1.00  0.00     0.004 C 
ENDBRANCH  18  19
ENDBRANCH  17  18
ENDBRANCH  16  17
ENDBRANCH  15  16
ENDBRANCH  14  15
ENDBRANCH  13  14
ENDBRANCH  12  13
ENDBRANCH   1  12
TORSDOF 16
ENDMDL
MODEL 2
REMARK VINA RESULT:    -0.247      1.591      2.705
REMARK INTER + INTRA:          -1.416
REMARK INTER:                  -0.544
REMARK INTRA:                  -0.872
REMARK UNBOUND:                -0.938
REMARK SMILES CCCCCCCCCCCCCCCCCC(=O)[O-]
REMARK SMILES IDX 10 1 11 2 12 3 13 4 14 5 15 6 16 7 17 8 18 9 19 10 20 11
REMARK SMILES IDX 9 12 8 13 7 14 6 15 5 16 4 17 3 18 2 19 1 20
REMARK H PARENT
REMARK Flexibility Score: inf
ROOT
ATOM      1  C   UNL     1      -6.632 -20.923  14.789  1.00  0.00     0.000 C 
ENDROOT
BRANCH   1   2
ATOM      2  C   UNL     1      -6.408 -21.994  15.874  1.00  0.00     0.000 C 
BRANCH   2   3
ATOM      3  C   UNL     1      -7.325 -21.880  17.106  1.00  0.00     0.000 C 
BRANCH   3   4
ATOM      4  C   UNL     1      -7.282 -23.081  18.071  1.00  0.00     0.000 C 
BRANCH   4   5
ATOM      5  C   UNL     1      -6.057 -23.058  19.000  1.00  0.00     0.000 C 
BRANCH   5   6
ATOM      6  C   UNL     1      -6.436 -23.104  20.492  1.00  0.00     0.000 C 
BRANCH   6   7
ATOM      7  C   UNL     1      -7.950 -23.096  20.790  1.00  0.00     0.006 C 
BRANCH   7   8
ATOM      8  C   UNL     1      -8.308 -23.123  22.284  1.00  0.00     0.053 C 
BRANCH   8   9
ATOM      9  C   UNL     1      -9.044 -21.890  22.707  1.00  0.00     0.041 C 
ATOM     10  O   UNL     1     -10.301 -21.901  22.793  1.00  0.00    -0.550 OA
ATOM     11  O   UNL     1      -8.342 -20.737  23.035  1.00  0.00    -0.550 OA
ENDBRANCH   8   9
ENDBRANCH   7   8
ENDBRANCH   6   7
ENDBRANCH   5   6
ENDBRANCH   4   5
ENDBRANCH   3   4
ENDBRANCH   2   3
ENDBRANCH   1   2
BRANCH   1  12
ATOM     12  C   UNL     1      -7.767 -19.928  15.117  1.00  0.00     0.000 C 
BRANCH  12  13
ATOM     13  C   UNL     1      -9.043 -20.196  14.300  1.00  0.00    -0.000 C 
BRANCH  13  14
ATOM     14  C   UNL     1     -10.295 -20.313  15.197  1.00  0.00    -0.000 C 
BRANCH  14  15
ATOM     15  C   UNL     1     -10.623 -21.758  15.610  1.00  0.00    -0.000 C 
BRANCH  15  16
ATOM     16  C   UNL     1     -10.203 -22.075  17.055  1.00  0.00    -0.000 C 
BRANCH  16  17
ATOM     17  C   UNL     1     -11.124 -21.417  18.094  1.00  0.00    -0.000 C 
BRANCH  17  18
ATOM     18  C   UNL     1     -10.689 -19.983  18.444  1.00  0.00    -0.000 C 
BRANCH  18  19
ATOM     19  C   UNL     1     -10.351 -19.818  19.933  1.00  0.00    -0.003 C 
ATOM     20  C   UNL     1     -11.018 -18.592  20.557  1.00  0.00     0.004 C 
ENDBRANCH  18  19
ENDBRANCH  17  18
ENDBRANCH  16  17
ENDBRANCH  15  16
ENDBRANCH  14  15
ENDBRANCH  13  14
ENDBRANCH  12  13
ENDBRANCH   1  12
TORSDOF 16
ENDMDL
MODEL 3
REMARK VINA RESULT:    -0.035      7.367     10.135
REMARK INTER + INTRA:          -1.006
REMARK INTER:                  -0.515
REMARK INTRA:                  -0.491
REMARK UNBOUND:                -0.938
REMARK SMILES CCCCCCCCCCCCCCCCCC(=O)[O-]
REMARK SMILES IDX 10 1 11 2 12 3 13 4 14 5 15 6 16 7 17 8 18 9 19 10 20 11
REMARK SMILES IDX 9 12 8 13 7 14 6 15 5 16 4 17 3 18 2 19 1 20
REMARK H PARENT
REMARK Flexibility Score: inf
ROOT
ATOM      1  C   UNL     1      -3.980 -22.768  16.766  1.00  0.00     0.000 C 
ENDROOT
BRANCH   1   2
ATOM      2  C   UNL     1      -2.870 -22.322  15.795  1.00  0.00     0.000 C 
BRANCH   2   3
ATOM      3  C   UNL     1      -1.542 -23.092  15.919  1.00  0.00     0.000 C 
BRANCH   3   4
ATOM      4  C   UNL     1      -0.280 -22.289  15.546  1.00  0.00     0.000 C 
BRANCH   4   5
ATOM      5  C   UNL     1       1.008 -23.125  15.631  1.00  0.00     0.000 C 
BRANCH   5   6
ATOM      6  C   UNL     1       2.263 -22.269  15.882  1.00  0.00     0.000 C 
BRANCH   6   7
ATOM      7  C   UNL     1       3.584 -23.056  16.009  1.00  0.00     0.006 C 
BRANCH   7   8
ATOM      8  C   UNL     1       4.694 -22.323  16.780  1.00  0.00     0.053 C 
BRANCH   8   9
ATOM      9  C   UNL     1       6.032 -22.490  16.129  1.00  0.00     0.041 C 
ATOM     10  O   UNL     1       7.017 -22.894  16.803  1.00  0.00    -0.550 OA
ATOM     11  O   UNL     1       6.186 -22.229  14.773  1.00  0.00    -0.550 OA
ENDBRANCH   8   9
ENDBRANCH   7   8
ENDBRANCH   6   7
ENDBRANCH   5   6
ENDBRANCH   4   5
ENDBRANCH   3   4
ENDBRANCH   2   3
ENDBRANCH   1   2
BRANCH   1  12
ATOM     12  C   UNL     1      -5.397 -22.319  16.343  1.00  0.00     0.000 C 
BRANCH  12  13
ATOM     13  C   UNL     1      -6.495 -22.890  17.257  1.00  0.00    -0.000 C 
BRANCH  13  14
ATOM     14  C   UNL     1      -7.813 -22.092  17.151  1.00  0.00    -0.000 C 
BRANCH  14  15
ATOM     15  C   UNL     1      -8.537 -21.920  18.498  1.00  0.00    -0.000 C 
BRANCH  15  16
ATOM     16  C   UNL     1      -7.824 -22.640  19.654  1.00  0.00    -0.000 C 
BRANCH  16  17
ATOM     17  C   UNL     1      -8.758 -22.917  20.843  1.00  0.00    -0.000 C 
BRANCH  17  18
ATOM     18  C   UNL     1      -7.997 -23.048  22.173  1.00  0.00    -0.000 C 
BRANCH  18  19
ATOM     19  C   UNL     1      -8.191 -21.826  23.085  1.00  0.00    -0.003 C 
ATOM     20  C   UNL     1      -9.664 -21.466  23.282  1.00  0.00     0.004 C 
ENDBRANCH  18  19
ENDBRANCH  17  18
ENDBRANCH  16  17
ENDBRANCH  15  16
ENDBRANCH  14  15
ENDBRANCH  13  14
ENDBRANCH  12  13
ENDBRANCH   1  12
TORSDOF 16
ENDMDL
MODEL 4
REMARK VINA RESULT:    -0.021      3.448      7.488
REMARK INTER + INTRA:          -0.978
REMARK INTER:                  -1.521
REMARK INTRA:                   0.542
REMARK UNBOUND:                -0.938
REMARK SMILES CCCCCCCCCCCCCCCCCC(=O)[O-]
REMARK SMILES IDX 10 1 11 2 12 3 13 4 14 5 15 6 16 7 17 8 18 9 19 10 20 11
REMARK SMILES IDX 9 12 8 13 7 14 6 15 5 16 4 17 3 18 2 19 1 20
REMARK H PARENT
REMARK Flexibility Score: inf
ROOT
ATOM      1  C   UNL     1      -9.302 -19.723  22.254  1.00  0.00     0.000 C 
ENDROOT
BRANCH   1   2
ATOM      2  C   UNL     1      -9.863 -19.186  20.924  1.00  0.00     0.000 C 
BRANCH   2   3
ATOM      3  C   UNL     1     -11.094 -19.936  20.381  1.00  0.00     0.000 C 
BRANCH   3   4
ATOM      4  C   UNL     1     -10.980 -20.415  18.921  1.00  0.00     0.000 C 
BRANCH   4   5
ATOM      5  C   UNL     1     -11.005 -19.259  17.908  1.00  0.00     0.000 C 
BRANCH   5   6
ATOM      6  C   UNL     1     -11.125 -19.741  16.450  1.00  0.00     0.000 C 
BRANCH   6   7
ATOM      7  C   UNL     1     -10.603 -21.168  16.182  1.00  0.00     0.006 C 
BRANCH   7   8
ATOM      8  C   UNL     1      -9.095 -21.352  16.416  1.00  0.00     0.053 C 
BRANCH   8   9
ATOM      9  C   UNL     1      -8.300 -21.106  15.171  1.00  0.00     0.041 C 
ATOM     10  O   UNL     1      -7.071 -20.839  15.247  1.00  0.00    -0.550 OA
ATOM     11  O   UNL     1      -8.908 -21.202  13.926  1.00  0.00    -0.550 OA
ENDBRANCH   8   9
ENDBRANCH   7   8
ENDBRANCH   6   7
ENDBRANCH   5   6
ENDBRANCH   4   5
ENDBRANCH   3   4
ENDBRANCH   2   3
ENDBRANCH   1   2
BRANCH   1  12
ATOM     12  C   UNL     1     -10.313 -20.564  23.064  1.00  0.00     0.000 C 
BRANCH  12  13
ATOM     13  C   UNL     1     -10.400 -22.020  22.571  1.00  0.00    -0.000 C 
BRANCH  13  14
ATOM     14  C   UNL     1      -9.851 -23.021  23.611  1.00  0.00    -0.000 C 
BRANCH  14  15
ATOM     15  C   UNL     1      -8.417 -22.706  24.071  1.00  0.00    -0.000 C 
BRANCH  15  16
ATOM     16  C   UNL     1      -7.552 -22.102  22.953  1.00  0.00    -0.000 C 
BRANCH  16  17
ATOM     17  C   UNL     1      -7.202 -23.125  21.861  1.00  0.00    -0.000 C 
BRANCH  17  18
ATOM     18  C   UNL     1      -7.591 -22.641  20.453  1.00  0.00    -0.000 C 
BRANCH  18  19
ATOM     19  C   UNL     1      -6.541 -23.009  19.393  1.00  0.00    -0.003 C 
ATOM     20  C   UNL     1      -7.032 -22.765  17.967  1.00  0.00     0.004 C 
ENDBRANCH  18  19
ENDBRANCH  17  18
ENDBRANCH  16  17
ENDBRANCH  15  16
ENDBRANCH  14  15
ENDBRANCH  13  14
ENDBRANCH  12  13
ENDBRANCH   1  12
TORSDOF 16
ENDMDL
MODEL 5
REMARK VINA RESULT:    -0.020      8.547     11.109
REMARK INTER + INTRA:          -0.976
REMARK INTER:                  -0.520
REMARK INTRA:                  -0.456
REMARK UNBOUND:                -0.938
REMARK SMILES CCCCCCCCCCCCCCCCCC(=O)[O-]
REMARK SMILES IDX 10 1 11 2 12 3 13 4 14 5 15 6 16 7 17 8 18 9 19 10 20 11
REMARK SMILES IDX 9 12 8 13 7 14 6 15 5 16 4 17 3 18 2 19 1 20
REMARK H PARENT
REMARK Flexibility Score: inf
ROOT
ATOM      1  C   UNL     1      -2.574 -23.109  16.025  1.00  0.00     0.000 C 
ENDROOT
BRANCH   1   2
ATOM      2  C   UNL     1      -1.205 -22.401  16.026  1.00  0.00     0.000 C 
BRANCH   2   3
ATOM      3  C   UNL     1      -0.093 -23.125  15.244  1.00  0.00     0.000 C 
BRANCH   3   4
ATOM      4  C   UNL     1       1.346 -22.716  15.618  1.00  0.00     0.000 C 
BRANCH   4   5
ATOM      5  C   UNL     1       2.359 -22.999  14.497  1.00  0.00     0.000 C 
BRANCH   5   6
ATOM      6  C   UNL     1       3.811 -23.066  15.004  1.00  0.00     0.000 C 
BRANCH   6   7
ATOM      7  C   UNL     1       4.896 -22.856  13.927  1.00  0.00     0.006 C 
BRANCH   7   8
ATOM      8  C   UNL     1       6.340 -22.948  14.447  1.00  0.00     0.053 C 
BRANCH   8   9
ATOM      9  C   UNL     1       7.341 -22.617  13.384  1.00  0.00     0.041 C 
ATOM     10  O   UNL     1       7.222 -23.103  12.228  1.00  0.00    -0.550 OA
ATOM     11  O   UNL     1       8.389 -21.747  13.660  1.00  0.00    -0.550 OA
ENDBRANCH   8   9
ENDBRANCH   7   8
ENDBRANCH   6   7
ENDBRANCH   5   6
ENDBRANCH   4   5
ENDBRANCH   3   4
ENDBRANCH   2   3
ENDBRANCH   1   2
BRANCH   1  12
ATOM     12  C   UNL     1      -3.556 -22.569  17.089  1.00  0.00     0.000 C 
BRANCH  12  13
ATOM     13  C   UNL     1      -5.025 -22.865  16.741  1.00  0.00    -0.000 C 
BRANCH  13  14
ATOM     14  C   UNL     1      -5.729 -21.647  16.103  1.00  0.00    -0.000 C 
BRANCH  14  15
ATOM     15  C   UNL     1      -7.251 -21.823  15.955  1.00  0.00    -0.000 C 
BRANCH  15  16
ATOM     16  C   UNL     1      -7.856 -22.713  17.053  1.00  0.00    -0.000 C 
BRANCH  16  17
ATOM     17  C   UNL     1      -9.101 -22.086  17.701  1.00  0.00    -0.000 C 
BRANCH  17  18
ATOM     18  C   UNL     1      -8.852 -21.651  19.156  1.00  0.00    -0.000 C 
BRANCH  18  19
ATOM     19  C   UNL     1     -10.118 -21.099  19.829  1.00  0.00    -0.003 C 
ATOM     20  C   UNL     1      -9.899 -19.724  20.459  1.00  0.00     0.004 C 
ENDBRANCH  18  19
ENDBRANCH  17  18
ENDBRANCH  16  17
ENDBRANCH  15  16
ENDBRANCH  14  15
ENDBRANCH  13  14
ENDBRANCH  12  13
ENDBRANCH   1  12
TORSDOF 16
ENDMDL
MODEL 6
REMARK VINA RESULT:     0.376      6.496     10.135
REMARK INTER + INTRA:          -0.210
REMARK INTER:                   0.251
REMARK INTRA:                  -0.461
REMARK UNBOUND:                -0.938
REMARK SMILES CCCCCCCCCCCCCCCCCC(=O)[O-]
REMARK SMILES IDX 10 1 11 2 12 3 13 4 14 5 15 6 16 7 17 8 18 9 19 10 20 11
REMARK SMILES IDX 9 12 8 13 7 14 6 15 5 16 4 17 3 18 2 19 1 20
REMARK H PARENT
REMARK Flexibility Score: inf
ROOT
ATOM      1  C   UNL     1      -2.306 -23.102  16.163  1.00  0.00     0.000 C 
ENDROOT
BRANCH   1   2
ATOM      2  C   UNL     1      -3.647 -22.647  15.558  1.00  0.00     0.000 C 
BRANCH   2   3
ATOM      3  C   UNL     1      -4.562 -21.855  16.511  1.00  0.00     0.000 C 
BRANCH   3   4
ATOM      4  C   UNL     1      -6.073 -22.051  16.284  1.00  0.00     0.000 C 
BRANCH   4   5
ATOM      5  C   UNL     1      -6.725 -22.957  17.342  1.00  0.00     0.000 C 
BRANCH   5   6
ATOM      6  C   UNL     1      -7.956 -22.314  18.006  1.00  0.00     0.000 C 
BRANCH   6   7
ATOM      7  C   UNL     1      -9.261 -22.382  17.184  1.00  0.00     0.006 C 
BRANCH   7   8
ATOM      8  C   UNL     1      -9.853 -21.014  16.811  1.00  0.00     0.053 C 
BRANCH   8   9
ATOM      9  C   UNL     1      -9.874 -20.798  15.329  1.00  0.00     0.041 C 
ATOM     10  O   UNL     1     -10.965 -20.583  14.736  1.00  0.00    -0.550 OA
ATOM     11  O   UNL     1      -8.687 -20.806  14.606  1.00  0.00    -0.550 OA
ENDBRANCH   8   9
ENDBRANCH   7   8
ENDBRANCH   6   7
ENDBRANCH   5   6
ENDBRANCH   4   5
ENDBRANCH   3   4
ENDBRANCH   2   3
ENDBRANCH   1   2
BRANCH   1  12
ATOM     12  C   UNL     1      -1.092 -22.272  15.689  1.00  0.00     0.000 C 
BRANCH  12  13
ATOM     13  C   UNL     1       0.180 -23.123  15.527  1.00  0.00    -0.000 C 
BRANCH  13  14
ATOM     14  C   UNL     1       1.463 -22.310  15.808  1.00  0.00    -0.000 C 
BRANCH  14  15
ATOM     15  C   UNL     1       2.757 -23.125  15.635  1.00  0.00    -0.000 C 
BRANCH  15  16
ATOM     16  C   UNL     1       3.642 -22.601  14.492  1.00  0.00    -0.000 C 
BRANCH  16  17
ATOM     17  C   UNL     1       5.118 -22.994  14.662  1.00  0.00    -0.000 C 
BRANCH  17  18
ATOM     18  C   UNL     1       5.857 -23.105  13.316  1.00  0.00    -0.000 C 
BRANCH  18  19
ATOM     19  C   UNL     1       7.113 -22.222  13.262  1.00  0.00    -0.003 C 
ATOM     20  C   UNL     1       8.406 -23.037  13.231  1.00  0.00     0.004 C 
ENDBRANCH  18  19
ENDBRANCH  17  18
ENDBRANCH  16  17
ENDBRANCH  15  16
ENDBRANCH  14  15
ENDBRANCH  13  14
ENDBRANCH  12  13
ENDBRANCH   1  12
TORSDOF 16
ENDMDL
