MODEL 1
REMARK VINA RESULT:    -3.252      0.000      0.000
REMARK INTER + INTRA:          -4.476
REMARK INTER:                  -4.297
REMARK INTRA:                  -0.179
REMARK UNBOUND:                -0.179
REMARK SMILES CCCCCCCO
REMARK SMILES IDX 5 1 4 2 3 3 2 4 1 5 6 6 7 7 8 8
REMARK H PARENT 8 9
REMARK Flexibility Score: inf
ROOT
ATOM      1  C   UNL     1     160.060 163.759 167.538  1.00  0.00     0.002 C 
ENDROOT
BRANCH   1   2
ATOM      2  C   UNL     1     159.988 164.512 166.204  1.00  0.00     0.000 C 
BRANCH   2   3
ATOM      3  C   UNL     1     161.333 164.450 165.464  1.00  0.00    -0.000 C 
BRANCH   3   4
ATOM      4  C   UNL     1     162.530 164.367 166.423  1.00  0.00    -0.003 C 
ATOM      5  C   UNL     1     163.871 164.295 165.692  1.00  0.00     0.004 C 
ENDBRANCH   3   4
ENDBRANCH   2   3
ENDBRANCH   1   2
BRANCH   1   6
ATOM      6  C   UNL     1     158.658 163.493 168.097  1.00  0.00     0.028 C 
BRANCH   6   7
ATOM      7  C   UNL     1     157.590 164.212 167.275  1.00  0.00     0.156 C 
BRANCH   7   8
ATOM      8  O   UNL     1     157.028 165.242 168.039  1.00  0.00    -0.396 OA
ATOM      9  H   UNL     1     157.791 165.747 168.425  1.00  0.00     0.210 HD
ENDBRANCH   7   8
ENDBRANCH   6   7
ENDBRANCH   1   6
TORSDOF 6
ENDMDL
MODEL 2
REMARK VINA RESULT:    -3.121      5.254      6.570
REMARK INTER + INTRA:          -4.304
REMARK INTER:                  -4.196
REMARK INTRA:                  -0.108
REMARK UNBOUND:                -0.179
REMARK SMILES CCCCCCCO
REMARK SMILES IDX 5 1 4 2 3 3 2 4 1 5 6 6 7 7 8 8
REMARK H PARENT 8 9
REMARK Flexibility Score: inf
ROOT
ATOM      1  C   UNL     1     165.348 165.316 167.073  1.00  0.00     0.002 C 
ENDROOT
BRANCH   1   2
ATOM      2  C   UNL     1     166.003 166.066 165.907  1.00  0.00     0.000 C 
BRANCH   2   3
ATOM      3  C   UNL     1     167.282 166.785 166.364  1.00  0.00    -0.000 C 
BRANCH   3   4
ATOM      4  C   UNL     1     168.271 167.020 165.212  1.00  0.00    -0.003 C 
ATOM      5  C   UNL     1     169.727 166.825 165.632  1.00  0.00     0.004 C 
ENDBRANCH   3   4
ENDBRANCH   2   3
ENDBRANCH   1   2
BRANCH   1   6
ATOM      6  C   UNL     1     165.010 163.874 166.679  1.00  0.00     0.028 C 
BRANCH   6   7
ATOM      7  C   UNL     1     164.698 163.767 165.188  1.00  0.00     0.156 C 
BRANCH   7   8
ATOM      8  O   UNL     1     163.447 163.162 165.016  1.00  0.00    -0.396 OA
ATOM      9  H   UNL     1     163.575 162.200 165.222  1.00  0.00     0.210 HD
ENDBRANCH   7   8
ENDBRANCH   6   7
ENDBRANCH   1   6
TORSDOF 6
ENDMDL
MODEL 3
REMARK VINA RESULT:    -3.047      5.821      8.159
REMARK INTER + INTRA:          -4.206
REMARK INTER:                  -4.029
REMARK INTRA:                  -0.176
REMARK UNBOUND:                -0.179
REMARK SMILES CCCCCCCO
REMARK SMILES IDX 5 1 4 2 3 3 2 4 1 5 6 6 7 7 8 8
REMARK H PARENT 8 9
REMARK Flexibility Score: inf
ROOT
ATOM      1  C   UNL     1     166.396 166.446 165.301  1.00  0.00     0.002 C 
ENDROOT
BRANCH   1   2
ATOM      2  C   UNL     1     166.264 166.157 166.801  1.00  0.00     0.000 C 
BRANCH   2   3
ATOM      3  C   UNL     1     165.070 165.232 167.080  1.00  0.00    -0.000 C 
BRANCH   3   4
ATOM      4  C   UNL     1     164.828 164.223 165.947  1.00  0.00    -0.003 C 
ATOM      5  C   UNL     1     163.366 164.169 165.504  1.00  0.00     0.004 C 
ENDBRANCH   3   4
ENDBRANCH   2   3
ENDBRANCH   1   2
BRANCH   1   6
ATOM      6  C   UNL     1     167.537 167.433 165.028  1.00  0.00     0.028 C 
BRANCH   6   7
ATOM      7  C   UNL     1     168.890 166.725 165.022  1.00  0.00     0.156 C 
BRANCH   7   8
ATOM      8  O   UNL     1     169.776 167.403 165.868  1.00  0.00    -0.396 OA
ATOM      9  H   UNL     1     170.377 166.710 166.249  1.00  0.00     0.210 HD
ENDBRANCH   7   8
ENDBRANCH   6   7
ENDBRANCH   1   6
TORSDOF 6
ENDMDL
MODEL 4
REMARK VINA RESULT:    -3.023      3.679      5.098
REMARK INTER + INTRA:          -4.174
REMARK INTER:                  -3.955
REMARK INTRA:                  -0.219
REMARK UNBOUND:                -0.179
REMARK SMILES CCCCCCCO
REMARK SMILES IDX 5 1 4 2 3 3 2 4 1 5 6 6 7 7 8 8
REMARK H PARENT 8 9
REMARK Flexibility Score: inf
ROOT
ATOM      1  C   UNL     1     165.004 164.208 165.520  1.00  0.00     0.002 C 
ENDROOT
BRANCH   1   2
ATOM      2  C   UNL     1     164.702 164.848 166.880  1.00  0.00     0.000 C 
BRANCH   2   3
ATOM      3  C   UNL     1     165.673 166.001 167.174  1.00  0.00    -0.000 C 
BRANCH   3   4
ATOM      4  C   UNL     1     166.499 166.405 165.943  1.00  0.00    -0.003 C 
ATOM      5  C   UNL     1     166.333 167.879 165.576  1.00  0.00     0.004 C 
ENDBRANCH   3   4
ENDBRANCH   2   3
ENDBRANCH   1   2
BRANCH   1   6
ATOM      6  C   UNL     1     163.756 163.534 164.938  1.00  0.00     0.028 C 
BRANCH   6   7
ATOM      7  C   UNL     1     162.541 164.455 165.022  1.00  0.00     0.156 C 
BRANCH   7   8
ATOM      8  O   UNL     1     161.515 163.813 165.725  1.00  0.00    -0.396 OA
ATOM      9  H   UNL     1     160.738 163.776 165.108  1.00  0.00     0.210 HD
ENDBRANCH   7   8
ENDBRANCH   6   7
ENDBRANCH   1   6
TORSDOF 6
ENDMDL
MODEL 5
REMARK VINA RESULT:    -3.020      2.371      4.115
REMARK INTER + INTRA:          -4.170
REMARK INTER:                  -4.012
REMARK INTRA:                  -0.158
REMARK UNBOUND:                -0.179
REMARK SMILES CCCCCCCO
REMARK SMILES IDX 5 1 4 2 3 3 2 4 1 5 6 6 7 7 8 8
REMARK H PARENT 8 9
REMARK Flexibility Score: inf
ROOT
ATOM      1  C   UNL     1     163.493 164.035 165.385  1.00  0.00     0.002 C 
ENDROOT
BRANCH   1   2
ATOM      2  C   UNL     1     164.802 164.833 165.384  1.00  0.00     0.000 C 
BRANCH   2   3
ATOM      3  C   UNL     1     165.324 165.036 166.815  1.00  0.00    -0.000 C 
BRANCH   3   4
ATOM      4  C   UNL     1     165.982 166.410 167.013  1.00  0.00    -0.003 C 
ATOM      5  C   UNL     1     166.921 166.788 165.869  1.00  0.00     0.004 C 
ENDBRANCH   3   4
ENDBRANCH   2   3
ENDBRANCH   1   2
BRANCH   1   6
ATOM      6  C   UNL     1     162.590 164.459 166.550  1.00  0.00     0.028 C 
BRANCH   6   7
ATOM      7  C   UNL     1     161.116 164.241 166.214  1.00  0.00     0.156 C 
BRANCH   7   8
ATOM      8  O   UNL     1     160.365 164.229 167.395  1.00  0.00    -0.396 OA
ATOM      9  H   UNL     1     160.994 163.972 168.119  1.00  0.00     0.210 HD
ENDBRANCH   7   8
ENDBRANCH   6   7
ENDBRANCH   1   6
TORSDOF 6
ENDMDL
MODEL 6
REMARK VINA RESULT:    -3.019      5.394      7.531
REMARK INTER + INTRA:          -4.169
REMARK INTER:                  -4.036
REMARK INTRA:                  -0.133
REMARK UNBOUND:                -0.179
REMARK SMILES CCCCCCCO
REMARK SMILES IDX 5 1 4 2 3 3 2 4 1 5 6 6 7 7 8 8
REMARK H PARENT 8 9
REMARK Flexibility Score: inf
ROOT
ATOM      1  C   UNL     1     165.883 165.945 165.676  1.00  0.00     0.002 C 
ENDROOT
BRANCH   1   2
ATOM      2  C   UNL     1     165.098 165.196 166.760  1.00  0.00     0.000 C 
BRANCH   2   3
ATOM      3  C   UNL     1     164.862 163.733 166.357  1.00  0.00    -0.000 C 
BRANCH   3   4
ATOM      4  C   UNL     1     163.927 163.599 165.146  1.00  0.00    -0.003 C 
ATOM      5  C   UNL     1     162.547 164.208 165.393  1.00  0.00     0.004 C 
ENDBRANCH   3   4
ENDBRANCH   2   3
ENDBRANCH   1   2
BRANCH   1   6
ATOM      6  C   UNL     1     167.063 166.714 166.282  1.00  0.00     0.028 C 
BRANCH   6   7
ATOM      7  C   UNL     1     167.892 167.398 165.197  1.00  0.00     0.156 C 
BRANCH   7   8
ATOM      8  O   UNL     1     169.246 167.360 165.550  1.00  0.00    -0.396 OA
ATOM      9  H   UNL     1     169.592 168.281 165.415  1.00  0.00     0.210 HD
ENDBRANCH   7   8
ENDBRANCH   6   7
ENDBRANCH   1   6
TORSDOF 6
ENDMDL
MODEL 7
REMARK VINA RESULT:    -2.953      5.909      7.078
REMARK INTER + INTRA:          -4.081
REMARK INTER:                  -3.951
REMARK INTRA:                  -0.130
REMARK UNBOUND:                -0.179
REMARK SMILES CCCCCCCO
REMARK SMILES IDX 5 1 4 2 3 3 2 4 1 5 6 6 7 7 8 8
REMARK H PARENT 8 9
REMARK Flexibility Score: inf
ROOT
ATOM      1  C   UNL     1     165.418 165.599 166.652  1.00  0.00     0.002 C 
ENDROOT
BRANCH   1   2
ATOM      2  C   UNL     1     164.584 164.377 166.247  1.00  0.00     0.000 C 
BRANCH   2   3
ATOM      3  C   UNL     1     165.237 163.630 165.074  1.00  0.00    -0.000 C 
BRANCH   3   4
ATOM      4  C   UNL     1     164.661 162.219 164.880  1.00  0.00    -0.003 C 
ATOM      5  C   UNL     1     165.739 161.136 164.876  1.00  0.00     0.004 C 
ENDBRANCH   3   4
ENDBRANCH   2   3
ENDBRANCH   1   2
BRANCH   1   6
ATOM      6  C   UNL     1     165.996 166.304 165.420  1.00  0.00     0.028 C 
BRANCH   6   7
ATOM      7  C   UNL     1     167.439 166.745 165.662  1.00  0.00     0.156 C 
BRANCH   7   8
ATOM      8  O   UNL     1     167.677 167.951 164.991  1.00  0.00    -0.396 OA
ATOM      9  H   UNL     1     166.801 168.414 164.938  1.00  0.00     0.210 HD
ENDBRANCH   7   8
ENDBRANCH   6   7
ENDBRANCH   1   6
TORSDOF 6
ENDMDL
MODEL 8
REMARK VINA RESULT:    -2.767      4.791      5.886
REMARK INTER + INTRA:          -3.836
REMARK INTER:                  -3.649
REMARK INTRA:                  -0.187
REMARK UNBOUND:                -0.179
REMARK SMILES CCCCCCCO
REMARK SMILES IDX 5 1 4 2 3 3 2 4 1 5 6 6 7 7 8 8
REMARK H PARENT 8 9
REMARK Flexibility Score: inf
ROOT
ATOM      1  C   UNL     1     165.032 164.780 166.835  1.00  0.00     0.002 C 
ENDROOT
BRANCH   1   2
ATOM      2  C   UNL     1     165.791 165.791 165.967  1.00  0.00     0.000 C 
BRANCH   2   3
ATOM      3  C   UNL     1     166.333 166.949 166.819  1.00  0.00    -0.000 C 
BRANCH   3   4
ATOM      4  C   UNL     1     165.927 166.835 168.297  1.00  0.00    -0.003 C 
ATOM      5  C   UNL     1     167.129 166.820 169.241  1.00  0.00     0.004 C 
ENDBRANCH   3   4
ENDBRANCH   2   3
ENDBRANCH   1   2
BRANCH   1   6
ATOM      6  C   UNL     1     164.880 163.437 166.111  1.00  0.00     0.028 C 
BRANCH   6   7
ATOM      7  C   UNL     1     163.990 163.573 164.876  1.00  0.00     0.156 C 
BRANCH   7   8
ATOM      8  O   UNL     1     162.648 163.617 165.271  1.00  0.00    -0.396 OA
ATOM      9  H   UNL     1     162.119 163.337 164.479  1.00  0.00     0.210 HD
ENDBRANCH   7   8
ENDBRANCH   6   7
ENDBRANCH   1   6
TORSDOF 6
ENDMDL
MODEL 9
REMARK VINA RESULT:    -2.500      7.311      9.397
REMARK INTER + INTRA:          -3.483
REMARK INTER:                  -3.248
REMARK INTRA:                  -0.234
REMARK UNBOUND:                -0.179
REMARK SMILES CCCCCCCO
REMARK SMILES IDX 5 1 4 2 3 3 2 4 1 5 6 6 7 7 8 8
REMARK H PARENT 8 9
REMARK Flexibility Score: inf
ROOT
ATOM      1  C   UNL     1     168.764 166.806 164.875  1.00  0.00     0.002 C 
ENDROOT
BRANCH   1   2
ATOM      2  C   UNL     1     167.553 167.161 165.746  1.00  0.00     0.000 C 
BRANCH   2   3
ATOM      3  C   UNL     1     166.339 166.293 165.380  1.00  0.00    -0.000 C 
BRANCH   3   4
ATOM      4  C   UNL     1     165.648 165.694 166.614  1.00  0.00    -0.003 C 
ATOM      5  C   UNL     1     166.009 166.425 167.907  1.00  0.00     0.004 C 
ENDBRANCH   3   4
ENDBRANCH   2   3
ENDBRANCH   1   2
BRANCH   1   6
ATOM      6  C   UNL     1     170.047 166.752 165.712  1.00  0.00     0.028 C 
BRANCH   6   7
ATOM      7  C   UNL     1     169.734 166.791 167.207  1.00  0.00     0.156 C 
BRANCH   7   8
ATOM      8  O   UNL     1     170.889 167.137 167.917  1.00  0.00    -0.396 OA
ATOM      9  H   UNL     1     170.749 166.813 168.845  1.00  0.00     0.210 HD
ENDBRANCH   7   8
ENDBRANCH   6   7
ENDBRANCH   1   6
TORSDOF 6
ENDMDL
