MODEL 1
REMARK VINA RESULT:    -2.711      0.000      0.000
REMARK INTER + INTRA:          -3.880
REMARK INTER:                  -3.820
REMARK INTRA:                  -0.060
REMARK UNBOUND:                -0.060
REMARK SMILES CC1=CCC(=C(C)C)C(=O)CC(C)=CCC1
REMARK SMILES IDX 12 1 14 2 13 3 15 4 16 5 2 6 1 7 3 8 11 10 9 11 10 12 5 13
REMARK SMILES IDX 6 14 7 15 8 16 4 17
REMARK H PARENT
REMARK Flexibility Score: 60.00
ROOT
ATOM      1  C   UNL     1     199.612 151.095 164.533  1.00  0.00    -0.070 C 
ATOM      2  C   UNL     1     199.069 150.599 163.398  1.00  0.00    -0.027 C 
ATOM      3  C   UNL     1     200.012 152.548 164.553  1.00  0.00     0.039 C 
ENDROOT
BRANCH   2   4
ATOM      4  C   UNL     1     198.481 149.217 163.253  1.00  0.00     0.032 C 
BRANCH   4   5
ATOM      5  C   UNL     1     199.588 148.214 162.912  1.00  0.00     0.034 C 
BRANCH   5   6
ATOM      6  C   UNL     1     199.491 146.943 163.730  1.00  0.00    -0.077 C 
ATOM      7  C   UNL     1     198.296 146.045 163.530  1.00  0.00     0.039 C 
ATOM      8  C   UNL     1     200.384 146.597 164.690  1.00  0.00    -0.023 CG0
ATOM      9  G   UNL     1     201.685 147.300 165.036  1.00  0.00     0.000 G0
ENDBRANCH   5   6
ENDBRANCH   4   5
ENDBRANCH   2   4
BRANCH   1  10
ATOM     10  C   UNL     1     199.857 150.260 165.775  1.00  0.00     0.111 C 
BRANCH  10  11
ATOM     11  C   UNL     1     201.273 149.741 165.835  1.00  0.00     0.163 C 
ATOM     12  O   UNL     1     202.194 150.553 165.550  1.00  0.00    -0.294 OA
BRANCH  11  13
ATOM     13  C   UNL     1     201.629 148.326 166.187  1.00  0.00    -0.002 C 
ATOM     14  C   UNL     1     202.035 148.006 167.454  1.00  0.00    -0.069 C 
ATOM     15  C   UNL     1     201.874 148.975 168.603  1.00  0.00     0.039 C 
ATOM     16  C   UNL     1     202.621 146.653 167.790  1.00  0.00     0.039 C 
BRANCH  13  17
ATOM     17  C   UNL     1     201.700 147.306 165.054  1.00  0.00     0.066 CG0
ATOM     18  G   UNL     1     200.402 146.606 164.694  1.00  0.00     0.000 G0
ENDBRANCH  13  17
ENDBRANCH  11  13
ENDBRANCH  10  11
ENDBRANCH   1  10
TORSDOF 0
ENDMDL
MODEL 2
REMARK VINA RESULT:    -2.689      6.802      9.360
REMARK INTER + INTRA:          -3.850
REMARK INTER:                  -3.755
REMARK INTRA:                  -0.095
REMARK UNBOUND:                -0.060
REMARK SMILES CC1=CCC(=C(C)C)C(=O)CC(C)=CCC1
REMARK SMILES IDX 12 1 14 2 13 3 15 4 16 5 2 6 1 7 3 8 11 10 9 11 10 12 5 13
REMARK SMILES IDX 6 14 7 15 8 16 4 17
REMARK H PARENT
REMARK Flexibility Score: 60.00
ROOT
ATOM      1  C   UNL     1     200.386 157.657 164.603  1.00  0.00    -0.070 C 
ATOM      2  C   UNL     1     200.335 156.387 165.067  1.00  0.00    -0.027 C 
ATOM      3  C   UNL     1     199.326 158.625 165.066  1.00  0.00     0.039 C 
ENDROOT
BRANCH   2   4
ATOM      4  C   UNL     1     201.389 155.337 164.826  1.00  0.00     0.032 C 
BRANCH   4   5
ATOM      5  C   UNL     1     201.001 154.476 163.618  1.00  0.00     0.034 C 
BRANCH   5   6
ATOM      6  C   UNL     1     202.158 154.259 162.665  1.00  0.00    -0.077 C 
ATOM      7  C   UNL     1     203.239 153.281 163.052  1.00  0.00     0.039 C 
ATOM      8  C   UNL     1     202.317 154.949 161.508  1.00  0.00    -0.023 CG0
ATOM      9  G   UNL     1     201.348 155.935 160.880  1.00  0.00     0.000 G0
ENDBRANCH   5   6
ENDBRANCH   4   5
ENDBRANCH   2   4
BRANCH   1  10
ATOM     10  C   UNL     1     201.439 158.148 163.630  1.00  0.00     0.111 C 
BRANCH  10  11
ATOM     11  C   UNL     1     200.942 158.128 162.204  1.00  0.00     0.163 C 
ATOM     12  O   UNL     1     199.861 158.732 161.965  1.00  0.00    -0.294 OA
BRANCH  11  13
ATOM     13  C   UNL     1     201.646 157.418 161.084  1.00  0.00    -0.002 C 
ATOM     14  C   UNL     1     202.406 158.119 160.187  1.00  0.00    -0.069 C 
ATOM     15  C   UNL     1     202.800 159.556 160.437  1.00  0.00     0.039 C 
ATOM     16  C   UNL     1     202.937 157.484 158.921  1.00  0.00     0.039 C 
BRANCH  13  17
ATOM     17  C   UNL     1     201.340 155.939 160.876  1.00  0.00     0.066 CG0
ATOM     18  G   UNL     1     202.319 154.954 161.489  1.00  0.00     0.000 G0
ENDBRANCH  13  17
ENDBRANCH  11  13
ENDBRANCH  10  11
ENDBRANCH   1  10
TORSDOF 0
ENDMDL
MODEL 3
REMARK VINA RESULT:    -2.591     14.932     16.623
REMARK INTER + INTRA:          -3.712
REMARK INTER:                  -3.527
REMARK INTRA:                  -0.185
REMARK UNBOUND:                -0.060
REMARK SMILES CC1=CCC(=C(C)C)C(=O)CC(C)=CCC1
REMARK SMILES IDX 12 1 14 2 13 3 15 4 16 5 2 6 1 7 3 8 11 10 9 11 10 12 5 13
REMARK SMILES IDX 6 14 7 15 8 16 4 17
REMARK H PARENT
REMARK Flexibility Score: 60.00
ROOT
ATOM      1  C   UNL     1     213.538 160.647 159.262  1.00  0.00    -0.070 C 
ATOM      2  C   UNL     1     214.624 159.849 159.155  1.00  0.00    -0.027 C 
ATOM      3  C   UNL     1     213.716 162.126 159.027  1.00  0.00     0.039 C 
ENDROOT
BRANCH   2   4
ATOM      4  C   UNL     1     214.599 158.343 159.211  1.00  0.00     0.032 C 
BRANCH   4   5
ATOM      5  C   UNL     1     215.039 157.867 160.600  1.00  0.00     0.034 C 
BRANCH   5   6
ATOM      6  C   UNL     1     214.211 156.701 161.102  1.00  0.00    -0.077 C 
ATOM      7  C   UNL     1     214.534 155.316 160.600  1.00  0.00     0.039 C 
ATOM      8  C   UNL     1     213.143 156.840 161.927  1.00  0.00    -0.023 CG0
ATOM      9  G   UNL     1     212.659 158.109 162.605  1.00  0.00     0.000 G0
ENDBRANCH   5   6
ENDBRANCH   4   5
ENDBRANCH   2   4
BRANCH   1  10
ATOM     10  C   UNL     1     212.158 160.134 159.625  1.00  0.00     0.111 C 
BRANCH  10  11
ATOM     11  C   UNL     1     211.940 160.113 161.118  1.00  0.00     0.163 C 
ATOM     12  O   UNL     1     212.134 161.192 161.741  1.00  0.00    -0.294 OA
BRANCH  11  13
ATOM     13  C   UNL     1     211.534 158.888 161.886  1.00  0.00    -0.002 C 
ATOM     14  C   UNL     1     210.211 158.584 162.059  1.00  0.00    -0.069 C 
ATOM     15  C   UNL     1     209.129 159.281 161.267  1.00  0.00     0.039 C 
ATOM     16  C   UNL     1     209.757 157.501 163.012  1.00  0.00     0.039 C 
BRANCH  13  17
ATOM     17  C   UNL     1     212.625 158.109 162.612  1.00  0.00     0.066 CG0
ATOM     18  G   UNL     1     213.126 156.850 161.927  1.00  0.00     0.000 G0
ENDBRANCH  13  17
ENDBRANCH  11  13
ENDBRANCH  10  11
ENDBRANCH   1  10
TORSDOF 0
ENDMDL
MODEL 4
REMARK VINA RESULT:    -2.580     12.022     12.899
REMARK INTER + INTRA:          -3.697
REMARK INTER:                  -3.537
REMARK INTRA:                  -0.160
REMARK UNBOUND:                -0.060
REMARK SMILES CC1=CCC(=C(C)C)C(=O)CC(C)=CCC1
REMARK SMILES IDX 12 1 14 2 13 3 15 4 16 5 2 6 1 7 3 8 11 10 9 11 10 12 5 13
REMARK SMILES IDX 6 14 7 15 8 16 4 17
REMARK H PARENT
REMARK Flexibility Score: 60.00
ROOT
ATOM      1  C   UNL     1     211.354 154.066 170.314  1.00  0.00    -0.070 C 
ATOM      2  C   UNL     1     211.468 154.877 169.238  1.00  0.00    -0.027 C 
ATOM      3  C   UNL     1     211.623 154.652 171.677  1.00  0.00     0.039 C 
ENDROOT
BRANCH   2   4
ATOM      4  C   UNL     1     211.095 154.498 167.827  1.00  0.00     0.032 C 
BRANCH   4   5
ATOM      5  C   UNL     1     212.363 154.234 167.007  1.00  0.00     0.034 C 
BRANCH   5   6
ATOM      6  C   UNL     1     212.250 152.989 166.150  1.00  0.00    -0.077 C 
ATOM      7  C   UNL     1     211.591 153.101 164.798  1.00  0.00     0.039 C 
ATOM      8  C   UNL     1     212.644 151.758 166.559  1.00  0.00    -0.023 CG0
ATOM      9  G   UNL     1     213.378 151.401 167.840  1.00  0.00     0.000 G0
ENDBRANCH   5   6
ENDBRANCH   4   5
ENDBRANCH   2   4
BRANCH   1  10
ATOM     10  C   UNL     1     210.991 152.597 170.218  1.00  0.00     0.111 C 
BRANCH  10  11
ATOM     11  C   UNL     1     212.217 151.718 170.149  1.00  0.00     0.163 C 
ATOM     12  O   UNL     1     213.018 151.774 171.121  1.00  0.00    -0.294 OA
BRANCH  11  13
ATOM     13  C   UNL     1     212.533 150.815 168.991  1.00  0.00    -0.002 C 
ATOM     14  C   UNL     1     212.209 149.486 169.038  1.00  0.00    -0.069 C 
ATOM     15  C   UNL     1     211.287 148.934 170.101  1.00  0.00     0.039 C 
ATOM     16  C   UNL     1     212.713 148.504 168.005  1.00  0.00     0.039 C 
BRANCH  13  17
ATOM     17  C   UNL     1     213.379 151.383 167.857  1.00  0.00     0.066 CG0
ATOM     18  G   UNL     1     212.641 151.748 166.581  1.00  0.00     0.000 G0
ENDBRANCH  13  17
ENDBRANCH  11  13
ENDBRANCH  10  11
ENDBRANCH   1  10
TORSDOF 0
ENDMDL
MODEL 5
REMARK VINA RESULT:    -2.485      3.851      5.582
REMARK INTER + INTRA:          -3.562
REMARK INTER:                  -3.428
REMARK INTRA:                  -0.133
REMARK UNBOUND:                -0.060
REMARK SMILES CC1=CCC(=C(C)C)C(=O)CC(C)=CCC1
REMARK SMILES IDX 12 1 14 2 13 3 15 4 16 5 2 6 1 7 3 8 11 10 9 11 10 12 5 13
REMARK SMILES IDX 6 14 7 15 8 16 4 17
REMARK H PARENT
REMARK Flexibility Score: 60.00
ROOT
ATOM      1  C   UNL     1     200.800 155.623 164.875  1.00  0.00    -0.070 C 
ATOM      2  C   UNL     1     199.789 154.741 165.043  1.00  0.00    -0.027 C 
ATOM      3  C   UNL     1     200.478 156.963 164.263  1.00  0.00     0.039 C 
ENDROOT
BRANCH   2   4
ATOM      4  C   UNL     1     199.904 153.423 165.769  1.00  0.00     0.032 C 
BRANCH   4   5
ATOM      5  C   UNL     1     199.994 152.278 164.755  1.00  0.00     0.034 C 
BRANCH   5   6
ATOM      6  C   UNL     1     201.068 151.270 165.112  1.00  0.00    -0.077 C 
ATOM      7  C   UNL     1     200.743 150.194 166.117  1.00  0.00     0.039 C 
ATOM      8  C   UNL     1     202.335 151.323 164.632  1.00  0.00    -0.023 CG0
ATOM      9  G   UNL     1     202.885 152.267 163.578  1.00  0.00     0.000 G0
ENDBRANCH   5   6
ENDBRANCH   4   5
ENDBRANCH   2   4
BRANCH   1  10
ATOM     10  C   UNL     1     202.239 155.327 165.251  1.00  0.00     0.111 C 
BRANCH  10  11
ATOM     11  C   UNL     1     203.031 154.802 164.078  1.00  0.00     0.163 C 
ATOM     12  O   UNL     1     203.103 155.540 163.059  1.00  0.00    -0.294 OA
BRANCH  11  13
ATOM     13  C   UNL     1     203.702 153.459 164.058  1.00  0.00    -0.002 C 
ATOM     14  C   UNL     1     205.041 153.349 164.317  1.00  0.00    -0.069 C 
ATOM     15  C   UNL     1     205.831 154.497 164.903  1.00  0.00     0.039 C 
ATOM     16  C   UNL     1     205.799 152.061 164.082  1.00  0.00     0.039 C 
BRANCH  13  17
ATOM     17  C   UNL     1     202.892 152.265 163.565  1.00  0.00     0.066 CG0
ATOM     18  G   UNL     1     202.351 151.329 164.631  1.00  0.00     0.000 G0
ENDBRANCH  13  17
ENDBRANCH  11  13
ENDBRANCH  10  11
ENDBRANCH   1  10
TORSDOF 0
ENDMDL
MODEL 6
REMARK VINA RESULT:    -2.450      8.433     10.531
REMARK INTER + INTRA:          -3.513
REMARK INTER:                  -3.494
REMARK INTRA:                  -0.020
REMARK UNBOUND:                -0.060
REMARK SMILES CC1=CCC(=C(C)C)C(=O)CC(C)=CCC1
REMARK SMILES IDX 12 1 14 2 13 3 15 4 16 5 2 6 1 7 3 8 11 10 9 11 10 12 5 13
REMARK SMILES IDX 6 14 7 15 8 16 4 17
REMARK H PARENT
REMARK Flexibility Score: 60.00
ROOT
ATOM      1  C   UNL     1     201.098 157.835 164.492  1.00  0.00    -0.070 C 
ATOM      2  C   UNL     1     201.587 156.697 165.034  1.00  0.00    -0.027 C 
ATOM      3  C   UNL     1     199.667 158.206 164.790  1.00  0.00     0.039 C 
ENDROOT
BRANCH   2   4
ATOM      4  C   UNL     1     203.026 156.254 164.961  1.00  0.00     0.032 C 
BRANCH   4   5
ATOM      5  C   UNL     1     203.281 155.525 163.638  1.00  0.00     0.034 C 
BRANCH   5   6
ATOM      6  C   UNL     1     204.602 155.914 163.006  1.00  0.00    -0.077 C 
ATOM      7  C   UNL     1     205.878 155.588 163.741  1.00  0.00     0.039 C 
ATOM      8  C   UNL     1     204.703 156.608 161.845  1.00  0.00    -0.023 CG0
ATOM      9  G   UNL     1     203.579 156.998 160.902  1.00  0.00     0.000 G0
ENDBRANCH   5   6
ENDBRANCH   4   5
ENDBRANCH   2   4
BRANCH   1  10
ATOM     10  C   UNL     1     201.907 158.743 163.586  1.00  0.00     0.111 C 
BRANCH  10  11
ATOM     11  C   UNL     1     201.759 158.365 162.132  1.00  0.00     0.163 C 
ATOM     12  O   UNL     1     200.606 158.038 161.739  1.00  0.00    -0.294 OA
BRANCH  11  13
ATOM     13  C   UNL     1     202.900 158.336 161.156  1.00  0.00    -0.002 C 
ATOM     14  C   UNL     1     203.206 159.444 160.413  1.00  0.00    -0.069 C 
ATOM     15  C   UNL     1     202.617 160.798 160.734  1.00  0.00     0.039 C 
ATOM     16  C   UNL     1     204.186 159.390 159.263  1.00  0.00     0.039 C 
BRANCH  13  17
ATOM     17  C   UNL     1     203.577 156.996 160.892  1.00  0.00     0.066 CG0
ATOM     18  G   UNL     1     204.700 156.608 161.837  1.00  0.00     0.000 G0
ENDBRANCH  13  17
ENDBRANCH  11  13
ENDBRANCH  10  11
ENDBRANCH   1  10
TORSDOF 0
ENDMDL
MODEL 7
REMARK VINA RESULT:    -2.438      2.355      4.602
REMARK INTER + INTRA:          -3.496
REMARK INTER:                  -3.755
REMARK INTRA:                   0.259
REMARK UNBOUND:                -0.060
REMARK SMILES CC1=CCC(=C(C)C)C(=O)CC(C)=CCC1
REMARK SMILES IDX 12 1 14 2 13 3 15 4 16 5 2 6 1 7 3 8 11 10 9 11 10 12 5 13
REMARK SMILES IDX 6 14 7 15 8 16 4 17
REMARK H PARENT
REMARK Flexibility Score: 60.00
ROOT
ATOM      1  C   UNL     1     198.444 150.148 161.094  1.00  0.00    -0.070 C 
ATOM      2  C   UNL     1     199.303 151.066 161.592  1.00  0.00    -0.027 C 
ATOM      3  C   UNL     1     198.547 149.799 159.631  1.00  0.00     0.039 C 
ENDROOT
BRANCH   2   4
ATOM      4  C   UNL     1     199.436 151.423 163.051  1.00  0.00     0.032 C 
BRANCH   4   5
ATOM      5  C   UNL     1     200.840 151.062 163.548  1.00  0.00     0.034 C 
BRANCH   5   6
ATOM      6  C   UNL     1     200.821 149.959 164.587  1.00  0.00    -0.077 C 
ATOM      7  C   UNL     1     200.978 150.333 166.040  1.00  0.00     0.039 C 
ATOM      8  C   UNL     1     200.744 148.641 164.280  1.00  0.00    -0.023 CG0
ATOM      9  G   UNL     1     200.526 148.023 162.911  1.00  0.00     0.000 G0
ENDBRANCH   5   6
ENDBRANCH   4   5
ENDBRANCH   2   4
BRANCH   1  10
ATOM     10  C   UNL     1     197.373 149.469 161.926  1.00  0.00     0.111 C 
BRANCH  10  11
ATOM     11  C   UNL     1     197.965 148.505 162.926  1.00  0.00     0.163 C 
ATOM     12  O   UNL     1     197.488 148.526 164.093  1.00  0.00    -0.294 OA
BRANCH  11  13
ATOM     13  C   UNL     1     199.088 147.560 162.611  1.00  0.00    -0.002 C 
ATOM     14  C   UNL     1     198.824 146.274 162.222  1.00  0.00    -0.069 C 
ATOM     15  C   UNL     1     197.433 145.839 161.822  1.00  0.00     0.039 C 
ATOM     16  C   UNL     1     199.913 145.230 162.121  1.00  0.00     0.039 C 
BRANCH  13  17
ATOM     17  C   UNL     1     200.511 148.018 162.913  1.00  0.00     0.066 CG0
ATOM     18  G   UNL     1     200.744 148.645 164.276  1.00  0.00     0.000 G0
ENDBRANCH  13  17
ENDBRANCH  11  13
ENDBRANCH  10  11
ENDBRANCH   1  10
TORSDOF 0
ENDMDL
MODEL 8
REMARK VINA RESULT:    -2.422     12.210     13.678
REMARK INTER + INTRA:          -3.473
REMARK INTER:                  -4.037
REMARK INTRA:                   0.564
REMARK UNBOUND:                -0.060
REMARK SMILES CC1=CCC(=C(C)C)C(=O)CC(C)=CCC1
REMARK SMILES IDX 12 1 14 2 13 3 15 4 16 5 2 6 1 7 3 8 11 10 9 11 10 12 5 13
REMARK SMILES IDX 6 14 7 15 8 16 4 17
REMARK H PARENT
REMARK Flexibility Score: 60.00
ROOT
ATOM      1  C   UNL     1     213.831 153.227 171.486  1.00  0.00    -0.070 C 
ATOM      2  C   UNL     1     212.637 153.789 171.192  1.00  0.00    -0.027 C 
ATOM      3  C   UNL     1     215.046 154.119 171.529  1.00  0.00     0.039 C 
ENDROOT
BRANCH   2   4
ATOM      4  C   UNL     1     211.309 153.078 171.251  1.00  0.00     0.032 C 
BRANCH   4   5
ATOM      5  C   UNL     1     210.530 153.322 169.954  1.00  0.00     0.034 C 
BRANCH   5   6
ATOM      6  C   UNL     1     211.237 152.758 168.738  1.00  0.00    -0.077 C 
ATOM      7  C   UNL     1     211.521 153.678 167.577  1.00  0.00     0.039 C 
ATOM      8  C   UNL     1     211.567 151.450 168.601  1.00  0.00    -0.023 CG0
ATOM      9  G   UNL     1     211.437 150.352 169.641  1.00  0.00     0.000 G0
ENDBRANCH   5   6
ENDBRANCH   4   5
ENDBRANCH   2   4
BRANCH   1  10
ATOM     10  C   UNL     1     214.012 151.745 171.754  1.00  0.00     0.111 C 
BRANCH  10  11
ATOM     11  C   UNL     1     213.821 150.919 170.505  1.00  0.00     0.163 C 
ATOM     12  O   UNL     1     214.622 151.126 169.553  1.00  0.00    -0.294 OA
BRANCH  11  13
ATOM     13  C   UNL     1     212.731 149.901 170.335  1.00  0.00    -0.002 C 
ATOM     14  C   UNL     1     212.952 148.588 170.650  1.00  0.00    -0.069 C 
ATOM     15  C   UNL     1     214.171 148.157 171.433  1.00  0.00     0.039 C 
ATOM     16  C   UNL     1     211.969 147.500 170.280  1.00  0.00     0.039 C 
BRANCH  13  17
ATOM     17  C   UNL     1     211.448 150.341 169.637  1.00  0.00     0.066 CG0
ATOM     18  G   UNL     1     211.586 151.443 168.602  1.00  0.00     0.000 G0
ENDBRANCH  13  17
ENDBRANCH  11  13
ENDBRANCH  10  11
ENDBRANCH   1  10
TORSDOF 0
ENDMDL
MODEL 9
REMARK VINA RESULT:    -2.420      4.836      7.702
REMARK INTER + INTRA:          -3.471
REMARK INTER:                  -3.786
REMARK INTRA:                   0.315
REMARK UNBOUND:                -0.060
REMARK SMILES CC1=CCC(=C(C)C)C(=O)CC(C)=CCC1
REMARK SMILES IDX 12 1 14 2 13 3 15 4 16 5 2 6 1 7 3 8 11 10 9 11 10 12 5 13
REMARK SMILES IDX 6 14 7 15 8 16 4 17
REMARK H PARENT
REMARK Flexibility Score: 60.00
ROOT
ATOM      1  C   UNL     1     200.532 156.295 165.163  1.00  0.00    -0.070 C 
ATOM      2  C   UNL     1     199.647 155.275 165.240  1.00  0.00    -0.027 C 
ATOM      3  C   UNL     1     199.996 157.685 164.936  1.00  0.00     0.039 C 
ENDROOT
BRANCH   2   4
ATOM      4  C   UNL     1     199.995 153.855 165.607  1.00  0.00     0.032 C 
BRANCH   4   5
ATOM      5  C   UNL     1     200.010 152.981 164.349  1.00  0.00     0.034 C 
BRANCH   5   6
ATOM      6  C   UNL     1     201.413 152.729 163.834  1.00  0.00    -0.077 C 
ATOM      7  C   UNL     1     202.188 151.561 164.392  1.00  0.00     0.039 C 
ATOM      8  C   UNL     1     202.045 153.539 162.949  1.00  0.00    -0.023 CG0
ATOM      9  G   UNL     1     201.462 154.730 162.210  1.00  0.00     0.000 G0
ENDBRANCH   5   6
ENDBRANCH   4   5
ENDBRANCH   2   4
BRANCH   1  10
ATOM     10  C   UNL     1     202.033 156.107 165.273  1.00  0.00     0.111 C 
BRANCH  10  11
ATOM     11  C   UNL     1     202.714 156.220 163.930  1.00  0.00     0.163 C 
ATOM     12  O   UNL     1     203.957 156.431 163.933  1.00  0.00    -0.294 OA
BRANCH  11  13
ATOM     13  C   UNL     1     201.992 156.118 162.617  1.00  0.00    -0.002 C 
ATOM     14  C   UNL     1     201.680 157.245 161.907  1.00  0.00    -0.069 C 
ATOM     15  C   UNL     1     202.279 158.589 162.253  1.00  0.00     0.039 C 
ATOM     16  C   UNL     1     200.758 157.206 160.709  1.00  0.00     0.039 C 
BRANCH  13  17
ATOM     17  C   UNL     1     201.465 154.749 162.199  1.00  0.00     0.066 CG0
ATOM     18  G   UNL     1     202.035 153.551 162.937  1.00  0.00     0.000 G0
ENDBRANCH  13  17
ENDBRANCH  11  13
ENDBRANCH  10  11
ENDBRANCH   1  10
TORSDOF 0
ENDMDL
