MODEL 1
REMARK VINA RESULT:    -3.928      0.000      0.000
REMARK INTER + INTRA:          -6.389
REMARK INTER:                  -5.420
REMARK INTRA:                  -0.969
REMARK UNBOUND:                -0.969
REMARK SMILES OC[C@H](O)C(O)[C@@H](O)CO
REMARK SMILES IDX 5 1 7 2 9 3 10 4 8 6 3 8 2 9 1 10 4 12 6 14
REMARK H PARENT 10 5 8 7 1 11 4 13 6 15
REMARK Flexibility Score: inf
ROOT
ATOM      1  C   UNL     1     -32.773  51.437 -50.895  1.00  0.00     0.176 C 
ENDROOT
BRANCH   1   2
ATOM      2  C   UNL     1     -33.806  50.698 -51.791  1.00  0.00     0.171 C 
BRANCH   2   3
ATOM      3  C   UNL     1     -33.299  49.325 -52.263  1.00  0.00     0.190 C 
BRANCH   3   4
ATOM      4  O   UNL     1     -32.269  49.482 -53.203  1.00  0.00    -0.394 OA
ATOM      5  H   UNL     1     -32.457  50.322 -53.699  1.00  0.00     0.210 HD
ENDBRANCH   3   4
ENDBRANCH   2   3
BRANCH   2   6
ATOM      6  O   UNL     1     -34.074  51.485 -52.926  1.00  0.00    -0.388 OA
ATOM      7  H   UNL     1     -33.694  52.386 -52.755  1.00  0.00     0.211 HD
ENDBRANCH   2   6
ENDBRANCH   1   2
BRANCH   1   8
ATOM      8  C   UNL     1     -32.402  52.872 -51.369  1.00  0.00     0.171 C 
BRANCH   8   9
ATOM      9  C   UNL     1     -31.108  52.943 -52.208  1.00  0.00     0.190 C 
BRANCH   9  10
ATOM     10  O   UNL     1     -31.239  52.184 -53.379  1.00  0.00    -0.394 OA
ATOM     11  H   UNL     1     -32.115  52.432 -53.773  1.00  0.00     0.210 HD
ENDBRANCH   9  10
ENDBRANCH   8   9
BRANCH   8  12
ATOM     12  O   UNL     1     -32.298  53.724 -50.255  1.00  0.00    -0.388 OA
ATOM     13  H   UNL     1     -31.589  54.392 -50.447  1.00  0.00     0.211 HD
ENDBRANCH   8  12
ENDBRANCH   1   8
BRANCH   1  14
ATOM     14  O   UNL     1     -31.599  50.665 -50.803  1.00  0.00    -0.388 OA
ATOM     15  H   UNL     1     -31.772  49.941 -50.145  1.00  0.00     0.211 HD
ENDBRANCH   1  14
TORSDOF 9
ENDMDL
MODEL 2
REMARK VINA RESULT:    -3.921      1.441      3.791
REMARK INTER + INTRA:          -6.380
REMARK INTER:                  -5.916
REMARK INTRA:                  -0.464
REMARK UNBOUND:                -0.969
REMARK SMILES OC[C@H](O)C(O)[C@@H](O)CO
REMARK SMILES IDX 5 1 7 2 9 3 10 4 8 6 3 8 2 9 1 10 4 12 6 14
REMARK H PARENT 10 5 8 7 1 11 4 13 6 15
REMARK Flexibility Score: inf
ROOT
ATOM      1  C   UNL     1     -33.380  50.473 -52.263  1.00  0.00     0.176 C 
ENDROOT
BRANCH   1   2
ATOM      2  C   UNL     1     -32.735  51.133 -51.013  1.00  0.00     0.171 C 
BRANCH   2   3
ATOM      3  C   UNL     1     -32.205  52.548 -51.302  1.00  0.00     0.190 C 
BRANCH   3   4
ATOM      4  O   UNL     1     -32.367  53.370 -50.177  1.00  0.00    -0.394 OA
ATOM      5  H   UNL     1     -33.198  53.073 -49.720  1.00  0.00     0.210 HD
ENDBRANCH   3   4
ENDBRANCH   2   3
BRANCH   2   6
ATOM      6  O   UNL     1     -31.659  50.338 -50.579  1.00  0.00    -0.388 OA
ATOM      7  H   UNL     1     -31.857  50.058 -49.647  1.00  0.00     0.211 HD
ENDBRANCH   2   6
ENDBRANCH   1   2
BRANCH   1   8
ATOM      8  C   UNL     1     -32.468  50.428 -53.524  1.00  0.00     0.171 C 
BRANCH   8   9
ATOM      9  C   UNL     1     -33.222  50.637 -54.855  1.00  0.00     0.190 C 
BRANCH   9  10
ATOM     10  O   UNL     1     -34.056  49.543 -55.124  1.00  0.00    -0.394 OA
ATOM     11  H   UNL     1     -33.947  48.918 -54.361  1.00  0.00     0.210 HD
ENDBRANCH   9  10
ENDBRANCH   8   9
BRANCH   8  12
ATOM     12  O   UNL     1     -31.769  49.208 -53.556  1.00  0.00    -0.388 OA
ATOM     13  H   UNL     1     -30.937  49.319 -53.024  1.00  0.00     0.211 HD
ENDBRANCH   8  12
ENDBRANCH   1   8
BRANCH   1  14
ATOM     14  O   UNL     1     -34.574  51.147 -52.584  1.00  0.00    -0.388 OA
ATOM     15  H   UNL     1     -34.653  51.918 -51.963  1.00  0.00     0.211 HD
ENDBRANCH   1  14
TORSDOF 9
ENDMDL
MODEL 3
REMARK VINA RESULT:    -3.920      1.485      2.673
REMARK INTER + INTRA:          -6.378
REMARK INTER:                  -5.920
REMARK INTRA:                  -0.458
REMARK UNBOUND:                -0.969
REMARK SMILES OC[C@H](O)C(O)[C@@H](O)CO
REMARK SMILES IDX 5 1 7 2 9 3 10 4 8 6 3 8 2 9 1 10 4 12 6 14
REMARK H PARENT 10 5 8 7 1 11 4 13 6 15
REMARK Flexibility Score: inf
ROOT
ATOM      1  C   UNL     1     -33.082  51.502 -52.702  1.00  0.00     0.176 C 
ENDROOT
BRANCH   1   2
ATOM      2  C   UNL     1     -32.216  50.447 -53.444  1.00  0.00     0.171 C 
BRANCH   2   3
ATOM      3  C   UNL     1     -32.560  50.350 -54.940  1.00  0.00     0.190 C 
BRANCH   3   4
ATOM      4  O   UNL     1     -33.732  49.602 -55.124  1.00  0.00    -0.394 OA
ATOM      5  H   UNL     1     -33.947  49.182 -54.250  1.00  0.00     0.210 HD
ENDBRANCH   3   4
ENDBRANCH   2   3
BRANCH   2   6
ATOM      6  O   UNL     1     -32.430  49.185 -52.859  1.00  0.00    -0.388 OA
ATOM      7  H   UNL     1     -32.008  49.202 -51.961  1.00  0.00     0.211 HD
ENDBRANCH   2   6
ENDBRANCH   1   2
BRANCH   1   8
ATOM      8  C   UNL     1     -32.626  51.820 -51.249  1.00  0.00     0.171 C 
BRANCH   8   9
ATOM      9  C   UNL     1     -32.034  53.234 -51.070  1.00  0.00     0.190 C 
BRANCH   9  10
ATOM     10  O   UNL     1     -32.099  53.628 -49.726  1.00  0.00    -0.394 OA
ATOM     11  H   UNL     1     -32.957  54.115 -49.623  1.00  0.00     0.210 HD
ENDBRANCH   9  10
ENDBRANCH   8   9
BRANCH   8  12
ATOM     12  O   UNL     1     -31.695  50.854 -50.826  1.00  0.00    -0.388 OA
ATOM     13  H   UNL     1     -30.834  51.316 -50.649  1.00  0.00     0.211 HD
ENDBRANCH   8  12
ENDBRANCH   1   8
BRANCH   1  14
ATOM     14  O   UNL     1     -34.423  51.071 -52.679  1.00  0.00    -0.388 OA
ATOM     15  H   UNL     1     -34.708  51.046 -51.728  1.00  0.00     0.211 HD
ENDBRANCH   1  14
TORSDOF 9
ENDMDL
MODEL 4
REMARK VINA RESULT:    -3.911      1.311      3.562
REMARK INTER + INTRA:          -6.366
REMARK INTER:                  -6.109
REMARK INTRA:                  -0.257
REMARK UNBOUND:                -0.969
REMARK SMILES OC[C@H](O)C(O)[C@@H](O)CO
REMARK SMILES IDX 5 1 7 2 9 3 10 4 8 6 3 8 2 9 1 10 4 12 6 14
REMARK H PARENT 10 5 8 7 1 11 4 13 6 15
REMARK Flexibility Score: inf
ROOT
ATOM      1  C   UNL     1     -32.063  51.169 -51.445  1.00  0.00     0.176 C 
ENDROOT
BRANCH   1   2
ATOM      2  C   UNL     1     -32.377  52.473 -50.661  1.00  0.00     0.171 C 
BRANCH   2   3
ATOM      3  C   UNL     1     -31.631  53.694 -51.227  1.00  0.00     0.190 C 
BRANCH   3   4
ATOM      4  O   UNL     1     -32.007  54.858 -50.539  1.00  0.00    -0.394 OA
ATOM      5  H   UNL     1     -31.219  55.461 -50.540  1.00  0.00     0.210 HD
ENDBRANCH   3   4
ENDBRANCH   2   3
BRANCH   2   6
ATOM      6  O   UNL     1     -31.993  52.304 -49.318  1.00  0.00    -0.388 OA
ATOM      7  H   UNL     1     -31.667  51.371 -49.221  1.00  0.00     0.211 HD
ENDBRANCH   2   6
ENDBRANCH   1   2
BRANCH   1   8
ATOM      8  C   UNL     1     -33.252  50.599 -52.272  1.00  0.00     0.171 C 
BRANCH   8   9
ATOM      9  C   UNL     1     -32.855  50.076 -53.669  1.00  0.00     0.190 C 
BRANCH   9  10
ATOM     10  O   UNL     1     -31.753  49.216 -53.577  1.00  0.00    -0.394 OA
ATOM     11  H   UNL     1     -31.871  48.704 -52.736  1.00  0.00     0.210 HD
ENDBRANCH   9  10
ENDBRANCH   8   9
BRANCH   8  12
ATOM     12  O   UNL     1     -34.253  51.580 -52.394  1.00  0.00    -0.388 OA
ATOM     13  H   UNL     1     -33.946  52.391 -51.912  1.00  0.00     0.211 HD
ENDBRANCH   8  12
ENDBRANCH   1   8
BRANCH   1  14
ATOM     14  O   UNL     1     -31.613  50.182 -50.548  1.00  0.00    -0.388 OA
ATOM     15  H   UNL     1     -32.405  49.654 -50.267  1.00  0.00     0.211 HD
ENDBRANCH   1  14
TORSDOF 9
ENDMDL
MODEL 5
REMARK VINA RESULT:    -3.885      1.626      4.158
REMARK INTER + INTRA:          -6.330
REMARK INTER:                  -6.038
REMARK INTRA:                  -0.291
REMARK UNBOUND:                -0.969
REMARK SMILES OC[C@H](O)C(O)[C@@H](O)CO
REMARK SMILES IDX 5 1 7 2 9 3 10 4 8 6 3 8 2 9 1 10 4 12 6 14
REMARK H PARENT 10 5 8 7 1 11 4 13 6 15
REMARK Flexibility Score: inf
ROOT
ATOM      1  C   UNL     1     -32.778  50.206 -52.664  1.00  0.00     0.176 C 
ENDROOT
BRANCH   1   2
ATOM      2  C   UNL     1     -32.622  50.963 -51.316  1.00  0.00     0.171 C 
BRANCH   2   3
ATOM      3  C   UNL     1     -32.205  52.431 -51.511  1.00  0.00     0.190 C 
BRANCH   3   4
ATOM      4  O   UNL     1     -32.447  53.167 -50.341  1.00  0.00    -0.394 OA
ATOM      5  H   UNL     1     -31.912  54.001 -50.409  1.00  0.00     0.210 HD
ENDBRANCH   3   4
ENDBRANCH   2   3
BRANCH   2   6
ATOM      6  O   UNL     1     -31.636  50.323 -50.543  1.00  0.00    -0.388 OA
ATOM      7  H   UNL     1     -30.998  49.897 -51.173  1.00  0.00     0.211 HD
ENDBRANCH   2   6
ENDBRANCH   1   2
BRANCH   1   8
ATOM      8  C   UNL     1     -34.200  50.273 -53.292  1.00  0.00     0.171 C 
BRANCH   8   9
ATOM      9  C   UNL     1     -35.290  49.560 -52.463  1.00  0.00     0.190 C 
BRANCH   9  10
ATOM     10  O   UNL     1     -35.276  48.182 -52.715  1.00  0.00    -0.394 OA
ATOM     11  H   UNL     1     -35.940  48.026 -53.435  1.00  0.00     0.210 HD
ENDBRANCH   9  10
ENDBRANCH   8   9
BRANCH   8  12
ATOM     12  O   UNL     1     -34.164  49.742 -54.594  1.00  0.00    -0.388 OA
ATOM     13  H   UNL     1     -34.275  48.757 -54.526  1.00  0.00     0.211 HD
ENDBRANCH   8  12
ENDBRANCH   1   8
BRANCH   1  14
ATOM     14  O   UNL     1     -32.419  48.856 -52.484  1.00  0.00    -0.388 OA
ATOM     15  H   UNL     1     -31.534  48.843 -52.033  1.00  0.00     0.211 HD
ENDBRANCH   1  14
TORSDOF 9
ENDMDL
MODEL 6
REMARK VINA RESULT:    -3.745     11.512     13.360
REMARK INTER + INTRA:          -6.137
REMARK INTER:                  -5.558
REMARK INTRA:                  -0.578
REMARK UNBOUND:                -0.969
REMARK SMILES OC[C@H](O)C(O)[C@@H](O)CO
REMARK SMILES IDX 5 1 7 2 9 3 10 4 8 6 3 8 2 9 1 10 4 12 6 14
REMARK H PARENT 10 5 8 7 1 11 4 13 6 15
REMARK Flexibility Score: inf
ROOT
ATOM      1  C   UNL     1     -41.078  42.149 -51.071  1.00  0.00     0.176 C 
ENDROOT
BRANCH   1   2
ATOM      2  C   UNL     1     -41.499  42.974 -52.319  1.00  0.00     0.171 C 
BRANCH   2   3
ATOM      3  C   UNL     1     -40.661  44.253 -52.488  1.00  0.00     0.190 C 
BRANCH   3   4
ATOM      4  O   UNL     1     -39.351  44.042 -52.032  1.00  0.00    -0.394 OA
ATOM      5  H   UNL     1     -38.945  44.938 -51.895  1.00  0.00     0.210 HD
ENDBRANCH   3   4
ENDBRANCH   2   3
BRANCH   2   6
ATOM      6  O   UNL     1     -42.850  43.344 -52.189  1.00  0.00    -0.388 OA
ATOM      7  H   UNL     1     -43.086  43.881 -52.990  1.00  0.00     0.211 HD
ENDBRANCH   2   6
ENDBRANCH   1   2
BRANCH   1   8
ATOM      8  C   UNL     1     -41.728  40.739 -50.967  1.00  0.00     0.171 C 
BRANCH   8   9
ATOM      9  C   UNL     1     -40.806  39.663 -50.354  1.00  0.00     0.190 C 
BRANCH   9  10
ATOM     10  O   UNL     1     -40.651  39.875 -48.978  1.00  0.00    -0.394 OA
ATOM     11  H   UNL     1     -40.131  39.103 -48.636  1.00  0.00     0.210 HD
ENDBRANCH   9  10
ENDBRANCH   8   9
BRANCH   8  12
ATOM     12  O   UNL     1     -42.164  40.327 -52.240  1.00  0.00    -0.388 OA
ATOM     13  H   UNL     1     -42.847  40.976 -52.553  1.00  0.00     0.211 HD
ENDBRANCH   8  12
ENDBRANCH   1   8
BRANCH   1  14
ATOM     14  O   UNL     1     -41.379  42.880 -49.906  1.00  0.00    -0.388 OA
ATOM     15  H   UNL     1     -40.894  42.450 -49.153  1.00  0.00     0.211 HD
ENDBRANCH   1  14
TORSDOF 9
ENDMDL
MODEL 7
REMARK VINA RESULT:    -3.708      2.364      4.698
REMARK INTER + INTRA:          -6.086
REMARK INTER:                  -5.612
REMARK INTRA:                  -0.475
REMARK UNBOUND:                -0.969
REMARK SMILES OC[C@H](O)C(O)[C@@H](O)CO
REMARK SMILES IDX 5 1 7 2 9 3 10 4 8 6 3 8 2 9 1 10 4 12 6 14
REMARK H PARENT 10 5 8 7 1 11 4 13 6 15
REMARK Flexibility Score: inf
ROOT
ATOM      1  C   UNL     1     -34.510  50.374 -52.544  1.00  0.00     0.176 C 
ENDROOT
BRANCH   1   2
ATOM      2  C   UNL     1     -33.155  49.923 -51.931  1.00  0.00     0.171 C 
BRANCH   2   3
ATOM      3  C   UNL     1     -32.312  51.109 -51.432  1.00  0.00     0.190 C 
BRANCH   3   4
ATOM      4  O   UNL     1     -33.144  52.139 -50.968  1.00  0.00    -0.394 OA
ATOM      5  H   UNL     1     -32.551  52.843 -50.595  1.00  0.00     0.210 HD
ENDBRANCH   3   4
ENDBRANCH   2   3
BRANCH   2   6
ATOM      6  O   UNL     1     -32.415  49.236 -52.910  1.00  0.00    -0.388 OA
ATOM      7  H   UNL     1     -32.126  48.375 -52.510  1.00  0.00     0.211 HD
ENDBRANCH   2   6
ENDBRANCH   1   2
BRANCH   1   8
ATOM      8  C   UNL     1     -35.441  49.214 -53.003  1.00  0.00     0.171 C 
BRANCH   8   9
ATOM      9  C   UNL     1     -36.906  49.361 -52.539  1.00  0.00     0.190 C 
BRANCH   9  10
ATOM     10  O   UNL     1     -37.312  48.226 -51.825  1.00  0.00    -0.394 OA
ATOM     11  H   UNL     1     -38.266  48.081 -52.055  1.00  0.00     0.210 HD
ENDBRANCH   9  10
ENDBRANCH   8   9
BRANCH   8  12
ATOM     12  O   UNL     1     -34.918  47.987 -52.556  1.00  0.00    -0.388 OA
ATOM     13  H   UNL     1     -34.543  47.511 -53.343  1.00  0.00     0.211 HD
ENDBRANCH   8  12
ENDBRANCH   1   8
BRANCH   1  14
ATOM     14  O   UNL     1     -34.266  51.227 -53.638  1.00  0.00    -0.388 OA
ATOM     15  H   UNL     1     -35.096  51.748 -53.797  1.00  0.00     0.211 HD
ENDBRANCH   1  14
TORSDOF 9
ENDMDL
MODEL 8
REMARK VINA RESULT:    -3.677      1.721      2.581
REMARK INTER + INTRA:          -6.042
REMARK INTER:                  -5.552
REMARK INTRA:                  -0.490
REMARK UNBOUND:                -0.969
REMARK SMILES OC[C@H](O)C(O)[C@@H](O)CO
REMARK SMILES IDX 5 1 7 2 9 3 10 4 8 6 3 8 2 9 1 10 4 12 6 14
REMARK H PARENT 10 5 8 7 1 11 4 13 6 15
REMARK Flexibility Score: inf
ROOT
ATOM      1  C   UNL     1     -33.039  50.042 -52.082  1.00  0.00     0.176 C 
ENDROOT
BRANCH   1   2
ATOM      2  C   UNL     1     -34.318  50.264 -52.936  1.00  0.00     0.171 C 
BRANCH   2   3
ATOM      3  C   UNL     1     -35.508  49.423 -52.444  1.00  0.00     0.190 C 
BRANCH   3   4
ATOM      4  O   UNL     1     -35.285  48.062 -52.705  1.00  0.00    -0.394 OA
ATOM      5  H   UNL     1     -34.413  47.828 -52.292  1.00  0.00     0.210 HD
ENDBRANCH   3   4
ENDBRANCH   2   3
BRANCH   2   6
ATOM      6  O   UNL     1     -34.045  49.906 -54.269  1.00  0.00    -0.388 OA
ATOM      7  H   UNL     1     -33.202  49.382 -54.267  1.00  0.00     0.211 HD
ENDBRANCH   2   6
ENDBRANCH   1   2
BRANCH   1   8
ATOM      8  C   UNL     1     -32.045  51.239 -52.066  1.00  0.00     0.171 C 
BRANCH   8   9
ATOM      9  C   UNL     1     -32.368  52.313 -51.005  1.00  0.00     0.190 C 
BRANCH   9  10
ATOM     10  O   UNL     1     -32.064  51.842 -49.721  1.00  0.00    -0.394 OA
ATOM     11  H   UNL     1     -31.104  51.592 -49.738  1.00  0.00     0.210 HD
ENDBRANCH   9  10
ENDBRANCH   8   9
BRANCH   8  12
ATOM     12  O   UNL     1     -31.996  51.827 -53.343  1.00  0.00    -0.388 OA
ATOM     13  H   UNL     1     -32.922  52.079 -53.599  1.00  0.00     0.211 HD
ENDBRANCH   8  12
ENDBRANCH   1   8
BRANCH   1  14
ATOM     14  O   UNL     1     -32.367  48.893 -52.538  1.00  0.00    -0.388 OA
ATOM     15  H   UNL     1     -33.047  48.295 -52.947  1.00  0.00     0.211 HD
ENDBRANCH   1  14
TORSDOF 9
ENDMDL
MODEL 9
REMARK VINA RESULT:    -3.640      2.271      3.880
REMARK INTER + INTRA:          -5.992
REMARK INTER:                  -5.261
REMARK INTRA:                  -0.732
REMARK UNBOUND:                -0.969
REMARK SMILES OC[C@H](O)C(O)[C@@H](O)CO
REMARK SMILES IDX 5 1 7 2 9 3 10 4 8 6 3 8 2 9 1 10 4 12 6 14
REMARK H PARENT 10 5 8 7 1 11 4 13 6 15
REMARK Flexibility Score: inf
ROOT
ATOM      1  C   UNL     1     -33.502  50.598 -53.926  1.00  0.00     0.176 C 
ENDROOT
BRANCH   1   2
ATOM      2  C   UNL     1     -31.964  50.826 -53.928  1.00  0.00     0.171 C 
BRANCH   2   3
ATOM      3  C   UNL     1     -31.216  49.783 -54.775  1.00  0.00     0.190 C 
BRANCH   3   4
ATOM      4  O   UNL     1     -31.141  48.561 -54.090  1.00  0.00    -0.394 OA
ATOM      5  H   UNL     1     -30.182  48.406 -53.880  1.00  0.00     0.210 HD
ENDBRANCH   3   4
ENDBRANCH   2   3
BRANCH   2   6
ATOM      6  O   UNL     1     -31.488  50.747 -52.607  1.00  0.00    -0.388 OA
ATOM      7  H   UNL     1     -30.546  50.437 -52.652  1.00  0.00     0.211 HD
ENDBRANCH   2   6
ENDBRANCH   1   2
BRANCH   1   8
ATOM      8  C   UNL     1     -34.098  50.166 -52.556  1.00  0.00     0.171 C 
BRANCH   8   9
ATOM      9  C   UNL     1     -35.468  49.460 -52.658  1.00  0.00     0.190 C 
BRANCH   9  10
ATOM     10  O   UNL     1     -35.299  48.078 -52.809  1.00  0.00    -0.394 OA
ATOM     11  H   UNL     1     -34.334  47.900 -52.659  1.00  0.00     0.210 HD
ENDBRANCH   9  10
ENDBRANCH   8   9
BRANCH   8  12
ATOM     12  O   UNL     1     -34.199  51.287 -51.712  1.00  0.00    -0.388 OA
ATOM     13  H   UNL     1     -34.713  51.986 -52.194  1.00  0.00     0.211 HD
ENDBRANCH   8  12
ENDBRANCH   1   8
BRANCH   1  14
ATOM     14  O   UNL     1     -33.831  49.631 -54.895  1.00  0.00    -0.388 OA
ATOM     15  H   UNL     1     -33.242  48.846 -54.742  1.00  0.00     0.211 HD
ENDBRANCH   1  14
TORSDOF 9
ENDMDL
