MODEL 1
REMARK VINA RESULT:    -3.542      0.000      0.000
REMARK INTER + INTRA:          -5.437
REMARK INTER:                  -4.991
REMARK INTRA:                  -0.445
REMARK UNBOUND:                -0.445
REMARK SMILES CCCCCCCCC(=O)[O-]
REMARK SMILES IDX 6 1 7 2 8 3 9 4 10 5 11 6 5 7 4 8 3 9 2 10 1 11
REMARK H PARENT
REMARK Flexibility Score: inf
ROOT
ATOM      1  C   UNL     1       4.961   0.015 400.053  1.00  0.00     0.000 C 
ENDROOT
BRANCH   1   2
ATOM      2  C   UNL     1       3.572   0.655 400.203  1.00  0.00     0.006 C 
BRANCH   2   3
ATOM      3  C   UNL     1       3.648   2.078 400.771  1.00  0.00     0.053 C 
BRANCH   3   4
ATOM      4  C   UNL     1       4.015   2.076 402.223  1.00  0.00     0.041 C 
ATOM      5  O   UNL     1       4.740   2.992 402.695  1.00  0.00    -0.550 OA
ATOM      6  O   UNL     1       3.532   1.080 403.062  1.00  0.00    -0.550 OA
ENDBRANCH   3   4
ENDBRANCH   2   3
ENDBRANCH   1   2
BRANCH   1   7
ATOM      7  C   UNL     1       4.944  -1.447 400.524  1.00  0.00     0.000 C 
BRANCH   7   8
ATOM      8  C   UNL     1       3.712  -2.223 400.025  1.00  0.00    -0.000 C 
BRANCH   8   9
ATOM      9  C   UNL     1       3.201  -3.323 400.977  1.00  0.00    -0.000 C 
BRANCH   9  10
ATOM     10  C   UNL     1       3.590  -3.135 402.455  1.00  0.00    -0.003 C 
ATOM     11  C   UNL     1       4.169  -4.402 403.083  1.00  0.00     0.004 C 
ENDBRANCH   9  10
ENDBRANCH   8   9
ENDBRANCH   7   8
ENDBRANCH   1   7
TORSDOF 7
ENDMDL
MODEL 2
REMARK VINA RESULT:    -3.534      2.225      4.675
REMARK INTER + INTRA:          -5.425
REMARK INTER:                  -4.771
REMARK INTRA:                  -0.654
REMARK UNBOUND:                -0.445
REMARK SMILES CCCCCCCCC(=O)[O-]
REMARK SMILES IDX 6 1 7 2 8 3 9 4 10 5 11 6 5 7 4 8 3 9 2 10 1 11
REMARK H PARENT
REMARK Flexibility Score: inf
ROOT
ATOM      1  C   UNL     1       5.516   1.158 400.311  1.00  0.00     0.000 C 
ENDROOT
BRANCH   1   2
ATOM      2  C   UNL     1       5.440  -0.334 399.952  1.00  0.00     0.006 C 
BRANCH   2   3
ATOM      3  C   UNL     1       4.002  -0.869 399.996  1.00  0.00     0.053 C 
BRANCH   3   4
ATOM      4  C   UNL     1       3.845  -1.953 401.018  1.00  0.00     0.041 C 
ATOM      5  O   UNL     1       4.304  -1.801 402.180  1.00  0.00    -0.550 OA
ATOM      6  O   UNL     1       3.162  -3.119 400.695  1.00  0.00    -0.550 OA
ENDBRANCH   3   4
ENDBRANCH   2   3
ENDBRANCH   1   2
BRANCH   1   7
ATOM      7  C   UNL     1       4.115   1.732 400.571  1.00  0.00     0.000 C 
BRANCH   7   8
ATOM      8  C   UNL     1       4.018   2.492 401.906  1.00  0.00    -0.000 C 
BRANCH   8   9
ATOM      9  C   UNL     1       4.228   1.630 403.167  1.00  0.00    -0.000 C 
BRANCH   9  10
ATOM     10  C   UNL     1       5.558   1.869 403.903  1.00  0.00    -0.003 C 
ATOM     11  C   UNL     1       6.211   3.201 403.535  1.00  0.00     0.004 C 
ENDBRANCH   9  10
ENDBRANCH   8   9
ENDBRANCH   7   8
ENDBRANCH   1   7
TORSDOF 7
ENDMDL
MODEL 3
REMARK VINA RESULT:    -3.524      2.603      4.598
REMARK INTER + INTRA:          -5.412
REMARK INTER:                  -4.751
REMARK INTRA:                  -0.661
REMARK UNBOUND:                -0.445
REMARK SMILES CCCCCCCCC(=O)[O-]
REMARK SMILES IDX 6 1 7 2 8 3 9 4 10 5 11 6 5 7 4 8 3 9 2 10 1 11
REMARK H PARENT
REMARK Flexibility Score: inf
ROOT
ATOM      1  C   UNL     1       4.635   0.550 400.179  1.00  0.00     0.000 C 
ENDROOT
BRANCH   1   2
ATOM      2  C   UNL     1       3.969  -0.832 400.104  1.00  0.00     0.006 C 
BRANCH   2   3
ATOM      3  C   UNL     1       4.730  -1.888 400.916  1.00  0.00     0.053 C 
BRANCH   3   4
ATOM      4  C   UNL     1       3.810  -2.934 401.468  1.00  0.00     0.041 C 
ATOM      5  O   UNL     1       2.845  -3.356 400.779  1.00  0.00    -0.550 OA
ATOM      6  O   UNL     1       4.039  -3.464 402.732  1.00  0.00    -0.550 OA
ENDBRANCH   3   4
ENDBRANCH   2   3
ENDBRANCH   1   2
BRANCH   1   7
ATOM      7  C   UNL     1       3.595   1.647 400.452  1.00  0.00     0.000 C 
BRANCH   7   8
ATOM      8  C   UNL     1       3.969   2.540 401.649  1.00  0.00    -0.000 C 
BRANCH   8   9
ATOM      9  C   UNL     1       5.148   2.032 402.504  1.00  0.00    -0.000 C 
BRANCH   9  10
ATOM     10  C   UNL     1       4.771   1.580 403.926  1.00  0.00    -0.003 C 
ATOM     11  C   UNL     1       4.407   0.098 404.003  1.00  0.00     0.004 C 
ENDBRANCH   9  10
ENDBRANCH   8   9
ENDBRANCH   7   8
ENDBRANCH   1   7
TORSDOF 7
ENDMDL
MODEL 4
REMARK VINA RESULT:    -3.515      1.145      1.602
REMARK INTER + INTRA:          -5.398
REMARK INTER:                  -5.101
REMARK INTRA:                  -0.297
REMARK UNBOUND:                -0.445
REMARK SMILES CCCCCCCCC(=O)[O-]
REMARK SMILES IDX 6 1 7 2 8 3 9 4 10 5 11 6 5 7 4 8 3 9 2 10 1 11
REMARK H PARENT
REMARK Flexibility Score: inf
ROOT
ATOM      1  C   UNL     1       4.543  -1.366 400.413  1.00  0.00     0.000 C 
ENDROOT
BRANCH   1   2
ATOM      2  C   UNL     1       3.855  -0.033 400.082  1.00  0.00     0.006 C 
BRANCH   2   3
ATOM      3  C   UNL     1       4.708   1.177 400.484  1.00  0.00     0.053 C 
BRANCH   3   4
ATOM      4  C   UNL     1       3.995   2.058 401.463  1.00  0.00     0.041 C 
ATOM      5  O   UNL     1       3.564   3.185 401.104  1.00  0.00    -0.550 OA
ATOM      6  O   UNL     1       3.778   1.621 402.764  1.00  0.00    -0.550 OA
ENDBRANCH   3   4
ENDBRANCH   2   3
ENDBRANCH   1   2
BRANCH   1   7
ATOM      7  C   UNL     1       3.634  -2.554 400.066  1.00  0.00     0.000 C 
BRANCH   7   8
ATOM      8  C   UNL     1       3.255  -3.397 401.297  1.00  0.00    -0.000 C 
BRANCH   8   9
ATOM      9  C   UNL     1       4.075  -3.103 402.570  1.00  0.00    -0.000 C 
BRANCH   9  10
ATOM     10  C   UNL     1       3.630  -3.879 403.822  1.00  0.00    -0.003 C 
ATOM     11  C   UNL     1       2.344  -3.330 404.437  1.00  0.00     0.004 C 
ENDBRANCH   9  10
ENDBRANCH   8   9
ENDBRANCH   7   8
ENDBRANCH   1   7
TORSDOF 7
ENDMDL
MODEL 5
REMARK VINA RESULT:    -3.503      2.745      5.147
REMARK INTER + INTRA:          -5.382
REMARK INTER:                  -5.006
REMARK INTRA:                  -0.376
REMARK UNBOUND:                -0.445
REMARK SMILES CCCCCCCCC(=O)[O-]
REMARK SMILES IDX 6 1 7 2 8 3 9 4 10 5 11 6 5 7 4 8 3 9 2 10 1 11
REMARK H PARENT
REMARK Flexibility Score: inf
ROOT
ATOM      1  C   UNL     1       3.752  -2.350 399.998  1.00  0.00     0.000 C 
ENDROOT
BRANCH   1   2
ATOM      2  C   UNL     1       3.251  -3.361 401.041  1.00  0.00     0.006 C 
BRANCH   2   3
ATOM      3  C   UNL     1       3.625  -2.953 402.472  1.00  0.00     0.053 C 
BRANCH   3   4
ATOM      4  C   UNL     1       3.606  -4.123 403.406  1.00  0.00     0.041 C 
ATOM      5  O   UNL     1       3.817  -5.285 402.970  1.00  0.00    -0.550 OA
ATOM      6  O   UNL     1       3.387  -3.926 404.764  1.00  0.00    -0.550 OA
ENDBRANCH   3   4
ENDBRANCH   2   3
ENDBRANCH   1   2
BRANCH   1   7
ATOM      7  C   UNL     1       4.804  -1.410 400.606  1.00  0.00     0.000 C 
BRANCH   7   8
ATOM      8  C   UNL     1       4.731   0.018 400.037  1.00  0.00    -0.000 C 
BRANCH   8   9
ATOM      9  C   UNL     1       3.441   0.792 400.374  1.00  0.00    -0.000 C 
BRANCH   9  10
ATOM     10  C   UNL     1       3.656   2.250 400.818  1.00  0.00    -0.003 C 
ATOM     11  C   UNL     1       4.397   2.364 402.150  1.00  0.00     0.004 C 
ENDBRANCH   9  10
ENDBRANCH   8   9
ENDBRANCH   7   8
ENDBRANCH   1   7
TORSDOF 7
ENDMDL
MODEL 6
REMARK VINA RESULT:    -3.485      1.959      2.965
REMARK INTER + INTRA:          -5.357
REMARK INTER:                  -5.068
REMARK INTRA:                  -0.289
REMARK UNBOUND:                -0.445
REMARK SMILES CCCCCCCCC(=O)[O-]
REMARK SMILES IDX 6 1 7 2 8 3 9 4 10 5 11 6 5 7 4 8 3 9 2 10 1 11
REMARK H PARENT
REMARK Flexibility Score: inf
ROOT
ATOM      1  C   UNL     1       3.747  -2.425 400.057  1.00  0.00     0.000 C 
ENDROOT
BRANCH   1   2
ATOM      2  C   UNL     1       5.011  -1.661 400.483  1.00  0.00     0.006 C 
BRANCH   2   3
ATOM      3  C   UNL     1       4.961  -0.184 400.073  1.00  0.00     0.053 C 
BRANCH   3   4
ATOM      4  C   UNL     1       3.852   0.548 400.765  1.00  0.00     0.041 C 
ATOM      5  O   UNL     1       3.003   1.192 400.095  1.00  0.00    -0.550 OA
ATOM      6  O   UNL     1       3.738   0.491 402.149  1.00  0.00    -0.550 OA
ENDBRANCH   3   4
ENDBRANCH   2   3
ENDBRANCH   1   2
BRANCH   1   7
ATOM      7  C   UNL     1       3.287  -3.385 401.164  1.00  0.00     0.000 C 
BRANCH   7   8
ATOM      8  C   UNL     1       4.411  -4.318 401.652  1.00  0.00    -0.000 C 
BRANCH   8   9
ATOM      9  C   UNL     1       3.951  -5.725 402.086  1.00  0.00    -0.000 C 
BRANCH   9  10
ATOM     10  C   UNL     1       4.761  -6.887 401.484  1.00  0.00    -0.003 C 
ATOM     11  C   UNL     1       3.933  -8.158 401.303  1.00  0.00     0.004 C 
ENDBRANCH   9  10
ENDBRANCH   8   9
ENDBRANCH   7   8
ENDBRANCH   1   7
TORSDOF 7
ENDMDL
MODEL 7
REMARK VINA RESULT:    -3.457      8.651     10.063
REMARK INTER + INTRA:          -5.317
REMARK INTER:                  -4.739
REMARK INTRA:                  -0.578
REMARK UNBOUND:                -0.445
REMARK SMILES CCCCCCCCC(=O)[O-]
REMARK SMILES IDX 6 1 7 2 8 3 9 4 10 5 11 6 5 7 4 8 3 9 2 10 1 11
REMARK H PARENT
REMARK Flexibility Score: inf
ROOT
ATOM      1  C   UNL     1       6.042   7.209 403.154  1.00  0.00     0.000 C 
ENDROOT
BRANCH   1   2
ATOM      2  C   UNL     1       6.141   8.726 402.931  1.00  0.00     0.006 C 
BRANCH   2   3
ATOM      3  C   UNL     1       6.753   9.073 401.568  1.00  0.00     0.053 C 
BRANCH   3   4
ATOM      4  C   UNL     1       8.217   9.371 401.675  1.00  0.00     0.041 C 
ATOM      5  O   UNL     1       8.717   9.699 402.783  1.00  0.00    -0.550 OA
ATOM      6  O   UNL     1       9.034   9.255 400.558  1.00  0.00    -0.550 OA
ENDBRANCH   3   4
ENDBRANCH   2   3
ENDBRANCH   1   2
BRANCH   1   7
ATOM      7  C   UNL     1       4.580   6.776 403.341  1.00  0.00     0.000 C 
BRANCH   7   8
ATOM      8  C   UNL     1       3.577   7.883 402.969  1.00  0.00    -0.000 C 
BRANCH   8   9
ATOM      9  C   UNL     1       2.513   8.189 404.043  1.00  0.00    -0.000 C 
BRANCH   9  10
ATOM     10  C   UNL     1       3.064   8.375 405.468  1.00  0.00    -0.003 C 
ATOM     11  C   UNL     1       3.716   9.741 405.681  1.00  0.00     0.004 C 
ENDBRANCH   9  10
ENDBRANCH   8   9
ENDBRANCH   7   8
ENDBRANCH   1   7
TORSDOF 7
ENDMDL
MODEL 8
REMARK VINA RESULT:    -3.366      1.530      4.141
REMARK INTER + INTRA:          -5.188
REMARK INTER:                  -4.614
REMARK INTRA:                  -0.574
REMARK UNBOUND:                -0.445
REMARK SMILES CCCCCCCCC(=O)[O-]
REMARK SMILES IDX 6 1 7 2 8 3 9 4 10 5 11 6 5 7 4 8 3 9 2 10 1 11
REMARK H PARENT
REMARK Flexibility Score: inf
ROOT
ATOM      1  C   UNL     1       3.302  -3.009 401.206  1.00  0.00     0.000 C 
ENDROOT
BRANCH   1   2
ATOM      2  C   UNL     1       4.283  -3.122 402.383  1.00  0.00     0.006 C 
BRANCH   2   3
ATOM      3  C   UNL     1       3.741  -2.460 403.656  1.00  0.00     0.053 C 
BRANCH   3   4
ATOM      4  C   UNL     1       4.349  -1.109 403.881  1.00  0.00     0.041 C 
ATOM      5  O   UNL     1       3.750  -0.072 403.493  1.00  0.00    -0.550 OA
ATOM      6  O   UNL     1       5.563  -0.995 404.547  1.00  0.00    -0.550 OA
ENDBRANCH   3   4
ENDBRANCH   2   3
ENDBRANCH   1   2
BRANCH   1   7
ATOM      7  C   UNL     1       3.975  -2.353 399.991  1.00  0.00     0.000 C 
BRANCH   7   8
ATOM      8  C   UNL     1       3.839  -0.820 399.987  1.00  0.00    -0.000 C 
BRANCH   8   9
ATOM      9  C   UNL     1       5.171  -0.044 400.029  1.00  0.00    -0.000 C 
BRANCH   9  10
ATOM     10  C   UNL     1       5.067   1.397 400.561  1.00  0.00    -0.003 C 
ATOM     11  C   UNL     1       3.630   1.918 400.591  1.00  0.00     0.004 C 
ENDBRANCH   9  10
ENDBRANCH   8   9
ENDBRANCH   7   8
ENDBRANCH   1   7
TORSDOF 7
ENDMDL
MODEL 9
REMARK VINA RESULT:    -3.330      2.641      4.950
REMARK INTER + INTRA:          -5.138
REMARK INTER:                  -4.380
REMARK INTRA:                  -0.758
REMARK UNBOUND:                -0.445
REMARK SMILES CCCCCCCCC(=O)[O-]
REMARK SMILES IDX 6 1 7 2 8 3 9 4 10 5 11 6 5 7 4 8 3 9 2 10 1 11
REMARK H PARENT
REMARK Flexibility Score: inf
ROOT
ATOM      1  C   UNL     1       5.145   0.342 403.852  1.00  0.00     0.000 C 
ENDROOT
BRANCH   1   2
ATOM      2  C   UNL     1       4.161  -0.838 403.818  1.00  0.00     0.006 C 
BRANCH   2   3
ATOM      3  C   UNL     1       4.724  -2.041 403.050  1.00  0.00     0.053 C 
BRANCH   3   4
ATOM      4  C   UNL     1       3.637  -2.961 402.586  1.00  0.00     0.041 C 
ATOM      5  O   UNL     1       2.990  -3.649 403.419  1.00  0.00    -0.550 OA
ATOM      6  O   UNL     1       3.318  -3.035 401.236  1.00  0.00    -0.550 OA
ENDBRANCH   3   4
ENDBRANCH   2   3
ENDBRANCH   1   2
BRANCH   1   7
ATOM      7  C   UNL     1       4.437   1.658 403.498  1.00  0.00     0.000 C 
BRANCH   7   8
ATOM      8  C   UNL     1       4.828   2.191 402.107  1.00  0.00    -0.000 C 
BRANCH   8   9
ATOM      9  C   UNL     1       3.733   2.070 401.028  1.00  0.00    -0.000 C 
BRANCH   9  10
ATOM     10  C   UNL     1       3.627   0.686 400.364  1.00  0.00    -0.003 C 
ATOM     11  C   UNL     1       4.989   0.086 400.017  1.00  0.00     0.004 C 
ENDBRANCH   9  10
ENDBRANCH   8   9
ENDBRANCH   7   8
ENDBRANCH   1   7
TORSDOF 7
ENDMDL
