MODEL 1
REMARK VINA RESULT:    -5.486      0.000      0.000
REMARK INTER + INTRA:          -9.305
REMARK INTER:                  -8.052
REMARK INTRA:                  -1.252
REMARK UNBOUND:                -1.252
REMARK SMILES Cc1cc2c(C(C)C)c(O)c(O)c(C=O)c2c(O)c1-c1c(C)cc2c(C(C)C)c(O)c(O)c(C=O)c2c1O
REMARK SMILES IDX 1 1 2 2 3 3 4 4 16 5 13 6 11 7 9 8 5 9 17 10 19 11 20 12
REMARK SMILES IDX 37 13 21 14 36 15 23 16 22 17 24 18 33 19 25 20 31 21 29 22
REMARK SMILES IDX 38 23 34 25 35 26 26 27 27 28 28 29 32 30 30 32 18 34 6 36
REMARK SMILES IDX 7 37 8 38 14 39 15 40 10 41 12 43
REMARK H PARENT 38 24 32 31 30 33 18 35 10 42 12 44
REMARK Flexibility Score: inf
ROOT
ATOM      1  C   UNL     1      36.617  -6.629   3.446  1.00  0.00     0.045 C 
ATOM      2  C   UNL     1      35.958  -5.543   4.261  1.00  0.00    -0.039 A 
ATOM      3  C   UNL     1      36.053  -5.581   5.653  1.00  0.00     0.013 A 
ATOM      4  C   UNL     1      35.483  -4.585   6.470  1.00  0.00    -0.006 A 
ATOM      5  C   UNL     1      34.731  -3.542   5.848  1.00  0.00     0.039 A 
ATOM      6  C   UNL     1      34.158  -2.527   6.664  1.00  0.00     0.072 A 
ATOM      7  C   UNL     1      34.123  -2.691   8.054  1.00  0.00     0.169 A 
ATOM      8  C   UNL     1      34.797  -3.755   8.665  1.00  0.00     0.162 A 
ATOM      9  C   UNL     1      35.614  -4.622   7.896  1.00  0.00     0.008 A 
ATOM     10  C   UNL     1      34.529  -3.578   4.437  1.00  0.00     0.132 A 
ATOM     11  C   UNL     1      35.185  -4.544   3.647  1.00  0.00     0.031 A 
ENDROOT
BRANCH  11  12
ATOM     12  C   UNL     1      35.033  -4.528   2.169  1.00  0.00     0.031 A 
ATOM     13  C   UNL     1      33.920  -5.147   1.561  1.00  0.00     0.132 A 
ATOM     14  C   UNL     1      36.026  -3.930   1.378  1.00  0.00    -0.039 A 
ATOM     15  C   UNL     1      33.764  -5.121   0.141  1.00  0.00     0.039 A 
ATOM     16  C   UNL     1      35.919  -3.976  -0.013  1.00  0.00     0.013 A 
ATOM     17  C   UNL     1      37.242  -3.292   2.006  1.00  0.00     0.045 C 
ATOM     18  C   UNL     1      34.792  -4.535  -0.658  1.00  0.00    -0.006 A 
ATOM     19  C   UNL     1      32.636  -5.705  -0.507  1.00  0.00     0.072 A 
ATOM     20  C   UNL     1      34.691  -4.557  -2.084  1.00  0.00     0.008 A 
ATOM     21  C   UNL     1      32.633  -5.860  -1.904  1.00  0.00     0.169 A 
ATOM     22  C   UNL     1      33.698  -5.365  -2.678  1.00  0.00     0.162 A 
BRANCH  13  23
ATOM     23  O   UNL     1      32.994  -5.824   2.361  1.00  0.00    -0.507 OA
ATOM     24  H   UNL     1      32.969  -5.765   3.372  1.00  0.00     0.293 HD
ENDBRANCH  13  23
BRANCH  19  25
ATOM     25  C   UNL     1      31.410  -6.086   0.234  1.00  0.00     0.264 C 
ATOM     26  O   UNL     1      30.609  -5.213   0.660  1.00  0.00    -0.298 OA
ENDBRANCH  19  25
BRANCH  20  27
ATOM     27  C   UNL     1      35.668  -3.771  -2.979  1.00  0.00     0.017 C 
ATOM     28  C   UNL     1      36.670  -4.713  -3.655  1.00  0.00     0.012 C 
ATOM     29  C   UNL     1      34.974  -2.862  -4.010  1.00  0.00     0.012 C 
ENDBRANCH  20  27
BRANCH  21  30
ATOM     30  O   UNL     1      31.528  -6.469  -2.512  1.00  0.00    -0.504 OA
ATOM     31  H   UNL     1      31.401  -6.541  -3.512  1.00  0.00     0.293 HD
ENDBRANCH  21  30
BRANCH  22  32
ATOM     32  O   UNL     1      33.792  -5.674  -4.037  1.00  0.00    -0.504 OA
ATOM     33  H   UNL     1      33.342  -5.147  -4.771  1.00  0.00     0.293 HD
ENDBRANCH  22  32
ENDBRANCH  11  12
BRANCH  10  34
ATOM     34  O   UNL     1      33.632  -2.689   3.832  1.00  0.00    -0.507 OA
ATOM     35  H   UNL     1      33.856  -1.727   3.611  1.00  0.00     0.293 HD
ENDBRANCH  10  34
BRANCH   9  36
ATOM     36  C   UNL     1      36.640  -5.500   8.637  1.00  0.00     0.017 C 
ATOM     37  C   UNL     1      36.573  -6.972   8.208  1.00  0.00     0.012 C 
ATOM     38  C   UNL     1      38.079  -4.940   8.634  1.00  0.00     0.012 C 
ENDBRANCH   9  36
BRANCH   6  39
ATOM     39  C   UNL     1      33.643  -1.245   6.129  1.00  0.00     0.264 C 
ATOM     40  O   UNL     1      32.417  -1.098   5.880  1.00  0.00    -0.298 OA
ENDBRANCH   6  39
BRANCH   8  41
ATOM     41  O   UNL     1      34.637  -3.915  10.046  1.00  0.00    -0.504 OA
ATOM     42  H   UNL     1      33.764  -4.169  10.488  1.00  0.00     0.293 HD
ENDBRANCH   8  41
BRANCH   7  43
ATOM     43  O   UNL     1      33.426  -1.764   8.837  1.00  0.00    -0.504 OA
ATOM     44  H   UNL     1      32.633  -1.238   8.488  1.00  0.00     0.293 HD
ENDBRANCH   7  43
TORSDOF 11
ENDMDL
MODEL 2
REMARK VINA RESULT:    -5.444      1.602      8.764
REMARK INTER + INTRA:          -9.242
REMARK INTER:                  -7.711
REMARK INTRA:                  -1.531
REMARK UNBOUND:                -1.252
REMARK SMILES Cc1cc2c(C(C)C)c(O)c(O)c(C=O)c2c(O)c1-c1c(C)cc2c(C(C)C)c(O)c(O)c(C=O)c2c1O
REMARK SMILES IDX 1 1 2 2 3 3 4 4 16 5 13 6 11 7 9 8 5 9 17 10 19 11 20 12
REMARK SMILES IDX 37 13 21 14 36 15 23 16 22 17 24 18 33 19 25 20 31 21 29 22
REMARK SMILES IDX 38 23 34 25 35 26 26 27 27 28 28 29 32 30 30 32 18 34 6 36
REMARK SMILES IDX 7 37 8 38 14 39 15 40 10 41 12 43
REMARK H PARENT 38 24 32 31 30 33 18 35 10 42 12 44
REMARK Flexibility Score: inf
ROOT
ATOM      1  C   UNL     1      37.353  -3.222   1.837  1.00  0.00     0.045 C 
ATOM      2  C   UNL     1      36.044  -3.799   1.355  1.00  0.00    -0.039 A 
ATOM      3  C   UNL     1      35.942  -4.253   0.039  1.00  0.00     0.013 A 
ATOM      4  C   UNL     1      34.757  -4.825  -0.466  1.00  0.00    -0.006 A 
ATOM      5  C   UNL     1      33.610  -4.878   0.385  1.00  0.00     0.039 A 
ATOM      6  C   UNL     1      32.411  -5.462  -0.114  1.00  0.00     0.072 A 
ATOM      7  C   UNL     1      32.292  -5.742  -1.480  1.00  0.00     0.169 A 
ATOM      8  C   UNL     1      33.394  -5.620  -2.333  1.00  0.00     0.162 A 
ATOM      9  C   UNL     1      34.675  -5.313  -1.810  1.00  0.00     0.008 A 
ATOM     10  C   UNL     1      33.682  -4.297   1.685  1.00  0.00     0.132 A 
ATOM     11  C   UNL     1      34.908  -3.811   2.181  1.00  0.00     0.031 A 
ENDROOT
BRANCH  11  12
ATOM     12  C   UNL     1      34.994  -3.278   3.566  1.00  0.00     0.031 A 
ATOM     13  C   UNL     1      35.218  -4.149   4.653  1.00  0.00     0.132 A 
ATOM     14  C   UNL     1      34.806  -1.905   3.791  1.00  0.00    -0.039 A 
ATOM     15  C   UNL     1      35.315  -3.638   5.983  1.00  0.00     0.039 A 
ATOM     16  C   UNL     1      34.817  -1.414   5.097  1.00  0.00     0.013 A 
ATOM     17  C   UNL     1      34.531  -0.959   2.646  1.00  0.00     0.045 C 
ATOM     18  C   UNL     1      35.096  -2.245   6.206  1.00  0.00    -0.006 A 
ATOM     19  C   UNL     1      35.576  -4.482   7.101  1.00  0.00     0.072 A 
ATOM     20  C   UNL     1      35.120  -1.720   7.536  1.00  0.00     0.008 A 
ATOM     21  C   UNL     1      35.435  -3.980   8.407  1.00  0.00     0.169 A 
ATOM     22  C   UNL     1      35.124  -2.625   8.618  1.00  0.00     0.162 A 
BRANCH  13  23
ATOM     23  O   UNL     1      35.302  -5.526   4.417  1.00  0.00    -0.507 OA
ATOM     24  H   UNL     1      34.658  -6.040   3.830  1.00  0.00     0.293 HD
ENDBRANCH  13  23
BRANCH  19  25
ATOM     25  C   UNL     1      36.077  -5.869   6.943  1.00  0.00     0.264 C 
ATOM     26  O   UNL     1      35.323  -6.860   7.135  1.00  0.00    -0.298 OA
ENDBRANCH  19  25
BRANCH  20  27
ATOM     27  C   UNL     1      35.086  -0.205   7.812  1.00  0.00     0.017 C 
ATOM     28  C   UNL     1      36.436   0.442   7.485  1.00  0.00     0.012 C 
ATOM     29  C   UNL     1      33.930   0.531   7.109  1.00  0.00     0.012 C 
ENDBRANCH  20  27
BRANCH  21  30
ATOM     30  O   UNL     1      35.662  -4.841   9.488  1.00  0.00    -0.504 OA
ATOM     31  H   UNL     1      36.187  -5.702   9.425  1.00  0.00     0.293 HD
ENDBRANCH  21  30
BRANCH  22  32
ATOM     32  O   UNL     1      34.802  -2.162   9.897  1.00  0.00    -0.504 OA
ATOM     33  H   UNL     1      34.510  -1.217  10.100  1.00  0.00     0.293 HD
ENDBRANCH  22  32
ENDBRANCH  11  12
BRANCH  10  34
ATOM     34  O   UNL     1      32.522  -4.154   2.456  1.00  0.00    -0.507 OA
ATOM     35  H   UNL     1      32.209  -4.838   3.133  1.00  0.00     0.293 HD
ENDBRANCH  10  34
BRANCH   9  36
ATOM     36  C   UNL     1      35.907  -5.589  -2.694  1.00  0.00     0.017 C 
ATOM     37  C   UNL     1      35.998  -7.057  -3.133  1.00  0.00     0.012 C 
ATOM     38  C   UNL     1      36.084  -4.600  -3.867  1.00  0.00     0.012 C 
ENDBRANCH   9  36
BRANCH   6  39
ATOM     39  C   UNL     1      31.279  -5.862   0.753  1.00  0.00     0.264 C 
ATOM     40  O   UNL     1      30.259  -5.130   0.858  1.00  0.00    -0.298 OA
ENDBRANCH   6  39
BRANCH   8  41
ATOM     41  O   UNL     1      33.179  -5.821  -3.701  1.00  0.00    -0.504 OA
ATOM     42  H   UNL     1      32.770  -6.660  -4.092  1.00  0.00     0.293 HD
ENDBRANCH   8  41
BRANCH   7  43
ATOM     43  O   UNL     1      31.060  -6.173  -1.986  1.00  0.00    -0.504 OA
ATOM     44  H   UNL     1      30.893  -6.317  -2.975  1.00  0.00     0.293 HD
ENDBRANCH   7  43
TORSDOF 11
ENDMDL
MODEL 3
REMARK VINA RESULT:    -5.383      3.388      5.753
REMARK INTER + INTRA:          -9.153
REMARK INTER:                  -7.515
REMARK INTRA:                  -1.638
REMARK UNBOUND:                -1.252
REMARK SMILES Cc1cc2c(C(C)C)c(O)c(O)c(C=O)c2c(O)c1-c1c(C)cc2c(C(C)C)c(O)c(O)c(C=O)c2c1O
REMARK SMILES IDX 1 1 2 2 3 3 4 4 16 5 13 6 11 7 9 8 5 9 17 10 19 11 20 12
REMARK SMILES IDX 37 13 21 14 36 15 23 16 22 17 24 18 33 19 25 20 31 21 29 22
REMARK SMILES IDX 38 23 34 25 35 26 26 27 27 28 28 29 32 30 30 32 18 34 6 36
REMARK SMILES IDX 7 37 8 38 14 39 15 40 10 41 12 43
REMARK H PARENT 38 24 32 31 30 33 18 35 10 42 12 44
REMARK Flexibility Score: inf
ROOT
ATOM      1  C   UNL     1      36.024  -1.807  -0.225  1.00  0.00     0.045 C 
ATOM      2  C   UNL     1      35.521  -1.234   1.077  1.00  0.00    -0.039 A 
ATOM      3  C   UNL     1      35.597   0.144   1.291  1.00  0.00     0.013 A 
ATOM      4  C   UNL     1      35.122   0.745   2.473  1.00  0.00    -0.006 A 
ATOM      5  C   UNL     1      34.608  -0.097   3.507  1.00  0.00     0.039 A 
ATOM      6  C   UNL     1      34.118   0.502   4.702  1.00  0.00     0.072 A 
ATOM      7  C   UNL     1      34.370   1.857   4.952  1.00  0.00     0.169 A 
ATOM      8  C   UNL     1      34.942   2.671   3.969  1.00  0.00     0.162 A 
ATOM      9  C   UNL     1      35.179   2.163   2.667  1.00  0.00     0.008 A 
ATOM     10  C   UNL     1      34.651  -1.512   3.336  1.00  0.00     0.132 A 
ATOM     11  C   UNL     1      35.056  -2.069   2.106  1.00  0.00     0.031 A 
ENDROOT
BRANCH  11  12
ATOM     12  C   UNL     1      35.024  -3.542   1.908  1.00  0.00     0.031 A 
ATOM     13  C   UNL     1      33.847  -4.175   1.455  1.00  0.00     0.132 A 
ATOM     14  C   UNL     1      36.161  -4.305   2.216  1.00  0.00    -0.039 A 
ATOM     15  C   UNL     1      33.818  -5.588   1.250  1.00  0.00     0.039 A 
ATOM     16  C   UNL     1      36.110  -5.695   2.097  1.00  0.00     0.013 A 
ATOM     17  C   UNL     1      37.420  -3.652   2.734  1.00  0.00     0.045 C 
ATOM     18  C   UNL     1      34.970  -6.361   1.591  1.00  0.00    -0.006 A 
ATOM     19  C   UNL     1      32.659  -6.259   0.761  1.00  0.00     0.072 A 
ATOM     20  C   UNL     1      34.943  -7.784   1.460  1.00  0.00     0.008 A 
ATOM     21  C   UNL     1      32.596  -7.663   0.792  1.00  0.00     0.169 A 
ATOM     22  C   UNL     1      33.703  -8.416   1.222  1.00  0.00     0.162 A 
BRANCH  13  23
ATOM     23  O   UNL     1      32.695  -3.408   1.250  1.00  0.00    -0.507 OA
ATOM     24  H   UNL     1      32.444  -2.602   1.809  1.00  0.00     0.293 HD
ENDBRANCH  13  23
BRANCH  19  25
ATOM     25  C   UNL     1      31.532  -5.529   0.133  1.00  0.00     0.264 C 
ATOM     26  O   UNL     1      30.496  -5.241   0.790  1.00  0.00    -0.298 OA
ENDBRANCH  19  25
BRANCH  20  27
ATOM     27  C   UNL     1      36.212  -8.639   1.626  1.00  0.00     0.017 C 
ATOM     28  C   UNL     1      36.209  -9.370   2.973  1.00  0.00     0.012 C 
ATOM     29  C   UNL     1      36.463  -9.616   0.462  1.00  0.00     0.012 C 
ENDBRANCH  20  27
BRANCH  21  30
ATOM     30  O   UNL     1      31.432  -8.295   0.338  1.00  0.00    -0.504 OA
ATOM     31  H   UNL     1      31.222  -9.272   0.491  1.00  0.00     0.293 HD
ENDBRANCH  21  30
BRANCH  22  32
ATOM     32  O   UNL     1      33.588  -9.792   1.430  1.00  0.00    -0.504 OA
ATOM     33  H   UNL     1      34.078 -10.491   0.889  1.00  0.00     0.293 HD
ENDBRANCH  22  32
ENDBRANCH  11  12
BRANCH  10  34
ATOM     34  O   UNL     1      34.346  -2.359   4.408  1.00  0.00    -0.507 OA
ATOM     35  H   UNL     1      33.456  -2.358   4.891  1.00  0.00     0.293 HD
ENDBRANCH  10  34
BRANCH   9  36
ATOM     36  C   UNL     1      35.415   3.172   1.525  1.00  0.00     0.017 C 
ATOM     37  C   UNL     1      34.305   4.228   1.436  1.00  0.00     0.012 C 
ATOM     38  C   UNL     1      36.831   3.786   1.500  1.00  0.00     0.012 C 
ENDBRANCH   9  36
BRANCH   6  39
ATOM     39  C   UNL     1      33.283  -0.217   5.690  1.00  0.00     0.264 C 
ATOM     40  O   UNL     1      33.776  -0.626   6.774  1.00  0.00    -0.298 OA
ENDBRANCH   6  39
BRANCH   8  41
ATOM     41  O   UNL     1      35.256   3.988   4.321  1.00  0.00    -0.504 OA
ATOM     42  H   UNL     1      34.601   4.631   4.745  1.00  0.00     0.293 HD
ENDBRANCH   8  41
BRANCH   7  43
ATOM     43  O   UNL     1      34.019   2.400   6.193  1.00  0.00    -0.504 OA
ATOM     44  H   UNL     1      33.496   3.263   6.286  1.00  0.00     0.293 HD
ENDBRANCH   7  43
TORSDOF 11
ENDMDL
MODEL 4
REMARK VINA RESULT:    -5.345      2.694      4.558
REMARK INTER + INTRA:          -9.097
REMARK INTER:                  -7.710
REMARK INTRA:                  -1.387
REMARK UNBOUND:                -1.252
REMARK SMILES Cc1cc2c(C(C)C)c(O)c(O)c(C=O)c2c(O)c1-c1c(C)cc2c(C(C)C)c(O)c(O)c(C=O)c2c1O
REMARK SMILES IDX 1 1 2 2 3 3 4 4 16 5 13 6 11 7 9 8 5 9 17 10 19 11 20 12
REMARK SMILES IDX 37 13 21 14 36 15 23 16 22 17 24 18 33 19 25 20 31 21 29 22
REMARK SMILES IDX 38 23 34 25 35 26 26 27 27 28 28 29 32 30 30 32 18 34 6 36
REMARK SMILES IDX 7 37 8 38 14 39 15 40 10 41 12 43
REMARK H PARENT 38 24 32 31 30 33 18 35 10 42 12 44
REMARK Flexibility Score: inf
ROOT
ATOM      1  C   UNL     1      33.237  -3.596   1.202  1.00  0.00     0.045 C 
ATOM      2  C   UNL     1      33.666  -4.850   1.924  1.00  0.00    -0.039 A 
ATOM      3  C   UNL     1      33.847  -4.812   3.308  1.00  0.00     0.013 A 
ATOM      4  C   UNL     1      34.222  -5.953   4.045  1.00  0.00    -0.006 A 
ATOM      5  C   UNL     1      34.485  -7.166   3.336  1.00  0.00     0.039 A 
ATOM      6  C   UNL     1      34.856  -8.326   4.073  1.00  0.00     0.072 A 
ATOM      7  C   UNL     1      35.197  -8.209   5.426  1.00  0.00     0.169 A 
ATOM      8  C   UNL     1      35.012  -7.001   6.107  1.00  0.00     0.162 A 
ATOM      9  C   UNL     1      34.376  -5.907   5.468  1.00  0.00     0.008 A 
ATOM     10  C   UNL     1      34.422  -7.166   1.912  1.00  0.00     0.132 A 
ATOM     11  C   UNL     1      33.963  -6.028   1.219  1.00  0.00     0.031 A 
ENDROOT
BRANCH  11  12
ATOM     12  C   UNL     1      33.826  -6.060  -0.261  1.00  0.00     0.031 A 
ATOM     13  C   UNL     1      32.676  -6.620  -0.858  1.00  0.00     0.132 A 
ATOM     14  C   UNL     1      34.868  -5.569  -1.063  1.00  0.00    -0.039 A 
ATOM     15  C   UNL     1      32.535  -6.640  -2.279  1.00  0.00     0.039 A 
ATOM     16  C   UNL     1      34.771  -5.663  -2.452  1.00  0.00     0.013 A 
ATOM     17  C   UNL     1      36.122  -4.998  -0.445  1.00  0.00     0.045 C 
ATOM     18  C   UNL     1      33.612  -6.163  -3.088  1.00  0.00    -0.006 A 
ATOM     19  C   UNL     1      31.374  -7.164  -2.918  1.00  0.00     0.072 A 
ATOM     20  C   UNL     1      33.524  -6.235  -4.513  1.00  0.00     0.008 A 
ATOM     21  C   UNL     1      31.373  -7.375  -4.308  1.00  0.00     0.169 A 
ATOM     22  C   UNL     1      32.478  -6.990  -5.087  1.00  0.00     0.162 A 
BRANCH  13  23
ATOM     23  O   UNL     1      31.694  -7.194  -0.043  1.00  0.00    -0.507 OA
ATOM     24  H   UNL     1      31.675  -7.108   0.966  1.00  0.00     0.293 HD
ENDBRANCH  13  23
BRANCH  19  25
ATOM     25  C   UNL     1      30.116  -7.424  -2.177  1.00  0.00     0.264 C 
ATOM     26  O   UNL     1      29.605  -8.575  -2.146  1.00  0.00    -0.298 OA
ENDBRANCH  19  25
BRANCH  20  27
ATOM     27  C   UNL     1      34.564  -5.560  -5.426  1.00  0.00     0.017 C 
ATOM     28  C   UNL     1      34.503  -4.035  -5.292  1.00  0.00     0.012 C 
ATOM     29  C   UNL     1      35.999  -6.082  -5.227  1.00  0.00     0.012 C 
ENDBRANCH  20  27
BRANCH  21  30
ATOM     30  O   UNL     1      30.232  -7.925  -4.905  1.00  0.00    -0.504 OA
ATOM     31  H   UNL     1      29.826  -7.588  -5.768  1.00  0.00     0.293 HD
ENDBRANCH  21  30
BRANCH  22  32
ATOM     32  O   UNL     1      32.563  -7.361  -6.431  1.00  0.00    -0.504 OA
ATOM     33  H   UNL     1      31.842  -7.179  -7.116  1.00  0.00     0.293 HD
ENDBRANCH  22  32
ENDBRANCH  11  12
BRANCH  10  34
ATOM     34  O   UNL     1      34.871  -8.278   1.189  1.00  0.00    -0.507 OA
ATOM     35  H   UNL     1      35.775  -8.328   0.738  1.00  0.00     0.293 HD
ENDBRANCH  10  34
BRANCH   9  36
ATOM     36  C   UNL     1      33.829  -4.768   6.350  1.00  0.00     0.017 C 
ATOM     37  C   UNL     1      34.806  -3.590   6.460  1.00  0.00     0.012 C 
ATOM     38  C   UNL     1      32.392  -4.324   5.999  1.00  0.00     0.012 C 
ENDBRANCH   9  36
BRANCH   6  39
ATOM     39  C   UNL     1      34.839  -9.692   3.503  1.00  0.00     0.264 C 
ATOM     40  O   UNL     1      35.914 -10.280   3.209  1.00  0.00    -0.298 OA
ENDBRANCH   6  39
BRANCH   8  41
ATOM     41  O   UNL     1      35.467  -6.927   7.429  1.00  0.00    -0.504 OA
ATOM     42  H   UNL     1      36.289  -7.407   7.771  1.00  0.00     0.293 HD
ENDBRANCH   8  41
BRANCH   7  43
ATOM     43  O   UNL     1      35.705  -9.323   6.103  1.00  0.00    -0.504 OA
ATOM     44  H   UNL     1      35.559  -9.476   7.094  1.00  0.00     0.293 HD
ENDBRANCH   7  43
TORSDOF 11
ENDMDL
MODEL 5
REMARK VINA RESULT:    -5.323      4.567      7.643
REMARK INTER + INTRA:          -9.064
REMARK INTER:                  -7.958
REMARK INTRA:                  -1.106
REMARK UNBOUND:                -1.252
REMARK SMILES Cc1cc2c(C(C)C)c(O)c(O)c(C=O)c2c(O)c1-c1c(C)cc2c(C(C)C)c(O)c(O)c(C=O)c2c1O
REMARK SMILES IDX 1 1 2 2 3 3 4 4 16 5 13 6 11 7 9 8 5 9 17 10 19 11 20 12
REMARK SMILES IDX 37 13 21 14 36 15 23 16 22 17 24 18 33 19 25 20 31 21 29 22
REMARK SMILES IDX 38 23 34 25 35 26 26 27 27 28 28 29 32 30 30 32 18 34 6 36
REMARK SMILES IDX 7 37 8 38 14 39 15 40 10 41 12 43
REMARK H PARENT 38 24 32 31 30 33 18 35 10 42 12 44
REMARK Flexibility Score: inf
ROOT
ATOM      1  C   UNL     1      36.589   1.069   6.736  1.00  0.00     0.045 C 
ATOM      2  C   UNL     1      35.834  -0.206   6.448  1.00  0.00    -0.039 A 
ATOM      3  C   UNL     1      36.206  -1.382   7.101  1.00  0.00     0.013 A 
ATOM      4  C   UNL     1      35.527  -2.599   6.896  1.00  0.00    -0.006 A 
ATOM      5  C   UNL     1      34.467  -2.634   5.939  1.00  0.00     0.039 A 
ATOM      6  C   UNL     1      33.769  -3.858   5.731  1.00  0.00     0.072 A 
ATOM      7  C   UNL     1      34.279  -5.047   6.267  1.00  0.00     0.169 A 
ATOM      8  C   UNL     1      35.366  -5.026   7.147  1.00  0.00     0.162 A 
ATOM      9  C   UNL     1      35.901  -3.792   7.595  1.00  0.00     0.008 A 
ATOM     10  C   UNL     1      34.175  -1.462   5.182  1.00  0.00     0.132 A 
ATOM     11  C   UNL     1      34.821  -0.244   5.476  1.00  0.00     0.031 A 
ENDROOT
BRANCH  11  12
ATOM     12  C   UNL     1      34.456   0.992   4.736  1.00  0.00     0.031 A 
ATOM     13  C   UNL     1      33.469   1.863   5.245  1.00  0.00     0.132 A 
ATOM     14  C   UNL     1      35.069   1.265   3.503  1.00  0.00    -0.039 A 
ATOM     15  C   UNL     1      33.127   3.058   4.543  1.00  0.00     0.039 A 
ATOM     16  C   UNL     1      34.676   2.389   2.774  1.00  0.00     0.013 A 
ATOM     17  C   UNL     1      36.102   0.329   2.923  1.00  0.00     0.045 C 
ATOM     18  C   UNL     1      33.735   3.316   3.277  1.00  0.00    -0.006 A 
ATOM     19  C   UNL     1      32.161   3.980   5.043  1.00  0.00     0.072 A 
ATOM     20  C   UNL     1      33.359   4.470   2.523  1.00  0.00     0.008 A 
ATOM     21  C   UNL     1      31.689   5.017   4.219  1.00  0.00     0.169 A 
ATOM     22  C   UNL     1      32.226   5.205   2.934  1.00  0.00     0.162 A 
BRANCH  13  23
ATOM     23  O   UNL     1      32.800   1.520   6.425  1.00  0.00    -0.507 OA
ATOM     24  H   UNL     1      32.198   2.151   6.938  1.00  0.00     0.293 HD
ENDBRANCH  13  23
BRANCH  19  25
ATOM     25  C   UNL     1      31.687   3.941   6.448  1.00  0.00     0.264 C 
ATOM     26  O   UNL     1      32.259   4.612   7.347  1.00  0.00    -0.298 OA
ENDBRANCH  19  25
BRANCH  20  27
ATOM     27  C   UNL     1      34.121   4.895   1.253  1.00  0.00     0.017 C 
ATOM     28  C   UNL     1      33.148   5.268   0.129  1.00  0.00     0.012 C 
ATOM     29  C   UNL     1      35.154   6.013   1.491  1.00  0.00     0.012 C 
ENDBRANCH  20  27
BRANCH  21  30
ATOM     30  O   UNL     1      30.714   5.887   4.723  1.00  0.00    -0.504 OA
ATOM     31  H   UNL     1      30.530   6.808   4.351  1.00  0.00     0.293 HD
ENDBRANCH  21  30
BRANCH  22  32
ATOM     32  O   UNL     1      31.639   6.109   2.045  1.00  0.00    -0.504 OA
ATOM     33  H   UNL     1      30.643   6.243   1.948  1.00  0.00     0.293 HD
ENDBRANCH  22  32
ENDBRANCH  11  12
BRANCH  10  34
ATOM     34  O   UNL     1      33.285  -1.526   4.103  1.00  0.00    -0.507 OA
ATOM     35  H   UNL     1      33.481  -1.138   3.188  1.00  0.00     0.293 HD
ENDBRANCH  10  34
BRANCH   9  36
ATOM     36  C   UNL     1      36.799  -3.801   8.848  1.00  0.00     0.017 C 
ATOM     37  C   UNL     1      36.033  -4.204  10.115  1.00  0.00     0.012 C 
ATOM     38  C   UNL     1      38.124  -4.574   8.677  1.00  0.00     0.012 C 
ENDBRANCH   9  36
BRANCH   6  39
ATOM     39  C   UNL     1      32.471  -3.945   5.023  1.00  0.00     0.264 C 
ATOM     40  O   UNL     1      32.408  -4.395   3.848  1.00  0.00    -0.298 OA
ENDBRANCH   6  39
BRANCH   8  41
ATOM     41  O   UNL     1      35.884  -6.256   7.565  1.00  0.00    -0.504 OA
ATOM     42  H   UNL     1      35.360  -6.939   8.097  1.00  0.00     0.293 HD
ENDBRANCH   8  41
BRANCH   7  43
ATOM     43  O   UNL     1      33.673  -6.263   5.933  1.00  0.00    -0.504 OA
ATOM     44  H   UNL     1      32.702  -6.468   6.139  1.00  0.00     0.293 HD
ENDBRANCH   7  43
TORSDOF 11
ENDMDL
MODEL 6
REMARK VINA RESULT:    -5.319      1.954      8.889
REMARK INTER + INTRA:          -9.060
REMARK INTER:                  -7.509
REMARK INTRA:                  -1.551
REMARK UNBOUND:                -1.252
REMARK SMILES Cc1cc2c(C(C)C)c(O)c(O)c(C=O)c2c(O)c1-c1c(C)cc2c(C(C)C)c(O)c(O)c(C=O)c2c1O
REMARK SMILES IDX 1 1 2 2 3 3 4 4 16 5 13 6 11 7 9 8 5 9 17 10 19 11 20 12
REMARK SMILES IDX 37 13 21 14 36 15 23 16 22 17 24 18 33 19 25 20 31 21 29 22
REMARK SMILES IDX 38 23 34 25 35 26 26 27 27 28 28 29 32 30 30 32 18 34 6 36
REMARK SMILES IDX 7 37 8 38 14 39 15 40 10 41 12 43
REMARK H PARENT 38 24 32 31 30 33 18 35 10 42 12 44
REMARK Flexibility Score: inf
ROOT
ATOM      1  C   UNL     1      37.070  -2.652   1.760  1.00  0.00     0.045 C 
ATOM      2  C   UNL     1      35.822  -3.361   1.292  1.00  0.00    -0.039 A 
ATOM      3  C   UNL     1      35.799  -3.934   0.019  1.00  0.00     0.013 A 
ATOM      4  C   UNL     1      34.676  -4.631  -0.468  1.00  0.00    -0.006 A 
ATOM      5  C   UNL     1      33.506  -4.692   0.349  1.00  0.00     0.039 A 
ATOM      6  C   UNL     1      32.369  -5.402  -0.131  1.00  0.00     0.072 A 
ATOM      7  C   UNL     1      32.319  -5.808  -1.470  1.00  0.00     0.169 A 
ATOM      8  C   UNL     1      33.440  -5.681  -2.297  1.00  0.00     0.162 A 
ATOM      9  C   UNL     1      34.677  -5.239  -1.765  1.00  0.00     0.008 A 
ATOM     10  C   UNL     1      33.490  -3.998   1.594  1.00  0.00     0.132 A 
ATOM     11  C   UNL     1      34.661  -3.383   2.082  1.00  0.00     0.031 A 
ENDROOT
BRANCH  11  12
ATOM     12  C   UNL     1      34.659  -2.727   3.416  1.00  0.00     0.031 A 
ATOM     13  C   UNL     1      34.462  -1.334   3.524  1.00  0.00     0.132 A 
ATOM     14  C   UNL     1      34.899  -3.497   4.565  1.00  0.00    -0.039 A 
ATOM     15  C   UNL     1      34.446  -0.703   4.805  1.00  0.00     0.039 A 
ATOM     16  C   UNL     1      34.967  -2.871   5.810  1.00  0.00     0.013 A 
ATOM     17  C   UNL     1      35.146  -4.983   4.468  1.00  0.00     0.045 C 
ATOM     18  C   UNL     1      34.716  -1.488   5.967  1.00  0.00    -0.006 A 
ATOM     19  C   UNL     1      34.214   0.695   4.958  1.00  0.00     0.072 A 
ATOM     20  C   UNL     1      34.773  -0.868   7.254  1.00  0.00     0.008 A 
ATOM     21  C   UNL     1      34.433   1.310   6.203  1.00  0.00     0.169 A 
ATOM     22  C   UNL     1      34.795   0.541   7.323  1.00  0.00     0.162 A 
BRANCH  13  23
ATOM     23  O   UNL     1      34.325  -0.571   2.360  1.00  0.00    -0.507 OA
ATOM     24  H   UNL     1      33.443  -0.206   2.022  1.00  0.00     0.293 HD
ENDBRANCH  13  23
BRANCH  19  25
ATOM     25  C   UNL     1      33.664   1.528   3.862  1.00  0.00     0.264 C 
ATOM     26  O   UNL     1      34.389   2.353   3.244  1.00  0.00    -0.298 OA
ENDBRANCH  19  25
BRANCH  20  27
ATOM     27  C   UNL     1      34.866  -1.694   8.550  1.00  0.00     0.017 C 
ATOM     28  C   UNL     1      33.653  -2.618   8.700  1.00  0.00     0.012 C 
ATOM     29  C   UNL     1      36.185  -2.477   8.698  1.00  0.00     0.012 C 
ENDBRANCH  20  27
BRANCH  21  30
ATOM     30  O   UNL     1      34.233   2.692   6.317  1.00  0.00    -0.504 OA
ATOM     31  H   UNL     1      33.755   3.253   5.625  1.00  0.00     0.293 HD
ENDBRANCH  21  30
BRANCH  22  32
ATOM     32  O   UNL     1      35.192   1.160   8.511  1.00  0.00    -0.504 OA
ATOM     33  H   UNL     1      35.840   1.934   8.559  1.00  0.00     0.293 HD
ENDBRANCH  22  32
ENDBRANCH  11  12
BRANCH  10  34
ATOM     34  O   UNL     1      32.296  -3.872   2.314  1.00  0.00    -0.507 OA
ATOM     35  H   UNL     1      32.121  -4.331   3.199  1.00  0.00     0.293 HD
ENDBRANCH  10  34
BRANCH   9  36
ATOM     36  C   UNL     1      35.957  -5.501  -2.584  1.00  0.00     0.017 C 
ATOM     37  C   UNL     1      36.532  -4.219  -3.200  1.00  0.00     0.012 C 
ATOM     38  C   UNL     1      37.021  -6.344  -1.851  1.00  0.00     0.012 C 
ENDBRANCH   9  36
BRANCH   6  39
ATOM     39  C   UNL     1      31.236  -5.806   0.733  1.00  0.00     0.264 C 
ATOM     40  O   UNL     1      30.182  -5.118   0.774  1.00  0.00    -0.298 OA
ENDBRANCH   6  39
BRANCH   8  41
ATOM     41  O   UNL     1      33.290  -6.015  -3.648  1.00  0.00    -0.504 OA
ATOM     42  H   UNL     1      33.757  -5.533  -4.404  1.00  0.00     0.293 HD
ENDBRANCH   8  41
BRANCH   7  43
ATOM     43  O   UNL     1      31.139  -6.369  -1.972  1.00  0.00    -0.504 OA
ATOM     44  H   UNL     1      30.219  -6.019  -1.731  1.00  0.00     0.293 HD
ENDBRANCH   7  43
TORSDOF 11
ENDMDL
MODEL 7
REMARK VINA RESULT:    -5.314      3.651      5.670
REMARK INTER + INTRA:          -9.051
REMARK INTER:                  -7.449
REMARK INTRA:                  -1.602
REMARK UNBOUND:                -1.252
REMARK SMILES Cc1cc2c(C(C)C)c(O)c(O)c(C=O)c2c(O)c1-c1c(C)cc2c(C(C)C)c(O)c(O)c(C=O)c2c1O
REMARK SMILES IDX 1 1 2 2 3 3 4 4 16 5 13 6 11 7 9 8 5 9 17 10 19 11 20 12
REMARK SMILES IDX 37 13 21 14 36 15 23 16 22 17 24 18 33 19 25 20 31 21 29 22
REMARK SMILES IDX 38 23 34 25 35 26 26 27 27 28 28 29 32 30 30 32 18 34 6 36
REMARK SMILES IDX 7 37 8 38 14 39 15 40 10 41 12 43
REMARK H PARENT 38 24 32 31 30 33 18 35 10 42 12 44
REMARK Flexibility Score: inf
ROOT
ATOM      1  C   UNL     1      33.280  -3.262   5.497  1.00  0.00     0.045 C 
ATOM      2  C   UNL     1      33.836  -2.165   4.622  1.00  0.00    -0.039 A 
ATOM      3  C   UNL     1      33.728  -0.838   5.042  1.00  0.00     0.013 A 
ATOM      4  C   UNL     1      34.249   0.231   4.285  1.00  0.00    -0.006 A 
ATOM      5  C   UNL     1      34.846  -0.058   3.020  1.00  0.00     0.039 A 
ATOM      6  C   UNL     1      35.382   1.015   2.252  1.00  0.00     0.072 A 
ATOM      7  C   UNL     1      35.102   2.337   2.617  1.00  0.00     0.169 A 
ATOM      8  C   UNL     1      34.449   2.623   3.821  1.00  0.00     0.162 A 
ATOM      9  C   UNL     1      34.157   1.585   4.742  1.00  0.00     0.008 A 
ATOM     10  C   UNL     1      34.839  -1.400   2.539  1.00  0.00     0.132 A 
ATOM     11  C   UNL     1      34.385  -2.450   3.361  1.00  0.00     0.031 A 
ENDROOT
BRANCH  11  12
ATOM     12  C   UNL     1      34.452  -3.856   2.883  1.00  0.00     0.031 A 
ATOM     13  C   UNL     1      33.396  -4.402   2.124  1.00  0.00     0.132 A 
ATOM     14  C   UNL     1      35.556  -4.651   3.229  1.00  0.00    -0.039 A 
ATOM     15  C   UNL     1      33.464  -5.747   1.651  1.00  0.00     0.039 A 
ATOM     16  C   UNL     1      35.587  -5.991   2.840  1.00  0.00     0.013 A 
ATOM     17  C   UNL     1      36.682  -4.097   4.069  1.00  0.00     0.045 C 
ATOM     18  C   UNL     1      34.578  -6.558   2.029  1.00  0.00    -0.006 A 
ATOM     19  C   UNL     1      32.433  -6.323   0.852  1.00  0.00     0.072 A 
ATOM     20  C   UNL     1      34.636  -7.928   1.626  1.00  0.00     0.008 A 
ATOM     21  C   UNL     1      32.429  -7.707   0.604  1.00  0.00     0.169 A 
ATOM     22  C   UNL     1      33.483  -8.516   1.064  1.00  0.00     0.162 A 
BRANCH  13  23
ATOM     23  O   UNL     1      32.260  -3.623   1.876  1.00  0.00    -0.507 OA
ATOM     24  H   UNL     1      32.247  -2.821   1.258  1.00  0.00     0.293 HD
ENDBRANCH  13  23
BRANCH  19  25
ATOM     25  C   UNL     1      31.393  -5.498   0.193  1.00  0.00     0.264 C 
ATOM     26  O   UNL     1      30.271  -5.309   0.735  1.00  0.00    -0.298 OA
ENDBRANCH  19  25
BRANCH  20  27
ATOM     27  C   UNL     1      35.898  -8.785   1.839  1.00  0.00     0.017 C 
ATOM     28  C   UNL     1      35.705  -9.767   2.999  1.00  0.00     0.012 C 
ATOM     29  C   UNL     1      36.382  -9.509   0.569  1.00  0.00     0.012 C 
ENDBRANCH  20  27
BRANCH  21  30
ATOM     30  O   UNL     1      31.385  -8.252  -0.154  1.00  0.00    -0.504 OA
ATOM     31  H   UNL     1      31.426  -9.154  -0.609  1.00  0.00     0.293 HD
ENDBRANCH  21  30
BRANCH  22  32
ATOM     32  O   UNL     1      33.396  -9.908   0.982  1.00  0.00    -0.504 OA
ATOM     33  H   UNL     1      34.194 -10.521   0.893  1.00  0.00     0.293 HD
ENDBRANCH  22  32
ENDBRANCH  11  12
BRANCH  10  34
ATOM     34  O   UNL     1      35.231  -1.676   1.223  1.00  0.00    -0.507 OA
ATOM     35  H   UNL     1      36.086  -2.162   0.981  1.00  0.00     0.293 HD
ENDBRANCH  10  34
BRANCH   9  36
ATOM     36  C   UNL     1      33.825   1.976   6.195  1.00  0.00     0.017 C 
ATOM     37  C   UNL     1      35.005   2.652   6.906  1.00  0.00     0.012 C 
ATOM     38  C   UNL     1      32.501   2.752   6.361  1.00  0.00     0.012 C 
ENDBRANCH   9  36
BRANCH   6  39
ATOM     39  C   UNL     1      36.295   0.816   1.103  1.00  0.00     0.264 C 
ATOM     40  O   UNL     1      35.899   1.020  -0.075  1.00  0.00    -0.298 OA
ENDBRANCH   6  39
BRANCH   8  41
ATOM     41  O   UNL     1      34.114   3.957   4.074  1.00  0.00    -0.504 OA
ATOM     42  H   UNL     1      33.414   4.246   4.745  1.00  0.00     0.293 HD
ENDBRANCH   8  41
BRANCH   7  43
ATOM     43  O   UNL     1      35.504   3.380   1.775  1.00  0.00    -0.504 OA
ATOM     44  H   UNL     1      36.074   4.154   2.094  1.00  0.00     0.293 HD
ENDBRANCH   7  43
TORSDOF 11
ENDMDL
MODEL 8
REMARK VINA RESULT:    -5.272      2.080      3.020
REMARK INTER + INTRA:          -8.989
REMARK INTER:                  -7.864
REMARK INTRA:                  -1.125
REMARK UNBOUND:                -1.252
REMARK SMILES Cc1cc2c(C(C)C)c(O)c(O)c(C=O)c2c(O)c1-c1c(C)cc2c(C(C)C)c(O)c(O)c(C=O)c2c1O
REMARK SMILES IDX 1 1 2 2 3 3 4 4 16 5 13 6 11 7 9 8 5 9 17 10 19 11 20 12
REMARK SMILES IDX 37 13 21 14 36 15 23 16 22 17 24 18 33 19 25 20 31 21 29 22
REMARK SMILES IDX 38 23 34 25 35 26 26 27 27 28 28 29 32 30 30 32 18 34 6 36
REMARK SMILES IDX 7 37 8 38 14 39 15 40 10 41 12 43
REMARK H PARENT 38 24 32 31 30 33 18 35 10 42 12 44
REMARK Flexibility Score: inf
ROOT
ATOM      1  C   UNL     1      35.644  -4.352   5.147  1.00  0.00     0.045 C 
ATOM      2  C   UNL     1      35.120  -2.947   5.325  1.00  0.00    -0.039 A 
ATOM      3  C   UNL     1      35.024  -2.412   6.610  1.00  0.00     0.013 A 
ATOM      4  C   UNL     1      34.567  -1.100   6.842  1.00  0.00    -0.006 A 
ATOM      5  C   UNL     1      34.130  -0.323   5.726  1.00  0.00     0.039 A 
ATOM      6  C   UNL     1      33.675   1.007   5.949  1.00  0.00     0.072 A 
ATOM      7  C   UNL     1      33.427   1.445   7.256  1.00  0.00     0.169 A 
ATOM      8  C   UNL     1      33.785   0.655   8.354  1.00  0.00     0.162 A 
ATOM      9  C   UNL     1      34.501  -0.553   8.165  1.00  0.00     0.008 A 
ATOM     10  C   UNL     1      34.110  -0.919   4.431  1.00  0.00     0.132 A 
ATOM     11  C   UNL     1      34.653  -2.204   4.229  1.00  0.00     0.031 A 
ENDROOT
BRANCH  11  12
ATOM     12  C   UNL     1      34.700  -2.788   2.862  1.00  0.00     0.031 A 
ATOM     13  C   UNL     1      33.687  -3.669   2.429  1.00  0.00     0.132 A 
ATOM     14  C   UNL     1      35.784  -2.491   2.021  1.00  0.00    -0.039 A 
ATOM     15  C   UNL     1      33.722  -4.220   1.112  1.00  0.00     0.039 A 
ATOM     16  C   UNL     1      35.865  -3.094   0.765  1.00  0.00     0.013 A 
ATOM     17  C   UNL     1      36.896  -1.578   2.477  1.00  0.00     0.045 C 
ATOM     18  C   UNL     1      34.841  -3.935   0.272  1.00  0.00    -0.006 A 
ATOM     19  C   UNL     1      32.699  -5.086   0.626  1.00  0.00     0.072 A 
ATOM     20  C   UNL     1      34.934  -4.529  -1.025  1.00  0.00     0.008 A 
ATOM     21  C   UNL     1      32.886  -5.784  -0.580  1.00  0.00     0.169 A 
ATOM     22  C   UNL     1      34.039  -5.569  -1.356  1.00  0.00     0.162 A 
BRANCH  13  23
ATOM     23  O   UNL     1      32.670  -4.030   3.319  1.00  0.00    -0.507 OA
ATOM     24  H   UNL     1      32.632  -4.916   3.807  1.00  0.00     0.293 HD
ENDBRANCH  13  23
BRANCH  19  25
ATOM     25  C   UNL     1      31.389  -5.219   1.307  1.00  0.00     0.264 C 
ATOM     26  O   UNL     1      30.311  -5.180   0.658  1.00  0.00    -0.298 OA
ENDBRANCH  19  25
BRANCH  20  27
ATOM     27  C   UNL     1      36.012  -4.103  -2.039  1.00  0.00     0.017 C 
ATOM     28  C   UNL     1      35.912  -2.606  -2.349  1.00  0.00     0.012 C 
ATOM     29  C   UNL     1      37.444  -4.493  -1.627  1.00  0.00     0.012 C 
ENDBRANCH  20  27
BRANCH  21  30
ATOM     30  O   UNL     1      31.880  -6.655  -1.017  1.00  0.00    -0.504 OA
ATOM     31  H   UNL     1      31.135  -7.001  -0.427  1.00  0.00     0.293 HD
ENDBRANCH  21  30
BRANCH  22  32
ATOM     32  O   UNL     1      34.319  -6.388  -2.453  1.00  0.00    -0.504 OA
ATOM     33  H   UNL     1      34.458  -6.047  -3.394  1.00  0.00     0.293 HD
ENDBRANCH  22  32
ENDBRANCH  11  12
BRANCH  10  34
ATOM     34  O   UNL     1      33.499  -0.254   3.361  1.00  0.00    -0.507 OA
ATOM     35  H   UNL     1      33.346  -0.672   2.452  1.00  0.00     0.293 HD
ENDBRANCH  10  34
BRANCH   9  36
ATOM     36  C   UNL     1      35.222  -1.169   9.380  1.00  0.00     0.017 C 
ATOM     37  C   UNL     1      34.685  -2.561   9.739  1.00  0.00     0.012 C 
ATOM     38  C   UNL     1      36.763  -1.124   9.297  1.00  0.00     0.012 C 
ENDBRANCH   9  36
BRANCH   6  39
ATOM     39  C   UNL     1      33.506   2.003   4.867  1.00  0.00     0.264 C 
ATOM     40  O   UNL     1      34.199   3.054   4.845  1.00  0.00    -0.298 OA
ENDBRANCH   6  39
BRANCH   8  41
ATOM     41  O   UNL     1      33.418   1.110   9.626  1.00  0.00    -0.504 OA
ATOM     42  H   UNL     1      32.476   1.070   9.990  1.00  0.00     0.293 HD
ENDBRANCH   8  41
BRANCH   7  43
ATOM     43  O   UNL     1      32.837   2.698   7.458  1.00  0.00    -0.504 OA
ATOM     44  H   UNL     1      31.870   2.810   7.739  1.00  0.00     0.293 HD
ENDBRANCH   7  43
TORSDOF 11
ENDMDL
MODEL 9
REMARK VINA RESULT:    -5.251      5.056      9.305
REMARK INTER + INTRA:          -8.959
REMARK INTER:                  -7.652
REMARK INTRA:                  -1.307
REMARK UNBOUND:                -1.252
REMARK SMILES Cc1cc2c(C(C)C)c(O)c(O)c(C=O)c2c(O)c1-c1c(C)cc2c(C(C)C)c(O)c(O)c(C=O)c2c1O
REMARK SMILES IDX 1 1 2 2 3 3 4 4 16 5 13 6 11 7 9 8 5 9 17 10 19 11 20 12
REMARK SMILES IDX 37 13 21 14 36 15 23 16 22 17 24 18 33 19 25 20 31 21 29 22
REMARK SMILES IDX 38 23 34 25 35 26 26 27 27 28 28 29 32 30 30 32 18 34 6 36
REMARK SMILES IDX 7 37 8 38 14 39 15 40 10 41 12 43
REMARK H PARENT 38 24 32 31 30 33 18 35 10 42 12 44
REMARK Flexibility Score: inf
ROOT
ATOM      1  C   UNL     1      36.114   0.906   2.396  1.00  0.00     0.045 C 
ATOM      2  C   UNL     1      35.072   1.840   2.963  1.00  0.00    -0.039 A 
ATOM      3  C   UNL     1      34.728   2.992   2.253  1.00  0.00     0.013 A 
ATOM      4  C   UNL     1      33.747   3.891   2.714  1.00  0.00    -0.006 A 
ATOM      5  C   UNL     1      33.136   3.641   3.981  1.00  0.00     0.039 A 
ATOM      6  C   UNL     1      32.136   4.539   4.451  1.00  0.00     0.072 A 
ATOM      7  C   UNL     1      31.946   5.766   3.804  1.00  0.00     0.169 A 
ATOM      8  C   UNL     1      32.600   6.047   2.599  1.00  0.00     0.162 A 
ATOM      9  C   UNL     1      33.383   5.053   1.960  1.00  0.00     0.008 A 
ATOM     10  C   UNL     1      33.581   2.534   4.761  1.00  0.00     0.132 A 
ATOM     11  C   UNL     1      34.505   1.612   4.228  1.00  0.00     0.031 A 
ENDROOT
BRANCH  11  12
ATOM     12  C   UNL     1      34.907   0.417   5.016  1.00  0.00     0.031 A 
ATOM     13  C   UNL     1      34.260  -0.820   4.813  1.00  0.00     0.132 A 
ATOM     14  C   UNL     1      35.905   0.539   5.995  1.00  0.00    -0.039 A 
ATOM     15  C   UNL     1      34.654  -1.973   5.559  1.00  0.00     0.039 A 
ATOM     16  C   UNL     1      36.234  -0.564   6.783  1.00  0.00     0.013 A 
ATOM     17  C   UNL     1      36.586   1.862   6.252  1.00  0.00     0.045 C 
ATOM     18  C   UNL     1      35.652  -1.835   6.571  1.00  0.00    -0.006 A 
ATOM     19  C   UNL     1      34.049  -3.248   5.358  1.00  0.00     0.072 A 
ATOM     20  C   UNL     1      36.014  -2.958   7.378  1.00  0.00     0.008 A 
ATOM     21  C   UNL     1      34.300  -4.294   6.263  1.00  0.00     0.169 A 
ATOM     22  C   UNL     1      35.213  -4.119   7.317  1.00  0.00     0.162 A 
BRANCH  13  23
ATOM     23  O   UNL     1      33.200  -0.896   3.903  1.00  0.00    -0.507 OA
ATOM     24  H   UNL     1      32.949  -0.152   3.263  1.00  0.00     0.293 HD
ENDBRANCH  13  23
BRANCH  19  25
ATOM     25  C   UNL     1      33.216  -3.547   4.168  1.00  0.00     0.264 C 
ATOM     26  O   UNL     1      33.743  -3.784   3.048  1.00  0.00    -0.298 OA
ENDBRANCH  19  25
BRANCH  20  27
ATOM     27  C   UNL     1      37.214  -2.912   8.343  1.00  0.00     0.017 C 
ATOM     28  C   UNL     1      36.751  -2.652   9.780  1.00  0.00     0.012 C 
ATOM     29  C   UNL     1      38.125  -4.151   8.265  1.00  0.00     0.012 C 
ENDBRANCH  20  27
BRANCH  21  30
ATOM     30  O   UNL     1      33.665  -5.526   6.062  1.00  0.00    -0.504 OA
ATOM     31  H   UNL     1      34.074  -6.298   5.553  1.00  0.00     0.293 HD
ENDBRANCH  21  30
BRANCH  22  32
ATOM     32  O   UNL     1      35.331  -5.082   8.322  1.00  0.00    -0.504 OA
ATOM     33  H   UNL     1      34.549  -5.466   8.833  1.00  0.00     0.293 HD
ENDBRANCH  22  32
ENDBRANCH  11  12
BRANCH  10  34
ATOM     34  O   UNL     1      33.148   2.386   6.084  1.00  0.00    -0.507 OA
ATOM     35  H   UNL     1      33.735   2.557   6.891  1.00  0.00     0.293 HD
ENDBRANCH  10  34
BRANCH   9  36
ATOM     36  C   UNL     1      33.738   5.252   0.473  1.00  0.00     0.017 C 
ATOM     37  C   UNL     1      32.534   5.707  -0.362  1.00  0.00     0.012 C 
ATOM     38  C   UNL     1      34.997   6.111   0.228  1.00  0.00     0.012 C 
ENDBRANCH   9  36
BRANCH   6  39
ATOM     39  C   UNL     1      31.219   4.223   5.570  1.00  0.00     0.264 C 
ATOM     40  O   UNL     1      31.374   4.756   6.700  1.00  0.00    -0.298 OA
ENDBRANCH   6  39
BRANCH   8  41
ATOM     41  O   UNL     1      32.440   7.328   2.059  1.00  0.00    -0.504 OA
ATOM     42  H   UNL     1      31.557   7.695   1.728  1.00  0.00     0.293 HD
ENDBRANCH   8  41
BRANCH   7  43
ATOM     43  O   UNL     1      31.070   6.705   4.360  1.00  0.00    -0.504 OA
ATOM     44  H   UNL     1      31.198   7.705   4.254  1.00  0.00     0.293 HD
ENDBRANCH   7  43
TORSDOF 11
ENDMDL
