MODEL 1
REMARK VINA RESULT:    -5.781      0.000      0.000
REMARK INTER + INTRA:          -6.512
REMARK INTER:                  -6.288
REMARK INTRA:                  -0.224
REMARK UNBOUND:                -0.224
REMARK SMILES O=C([O-])c1ccccc1O
REMARK SMILES IDX 4 1 9 2 5 3 8 4 6 5 7 6 2 7 1 8 3 9 10 10
REMARK H PARENT 10 11
REMARK Flexibility Score: inf
ROOT
ATOM      1  C   UNL     1     137.197 134.639 114.286  1.00  0.00     0.039 A 
ATOM      2  C   UNL     1     138.389 134.496 113.528  1.00  0.00     0.124 A 
ATOM      3  C   UNL     1     137.286 134.705 115.689  1.00  0.00     0.014 A 
ATOM      4  C   UNL     1     139.628 134.488 114.183  1.00  0.00     0.047 A 
ATOM      5  C   UNL     1     138.529 134.675 116.325  1.00  0.00     0.001 A 
ATOM      6  C   UNL     1     139.699 134.576 115.573  1.00  0.00     0.004 A 
ENDROOT
BRANCH   1   7
ATOM      7  C   UNL     1     135.860 134.755 113.662  1.00  0.00     0.075 C 
ATOM      8  O   UNL     1     135.738 134.995 112.433  1.00  0.00    -0.545 OA
ATOM      9  O   UNL     1     134.717 134.666 114.448  1.00  0.00    -0.545 OA
ENDBRANCH   1   7
BRANCH   2  10
ATOM     10  O   UNL     1     138.387 134.327 112.142  1.00  0.00    -0.507 OA
ATOM     11  H   UNL     1     137.651 133.851 111.638  1.00  0.00     0.293 HD
ENDBRANCH   2  10
TORSDOF 2
ENDMDL
MODEL 2
REMARK VINA RESULT:    -5.658     11.821     12.424
REMARK INTER + INTRA:          -6.378
REMARK INTER:                  -6.152
REMARK INTRA:                  -0.226
REMARK UNBOUND:                -0.224
REMARK SMILES O=C([O-])c1ccccc1O
REMARK SMILES IDX 4 1 9 2 5 3 8 4 6 5 7 6 2 7 1 8 3 9 10 10
REMARK H PARENT 10 11
REMARK Flexibility Score: inf
ROOT
ATOM      1  C   UNL     1     126.718 134.762 108.707  1.00  0.00     0.039 A 
ATOM      2  C   UNL     1     126.911 135.769 107.725  1.00  0.00     0.124 A 
ATOM      3  C   UNL     1     127.471 133.576 108.622  1.00  0.00     0.014 A 
ATOM      4  C   UNL     1     127.885 135.592 106.734  1.00  0.00     0.047 A 
ATOM      5  C   UNL     1     128.423 133.407 107.614  1.00  0.00     0.001 A 
ATOM      6  C   UNL     1     128.637 134.418 106.677  1.00  0.00     0.004 A 
ENDROOT
BRANCH   1   7
ATOM      7  C   UNL     1     125.780 134.917 109.842  1.00  0.00     0.075 C 
ATOM      8  O   UNL     1     124.865 134.078 110.044  1.00  0.00    -0.545 OA
ATOM      9  O   UNL     1     125.861 136.037 110.660  1.00  0.00    -0.545 OA
ENDBRANCH   1   7
BRANCH   2  10
ATOM     10  O   UNL     1     126.142 136.934 107.678  1.00  0.00    -0.507 OA
ATOM     11  H   UNL     1     126.418 137.766 107.175  1.00  0.00     0.293 HD
ENDBRANCH   2  10
TORSDOF 2
ENDMDL
MODEL 3
REMARK VINA RESULT:    -5.633      2.523      3.357
REMARK INTER + INTRA:          -6.351
REMARK INTER:                  -6.104
REMARK INTRA:                  -0.247
REMARK UNBOUND:                -0.224
REMARK SMILES O=C([O-])c1ccccc1O
REMARK SMILES IDX 4 1 9 2 5 3 8 4 6 5 7 6 2 7 1 8 3 9 10 10
REMARK H PARENT 10 11
REMARK Flexibility Score: inf
ROOT
ATOM      1  C   UNL     1     137.900 134.534 115.489  1.00  0.00     0.039 A 
ATOM      2  C   UNL     1     139.065 134.545 114.679  1.00  0.00     0.124 A 
ATOM      3  C   UNL     1     136.639 134.618 114.869  1.00  0.00     0.014 A 
ATOM      4  C   UNL     1     138.938 134.576 113.285  1.00  0.00     0.047 A 
ATOM      5  C   UNL     1     136.532 134.670 113.477  1.00  0.00     0.001 A 
ATOM      6  C   UNL     1     137.680 134.639 112.685  1.00  0.00     0.004 A 
ENDROOT
BRANCH   1   7
ATOM      7  C   UNL     1     137.949 134.403 116.963  1.00  0.00     0.075 C 
ATOM      8  O   UNL     1     138.856 134.961 117.632  1.00  0.00    -0.545 OA
ATOM      9  O   UNL     1     137.024 133.599 117.619  1.00  0.00    -0.545 OA
ENDBRANCH   1   7
BRANCH   2  10
ATOM     10  O   UNL     1     140.356 134.560 115.214  1.00  0.00    -0.507 OA
ATOM     11  H   UNL     1     140.563 134.340 116.178  1.00  0.00     0.293 HD
ENDBRANCH   2  10
TORSDOF 2
ENDMDL
MODEL 4
REMARK VINA RESULT:    -5.378      8.382      9.994
REMARK INTER + INTRA:          -6.074
REMARK INTER:                  -5.825
REMARK INTRA:                  -0.249
REMARK UNBOUND:                -0.224
REMARK SMILES O=C([O-])c1ccccc1O
REMARK SMILES IDX 4 1 9 2 5 3 8 4 6 5 7 6 2 7 1 8 3 9 10 10
REMARK H PARENT 10 11
REMARK Flexibility Score: inf
ROOT
ATOM      1  C   UNL     1     131.256 136.195 120.710  1.00  0.00     0.039 A 
ATOM      2  C   UNL     1     130.645 136.995 121.712  1.00  0.00     0.124 A 
ATOM      3  C   UNL     1     131.364 134.808 120.920  1.00  0.00     0.014 A 
ATOM      4  C   UNL     1     130.108 136.384 122.853  1.00  0.00     0.047 A 
ATOM      5  C   UNL     1     130.842 134.219 122.073  1.00  0.00     0.001 A 
ATOM      6  C   UNL     1     130.207 135.004 123.035  1.00  0.00     0.004 A 
ENDROOT
BRANCH   1   7
ATOM      7  C   UNL     1     131.757 136.753 119.434  1.00  0.00     0.075 C 
ATOM      8  O   UNL     1     132.370 137.851 119.404  1.00  0.00    -0.545 OA
ATOM      9  O   UNL     1     131.492 136.095 118.238  1.00  0.00    -0.545 OA
ENDBRANCH   1   7
BRANCH   2  10
ATOM     10  O   UNL     1     130.580 138.387 121.630  1.00  0.00    -0.507 OA
ATOM     11  H   UNL     1     131.327 139.000 121.927  1.00  0.00     0.293 HD
ENDBRANCH   2  10
TORSDOF 2
ENDMDL
MODEL 5
REMARK VINA RESULT:    -5.338     11.386     11.994
REMARK INTER + INTRA:          -6.030
REMARK INTER:                  -5.781
REMARK INTRA:                  -0.249
REMARK UNBOUND:                -0.224
REMARK SMILES O=C([O-])c1ccccc1O
REMARK SMILES IDX 4 1 9 2 5 3 8 4 6 5 7 6 2 7 1 8 3 9 10 10
REMARK H PARENT 10 11
REMARK Flexibility Score: inf
ROOT
ATOM      1  C   UNL     1     128.122 134.201 107.570  1.00  0.00     0.039 A 
ATOM      2  C   UNL     1     128.306 135.437 106.896  1.00  0.00     0.124 A 
ATOM      3  C   UNL     1     127.213 134.141 108.643  1.00  0.00     0.014 A 
ATOM      4  C   UNL     1     127.540 136.549 107.268  1.00  0.00     0.047 A 
ATOM      5  C   UNL     1     126.473 135.265 109.014  1.00  0.00     0.001 A 
ATOM      6  C   UNL     1     126.629 136.466 108.321  1.00  0.00     0.004 A 
ENDROOT
BRANCH   1   7
ATOM      7  C   UNL     1     128.820 132.958 107.172  1.00  0.00     0.075 C 
ATOM      8  O   UNL     1     129.071 132.716 105.963  1.00  0.00    -0.545 OA
ATOM      9  O   UNL     1     129.148 132.008 108.132  1.00  0.00    -0.545 OA
ENDBRANCH   1   7
BRANCH   2  10
ATOM     10  O   UNL     1     129.254 135.610 105.885  1.00  0.00    -0.507 OA
ATOM     11  H   UNL     1     129.234 135.109 105.008  1.00  0.00     0.293 HD
ENDBRANCH   2  10
TORSDOF 2
ENDMDL
MODEL 6
REMARK VINA RESULT:    -5.317      8.147     10.076
REMARK INTER + INTRA:          -6.007
REMARK INTER:                  -5.762
REMARK INTRA:                  -0.245
REMARK UNBOUND:                -0.224
REMARK SMILES O=C([O-])c1ccccc1O
REMARK SMILES IDX 4 1 9 2 5 3 8 4 6 5 7 6 2 7 1 8 3 9 10 10
REMARK H PARENT 10 11
REMARK Flexibility Score: inf
ROOT
ATOM      1  C   UNL     1     129.772 134.361 109.297  1.00  0.00     0.039 A 
ATOM      2  C   UNL     1     129.348 135.121 108.176  1.00  0.00     0.124 A 
ATOM      3  C   UNL     1     129.573 132.968 109.289  1.00  0.00     0.014 A 
ATOM      4  C   UNL     1     128.802 134.468 107.064  1.00  0.00     0.047 A 
ATOM      5  C   UNL     1     129.007 132.336 108.180  1.00  0.00     0.001 A 
ATOM      6  C   UNL     1     128.630 133.084 107.064  1.00  0.00     0.004 A 
ENDROOT
BRANCH   1   7
ATOM      7  C   UNL     1     130.447 134.966 110.467  1.00  0.00     0.075 C 
ATOM      8  O   UNL     1     131.372 135.806 110.318  1.00  0.00    -0.545 OA
ATOM      9  O   UNL     1     130.109 134.556 111.752  1.00  0.00    -0.545 OA
ENDBRANCH   1   7
BRANCH   2  10
ATOM     10  O   UNL     1     129.420 136.516 108.139  1.00  0.00    -0.507 OA
ATOM     11  H   UNL     1     130.219 137.043 108.464  1.00  0.00     0.293 HD
ENDBRANCH   2  10
TORSDOF 2
ENDMDL
MODEL 7
REMARK VINA RESULT:    -5.313      9.262     10.899
REMARK INTER + INTRA:          -6.004
REMARK INTER:                  -5.771
REMARK INTRA:                  -0.233
REMARK UNBOUND:                -0.224
REMARK SMILES O=C([O-])c1ccccc1O
REMARK SMILES IDX 4 1 9 2 5 3 8 4 6 5 7 6 2 7 1 8 3 9 10 10
REMARK H PARENT 10 11
REMARK Flexibility Score: inf
ROOT
ATOM      1  C   UNL     1     127.821 134.310 109.277  1.00  0.00     0.039 A 
ATOM      2  C   UNL     1     128.572 134.369 110.480  1.00  0.00     0.124 A 
ATOM      3  C   UNL     1     128.122 133.308 108.336  1.00  0.00     0.014 A 
ATOM      4  C   UNL     1     129.549 133.398 110.735  1.00  0.00     0.047 A 
ATOM      5  C   UNL     1     129.114 132.360 108.597  1.00  0.00     0.001 A 
ATOM      6  C   UNL     1     129.820 132.399 109.799  1.00  0.00     0.004 A 
ENDROOT
BRANCH   1   7
ATOM      7  C   UNL     1     126.708 135.239 108.980  1.00  0.00     0.075 C 
ATOM      8  O   UNL     1     125.783 135.428 109.813  1.00  0.00    -0.545 OA
ATOM      9  O   UNL     1     126.638 135.865 107.741  1.00  0.00    -0.545 OA
ENDBRANCH   1   7
BRANCH   2  10
ATOM     10  O   UNL     1     128.406 135.385 111.425  1.00  0.00    -0.507 OA
ATOM     11  H   UNL     1     127.989 135.240 112.334  1.00  0.00     0.293 HD
ENDBRANCH   2  10
TORSDOF 2
ENDMDL
MODEL 8
REMARK VINA RESULT:    -5.282      8.741     10.191
REMARK INTER + INTRA:          -5.970
REMARK INTER:                  -5.722
REMARK INTRA:                  -0.248
REMARK UNBOUND:                -0.224
REMARK SMILES O=C([O-])c1ccccc1O
REMARK SMILES IDX 4 1 9 2 5 3 8 4 6 5 7 6 2 7 1 8 3 9 10 10
REMARK H PARENT 10 11
REMARK Flexibility Score: inf
ROOT
ATOM      1  C   UNL     1     129.299 134.116 108.172  1.00  0.00     0.039 A 
ATOM      2  C   UNL     1     129.808 135.177 108.966  1.00  0.00     0.124 A 
ATOM      3  C   UNL     1     129.358 132.802 108.674  1.00  0.00     0.014 A 
ATOM      4  C   UNL     1     130.297 134.908 110.250  1.00  0.00     0.047 A 
ATOM      5  C   UNL     1     129.869 132.550 109.949  1.00  0.00     0.001 A 
ATOM      6  C   UNL     1     130.329 133.602 110.740  1.00  0.00     0.004 A 
ENDROOT
BRANCH   1   7
ATOM      7  C   UNL     1     128.676 134.333 106.847  1.00  0.00     0.075 C 
ATOM      8  O   UNL     1     128.024 135.381 106.602  1.00  0.00    -0.545 OA
ATOM      9  O   UNL     1     128.750 133.342 105.875  1.00  0.00    -0.545 OA
ENDBRANCH   1   7
BRANCH   2  10
ATOM     10  O   UNL     1     129.876 136.496 108.509  1.00  0.00    -0.507 OA
ATOM     11  H   UNL     1     129.501 137.284 109.019  1.00  0.00     0.293 HD
ENDBRANCH   2  10
TORSDOF 2
ENDMDL
MODEL 9
REMARK VINA RESULT:    -5.243     11.653     11.988
REMARK INTER + INTRA:          -5.928
REMARK INTER:                  -5.699
REMARK INTRA:                  -0.229
REMARK UNBOUND:                -0.224
REMARK SMILES O=C([O-])c1ccccc1O
REMARK SMILES IDX 4 1 9 2 5 3 8 4 6 5 7 6 2 7 1 8 3 9 10 10
REMARK H PARENT 10 11
REMARK Flexibility Score: inf
ROOT
ATOM      1  C   UNL     1     127.627 134.761 107.835  1.00  0.00     0.039 A 
ATOM      2  C   UNL     1     128.368 134.907 106.632  1.00  0.00     0.124 A 
ATOM      3  C   UNL     1     127.621 133.512 108.482  1.00  0.00     0.014 A 
ATOM      4  C   UNL     1     129.123 133.831 106.150  1.00  0.00     0.047 A 
ATOM      5  C   UNL     1     128.364 132.443 107.976  1.00  0.00     0.001 A 
ATOM      6  C   UNL     1     129.122 132.605 106.816  1.00  0.00     0.004 A 
ENDROOT
BRANCH   1   7
ATOM      7  C   UNL     1     126.885 135.879 108.460  1.00  0.00     0.075 C 
ATOM      8  O   UNL     1     126.572 135.847 109.678  1.00  0.00    -0.545 OA
ATOM      9  O   UNL     1     126.464 136.952 107.683  1.00  0.00    -0.545 OA
ENDBRANCH   1   7
BRANCH   2  10
ATOM     10  O   UNL     1     128.353 136.081 105.875  1.00  0.00    -0.507 OA
ATOM     11  H   UNL     1     127.508 136.511 105.527  1.00  0.00     0.293 HD
ENDBRANCH   2  10
TORSDOF 2
ENDMDL
