MODEL 1
REMARK VINA RESULT:    -2.479      0.000      0.000
REMARK INTER + INTRA:          -2.711
REMARK INTER:                  -2.624
REMARK INTRA:                  -0.087
REMARK UNBOUND:                -0.087
REMARK SMILES C=C(C)[C@@H]1CC=C(C)C(=O)C1
REMARK SMILES IDX 8 1 7 2 6 3 5 4 4 5 11 6 9 7 10 8 2 9 1 10 3 11
REMARK H PARENT
REMARK Flexibility Score: inf
ROOT
ATOM      1  C   UNL     1      32.098  59.766   8.624  1.00  0.00     0.048 C 
ATOM      2  C   UNL     1      31.584  58.874   9.722  1.00  0.00    -0.012 C 
ATOM      3  C   UNL     1      31.120  59.409  10.865  1.00  0.00    -0.019 C 
ATOM      4  C   UNL     1      30.522  58.563  11.959  1.00  0.00     0.036 C 
ATOM      5  C   UNL     1      31.155  57.160  11.985  1.00  0.00     0.025 C 
ATOM      6  C   UNL     1      31.039  56.493  10.602  1.00  0.00     0.089 C 
ATOM      7  C   UNL     1      31.567  57.404   9.528  1.00  0.00     0.158 C 
ATOM      8  O   UNL     1      31.956  56.906   8.437  1.00  0.00    -0.295 OA
ENDROOT
BRANCH   5   9
ATOM      9  C   UNL     1      30.540  56.291  13.074  1.00  0.00    -0.077 C 
ATOM     10  C   UNL     1      31.289  55.875  14.107  1.00  0.00     0.008 C 
ATOM     11  C   UNL     1      29.089  55.876  13.023  1.00  0.00     0.039 C 
ENDBRANCH   5   9
TORSDOF 1
ENDMDL
MODEL 2
REMARK VINA RESULT:    -2.468      2.263      4.056
REMARK INTER + INTRA:          -2.699
REMARK INTER:                  -2.612
REMARK INTRA:                  -0.087
REMARK UNBOUND:                -0.087
REMARK SMILES C=C(C)[C@@H]1CC=C(C)C(=O)C1
REMARK SMILES IDX 8 1 7 2 6 3 5 4 4 5 11 6 9 7 10 8 2 9 1 10 3 11
REMARK H PARENT
REMARK Flexibility Score: inf
ROOT
ATOM      1  C   UNL     1      31.719  58.424  14.962  1.00  0.00     0.048 C 
ATOM      2  C   UNL     1      31.362  57.844  13.620  1.00  0.00    -0.012 C 
ATOM      3  C   UNL     1      31.411  56.515  13.424  1.00  0.00    -0.019 C 
ATOM      4  C   UNL     1      30.987  55.882  12.125  1.00  0.00     0.036 C 
ATOM      5  C   UNL     1      31.239  56.829  10.937  1.00  0.00     0.025 C 
ATOM      6  C   UNL     1      30.551  58.186  11.177  1.00  0.00     0.089 C 
ATOM      7  C   UNL     1      30.932  58.743  12.521  1.00  0.00     0.158 C 
ATOM      8  O   UNL     1      30.840  59.985  12.720  1.00  0.00    -0.295 OA
ENDROOT
BRANCH   5   9
ATOM      9  C   UNL     1      30.791  56.205   9.622  1.00  0.00    -0.077 C 
ATOM     10  C   UNL     1      31.700  55.875   8.690  1.00  0.00     0.008 C 
ATOM     11  C   UNL     1      29.334  55.944   9.331  1.00  0.00     0.039 C 
ENDBRANCH   5   9
TORSDOF 1
ENDMDL
MODEL 3
REMARK VINA RESULT:    -2.425      2.246      4.533
REMARK INTER + INTRA:          -2.653
REMARK INTER:                  -2.557
REMARK INTRA:                  -0.096
REMARK UNBOUND:                -0.087
REMARK SMILES C=C(C)[C@@H]1CC=C(C)C(=O)C1
REMARK SMILES IDX 8 1 7 2 6 3 5 4 4 5 11 6 9 7 10 8 2 9 1 10 3 11
REMARK H PARENT
REMARK Flexibility Score: inf
ROOT
ATOM      1  C   UNL     1      31.555  56.950  14.980  1.00  0.00     0.048 C 
ATOM      2  C   UNL     1      31.279  57.006  13.502  1.00  0.00    -0.012 C 
ATOM      3  C   UNL     1      31.284  55.879  12.770  1.00  0.00    -0.019 C 
ATOM      4  C   UNL     1      30.935  55.875  11.305  1.00  0.00     0.036 C 
ATOM      5  C   UNL     1      31.320  57.209  10.638  1.00  0.00     0.025 C 
ATOM      6  C   UNL     1      30.676  58.389  11.388  1.00  0.00     0.089 C 
ATOM      7  C   UNL     1      30.976  58.309  12.860  1.00  0.00     0.158 C 
ATOM      8  O   UNL     1      30.923  59.359  13.555  1.00  0.00    -0.295 OA
ENDROOT
BRANCH   5   9
ATOM      9  C   UNL     1      30.949  57.221   9.161  1.00  0.00    -0.077 C 
ATOM     10  C   UNL     1      29.659  57.188   8.790  1.00  0.00     0.008 C 
ATOM     11  C   UNL     1      32.007  57.269   8.085  1.00  0.00     0.039 C 
ENDBRANCH   5   9
TORSDOF 1
ENDMDL
MODEL 4
REMARK VINA RESULT:    -2.380      2.549      4.294
REMARK INTER + INTRA:          -2.606
REMARK INTER:                  -2.508
REMARK INTRA:                  -0.098
REMARK UNBOUND:                -0.087
REMARK SMILES C=C(C)[C@@H]1CC=C(C)C(=O)C1
REMARK SMILES IDX 8 1 7 2 6 3 5 4 4 5 11 6 9 7 10 8 2 9 1 10 3 11
REMARK H PARENT
REMARK Flexibility Score: inf
ROOT
ATOM      1  C   UNL     1      30.313  59.093  15.641  1.00  0.00     0.048 C 
ATOM      2  C   UNL     1      30.681  58.651  14.251  1.00  0.00    -0.012 C 
ATOM      3  C   UNL     1      30.605  59.516  13.225  1.00  0.00    -0.019 C 
ATOM      4  C   UNL     1      31.039  59.143  11.831  1.00  0.00     0.036 C 
ATOM      5  C   UNL     1      30.831  57.640  11.568  1.00  0.00     0.025 C 
ATOM      6  C   UNL     1      31.545  56.803  12.645  1.00  0.00     0.089 C 
ATOM      7  C   UNL     1      31.152  57.263  14.022  1.00  0.00     0.158 C 
ATOM      8  O   UNL     1      31.270  56.467  14.992  1.00  0.00    -0.295 OA
ENDROOT
BRANCH   5   9
ATOM      9  C   UNL     1      31.288  57.251  10.169  1.00  0.00    -0.077 C 
ATOM     10  C   UNL     1      31.941  58.140   9.402  1.00  0.00     0.008 C 
ATOM     11  C   UNL     1      31.022  55.875   9.608  1.00  0.00     0.039 C 
ENDBRANCH   5   9
TORSDOF 1
ENDMDL
MODEL 5
REMARK VINA RESULT:    -2.298      1.920      2.481
REMARK INTER + INTRA:          -2.520
REMARK INTER:                  -2.422
REMARK INTRA:                  -0.098
REMARK UNBOUND:                -0.087
REMARK SMILES C=C(C)[C@@H]1CC=C(C)C(=O)C1
REMARK SMILES IDX 8 1 7 2 6 3 5 4 4 5 11 6 9 7 10 8 2 9 1 10 3 11
REMARK H PARENT
REMARK Flexibility Score: inf
ROOT
ATOM      1  C   UNL     1      32.092  61.096   8.792  1.00  0.00     0.048 C 
ATOM      2  C   UNL     1      31.714  59.966   9.710  1.00  0.00    -0.012 C 
ATOM      3  C   UNL     1      31.920  58.692   9.335  1.00  0.00    -0.019 C 
ATOM      4  C   UNL     1      31.631  57.532  10.251  1.00  0.00     0.036 C 
ATOM      5  C   UNL     1      30.473  57.857  11.212  1.00  0.00     0.025 C 
ATOM      6  C   UNL     1      30.766  59.154  11.988  1.00  0.00     0.089 C 
ATOM      7  C   UNL     1      31.135  60.265  11.043  1.00  0.00     0.158 C 
ATOM      8  O   UNL     1      30.987  61.461  11.415  1.00  0.00    -0.295 OA
ENDROOT
BRANCH   5   9
ATOM      9  C   UNL     1      30.190  56.697  12.157  1.00  0.00    -0.077 C 
ATOM     10  C   UNL     1      31.184  55.875  12.531  1.00  0.00     0.008 C 
ATOM     11  C   UNL     1      28.802  56.438  12.692  1.00  0.00     0.039 C 
ENDBRANCH   5   9
TORSDOF 1
ENDMDL
MODEL 6
REMARK VINA RESULT:    -2.262      1.997      4.903
REMARK INTER + INTRA:          -2.481
REMARK INTER:                  -2.383
REMARK INTRA:                  -0.098
REMARK UNBOUND:                -0.087
REMARK SMILES C=C(C)[C@@H]1CC=C(C)C(=O)C1
REMARK SMILES IDX 8 1 7 2 6 3 5 4 4 5 11 6 9 7 10 8 2 9 1 10 3 11
REMARK H PARENT
REMARK Flexibility Score: inf
ROOT
ATOM      1  C   UNL     1      31.013  55.929  12.681  1.00  0.00     0.048 C 
ATOM      2  C   UNL     1      31.042  57.138  11.785  1.00  0.00    -0.012 C 
ATOM      3  C   UNL     1      31.230  56.994  10.462  1.00  0.00    -0.019 C 
ATOM      4  C   UNL     1      31.186  58.164   9.515  1.00  0.00     0.036 C 
ATOM      5  C   UNL     1      31.658  59.457  10.208  1.00  0.00     0.025 C 
ATOM      6  C   UNL     1      30.839  59.709  11.487  1.00  0.00     0.089 C 
ATOM      7  C   UNL     1      30.836  58.487  12.365  1.00  0.00     0.158 C 
ATOM      8  O   UNL     1      30.610  58.618  13.598  1.00  0.00    -0.295 OA
ENDROOT
BRANCH   5   9
ATOM      9  C   UNL     1      31.595  60.650   9.264  1.00  0.00    -0.077 C 
ATOM     10  C   UNL     1      31.072  60.509   8.035  1.00  0.00     0.008 C 
ATOM     11  C   UNL     1      32.114  62.006   9.675  1.00  0.00     0.039 C 
ENDBRANCH   5   9
TORSDOF 1
ENDMDL
MODEL 7
REMARK VINA RESULT:    -2.168      1.309      4.313
REMARK INTER + INTRA:          -2.382
REMARK INTER:                  -2.283
REMARK INTRA:                  -0.098
REMARK UNBOUND:                -0.087
REMARK SMILES C=C(C)[C@@H]1CC=C(C)C(=O)C1
REMARK SMILES IDX 8 1 7 2 6 3 5 4 4 5 11 6 9 7 10 8 2 9 1 10 3 11
REMARK H PARENT
REMARK Flexibility Score: inf
ROOT
ATOM      1  C   UNL     1      29.827  55.933  12.124  1.00  0.00     0.048 C 
ATOM      2  C   UNL     1      30.420  57.191  11.552  1.00  0.00    -0.012 C 
ATOM      3  C   UNL     1      30.322  58.351  12.224  1.00  0.00    -0.019 C 
ATOM      4  C   UNL     1      30.967  59.619  11.731  1.00  0.00     0.036 C 
ATOM      5  C   UNL     1      31.042  59.642  10.193  1.00  0.00     0.025 C 
ATOM      6  C   UNL     1      31.756  58.382   9.671  1.00  0.00     0.089 C 
ATOM      7  C   UNL     1      31.137  57.142  10.254  1.00  0.00     0.158 C 
ATOM      8  O   UNL     1      31.272  56.045   9.648  1.00  0.00    -0.295 OA
ENDROOT
BRANCH   5   9
ATOM      9  C   UNL     1      31.715  60.912   9.687  1.00  0.00    -0.077 C 
ATOM     10  C   UNL     1      32.125  61.849  10.557  1.00  0.00     0.008 C 
ATOM     11  C   UNL     1      31.936  61.151   8.213  1.00  0.00     0.039 C 
ENDBRANCH   5   9
TORSDOF 1
ENDMDL
MODEL 8
REMARK VINA RESULT:     0.228      2.470      3.555
REMARK INTER + INTRA:           0.155
REMARK INTER:                   0.253
REMARK INTRA:                  -0.098
REMARK UNBOUND:                -0.087
REMARK SMILES C=C(C)[C@@H]1CC=C(C)C(=O)C1
REMARK SMILES IDX 8 1 7 2 6 3 5 4 4 5 11 6 9 7 10 8 2 9 1 10 3 11
REMARK H PARENT
REMARK Flexibility Score: inf
ROOT
ATOM      1  C   UNL     1      31.469  62.311  11.356  1.00  0.00     0.048 C 
ATOM      2  C   UNL     1      31.387  60.918  10.794  1.00  0.00    -0.012 C 
ATOM      3  C   UNL     1      30.952  59.904  11.563  1.00  0.00    -0.019 C 
ATOM      4  C   UNL     1      30.777  58.509  11.023  1.00  0.00     0.036 C 
ATOM      5  C   UNL     1      31.781  58.221   9.891  1.00  0.00     0.025 C 
ATOM      6  C   UNL     1      31.671  59.291   8.790  1.00  0.00     0.089 C 
ATOM      7  C   UNL     1      31.764  60.671   9.381  1.00  0.00     0.158 C 
ATOM      8  O   UNL     1      32.125  61.630   8.646  1.00  0.00    -0.295 OA
ENDROOT
BRANCH   5   9
ATOM      9  C   UNL     1      31.595  56.820   9.325  1.00  0.00    -0.077 C 
ATOM     10  C   UNL     1      30.978  55.875  10.053  1.00  0.00     0.008 C 
ATOM     11  C   UNL     1      32.094  56.455   7.947  1.00  0.00     0.039 C 
ENDBRANCH   5   9
TORSDOF 1
ENDMDL
