MODEL 1
REMARK VINA RESULT:    -5.589      0.000      0.000
REMARK INTER + INTRA:          -7.082
REMARK INTER:                  -6.733
REMARK INTRA:                  -0.349
REMARK UNBOUND:                -0.349
REMARK SMILES O=c1c(O)c(-c2ccc(O)cc2O)oc2cc(O)cc(O)c12
REMARK SMILES IDX 5 1 3 2 2 3 1 4 22 5 20 6 19 7 17 8 16 9 15 10 14 11 6 12
REMARK SMILES IDX 8 13 7 14 9 15 11 16 12 17 10 18 13 20 4 22 21 24 18 26
REMARK H PARENT 10 19 13 21 4 23 21 25 18 27
REMARK Flexibility Score: inf
ROOT
ATOM      1  C   UNL     1      27.939  39.084  20.346  1.00  0.00     0.184 A 
ATOM      2  C   UNL     1      27.433  39.888  19.309  1.00  0.00     0.208 A 
ATOM      3  C   UNL     1      27.347  41.275  19.508  1.00  0.00     0.238 A 
ATOM      4  O   UNL     1      26.898  42.007  18.585  1.00  0.00    -0.285 OA
ATOM      5  C   UNL     1      27.761  41.828  20.737  1.00  0.00     0.111 A 
ATOM      6  C   UNL     1      27.703  43.214  21.020  1.00  0.00     0.134 A 
ATOM      7  C   UNL     1      28.130  43.688  22.270  1.00  0.00     0.093 A 
ATOM      8  C   UNL     1      28.611  42.806  23.240  1.00  0.00     0.123 A 
ATOM      9  C   UNL     1      28.670  41.435  22.967  1.00  0.00     0.094 A 
ATOM     10  C   UNL     1      28.250  40.944  21.728  1.00  0.00     0.146 A 
ATOM     11  O   UNL     1      28.317  39.637  21.493  1.00  0.00    -0.451 OA
ENDROOT
BRANCH   1  12
ATOM     12  C   UNL     1      28.071  37.620  20.189  1.00  0.00     0.063 A 
ATOM     13  C   UNL     1      29.125  35.728  19.075  1.00  0.00     0.047 A 
ATOM     14  C   UNL     1      28.940  37.106  19.209  1.00  0.00     0.020 A 
ATOM     15  C   UNL     1      28.451  34.845  19.921  1.00  0.00     0.119 A 
ATOM     16  C   UNL     1      27.585  35.343  20.902  1.00  0.00     0.093 A 
ATOM     17  C   UNL     1      27.383  36.723  21.039  1.00  0.00     0.130 A 
BRANCH  15  18
ATOM     18  O   UNL     1      28.650  33.473  19.779  1.00  0.00    -0.508 OA
ATOM     19  H   UNL     1      29.440  33.103  19.263  1.00  0.00     0.293 HD
ENDBRANCH  15  18
BRANCH  17  20
ATOM     20  O   UNL     1      26.481  37.163  22.009  1.00  0.00    -0.507 OA
ATOM     21  H   UNL     1      25.494  36.938  21.989  1.00  0.00     0.293 HD
ENDBRANCH  17  20
ENDBRANCH   1  12
BRANCH   2  22
ATOM     22  O   UNL     1      27.011  39.304  18.112  1.00  0.00    -0.502 OA
ATOM     23  H   UNL     1      26.033  39.135  17.908  1.00  0.00     0.293 HD
ENDBRANCH   2  22
BRANCH   6  24
ATOM     24  O   UNL     1      27.229  44.122  20.072  1.00  0.00    -0.507 OA
ATOM     25  H   UNL     1      26.883  43.817  19.169  1.00  0.00     0.293 HD
ENDBRANCH   6  24
BRANCH   8  26
ATOM     26  O   UNL     1      29.028  43.302  24.472  1.00  0.00    -0.508 OA
ATOM     27  H   UNL     1      28.536  43.075  25.330  1.00  0.00     0.293 HD
ENDBRANCH   8  26
TORSDOF 6
ENDMDL
MODEL 2
REMARK VINA RESULT:    -5.419      3.413      5.210
REMARK INTER + INTRA:          -6.877
REMARK INTER:                  -7.064
REMARK INTRA:                   0.187
REMARK UNBOUND:                -0.349
REMARK SMILES O=c1c(O)c(-c2ccc(O)cc2O)oc2cc(O)cc(O)c12
REMARK SMILES IDX 5 1 3 2 2 3 1 4 22 5 20 6 19 7 17 8 16 9 15 10 14 11 6 12
REMARK SMILES IDX 8 13 7 14 9 15 11 16 12 17 10 18 13 20 4 22 21 24 18 26
REMARK H PARENT 10 19 13 21 4 23 21 25 18 27
REMARK Flexibility Score: inf
ROOT
ATOM      1  C   UNL     1      27.597  35.542  21.558  1.00  0.00     0.184 A 
ATOM      2  C   UNL     1      26.485  36.273  22.011  1.00  0.00     0.208 A 
ATOM      3  C   UNL     1      26.093  37.420  21.302  1.00  0.00     0.238 A 
ATOM      4  O   UNL     1      25.096  38.083  21.696  1.00  0.00    -0.285 OA
ATOM      5  C   UNL     1      26.823  37.816  20.162  1.00  0.00     0.111 A 
ATOM      6  C   UNL     1      26.497  38.960  19.393  1.00  0.00     0.134 A 
ATOM      7  C   UNL     1      27.275  39.290  18.274  1.00  0.00     0.093 A 
ATOM      8  C   UNL     1      28.369  38.503  17.908  1.00  0.00     0.123 A 
ATOM      9  C   UNL     1      28.696  37.371  18.662  1.00  0.00     0.094 A 
ATOM     10  C   UNL     1      27.933  37.025  19.782  1.00  0.00     0.146 A 
ATOM     11  O   UNL     1      28.264  35.945  20.481  1.00  0.00    -0.451 OA
ENDROOT
BRANCH   1  12
ATOM     12  C   UNL     1      28.046  34.317  22.251  1.00  0.00     0.063 A 
ATOM     13  C   UNL     1      28.170  33.006  24.300  1.00  0.00     0.047 A 
ATOM     14  C   UNL     1      27.805  34.176  23.630  1.00  0.00     0.020 A 
ATOM     15  C   UNL     1      28.772  31.957  23.602  1.00  0.00     0.119 A 
ATOM     16  C   UNL     1      29.014  32.083  22.229  1.00  0.00     0.093 A 
ATOM     17  C   UNL     1      28.664  33.256  21.548  1.00  0.00     0.130 A 
BRANCH  15  18
ATOM     18  O   UNL     1      29.125  30.793  24.282  1.00  0.00    -0.508 OA
ATOM     19  H   UNL     1      30.044  30.378  24.180  1.00  0.00     0.293 HD
ENDBRANCH  15  18
BRANCH  17  20
ATOM     20  O   UNL     1      28.961  33.342  20.187  1.00  0.00    -0.507 OA
ATOM     21  H   UNL     1      29.771  32.902  19.769  1.00  0.00     0.293 HD
ENDBRANCH  17  20
ENDBRANCH   1  12
BRANCH   2  22
ATOM     22  O   UNL     1      25.799  35.866  23.157  1.00  0.00    -0.502 OA
ATOM     23  H   UNL     1      25.871  34.925  23.526  1.00  0.00     0.293 HD
ENDBRANCH   2  22
BRANCH   6  24
ATOM     24  O   UNL     1      25.410  39.767  19.732  1.00  0.00    -0.507 OA
ATOM     25  H   UNL     1      25.520  40.594  20.308  1.00  0.00     0.293 HD
ENDBRANCH   6  24
BRANCH   8  26
ATOM     26  O   UNL     1      29.124  38.853  16.792  1.00  0.00    -0.508 OA
ATOM     27  H   UNL     1      28.767  38.734  15.850  1.00  0.00     0.293 HD
ENDBRANCH   8  26
TORSDOF 6
ENDMDL
MODEL 3
REMARK VINA RESULT:    -3.860      1.757      6.692
REMARK INTER + INTRA:          -5.000
REMARK INTER:                  -4.620
REMARK INTRA:                  -0.379
REMARK UNBOUND:                -0.349
REMARK SMILES O=c1c(O)c(-c2ccc(O)cc2O)oc2cc(O)cc(O)c12
REMARK SMILES IDX 5 1 3 2 2 3 1 4 22 5 20 6 19 7 17 8 16 9 15 10 14 11 6 12
REMARK SMILES IDX 8 13 7 14 9 15 11 16 12 17 10 18 13 20 4 22 21 24 18 26
REMARK H PARENT 10 19 13 21 4 23 21 25 18 27
REMARK Flexibility Score: inf
ROOT
ATOM      1  C   UNL     1      27.950  38.089  20.555  1.00  0.00     0.184 A 
ATOM      2  C   UNL     1      28.444  37.527  19.365  1.00  0.00     0.208 A 
ATOM      3  C   UNL     1      28.682  36.144  19.315  1.00  0.00     0.238 A 
ATOM      4  O   UNL     1      29.122  35.627  18.253  1.00  0.00    -0.285 OA
ATOM      5  C   UNL     1      28.428  35.354  20.456  1.00  0.00     0.111 A 
ATOM      6  C   UNL     1      28.643  33.955  20.492  1.00  0.00     0.134 A 
ATOM      7  C   UNL     1      28.370  33.238  21.666  1.00  0.00     0.093 A 
ATOM      8  C   UNL     1      27.888  33.891  22.803  1.00  0.00     0.123 A 
ATOM      9  C   UNL     1      27.672  35.272  22.774  1.00  0.00     0.094 A 
ATOM     10  C   UNL     1      27.938  36.004  21.613  1.00  0.00     0.146 A 
ATOM     11  O   UNL     1      27.724  37.316  21.612  1.00  0.00    -0.451 OA
ENDROOT
BRANCH   1  12
ATOM     12  C   UNL     1      27.663  39.535  20.661  1.00  0.00     0.063 A 
ATOM     13  C   UNL     1      28.489  41.814  20.888  1.00  0.00     0.047 A 
ATOM     14  C   UNL     1      28.726  40.439  20.840  1.00  0.00     0.020 A 
ATOM     15  C   UNL     1      27.189  42.307  20.752  1.00  0.00     0.119 A 
ATOM     16  C   UNL     1      26.123  41.418  20.570  1.00  0.00     0.093 A 
ATOM     17  C   UNL     1      26.346  40.036  20.531  1.00  0.00     0.130 A 
BRANCH  15  18
ATOM     18  O   UNL     1      26.969  43.682  20.797  1.00  0.00    -0.508 OA
ATOM     19  H   UNL     1      27.485  44.281  21.431  1.00  0.00     0.293 HD
ENDBRANCH  15  18
BRANCH  17  20
ATOM     20  O   UNL     1      25.243  39.193  20.384  1.00  0.00    -0.507 OA
ATOM     21  H   UNL     1      25.071  38.398  20.987  1.00  0.00     0.293 HD
ENDBRANCH  17  20
ENDBRANCH   1  12
BRANCH   2  22
ATOM     22  O   UNL     1      28.707  38.342  18.261  1.00  0.00    -0.502 OA
ATOM     23  H   UNL     1      28.289  39.258  18.153  1.00  0.00     0.293 HD
ENDBRANCH   2  22
BRANCH   6  24
ATOM     24  O   UNL     1      29.125  33.273  19.372  1.00  0.00    -0.507 OA
ATOM     25  H   UNL     1      28.940  32.287  19.229  1.00  0.00     0.293 HD
ENDBRANCH   6  24
BRANCH   8  26
ATOM     26  O   UNL     1      27.625  33.156  23.956  1.00  0.00    -0.508 OA
ATOM     27  H   UNL     1      26.753  32.653  24.078  1.00  0.00     0.293 HD
ENDBRANCH   8  26
TORSDOF 6
ENDMDL
MODEL 4
REMARK VINA RESULT:    -3.527      5.841     10.576
REMARK INTER + INTRA:          -4.598
REMARK INTER:                  -4.532
REMARK INTRA:                  -0.066
REMARK UNBOUND:                -0.349
REMARK SMILES O=c1c(O)c(-c2ccc(O)cc2O)oc2cc(O)cc(O)c12
REMARK SMILES IDX 5 1 3 2 2 3 1 4 22 5 20 6 19 7 17 8 16 9 15 10 14 11 6 12
REMARK SMILES IDX 8 13 7 14 9 15 11 16 12 17 10 18 13 20 4 22 21 24 18 26
REMARK H PARENT 10 19 13 21 4 23 21 25 18 27
REMARK Flexibility Score: inf
ROOT
ATOM      1  C   UNL     1      28.402  32.230  23.672  1.00  0.00     0.184 A 
ATOM      2  C   UNL     1      28.778  32.527  24.994  1.00  0.00     0.208 A 
ATOM      3  C   UNL     1      28.781  31.494  25.945  1.00  0.00     0.238 A 
ATOM      4  O   UNL     1      29.119  31.746  27.133  1.00  0.00    -0.285 OA
ATOM      5  C   UNL     1      28.402  30.191  25.558  1.00  0.00     0.111 A 
ATOM      6  C   UNL     1      28.374  29.096  26.454  1.00  0.00     0.134 A 
ATOM      7  C   UNL     1      27.982  27.830  25.994  1.00  0.00     0.093 A 
ATOM      8  C   UNL     1      27.617  27.638  24.660  1.00  0.00     0.123 A 
ATOM      9  C   UNL     1      27.643  28.717  23.769  1.00  0.00     0.094 A 
ATOM     10  C   UNL     1      28.031  29.986  24.208  1.00  0.00     0.146 A 
ATOM     11  O   UNL     1      28.048  30.993  23.342  1.00  0.00    -0.451 OA
ENDROOT
BRANCH   1  12
ATOM     12  C   UNL     1      28.398  33.272  22.623  1.00  0.00     0.063 A 
ATOM     13  C   UNL     1      29.092  34.002  20.406  1.00  0.00     0.047 A 
ATOM     14  C   UNL     1      29.123  33.059  21.436  1.00  0.00     0.020 A 
ATOM     15  C   UNL     1      28.332  35.166  20.543  1.00  0.00     0.119 A 
ATOM     16  C   UNL     1      27.604  35.388  21.717  1.00  0.00     0.093 A 
ATOM     17  C   UNL     1      27.635  34.455  22.763  1.00  0.00     0.130 A 
BRANCH  15  18
ATOM     18  O   UNL     1      28.307  36.095  19.505  1.00  0.00    -0.508 OA
ATOM     19  H   UNL     1      27.600  36.820  19.460  1.00  0.00     0.293 HD
ENDBRANCH  15  18
BRANCH  17  20
ATOM     20  O   UNL     1      26.920  34.744  23.926  1.00  0.00    -0.507 OA
ATOM     21  H   UNL     1      26.782  35.686  24.270  1.00  0.00     0.293 HD
ENDBRANCH  17  20
ENDBRANCH   1  12
BRANCH   2  22
ATOM     22  O   UNL     1      29.125  33.832  25.348  1.00  0.00    -0.502 OA
ATOM     23  H   UNL     1      29.985  34.050  25.837  1.00  0.00     0.293 HD
ENDBRANCH   2  22
BRANCH   6  24
ATOM     24  O   UNL     1      28.733  29.254  27.794  1.00  0.00    -0.507 OA
ATOM     25  H   UNL     1      29.017  30.153  28.167  1.00  0.00     0.293 HD
ENDBRANCH   6  24
BRANCH   8  26
ATOM     26  O   UNL     1      27.232  26.372  24.229  1.00  0.00    -0.508 OA
ATOM     27  H   UNL     1      26.766  26.233  23.339  1.00  0.00     0.293 HD
ENDBRANCH   8  26
TORSDOF 6
ENDMDL
MODEL 5
REMARK VINA RESULT:    -2.959      1.555      6.272
REMARK INTER + INTRA:          -3.914
REMARK INTER:                  -3.979
REMARK INTRA:                   0.066
REMARK UNBOUND:                -0.349
REMARK SMILES O=c1c(O)c(-c2ccc(O)cc2O)oc2cc(O)cc(O)c12
REMARK SMILES IDX 5 1 3 2 2 3 1 4 22 5 20 6 19 7 17 8 16 9 15 10 14 11 6 12
REMARK SMILES IDX 8 13 7 14 9 15 11 16 12 17 10 18 13 20 4 22 21 24 18 26
REMARK H PARENT 10 19 13 21 4 23 21 25 18 27
REMARK Flexibility Score: inf
ROOT
ATOM      1  C   UNL     1      28.077  40.943  21.142  1.00  0.00     0.184 A 
ATOM      2  C   UNL     1      27.929  41.553  19.884  1.00  0.00     0.208 A 
ATOM      3  C   UNL     1      28.046  40.762  18.730  1.00  0.00     0.238 A 
ATOM      4  O   UNL     1      27.913  41.296  17.596  1.00  0.00    -0.285 OA
ATOM      5  C   UNL     1      28.313  39.383  18.856  1.00  0.00     0.111 A 
ATOM      6  C   UNL     1      28.449  38.516  17.745  1.00  0.00     0.134 A 
ATOM      7  C   UNL     1      28.719  37.156  17.952  1.00  0.00     0.093 A 
ATOM      8  C   UNL     1      28.857  36.645  19.245  1.00  0.00     0.123 A 
ATOM      9  C   UNL     1      28.723  37.496  20.347  1.00  0.00     0.094 A 
ATOM     10  C   UNL     1      28.454  38.855  20.162  1.00  0.00     0.146 A 
ATOM     11  O   UNL     1      28.331  39.642  21.225  1.00  0.00    -0.451 OA
ENDROOT
BRANCH   1  12
ATOM     12  C   UNL     1      27.947  41.721  22.393  1.00  0.00     0.063 A 
ATOM     13  C   UNL     1      28.897  42.420  24.523  1.00  0.00     0.047 A 
ATOM     14  C   UNL     1      28.969  41.654  23.357  1.00  0.00     0.020 A 
ATOM     15  C   UNL     1      27.809  43.268  24.739  1.00  0.00     0.119 A 
ATOM     16  C   UNL     1      26.786  43.345  23.786  1.00  0.00     0.093 A 
ATOM     17  C   UNL     1      26.841  42.573  22.618  1.00  0.00     0.130 A 
BRANCH  15  18
ATOM     18  O   UNL     1      27.754  44.030  25.904  1.00  0.00    -0.508 OA
ATOM     19  H   UNL     1      28.593  44.399  26.336  1.00  0.00     0.293 HD
ENDBRANCH  15  18
BRANCH  17  20
ATOM     20  O   UNL     1      25.777  42.662  21.719  1.00  0.00    -0.507 OA
ATOM     21  H   UNL     1      25.634  43.457  21.109  1.00  0.00     0.293 HD
ENDBRANCH  17  20
ENDBRANCH   1  12
BRANCH   2  22
ATOM     22  O   UNL     1      27.688  42.926  19.795  1.00  0.00    -0.502 OA
ATOM     23  H   UNL     1      28.285  43.611  20.243  1.00  0.00     0.293 HD
ENDBRANCH   2  22
BRANCH   6  24
ATOM     24  O   UNL     1      28.317  38.995  16.440  1.00  0.00    -0.507 OA
ATOM     25  H   UNL     1      28.896  38.648  15.684  1.00  0.00     0.293 HD
ENDBRANCH   6  24
BRANCH   8  26
ATOM     26  O   UNL     1      29.125  35.291  19.424  1.00  0.00    -0.508 OA
ATOM     27  H   UNL     1      29.980  34.973  19.866  1.00  0.00     0.293 HD
ENDBRANCH   8  26
TORSDOF 6
ENDMDL
