MODEL 1
REMARK VINA RESULT:    -3.365      0.000      0.000
REMARK INTER + INTRA:          -3.944
REMARK INTER:                  -3.857
REMARK INTRA:                  -0.087
REMARK UNBOUND:                -0.087
REMARK SMILES COc1cc(C(=O)[O-])ccc1O
REMARK SMILES IDX 5 1 9 2 4 3 10 4 3 5 11 6 6 7 7 8 8 9 2 10 1 11 12 12
REMARK H PARENT 12 13
REMARK Flexibility Score: inf
ROOT
ATOM      1  C   UNL     1      14.059   9.699  31.940  1.00  0.00     0.001 A 
ATOM      2  C   UNL     1      13.392  10.818  32.462  1.00  0.00     0.014 A 
ATOM      3  C   UNL     1      13.317   8.546  31.625  1.00  0.00     0.060 A 
ATOM      4  C   UNL     1      12.010  10.787  32.666  1.00  0.00     0.051 A 
ATOM      5  C   UNL     1      11.923   8.510  31.829  1.00  0.00     0.161 A 
ATOM      6  C   UNL     1      11.276   9.638  32.351  1.00  0.00     0.157 A 
ENDROOT
BRANCH   1   7
ATOM      7  C   UNL     1      15.522   9.738  31.726  1.00  0.00     0.072 C 
ATOM      8  O   UNL     1      16.149   8.699  31.386  1.00  0.00    -0.545 OA
ATOM      9  O   UNL     1      16.228  10.924  31.896  1.00  0.00    -0.545 OA
ENDBRANCH   1   7
BRANCH   5  10
ATOM     10  O   UNL     1      11.150   7.377  31.526  1.00  0.00    -0.493 OA
ATOM     11  C   UNL     1      11.575   6.033  31.726  1.00  0.00     0.278 C 
ENDBRANCH   5  10
BRANCH   6  12
ATOM     12  O   UNL     1       9.897   9.608  32.555  1.00  0.00    -0.504 OA
ATOM     13  H   UNL     1       9.378  10.445  32.795  1.00  0.00     0.293 HD
ENDBRANCH   6  12
TORSDOF 3
ENDMDL
MODEL 2
REMARK VINA RESULT:    -3.280     15.076     15.840
REMARK INTER + INTRA:          -3.846
REMARK INTER:                  -3.748
REMARK INTRA:                  -0.098
REMARK UNBOUND:                -0.087
REMARK SMILES COc1cc(C(=O)[O-])ccc1O
REMARK SMILES IDX 5 1 9 2 4 3 10 4 3 5 11 6 6 7 7 8 8 9 2 10 1 11 12 12
REMARK H PARENT 12 13
REMARK Flexibility Score: inf
ROOT
ATOM      1  C   UNL     1      20.855  -3.969  34.170  1.00  0.00     0.001 A 
ATOM      2  C   UNL     1      20.768  -3.294  35.398  1.00  0.00     0.014 A 
ATOM      3  C   UNL     1      20.123  -5.157  33.990  1.00  0.00     0.060 A 
ATOM      4  C   UNL     1      19.966  -3.795  36.426  1.00  0.00     0.051 A 
ATOM      5  C   UNL     1      19.313  -5.666  35.024  1.00  0.00     0.161 A 
ATOM      6  C   UNL     1      19.240  -4.978  36.243  1.00  0.00     0.157 A 
ENDROOT
BRANCH   1   7
ATOM      7  C   UNL     1      21.705  -3.433  33.085  1.00  0.00     0.072 C 
ATOM      8  O   UNL     1      22.125  -4.187  32.166  1.00  0.00    -0.545 OA
ATOM      9  O   UNL     1      22.055  -2.088  33.063  1.00  0.00    -0.545 OA
ENDBRANCH   1   7
BRANCH   5  10
ATOM     10  O   UNL     1      18.568  -6.849  34.880  1.00  0.00    -0.493 OA
ATOM     11  C   UNL     1      17.532  -7.038  33.922  1.00  0.00     0.278 C 
ENDBRANCH   5  10
BRANCH   6  12
ATOM     12  O   UNL     1      18.440  -5.477  37.269  1.00  0.00    -0.504 OA
ATOM     13  H   UNL     1      17.695  -4.924  37.679  1.00  0.00     0.293 HD
ENDBRANCH   6  12
TORSDOF 3
ENDMDL
MODEL 3
REMARK VINA RESULT:    -3.264      1.488      4.938
REMARK INTER + INTRA:          -3.829
REMARK INTER:                  -3.736
REMARK INTRA:                  -0.093
REMARK UNBOUND:                -0.087
REMARK SMILES COc1cc(C(=O)[O-])ccc1O
REMARK SMILES IDX 5 1 9 2 4 3 10 4 3 5 11 6 6 7 7 8 8 9 2 10 1 11 12 12
REMARK H PARENT 12 13
REMARK Flexibility Score: inf
ROOT
ATOM      1  C   UNL     1      12.492   9.867  32.125  1.00  0.00     0.001 A 
ATOM      2  C   UNL     1      13.326   9.123  31.274  1.00  0.00     0.014 A 
ATOM      3  C   UNL     1      13.068  10.819  32.985  1.00  0.00     0.060 A 
ATOM      4  C   UNL     1      14.708   9.327  31.282  1.00  0.00     0.051 A 
ATOM      5  C   UNL     1      14.462  11.028  32.996  1.00  0.00     0.161 A 
ATOM      6  C   UNL     1      15.277  10.276  32.140  1.00  0.00     0.157 A 
ENDROOT
BRANCH   1   7
ATOM      7  C   UNL     1      11.029   9.647  32.111  1.00  0.00     0.072 C 
ATOM      8  O   UNL     1      10.555   8.501  31.887  1.00  0.00    -0.545 OA
ATOM      9  O   UNL     1      10.156  10.703  32.344  1.00  0.00    -0.545 OA
ENDBRANCH   1   7
BRANCH   5  10
ATOM     10  O   UNL     1      15.072  11.970  33.841  1.00  0.00    -0.493 OA
ATOM     11  C   UNL     1      14.912  12.009  35.255  1.00  0.00     0.278 C 
ENDBRANCH   5  10
BRANCH   6  12
ATOM     12  O   UNL     1      16.656  10.478  32.147  1.00  0.00    -0.504 OA
ATOM     13  H   UNL     1      17.080  11.265  31.669  1.00  0.00     0.293 HD
ENDBRANCH   6  12
TORSDOF 3
ENDMDL
MODEL 4
REMARK VINA RESULT:    -3.232     14.239     15.753
REMARK INTER + INTRA:          -3.791
REMARK INTER:                  -3.716
REMARK INTRA:                  -0.075
REMARK UNBOUND:                -0.087
REMARK SMILES COc1cc(C(=O)[O-])ccc1O
REMARK SMILES IDX 5 1 9 2 4 3 10 4 3 5 11 6 6 7 7 8 8 9 2 10 1 11 12 12
REMARK H PARENT 12 13
REMARK Flexibility Score: inf
ROOT
ATOM      1  C   UNL     1      20.547  -4.038  36.167  1.00  0.00     0.001 A 
ATOM      2  C   UNL     1      20.844  -2.857  36.865  1.00  0.00     0.014 A 
ATOM      3  C   UNL     1      20.784  -4.092  34.782  1.00  0.00     0.060 A 
ATOM      4  C   UNL     1      21.368  -1.750  36.193  1.00  0.00     0.051 A 
ATOM      5  C   UNL     1      21.312  -2.978  34.099  1.00  0.00     0.161 A 
ATOM      6  C   UNL     1      21.602  -1.808  34.814  1.00  0.00     0.157 A 
ENDROOT
BRANCH   1   7
ATOM      7  C   UNL     1      19.993  -5.207  36.885  1.00  0.00     0.072 C 
ATOM      8  O   UNL     1      18.755  -5.444  36.866  1.00  0.00    -0.545 OA
ATOM      9  O   UNL     1      20.831  -6.061  37.593  1.00  0.00    -0.545 OA
ENDBRANCH   1   7
BRANCH   5  10
ATOM     10  O   UNL     1      21.562  -2.995  32.717  1.00  0.00    -0.493 OA
ATOM     11  C   UNL     1      21.080  -3.992  31.822  1.00  0.00     0.278 C 
ENDBRANCH   5  10
BRANCH   6  12
ATOM     12  O   UNL     1      22.125  -0.703  34.144  1.00  0.00    -0.504 OA
ATOM     13  H   UNL     1      21.761   0.232  34.296  1.00  0.00     0.293 HD
ENDBRANCH   6  12
TORSDOF 3
ENDMDL
MODEL 5
REMARK VINA RESULT:    -3.199     15.181     16.492
REMARK INTER + INTRA:          -3.754
REMARK INTER:                  -3.670
REMARK INTRA:                  -0.084
REMARK UNBOUND:                -0.087
REMARK SMILES COc1cc(C(=O)[O-])ccc1O
REMARK SMILES IDX 5 1 9 2 4 3 10 4 3 5 11 6 6 7 7 8 8 9 2 10 1 11 12 12
REMARK H PARENT 12 13
REMARK Flexibility Score: inf
ROOT
ATOM      1  C   UNL     1      19.525  -5.074  34.278  1.00  0.00     0.001 A 
ATOM      2  C   UNL     1      18.988  -6.241  34.845  1.00  0.00     0.014 A 
ATOM      3  C   UNL     1      20.293  -4.214  35.084  1.00  0.00     0.060 A 
ATOM      4  C   UNL     1      19.213  -6.544  36.189  1.00  0.00     0.051 A 
ATOM      5  C   UNL     1      20.523  -4.515  36.442  1.00  0.00     0.161 A 
ATOM      6  C   UNL     1      19.978  -5.685  36.988  1.00  0.00     0.157 A 
ENDROOT
BRANCH   1   7
ATOM      7  C   UNL     1      19.283  -4.760  32.853  1.00  0.00     0.072 C 
ATOM      8  O   UNL     1      18.202  -5.092  32.297  1.00  0.00    -0.545 OA
ATOM      9  O   UNL     1      20.247  -4.092  32.105  1.00  0.00    -0.545 OA
ENDBRANCH   1   7
BRANCH   5  10
ATOM     10  O   UNL     1      21.284  -3.681  37.276  1.00  0.00    -0.493 OA
ATOM     11  C   UNL     1      21.351  -2.264  37.156  1.00  0.00     0.278 C 
ENDBRANCH   5  10
BRANCH   6  12
ATOM     12  O   UNL     1      20.201  -5.988  38.330  1.00  0.00    -0.504 OA
ATOM     13  H   UNL     1      20.931  -5.529  38.864  1.00  0.00     0.293 HD
ENDBRANCH   6  12
TORSDOF 3
ENDMDL
MODEL 6
REMARK VINA RESULT:    -3.172     14.795     16.365
REMARK INTER + INTRA:          -3.723
REMARK INTER:                  -3.644
REMARK INTRA:                  -0.079
REMARK UNBOUND:                -0.087
REMARK SMILES COc1cc(C(=O)[O-])ccc1O
REMARK SMILES IDX 5 1 9 2 4 3 10 4 3 5 11 6 6 7 7 8 8 9 2 10 1 11 12 12
REMARK H PARENT 12 13
REMARK Flexibility Score: inf
ROOT
ATOM      1  C   UNL     1      20.292  -4.079  36.599  1.00  0.00     0.001 A 
ATOM      2  C   UNL     1      20.615  -5.131  37.472  1.00  0.00     0.014 A 
ATOM      3  C   UNL     1      19.538  -4.357  35.444  1.00  0.00     0.060 A 
ATOM      4  C   UNL     1      20.194  -6.433  37.197  1.00  0.00     0.051 A 
ATOM      5  C   UNL     1      19.111  -5.670  35.163  1.00  0.00     0.161 A 
ATOM      6  C   UNL     1      19.444  -6.705  36.046  1.00  0.00     0.157 A 
ENDROOT
BRANCH   1   7
ATOM      7  C   UNL     1      20.740  -2.701  36.896  1.00  0.00     0.072 C 
ATOM      8  O   UNL     1      19.924  -1.740  36.865  1.00  0.00    -0.545 OA
ATOM      9  O   UNL     1      22.069  -2.445  37.214  1.00  0.00    -0.545 OA
ENDBRANCH   1   7
BRANCH   5  10
ATOM     10  O   UNL     1      18.357  -5.984  34.020  1.00  0.00    -0.493 OA
ATOM     11  C   UNL     1      18.332  -5.203  32.829  1.00  0.00     0.278 C 
ENDBRANCH   5  10
BRANCH   6  12
ATOM     12  O   UNL     1      19.025  -8.006  35.772  1.00  0.00    -0.504 OA
ATOM     13  H   UNL     1      18.426  -8.216  34.982  1.00  0.00     0.293 HD
ENDBRANCH   6  12
TORSDOF 3
ENDMDL
MODEL 7
REMARK VINA RESULT:    -3.170     15.585     16.469
REMARK INTER + INTRA:          -3.721
REMARK INTER:                  -3.631
REMARK INTRA:                  -0.090
REMARK UNBOUND:                -0.087
REMARK SMILES COc1cc(C(=O)[O-])ccc1O
REMARK SMILES IDX 5 1 9 2 4 3 10 4 3 5 11 6 6 7 7 8 8 9 2 10 1 11 12 12
REMARK H PARENT 12 13
REMARK Flexibility Score: inf
ROOT
ATOM      1  C   UNL     1      19.290  -5.374  35.747  1.00  0.00     0.001 A 
ATOM      2  C   UNL     1      18.624  -6.537  36.169  1.00  0.00     0.014 A 
ATOM      3  C   UNL     1      19.186  -4.977  34.402  1.00  0.00     0.060 A 
ATOM      4  C   UNL     1      17.868  -7.287  35.265  1.00  0.00     0.051 A 
ATOM      5  C   UNL     1      18.425  -5.731  33.486  1.00  0.00     0.161 A 
ATOM      6  C   UNL     1      17.768  -6.888  33.927  1.00  0.00     0.157 A 
ENDROOT
BRANCH   1   7
ATOM      7  C   UNL     1      20.088  -4.584  36.710  1.00  0.00     0.072 C 
ATOM      8  O   UNL     1      20.667  -5.146  37.677  1.00  0.00    -0.545 OA
ATOM      9  O   UNL     1      20.209  -3.207  36.561  1.00  0.00    -0.545 OA
ENDBRANCH   1   7
BRANCH   5  10
ATOM     10  O   UNL     1      18.298  -5.365  32.136  1.00  0.00    -0.493 OA
ATOM     11  C   UNL     1      19.388  -5.018  31.288  1.00  0.00     0.278 C 
ENDBRANCH   5  10
BRANCH   6  12
ATOM     12  O   UNL     1      17.014  -7.638  33.026  1.00  0.00    -0.504 OA
ATOM     13  H   UNL     1      16.858  -8.631  33.161  1.00  0.00     0.293 HD
ENDBRANCH   6  12
TORSDOF 3
ENDMDL
MODEL 8
REMARK VINA RESULT:    -3.150     14.739     16.218
REMARK INTER + INTRA:          -3.698
REMARK INTER:                  -3.614
REMARK INTRA:                  -0.084
REMARK UNBOUND:                -0.087
REMARK SMILES COc1cc(C(=O)[O-])ccc1O
REMARK SMILES IDX 5 1 9 2 4 3 10 4 3 5 11 6 6 7 7 8 8 9 2 10 1 11 12 12
REMARK H PARENT 12 13
REMARK Flexibility Score: inf
ROOT
ATOM      1  C   UNL     1      20.443  -5.124  33.480  1.00  0.00     0.001 A 
ATOM      2  C   UNL     1      19.503  -6.145  33.694  1.00  0.00     0.014 A 
ATOM      3  C   UNL     1      20.707  -4.210  34.516  1.00  0.00     0.060 A 
ATOM      4  C   UNL     1      18.839  -6.251  34.918  1.00  0.00     0.051 A 
ATOM      5  C   UNL     1      20.040  -4.313  35.753  1.00  0.00     0.161 A 
ATOM      6  C   UNL     1      19.105  -5.339  35.947  1.00  0.00     0.157 A 
ENDROOT
BRANCH   1   7
ATOM      7  C   UNL     1      21.143  -5.017  32.181  1.00  0.00     0.072 C 
ATOM      8  O   UNL     1      21.860  -5.964  31.759  1.00  0.00    -0.545 OA
ATOM      9  O   UNL     1      21.021  -3.869  31.407  1.00  0.00    -0.545 OA
ENDBRANCH   1   7
BRANCH   5  10
ATOM     10  O   UNL     1      20.278  -3.419  36.811  1.00  0.00    -0.493 OA
ATOM     11  C   UNL     1      20.396  -2.008  36.663  1.00  0.00     0.278 C 
ENDBRANCH   5  10
BRANCH   6  12
ATOM     12  O   UNL     1      18.442  -5.446  37.168  1.00  0.00    -0.504 OA
ATOM     13  H   UNL     1      18.930  -5.711  38.016  1.00  0.00     0.293 HD
ENDBRANCH   6  12
TORSDOF 3
ENDMDL
MODEL 9
REMARK VINA RESULT:    -3.089      1.673      4.163
REMARK INTER + INTRA:          -3.628
REMARK INTER:                  -3.562
REMARK INTRA:                  -0.066
REMARK UNBOUND:                -0.087
REMARK SMILES COc1cc(C(=O)[O-])ccc1O
REMARK SMILES IDX 5 1 9 2 4 3 10 4 3 5 11 6 6 7 7 8 8 9 2 10 1 11 12 12
REMARK H PARENT 12 13
REMARK Flexibility Score: inf
ROOT
ATOM      1  C   UNL     1      11.717   7.923  31.985  1.00  0.00     0.001 A 
ATOM      2  C   UNL     1      10.550   8.703  32.000  1.00  0.00     0.014 A 
ATOM      3  C   UNL     1      12.969   8.566  31.975  1.00  0.00     0.060 A 
ATOM      4  C   UNL     1      10.630  10.097  32.005  1.00  0.00     0.051 A 
ATOM      5  C   UNL     1      13.055   9.973  31.980  1.00  0.00     0.161 A 
ATOM      6  C   UNL     1      11.878  10.733  31.995  1.00  0.00     0.157 A 
ENDROOT
BRANCH   1   7
ATOM      7  C   UNL     1      11.626   6.447  31.980  1.00  0.00     0.072 C 
ATOM      8  O   UNL     1      12.011   5.777  32.976  1.00  0.00    -0.545 OA
ATOM      9  O   UNL     1      11.114   5.776  30.875  1.00  0.00    -0.545 OA
ENDBRANCH   1   7
BRANCH   5  10
ATOM     10  O   UNL     1      14.286  10.649  31.971  1.00  0.00    -0.493 OA
ATOM     11  C   UNL     1      14.998  11.044  33.139  1.00  0.00     0.278 C 
ENDBRANCH   5  10
BRANCH   6  12
ATOM     12  O   UNL     1      11.956  12.124  32.000  1.00  0.00    -0.504 OA
ATOM     13  H   UNL     1      12.695  12.617  31.510  1.00  0.00     0.293 HD
ENDBRANCH   6  12
TORSDOF 3
ENDMDL
