MODEL 1
REMARK VINA RESULT:    -5.146      0.000      0.000
REMARK INTER + INTRA:          -6.121
REMARK INTER:                  -6.049
REMARK INTRA:                  -0.072
REMARK UNBOUND:                -0.072
REMARK SMILES O=c1c(O)c(-c2ccc(O)c(O)c2)oc2cc(O)ccc12
REMARK SMILES IDX 5 1 3 2 2 3 1 4 21 5 15 6 14 7 16 8 17 9 19 10 20 11 6 12
REMARK SMILES IDX 7 13 8 14 9 15 13 16 11 17 10 18 12 20 4 22 18 24
REMARK H PARENT 10 19 12 21 4 23 18 25
REMARK Flexibility Score: inf
ROOT
ATOM      1  C   UNL     1      23.328  27.773   5.086  1.00  0.00     0.180 A 
ATOM      2  C   UNL     1      22.313  26.958   5.628  1.00  0.00     0.208 A 
ATOM      3  C   UNL     1      22.659  25.699   6.142  1.00  0.00     0.235 A 
ATOM      4  O   UNL     1      21.767  24.947   6.623  1.00  0.00    -0.285 OA
ATOM      5  C   UNL     1      24.002  25.290   6.123  1.00  0.00     0.069 A 
ATOM      6  C   UNL     1      24.962  26.173   5.585  1.00  0.00     0.142 A 
ATOM      7  O   UNL     1      24.592  27.353   5.100  1.00  0.00    -0.452 OA
ATOM      8  C   UNL     1      26.313  25.807   5.556  1.00  0.00     0.094 A 
ATOM      9  C   UNL     1      26.716  24.562   6.060  1.00  0.00     0.119 A 
ATOM     10  C   UNL     1      25.766  23.684   6.592  1.00  0.00     0.047 A 
ATOM     11  C   UNL     1      24.414  24.042   6.625  1.00  0.00     0.020 A 
ENDROOT
BRANCH   1  12
ATOM     12  C   UNL     1      23.042  29.106   4.508  1.00  0.00     0.025 A 
ATOM     13  C   UNL     1      22.115  29.218   3.459  1.00  0.00     0.016 A 
ATOM     14  C   UNL     1      21.814  30.469   2.912  1.00  0.00     0.051 A 
ATOM     15  C   UNL     1      22.421  31.624   3.418  1.00  0.00     0.157 A 
ATOM     16  C   UNL     1      23.632  30.272   5.027  1.00  0.00     0.062 A 
ATOM     17  C   UNL     1      23.328  31.527   4.481  1.00  0.00     0.158 A 
BRANCH  15  18
ATOM     18  O   UNL     1      22.124  32.873   2.875  1.00  0.00    -0.504 OA
ATOM     19  H   UNL     1      22.102  33.709   3.447  1.00  0.00     0.293 HD
ENDBRANCH  15  18
BRANCH  17  20
ATOM     20  O   UNL     1      23.921  32.680   4.991  1.00  0.00    -0.504 OA
ATOM     21  H   UNL     1      23.366  33.447   5.354  1.00  0.00     0.293 HD
ENDBRANCH  17  20
ENDBRANCH   1  12
BRANCH   2  22
ATOM     22  O   UNL     1      20.992  27.412   5.678  1.00  0.00    -0.502 OA
ATOM     23  H   UNL     1      20.350  27.128   6.408  1.00  0.00     0.293 HD
ENDBRANCH   2  22
BRANCH   9  24
ATOM     24  O   UNL     1      28.058  24.188   6.035  1.00  0.00    -0.508 OA
ATOM     25  H   UNL     1      28.499  23.855   5.185  1.00  0.00     0.293 HD
ENDBRANCH   9  24
TORSDOF 5
ENDMDL
MODEL 2
REMARK VINA RESULT:    -4.665      3.908      5.372
REMARK INTER + INTRA:          -5.556
REMARK INTER:                  -5.336
REMARK INTRA:                  -0.220
REMARK UNBOUND:                -0.072
REMARK SMILES O=c1c(O)c(-c2ccc(O)c(O)c2)oc2cc(O)ccc12
REMARK SMILES IDX 5 1 3 2 2 3 1 4 21 5 15 6 14 7 16 8 17 9 19 10 20 11 6 12
REMARK SMILES IDX 7 13 8 14 9 15 13 16 11 17 10 18 12 20 4 22 18 24
REMARK H PARENT 10 19 12 21 4 23 18 25
REMARK Flexibility Score: inf
ROOT
ATOM      1  C   UNL     1      20.340  26.744   3.698  1.00  0.00     0.180 A 
ATOM      2  C   UNL     1      18.994  27.123   3.513  1.00  0.00     0.208 A 
ATOM      3  C   UNL     1      18.041  26.127   3.252  1.00  0.00     0.235 A 
ATOM      4  O   UNL     1      16.832  26.442   3.073  1.00  0.00    -0.285 OA
ATOM      5  C   UNL     1      18.442  24.783   3.201  1.00  0.00     0.069 A 
ATOM      6  C   UNL     1      19.804  24.482   3.421  1.00  0.00     0.142 A 
ATOM      7  O   UNL     1      20.677  25.456   3.656  1.00  0.00    -0.452 OA
ATOM      8  C   UNL     1      20.242  23.154   3.387  1.00  0.00     0.094 A 
ATOM      9  C   UNL     1      19.332  22.118   3.135  1.00  0.00     0.119 A 
ATOM     10  C   UNL     1      17.983  22.413   2.916  1.00  0.00     0.047 A 
ATOM     11  C   UNL     1      17.535  23.737   2.948  1.00  0.00     0.020 A 
ENDROOT
BRANCH   1  12
ATOM     12  C   UNL     1      21.408  27.736   3.959  1.00  0.00     0.025 A 
ATOM     13  C   UNL     1      21.811  28.601   2.930  1.00  0.00     0.016 A 
ATOM     14  C   UNL     1      22.803  29.560   3.159  1.00  0.00     0.051 A 
ATOM     15  C   UNL     1      23.391  29.677   4.425  1.00  0.00     0.157 A 
ATOM     16  C   UNL     1      21.986  27.872   5.234  1.00  0.00     0.062 A 
ATOM     17  C   UNL     1      22.979  28.835   5.465  1.00  0.00     0.158 A 
BRANCH  15  18
ATOM     18  O   UNL     1      24.381  30.630   4.657  1.00  0.00    -0.504 OA
ATOM     19  H   UNL     1      24.895  30.658   5.530  1.00  0.00     0.293 HD
ENDBRANCH  15  18
BRANCH  17  20
ATOM     20  O   UNL     1      23.557  28.962   6.726  1.00  0.00    -0.504 OA
ATOM     21  H   UNL     1      23.337  28.320   7.479  1.00  0.00     0.293 HD
ENDBRANCH  17  20
ENDBRANCH   1  12
BRANCH   2  22
ATOM     22  O   UNL     1      18.616  28.464   3.618  1.00  0.00    -0.502 OA
ATOM     23  H   UNL     1      18.774  29.007   4.459  1.00  0.00     0.293 HD
ENDBRANCH   2  22
BRANCH   9  24
ATOM     24  O   UNL     1      19.759  20.792   3.100  1.00  0.00    -0.508 OA
ATOM     25  H   UNL     1      19.255  20.087   2.574  1.00  0.00     0.293 HD
ENDBRANCH   9  24
TORSDOF 5
ENDMDL
MODEL 3
REMARK VINA RESULT:    -4.610      2.309      6.688
REMARK INTER + INTRA:          -5.490
REMARK INTER:                  -5.213
REMARK INTRA:                  -0.277
REMARK UNBOUND:                -0.072
REMARK SMILES O=c1c(O)c(-c2ccc(O)c(O)c2)oc2cc(O)ccc12
REMARK SMILES IDX 5 1 3 2 2 3 1 4 21 5 15 6 14 7 16 8 17 9 19 10 20 11 6 12
REMARK SMILES IDX 7 13 8 14 9 15 13 16 11 17 10 18 12 20 4 22 18 24
REMARK H PARENT 10 19 12 21 4 23 18 25
REMARK Flexibility Score: inf
ROOT
ATOM      1  C   UNL     1      22.829  26.805   4.721  1.00  0.00     0.180 A 
ATOM      2  C   UNL     1      23.690  27.026   5.816  1.00  0.00     0.208 A 
ATOM      3  C   UNL     1      24.100  28.338   6.101  1.00  0.00     0.235 A 
ATOM      4  O   UNL     1      24.879  28.559   7.068  1.00  0.00    -0.285 OA
ATOM      5  C   UNL     1      23.631  29.396   5.306  1.00  0.00     0.069 A 
ATOM      6  C   UNL     1      22.752  29.095   4.243  1.00  0.00     0.142 A 
ATOM      7  O   UNL     1      22.395  27.839   4.002  1.00  0.00    -0.452 OA
ATOM      8  C   UNL     1      22.254  30.123   3.434  1.00  0.00     0.094 A 
ATOM      9  C   UNL     1      22.626  31.453   3.675  1.00  0.00     0.119 A 
ATOM     10  C   UNL     1      23.498  31.753   4.727  1.00  0.00     0.047 A 
ATOM     11  C   UNL     1      24.000  30.733   5.541  1.00  0.00     0.020 A 
ENDROOT
BRANCH   1  12
ATOM     12  C   UNL     1      22.367  25.450   4.346  1.00  0.00     0.025 A 
ATOM     13  C   UNL     1      23.233  24.594   3.647  1.00  0.00     0.016 A 
ATOM     14  C   UNL     1      22.826  23.303   3.300  1.00  0.00     0.051 A 
ATOM     15  C   UNL     1      21.553  22.845   3.662  1.00  0.00     0.157 A 
ATOM     16  C   UNL     1      21.098  24.977   4.725  1.00  0.00     0.062 A 
ATOM     17  C   UNL     1      20.689  23.681   4.379  1.00  0.00     0.158 A 
BRANCH  15  18
ATOM     18  O   UNL     1      21.142  21.559   3.316  1.00  0.00    -0.504 OA
ATOM     19  H   UNL     1      21.747  20.755   3.447  1.00  0.00     0.293 HD
ENDBRANCH  15  18
BRANCH  17  20
ATOM     20  O   UNL     1      19.428  23.217   4.749  1.00  0.00    -0.504 OA
ATOM     21  H   UNL     1      18.840  22.704   4.102  1.00  0.00     0.293 HD
ENDBRANCH  17  20
ENDBRANCH   1  12
BRANCH   2  22
ATOM     22  O   UNL     1      24.102  25.959   6.619  1.00  0.00    -0.502 OA
ATOM     23  H   UNL     1      23.660  25.745   7.505  1.00  0.00     0.293 HD
ENDBRANCH   2  22
BRANCH   9  24
ATOM     24  O   UNL     1      22.136  32.483   2.875  1.00  0.00    -0.508 OA
ATOM     25  H   UNL     1      22.379  33.451   3.051  1.00  0.00     0.293 HD
ENDBRANCH   9  24
TORSDOF 5
ENDMDL
MODEL 4
REMARK VINA RESULT:    -4.459      1.397      1.954
REMARK INTER + INTRA:          -5.314
REMARK INTER:                  -5.083
REMARK INTRA:                  -0.230
REMARK UNBOUND:                -0.072
REMARK SMILES O=c1c(O)c(-c2ccc(O)c(O)c2)oc2cc(O)ccc12
REMARK SMILES IDX 5 1 3 2 2 3 1 4 21 5 15 6 14 7 16 8 17 9 19 10 20 11 6 12
REMARK SMILES IDX 7 13 8 14 9 15 13 16 11 17 10 18 12 20 4 22 18 24
REMARK H PARENT 10 19 12 21 4 23 18 25
REMARK Flexibility Score: inf
ROOT
ATOM      1  C   UNL     1      23.397  27.120   5.042  1.00  0.00     0.180 A 
ATOM      2  C   UNL     1      22.280  26.383   5.488  1.00  0.00     0.208 A 
ATOM      3  C   UNL     1      22.367  24.983   5.531  1.00  0.00     0.235 A 
ATOM      4  O   UNL     1      21.378  24.301   5.916  1.00  0.00    -0.285 OA
ATOM      5  C   UNL     1      23.562  24.353   5.150  1.00  0.00     0.069 A 
ATOM      6  C   UNL     1      24.643  25.163   4.738  1.00  0.00     0.142 A 
ATOM      7  O   UNL     1      24.517  26.485   4.703  1.00  0.00    -0.452 OA
ATOM      8  C   UNL     1      25.855  24.574   4.359  1.00  0.00     0.094 A 
ATOM      9  C   UNL     1      26.000  23.181   4.386  1.00  0.00     0.119 A 
ATOM     10  C   UNL     1      24.930  22.376   4.792  1.00  0.00     0.047 A 
ATOM     11  C   UNL     1      23.716  22.955   5.173  1.00  0.00     0.020 A 
ENDROOT
BRANCH   1  12
ATOM     12  C   UNL     1      23.377  28.598   4.952  1.00  0.00     0.025 A 
ATOM     13  C   UNL     1      24.203  29.352   5.801  1.00  0.00     0.016 A 
ATOM     14  C   UNL     1      24.216  30.747   5.719  1.00  0.00     0.051 A 
ATOM     15  C   UNL     1      23.418  31.406   4.776  1.00  0.00     0.157 A 
ATOM     16  C   UNL     1      22.593  29.263   3.992  1.00  0.00     0.062 A 
ATOM     17  C   UNL     1      22.608  30.663   3.908  1.00  0.00     0.158 A 
BRANCH  15  18
ATOM     18  O   UNL     1      23.427  32.797   4.693  1.00  0.00    -0.504 OA
ATOM     19  H   UNL     1      22.739  33.362   5.177  1.00  0.00     0.293 HD
ENDBRANCH  15  18
BRANCH  17  20
ATOM     20  O   UNL     1      21.825  31.321   2.962  1.00  0.00    -0.504 OA
ATOM     21  H   UNL     1      21.815  31.037   1.990  1.00  0.00     0.293 HD
ENDBRANCH  17  20
ENDBRANCH   1  12
BRANCH   2  22
ATOM     22  O   UNL     1      21.120  27.040   5.908  1.00  0.00    -0.502 OA
ATOM     23  H   UNL     1      20.603  26.754   6.731  1.00  0.00     0.293 HD
ENDBRANCH   2  22
BRANCH   9  24
ATOM     24  O   UNL     1      27.203  22.585   4.011  1.00  0.00    -0.508 OA
ATOM     25  H   UNL     1      27.396  22.346   3.045  1.00  0.00     0.293 HD
ENDBRANCH   9  24
TORSDOF 5
ENDMDL
MODEL 5
REMARK VINA RESULT:    -4.426      3.150      6.666
REMARK INTER + INTRA:          -5.274
REMARK INTER:                  -5.121
REMARK INTRA:                  -0.154
REMARK UNBOUND:                -0.072
REMARK SMILES O=c1c(O)c(-c2ccc(O)c(O)c2)oc2cc(O)ccc12
REMARK SMILES IDX 5 1 3 2 2 3 1 4 21 5 15 6 14 7 16 8 17 9 19 10 20 11 6 12
REMARK SMILES IDX 7 13 8 14 9 15 13 16 11 17 10 18 12 20 4 22 18 24
REMARK H PARENT 10 19 12 21 4 23 18 25
REMARK Flexibility Score: inf
ROOT
ATOM      1  C   UNL     1      23.211  24.505   5.118  1.00  0.00     0.180 A 
ATOM      2  C   UNL     1      24.431  24.110   5.704  1.00  0.00     0.208 A 
ATOM      3  C   UNL     1      25.286  25.098   6.218  1.00  0.00     0.235 A 
ATOM      4  O   UNL     1      26.388  24.770   6.738  1.00  0.00    -0.285 OA
ATOM      5  C   UNL     1      24.901  26.446   6.154  1.00  0.00     0.069 A 
ATOM      6  C   UNL     1      23.653  26.758   5.573  1.00  0.00     0.142 A 
ATOM      7  O   UNL     1      22.877  25.794   5.090  1.00  0.00    -0.452 OA
ATOM      8  C   UNL     1      23.228  28.090   5.499  1.00  0.00     0.094 A 
ATOM      9  C   UNL     1      24.039  29.117   6.000  1.00  0.00     0.119 A 
ATOM     10  C   UNL     1      25.277  28.811   6.575  1.00  0.00     0.047 A 
ATOM     11  C   UNL     1      25.710  27.483   6.653  1.00  0.00     0.020 A 
ENDROOT
BRANCH   1  12
ATOM     12  C   UNL     1      22.264  23.526   4.538  1.00  0.00     0.025 A 
ATOM     13  C   UNL     1      22.657  22.761   3.428  1.00  0.00     0.016 A 
ATOM     14  C   UNL     1      21.787  21.816   2.876  1.00  0.00     0.051 A 
ATOM     15  C   UNL     1      20.521  21.611   3.438  1.00  0.00     0.157 A 
ATOM     16  C   UNL     1      21.000  23.301   5.111  1.00  0.00     0.062 A 
ATOM     17  C   UNL     1      20.128  22.351   4.560  1.00  0.00     0.158 A 
BRANCH  15  18
ATOM     18  O   UNL     1      19.650  20.670   2.890  1.00  0.00    -0.504 OA
ATOM     19  H   UNL     1      19.757  20.340   1.938  1.00  0.00     0.293 HD
ENDBRANCH  15  18
BRANCH  17  20
ATOM     20  O   UNL     1      18.872  22.136   5.124  1.00  0.00    -0.504 OA
ATOM     21  H   UNL     1      18.275  22.906   5.401  1.00  0.00     0.293 HD
ENDBRANCH  17  20
ENDBRANCH   1  12
BRANCH   2  22
ATOM     22  O   UNL     1      24.766  22.757   5.798  1.00  0.00    -0.502 OA
ATOM     23  H   UNL     1      25.702  22.416   5.615  1.00  0.00     0.293 HD
ENDBRANCH   2  22
BRANCH   9  24
ATOM     24  O   UNL     1      23.625  30.446   5.930  1.00  0.00    -0.508 OA
ATOM     25  H   UNL     1      22.642  30.694   5.924  1.00  0.00     0.293 HD
ENDBRANCH   9  24
TORSDOF 5
ENDMDL
MODEL 6
REMARK VINA RESULT:    -4.374      3.215      5.450
REMARK INTER + INTRA:          -5.214
REMARK INTER:                  -4.899
REMARK INTRA:                  -0.314
REMARK UNBOUND:                -0.072
REMARK SMILES O=c1c(O)c(-c2ccc(O)c(O)c2)oc2cc(O)ccc12
REMARK SMILES IDX 5 1 3 2 2 3 1 4 21 5 15 6 14 7 16 8 17 9 19 10 20 11 6 12
REMARK SMILES IDX 7 13 8 14 9 15 13 16 11 17 10 18 12 20 4 22 18 24
REMARK H PARENT 10 19 12 21 4 23 18 25
REMARK Flexibility Score: inf
ROOT
ATOM      1  C   UNL     1      22.077  26.706   4.301  1.00  0.00     0.180 A 
ATOM      2  C   UNL     1      21.117  27.618   3.815  1.00  0.00     0.208 A 
ATOM      3  C   UNL     1      19.854  27.134   3.440  1.00  0.00     0.235 A 
ATOM      4  O   UNL     1      18.981  27.928   2.992  1.00  0.00    -0.285 OA
ATOM      5  C   UNL     1      19.570  25.766   3.576  1.00  0.00     0.069 A 
ATOM      6  C   UNL     1      20.576  24.922   4.093  1.00  0.00     0.142 A 
ATOM      7  O   UNL     1      21.762  25.418   4.428  1.00  0.00    -0.452 OA
ATOM      8  C   UNL     1      20.329  23.554   4.253  1.00  0.00     0.094 A 
ATOM      9  C   UNL     1      19.084  23.016   3.900  1.00  0.00     0.119 A 
ATOM     10  C   UNL     1      18.085  23.850   3.385  1.00  0.00     0.047 A 
ATOM     11  C   UNL     1      18.323  25.219   3.223  1.00  0.00     0.020 A 
ENDROOT
BRANCH   1  12
ATOM     12  C   UNL     1      23.437  27.135   4.699  1.00  0.00     0.025 A 
ATOM     13  C   UNL     1      24.469  27.126   3.747  1.00  0.00     0.016 A 
ATOM     14  C   UNL     1      25.756  27.546   4.095  1.00  0.00     0.051 A 
ATOM     15  C   UNL     1      26.024  27.997   5.393  1.00  0.00     0.157 A 
ATOM     16  C   UNL     1      23.706  27.608   5.995  1.00  0.00     0.062 A 
ATOM     17  C   UNL     1      24.996  28.032   6.344  1.00  0.00     0.158 A 
BRANCH  15  18
ATOM     18  O   UNL     1      27.306  28.415   5.744  1.00  0.00    -0.504 OA
ATOM     19  H   UNL     1      27.715  28.177   6.641  1.00  0.00     0.293 HD
ENDBRANCH  15  18
BRANCH  17  20
ATOM     20  O   UNL     1      25.263  28.493   7.632  1.00  0.00    -0.504 OA
ATOM     21  H   UNL     1      24.607  28.357   8.391  1.00  0.00     0.293 HD
ENDBRANCH  17  20
ENDBRANCH   1  12
BRANCH   2  22
ATOM     22  O   UNL     1      21.411  28.981   3.737  1.00  0.00    -0.502 OA
ATOM     23  H   UNL     1      21.859  29.483   4.494  1.00  0.00     0.293 HD
ENDBRANCH   2  22
BRANCH   9  24
ATOM     24  O   UNL     1      18.829  21.656   4.055  1.00  0.00    -0.508 OA
ATOM     25  H   UNL     1      19.530  20.957   3.836  1.00  0.00     0.293 HD
ENDBRANCH   9  24
TORSDOF 5
ENDMDL
MODEL 7
REMARK VINA RESULT:    -4.329      2.283      4.074
REMARK INTER + INTRA:          -5.161
REMARK INTER:                  -4.841
REMARK INTRA:                  -0.320
REMARK UNBOUND:                -0.072
REMARK SMILES O=c1c(O)c(-c2ccc(O)c(O)c2)oc2cc(O)ccc12
REMARK SMILES IDX 5 1 3 2 2 3 1 4 21 5 15 6 14 7 16 8 17 9 19 10 20 11 6 12
REMARK SMILES IDX 7 13 8 14 9 15 13 16 11 17 10 18 12 20 4 22 18 24
REMARK H PARENT 10 19 12 21 4 23 18 25
REMARK Flexibility Score: inf
ROOT
ATOM      1  C   UNL     1      25.348  25.811   5.639  1.00  0.00     0.180 A 
ATOM      2  C   UNL     1      26.626  25.398   6.070  1.00  0.00     0.208 A 
ATOM      3  C   UNL     1      26.929  24.027   6.069  1.00  0.00     0.235 A 
ATOM      4  O   UNL     1      28.062  23.632   6.460  1.00  0.00    -0.285 OA
ATOM      5  C   UNL     1      25.968  23.107   5.621  1.00  0.00     0.069 A 
ATOM      6  C   UNL     1      24.721  23.603   5.183  1.00  0.00     0.142 A 
ATOM      7  O   UNL     1      24.470  24.907   5.209  1.00  0.00    -0.452 OA
ATOM      8  C   UNL     1      23.740  22.719   4.720  1.00  0.00     0.094 A 
ATOM      9  C   UNL     1      23.990  21.340   4.692  1.00  0.00     0.119 A 
ATOM     10  C   UNL     1      25.224  20.846   5.128  1.00  0.00     0.047 A 
ATOM     11  C   UNL     1      26.211  21.722   5.591  1.00  0.00     0.020 A 
ENDROOT
BRANCH   1  12
ATOM     12  C   UNL     1      24.946  27.236   5.628  1.00  0.00     0.025 A 
ATOM     13  C   UNL     1      25.018  27.965   4.430  1.00  0.00     0.016 A 
ATOM     14  C   UNL     1      24.624  29.305   4.392  1.00  0.00     0.051 A 
ATOM     15  C   UNL     1      24.136  29.929   5.547  1.00  0.00     0.157 A 
ATOM     16  C   UNL     1      24.435  27.862   6.780  1.00  0.00     0.062 A 
ATOM     17  C   UNL     1      24.037  29.206   6.741  1.00  0.00     0.158 A 
BRANCH  15  18
ATOM     18  O   UNL     1      23.744  31.266   5.513  1.00  0.00    -0.504 OA
ATOM     19  H   UNL     1      23.380  31.692   4.668  1.00  0.00     0.293 HD
ENDBRANCH  15  18
BRANCH  17  20
ATOM     20  O   UNL     1      23.538  29.826   7.885  1.00  0.00    -0.504 OA
ATOM     21  H   UNL     1      23.648  29.413   8.804  1.00  0.00     0.293 HD
ENDBRANCH  17  20
ENDBRANCH   1  12
BRANCH   2  22
ATOM     22  O   UNL     1      27.580  26.340   6.464  1.00  0.00    -0.502 OA
ATOM     23  H   UNL     1      27.604  27.278   6.082  1.00  0.00     0.293 HD
ENDBRANCH   2  22
BRANCH   9  24
ATOM     24  O   UNL     1      23.018  20.453   4.234  1.00  0.00    -0.508 OA
ATOM     25  H   UNL     1      23.196  19.830   3.454  1.00  0.00     0.293 HD
ENDBRANCH   9  24
TORSDOF 5
ENDMDL
MODEL 8
REMARK VINA RESULT:    -4.170      2.987      3.609
REMARK INTER + INTRA:          -4.973
REMARK INTER:                  -4.791
REMARK INTRA:                  -0.183
REMARK UNBOUND:                -0.072
REMARK SMILES O=c1c(O)c(-c2ccc(O)c(O)c2)oc2cc(O)ccc12
REMARK SMILES IDX 5 1 3 2 2 3 1 4 21 5 15 6 14 7 16 8 17 9 19 10 20 11 6 12
REMARK SMILES IDX 7 13 8 14 9 15 13 16 11 17 10 18 12 20 4 22 18 24
REMARK H PARENT 10 19 12 21 4 23 18 25
REMARK Flexibility Score: inf
ROOT
ATOM      1  C   UNL     1      22.361  24.824   4.386  1.00  0.00     0.180 A 
ATOM      2  C   UNL     1      21.147  24.107   4.370  1.00  0.00     0.208 A 
ATOM      3  C   UNL     1      21.191  22.704   4.356  1.00  0.00     0.235 A 
ATOM      4  O   UNL     1      20.118  22.040   4.331  1.00  0.00    -0.285 OA
ATOM      5  C   UNL     1      22.433  22.051   4.377  1.00  0.00     0.069 A 
ATOM      6  C   UNL     1      23.603  22.841   4.417  1.00  0.00     0.142 A 
ATOM      7  O   UNL     1      23.518  24.166   4.421  1.00  0.00    -0.452 OA
ATOM      8  C   UNL     1      24.861  22.228   4.449  1.00  0.00     0.094 A 
ATOM      9  C   UNL     1      24.964  20.830   4.441  1.00  0.00     0.119 A 
ATOM     10  C   UNL     1      23.807  20.046   4.400  1.00  0.00     0.047 A 
ATOM     11  C   UNL     1      22.545  20.649   4.368  1.00  0.00     0.020 A 
ENDROOT
BRANCH   1  12
ATOM     12  C   UNL     1      22.399  26.304   4.383  1.00  0.00     0.025 A 
ATOM     13  C   UNL     1      21.944  27.004   3.254  1.00  0.00     0.016 A 
ATOM     14  C   UNL     1      21.951  28.402   3.237  1.00  0.00     0.051 A 
ATOM     15  C   UNL     1      22.397  29.118   4.355  1.00  0.00     0.157 A 
ATOM     16  C   UNL     1      22.826  27.029   5.511  1.00  0.00     0.062 A 
ATOM     17  C   UNL     1      22.831  28.431   5.495  1.00  0.00     0.158 A 
BRANCH  15  18
ATOM     18  O   UNL     1      22.408  30.512   4.342  1.00  0.00    -0.504 OA
ATOM     19  H   UNL     1      22.197  31.036   3.500  1.00  0.00     0.293 HD
ENDBRANCH  15  18
BRANCH  17  20
ATOM     20  O   UNL     1      23.262  29.147   6.611  1.00  0.00    -0.504 OA
ATOM     21  H   UNL     1      23.063  28.832   7.553  1.00  0.00     0.293 HD
ENDBRANCH  17  20
ENDBRANCH   1  12
BRANCH   2  22
ATOM     22  O   UNL     1      19.924  24.783   4.398  1.00  0.00    -0.502 OA
ATOM     23  H   UNL     1      19.742  25.546   5.039  1.00  0.00     0.293 HD
ENDBRANCH   2  22
BRANCH   9  24
ATOM     24  O   UNL     1      26.212  20.211   4.473  1.00  0.00    -0.508 OA
ATOM     25  H   UNL     1      26.320  19.226   4.260  1.00  0.00     0.293 HD
ENDBRANCH   9  24
TORSDOF 5
ENDMDL
MODEL 9
REMARK VINA RESULT:    -2.499      2.284      3.837
REMARK INTER + INTRA:          -3.010
REMARK INTER:                  -2.730
REMARK INTRA:                  -0.279
REMARK UNBOUND:                -0.072
REMARK SMILES O=c1c(O)c(-c2ccc(O)c(O)c2)oc2cc(O)ccc12
REMARK SMILES IDX 5 1 3 2 2 3 1 4 21 5 15 6 14 7 16 8 17 9 19 10 20 11 6 12
REMARK SMILES IDX 7 13 8 14 9 15 13 16 11 17 10 18 12 20 4 22 18 24
REMARK H PARENT 10 19 12 21 4 23 18 25
REMARK Flexibility Score: inf
ROOT
ATOM      1  C   UNL     1      23.022  27.279   4.757  1.00  0.00     0.180 A 
ATOM      2  C   UNL     1      23.621  26.501   5.769  1.00  0.00     0.208 A 
ATOM      3  C   UNL     1      23.093  25.230   6.047  1.00  0.00     0.235 A 
ATOM      4  O   UNL     1      23.605  24.519   6.955  1.00  0.00    -0.285 OA
ATOM      5  C   UNL     1      22.001  24.758   5.302  1.00  0.00     0.069 A 
ATOM      6  C   UNL     1      21.473  25.587   4.289  1.00  0.00     0.142 A 
ATOM      7  O   UNL     1      21.996  26.788   4.064  1.00  0.00    -0.452 OA
ATOM      8  C   UNL     1      20.391  25.149   3.518  1.00  0.00     0.094 A 
ATOM      9  C   UNL     1      19.827  23.887   3.748  1.00  0.00     0.119 A 
ATOM     10  C   UNL     1      20.347  23.063   4.752  1.00  0.00     0.047 A 
ATOM     11  C   UNL     1      21.428  23.492   5.527  1.00  0.00     0.020 A 
ENDROOT
BRANCH   1  12
ATOM     12  C   UNL     1      23.508  28.635   4.418  1.00  0.00     0.025 A 
ATOM     13  C   UNL     1      24.223  28.834   3.226  1.00  0.00     0.016 A 
ATOM     14  C   UNL     1      24.674  30.109   2.875  1.00  0.00     0.051 A 
ATOM     15  C   UNL     1      24.402  31.206   3.702  1.00  0.00     0.157 A 
ATOM     16  C   UNL     1      23.219  29.743   5.234  1.00  0.00     0.062 A 
ATOM     17  C   UNL     1      23.669  31.024   4.881  1.00  0.00     0.158 A 
BRANCH  15  18
ATOM     18  O   UNL     1      24.851  32.479   3.357  1.00  0.00    -0.504 OA
ATOM     19  H   UNL     1      25.095  33.165   4.062  1.00  0.00     0.293 HD
ENDBRANCH  15  18
BRANCH  17  20
ATOM     20  O   UNL     1      23.388  32.119   5.696  1.00  0.00    -0.504 OA
ATOM     21  H   UNL     1      23.259  32.018   6.696  1.00  0.00     0.293 HD
ENDBRANCH  17  20
ENDBRANCH   1  12
BRANCH   2  22
ATOM     22  O   UNL     1      24.737  26.977   6.461  1.00  0.00    -0.502 OA
ATOM     23  H   UNL     1      24.657  27.504   7.323  1.00  0.00     0.293 HD
ENDBRANCH   2  22
BRANCH   9  24
ATOM     24  O   UNL     1      18.749  23.442   2.985  1.00  0.00    -0.508 OA
ATOM     25  H   UNL     1      18.767  22.544   2.516  1.00  0.00     0.293 HD
ENDBRANCH   9  24
TORSDOF 5
ENDMDL
