MODEL 1
REMARK VINA RESULT:     0.125      0.000      0.000
REMARK INTER + INTRA:          -0.636
REMARK INTER:                   0.241
REMARK INTRA:                  -0.877
REMARK UNBOUND:                -0.877
REMARK SMILES CCCCCCCCCCCCCCCCCC(=O)[O-]
REMARK SMILES IDX 10 1 11 2 12 3 13 4 14 5 15 6 16 7 17 8 18 9 19 10 20 11
REMARK SMILES IDX 9 12 8 13 7 14 6 15 5 16 4 17 3 18 2 19 1 20
REMARK H PARENT
REMARK Flexibility Score: inf
ROOT
ATOM      1  C   UNL     1     142.015 173.657 176.405  1.00  0.00     0.000 C 
ENDROOT
BRANCH   1   2
ATOM      2  C   UNL     1     141.465 173.534 177.841  1.00  0.00     0.000 C 
BRANCH   2   3
ATOM      3  C   UNL     1     142.287 172.630 178.777  1.00  0.00     0.000 C 
BRANCH   3   4
ATOM      4  C   UNL     1     143.779 172.999 178.887  1.00  0.00     0.000 C 
BRANCH   4   5
ATOM      5  C   UNL     1     144.720 172.006 178.170  1.00  0.00     0.000 C 
BRANCH   5   6
ATOM      6  C   UNL     1     144.005 170.709 177.761  1.00  0.00     0.000 C 
BRANCH   6   7
ATOM      7  C   UNL     1     143.531 170.779 176.301  1.00  0.00     0.006 C 
BRANCH   7   8
ATOM      8  C   UNL     1     142.503 169.688 175.972  1.00  0.00     0.053 C 
BRANCH   8   9
ATOM      9  C   UNL     1     141.110 170.232 175.923  1.00  0.00     0.041 C 
ATOM     10  O   UNL     1     140.695 170.819 174.888  1.00  0.00    -0.550 OA
ATOM     11  O   UNL     1     140.280 170.122 177.031  1.00  0.00    -0.550 OA
ENDBRANCH   8   9
ENDBRANCH   7   8
ENDBRANCH   6   7
ENDBRANCH   5   6
ENDBRANCH   4   5
ENDBRANCH   3   4
ENDBRANCH   2   3
ENDBRANCH   1   2
BRANCH   1  12
ATOM     12  C   UNL     1     141.500 174.871 175.607  1.00  0.00     0.000 C 
BRANCH  12  13
ATOM     13  C   UNL     1     142.542 175.537 174.689  1.00  0.00    -0.000 C 
BRANCH  13  14
ATOM     14  C   UNL     1     142.599 174.901 173.292  1.00  0.00    -0.000 C 
BRANCH  14  15
ATOM     15  C   UNL     1     143.006 175.939 172.235  1.00  0.00    -0.000 C 
BRANCH  15  16
ATOM     16  C   UNL     1     142.958 175.378 170.804  1.00  0.00    -0.000 C 
BRANCH  16  17
ATOM     17  C   UNL     1     141.954 176.121 169.910  1.00  0.00    -0.000 C 
BRANCH  17  18
ATOM     18  C   UNL     1     140.559 175.486 170.008  1.00  0.00    -0.000 C 
BRANCH  18  19
ATOM     19  C   UNL     1     139.558 176.103 169.019  1.00  0.00    -0.003 C 
ATOM     20  C   UNL     1     138.410 175.155 168.673  1.00  0.00     0.004 C 
ENDBRANCH  18  19
ENDBRANCH  17  18
ENDBRANCH  16  17
ENDBRANCH  15  16
ENDBRANCH  14  15
ENDBRANCH  13  14
ENDBRANCH  12  13
ENDBRANCH   1  12
TORSDOF 16
ENDMDL
MODEL 2
REMARK VINA RESULT:     0.289      2.492      7.272
REMARK INTER + INTRA:          -0.318
REMARK INTER:                  -0.115
REMARK INTRA:                  -0.202
REMARK UNBOUND:                -0.877
REMARK SMILES CCCCCCCCCCCCCCCCCC(=O)[O-]
REMARK SMILES IDX 10 1 11 2 12 3 13 4 14 5 15 6 16 7 17 8 18 9 19 10 20 11
REMARK SMILES IDX 9 12 8 13 7 14 6 15 5 16 4 17 3 18 2 19 1 20
REMARK H PARENT
REMARK Flexibility Score: inf
ROOT
ATOM      1  C   UNL     1     142.332 173.748 176.562  1.00  0.00     0.000 C 
ENDROOT
BRANCH   1   2
ATOM      2  C   UNL     1     141.477 174.609 175.609  1.00  0.00     0.000 C 
BRANCH   2   3
ATOM      3  C   UNL     1     142.274 175.581 174.720  1.00  0.00     0.000 C 
BRANCH   3   4
ATOM      4  C   UNL     1     142.819 174.968 173.416  1.00  0.00     0.000 C 
BRANCH   4   5
ATOM      5  C   UNL     1     143.708 175.931 172.600  1.00  0.00     0.000 C 
BRANCH   5   6
ATOM      6  C   UNL     1     143.237 176.079 171.146  1.00  0.00     0.000 C 
BRANCH   6   7
ATOM      7  C   UNL     1     141.719 175.869 171.036  1.00  0.00     0.006 C 
BRANCH   7   8
ATOM      8  C   UNL     1     141.200 176.125 169.615  1.00  0.00     0.053 C 
BRANCH   8   9
ATOM      9  C   UNL     1     139.945 175.358 169.334  1.00  0.00     0.041 C 
ATOM     10  O   UNL     1     139.807 174.186 169.774  1.00  0.00    -0.550 OA
ATOM     11  O   UNL     1     138.942 175.925 168.558  1.00  0.00    -0.550 OA
ENDBRANCH   8   9
ENDBRANCH   7   8
ENDBRANCH   6   7
ENDBRANCH   5   6
ENDBRANCH   4   5
ENDBRANCH   3   4
ENDBRANCH   2   3
ENDBRANCH   1   2
BRANCH   1  12
ATOM     12  C   UNL     1     141.974 173.870 178.056  1.00  0.00     0.000 C 
BRANCH  12  13
ATOM     13  C   UNL     1     142.578 172.782 178.962  1.00  0.00    -0.000 C 
BRANCH  13  14
ATOM     14  C   UNL     1     144.093 172.617 178.766  1.00  0.00    -0.000 C 
BRANCH  14  15
ATOM     15  C   UNL     1     144.394 171.808 177.495  1.00  0.00    -0.000 C 
BRANCH  15  16
ATOM     16  C   UNL     1     143.342 170.722 177.220  1.00  0.00    -0.000 C 
BRANCH  16  17
ATOM     17  C   UNL     1     142.684 170.870 175.840  1.00  0.00    -0.000 C 
BRANCH  17  18
ATOM     18  C   UNL     1     141.158 170.723 175.943  1.00  0.00    -0.000 C 
BRANCH  18  19
ATOM     19  C   UNL     1     140.714 170.082 177.267  1.00  0.00    -0.003 C 
ATOM     20  C   UNL     1     139.657 170.908 177.999  1.00  0.00     0.004 C 
ENDBRANCH  18  19
ENDBRANCH  17  18
ENDBRANCH  16  17
ENDBRANCH  15  16
ENDBRANCH  14  15
ENDBRANCH  13  14
ENDBRANCH  12  13
ENDBRANCH   1  12
TORSDOF 16
ENDMDL
MODEL 3
REMARK VINA RESULT:     0.854      3.007      4.447
REMARK INTER + INTRA:           0.776
REMARK INTER:                   1.248
REMARK INTRA:                  -0.472
REMARK UNBOUND:                -0.877
REMARK SMILES CCCCCCCCCCCCCCCCCC(=O)[O-]
REMARK SMILES IDX 10 1 11 2 12 3 13 4 14 5 15 6 16 7 17 8 18 9 19 10 20 11
REMARK SMILES IDX 9 12 8 13 7 14 6 15 5 16 4 17 3 18 2 19 1 20
REMARK H PARENT
REMARK Flexibility Score: inf
ROOT
ATOM      1  C   UNL     1     141.917 172.505 177.877  1.00  0.00     0.000 C 
ENDROOT
BRANCH   1   2
ATOM      2  C   UNL     1     140.730 171.570 178.190  1.00  0.00     0.000 C 
BRANCH   2   3
ATOM      3  C   UNL     1     140.490 170.456 177.154  1.00  0.00     0.000 C 
BRANCH   3   4
ATOM      4  C   UNL     1     141.004 170.769 175.736  1.00  0.00     0.000 C 
BRANCH   4   5
ATOM      5  C   UNL     1     142.458 170.313 175.487  1.00  0.00     0.000 C 
BRANCH   5   6
ATOM      6  C   UNL     1     142.993 169.413 176.611  1.00  0.00     0.000 C 
BRANCH   6   7
ATOM      7  C   UNL     1     144.356 169.913 177.114  1.00  0.00     0.006 C 
BRANCH   7   8
ATOM      8  C   UNL     1     144.349 171.418 177.412  1.00  0.00     0.053 C 
BRANCH   8   9
ATOM      9  C   UNL     1     145.234 171.760 178.570  1.00  0.00     0.041 C 
ATOM     10  O   UNL     1     145.938 170.870 179.115  1.00  0.00    -0.550 OA
ATOM     11  O   UNL     1     145.256 173.056 179.070  1.00  0.00    -0.550 OA
ENDBRANCH   8   9
ENDBRANCH   7   8
ENDBRANCH   6   7
ENDBRANCH   5   6
ENDBRANCH   4   5
ENDBRANCH   3   4
ENDBRANCH   2   3
ENDBRANCH   1   2
BRANCH   1  12
ATOM     12  C   UNL     1     141.546 173.985 177.661  1.00  0.00     0.000 C 
BRANCH  12  13
ATOM     13  C   UNL     1     142.210 174.651 176.442  1.00  0.00    -0.000 C 
BRANCH  13  14
ATOM     14  C   UNL     1     141.641 174.150 175.105  1.00  0.00    -0.000 C 
BRANCH  14  15
ATOM     15  C   UNL     1     141.891 175.174 173.987  1.00  0.00    -0.000 C 
BRANCH  15  16
ATOM     16  C   UNL     1     143.106 174.814 173.115  1.00  0.00    -0.000 C 
BRANCH  16  17
ATOM     17  C   UNL     1     143.512 175.952 172.166  1.00  0.00    -0.000 C 
BRANCH  17  18
ATOM     18  C   UNL     1     145.038 176.125 172.142  1.00  0.00    -0.000 C 
BRANCH  18  19
ATOM     19  C   UNL     1     145.678 175.920 173.523  1.00  0.00    -0.003 C 
ATOM     20  C   UNL     1     147.203 175.830 173.461  1.00  0.00     0.004 C 
ENDBRANCH  18  19
ENDBRANCH  17  18
ENDBRANCH  16  17
ENDBRANCH  15  16
ENDBRANCH  14  15
ENDBRANCH  13  14
ENDBRANCH  12  13
ENDBRANCH   1  12
TORSDOF 16
ENDMDL
MODEL 4
REMARK VINA RESULT:     0.878      3.341      6.939
REMARK INTER + INTRA:           0.822
REMARK INTER:                   0.999
REMARK INTRA:                  -0.177
REMARK UNBOUND:                -0.877
REMARK SMILES CCCCCCCCCCCCCCCCCC(=O)[O-]
REMARK SMILES IDX 10 1 11 2 12 3 13 4 14 5 15 6 16 7 17 8 18 9 19 10 20 11
REMARK SMILES IDX 9 12 8 13 7 14 6 15 5 16 4 17 3 18 2 19 1 20
REMARK H PARENT
REMARK Flexibility Score: inf
ROOT
ATOM      1  C   UNL     1     142.460 172.700 179.081  1.00  0.00     0.000 C 
ENDROOT
BRANCH   1   2
ATOM      2  C   UNL     1     141.636 173.528 178.073  1.00  0.00     0.000 C 
BRANCH   2   3
ATOM      3  C   UNL     1     142.418 174.016 176.840  1.00  0.00     0.000 C 
BRANCH   3   4
ATOM      4  C   UNL     1     141.544 174.533 175.682  1.00  0.00     0.000 C 
BRANCH   4   5
ATOM      5  C   UNL     1     141.738 173.756 174.361  1.00  0.00     0.000 C 
BRANCH   5   6
ATOM      6  C   UNL     1     142.066 174.678 173.178  1.00  0.00     0.000 C 
BRANCH   6   7
ATOM      7  C   UNL     1     143.152 175.697 173.558  1.00  0.00     0.006 C 
BRANCH   7   8
ATOM      8  C   UNL     1     144.009 176.107 172.354  1.00  0.00     0.053 C 
BRANCH   8   9
ATOM      9  C   UNL     1     145.472 176.035 172.662  1.00  0.00     0.041 C 
ATOM     10  O   UNL     1     145.864 175.924 173.853  1.00  0.00    -0.550 OA
ATOM     11  O   UNL     1     146.405 176.125 171.636  1.00  0.00    -0.550 OA
ENDBRANCH   8   9
ENDBRANCH   7   8
ENDBRANCH   6   7
ENDBRANCH   5   6
ENDBRANCH   4   5
ENDBRANCH   3   4
ENDBRANCH   2   3
ENDBRANCH   1   2
BRANCH   1  12
ATOM     12  C   UNL     1     143.965 173.029 179.125  1.00  0.00     0.000 C 
BRANCH  12  13
ATOM     13  C   UNL     1     144.899 171.860 178.762  1.00  0.00    -0.000 C 
BRANCH  13  14
ATOM     14  C   UNL     1     144.880 171.525 177.263  1.00  0.00    -0.000 C 
BRANCH  14  15
ATOM     15  C   UNL     1     143.899 170.379 176.971  1.00  0.00    -0.000 C 
BRANCH  15  16
ATOM     16  C   UNL     1     142.708 170.824 176.106  1.00  0.00    -0.000 C 
BRANCH  16  17
ATOM     17  C   UNL     1     141.996 169.645 175.426  1.00  0.00    -0.000 C 
BRANCH  17  18
ATOM     18  C   UNL     1     141.207 168.817 176.453  1.00  0.00    -0.000 C 
BRANCH  18  19
ATOM     19  C   UNL     1     140.562 169.687 177.542  1.00  0.00    -0.003 C 
ATOM     20  C   UNL     1     140.123 171.056 177.023  1.00  0.00     0.004 C 
ENDBRANCH  18  19
ENDBRANCH  17  18
ENDBRANCH  16  17
ENDBRANCH  15  16
ENDBRANCH  14  15
ENDBRANCH  13  14
ENDBRANCH  12  13
ENDBRANCH   1  12
TORSDOF 16
ENDMDL
MODEL 5
REMARK VINA RESULT:     1.221      3.518      7.362
REMARK INTER + INTRA:           1.485
REMARK INTER:                   2.113
REMARK INTRA:                  -0.628
REMARK UNBOUND:                -0.877
REMARK SMILES CCCCCCCCCCCCCCCCCC(=O)[O-]
REMARK SMILES IDX 10 1 11 2 12 3 13 4 14 5 15 6 16 7 17 8 18 9 19 10 20 11
REMARK SMILES IDX 9 12 8 13 7 14 6 15 5 16 4 17 3 18 2 19 1 20
REMARK H PARENT
REMARK Flexibility Score: inf
ROOT
ATOM      1  C   UNL     1     142.084 171.974 178.364  1.00  0.00     0.000 C 
ENDROOT
BRANCH   1   2
ATOM      2  C   UNL     1     142.143 173.505 178.186  1.00  0.00     0.000 C 
BRANCH   2   3
ATOM      3  C   UNL     1     140.983 174.110 177.374  1.00  0.00     0.000 C 
BRANCH   3   4
ATOM      4  C   UNL     1     141.403 175.165 176.333  1.00  0.00     0.000 C 
BRANCH   4   5
ATOM      5  C   UNL     1     141.779 174.570 174.959  1.00  0.00     0.000 C 
BRANCH   5   6
ATOM      6  C   UNL     1     142.262 175.638 173.967  1.00  0.00     0.000 C 
BRANCH   6   7
ATOM      7  C   UNL     1     143.254 175.042 172.957  1.00  0.00     0.006 C 
BRANCH   7   8
ATOM      8  C   UNL     1     144.067 176.124 172.233  1.00  0.00     0.053 C 
BRANCH   8   9
ATOM      9  C   UNL     1     145.506 176.107 172.643  1.00  0.00     0.041 C 
ATOM     10  O   UNL     1     146.414 176.108 171.770  1.00  0.00    -0.550 OA
ATOM     11  O   UNL     1     145.846 176.057 173.989  1.00  0.00    -0.550 OA
ENDBRANCH   8   9
ENDBRANCH   7   8
ENDBRANCH   6   7
ENDBRANCH   5   6
ENDBRANCH   4   5
ENDBRANCH   3   4
ENDBRANCH   2   3
ENDBRANCH   1   2
BRANCH   1  12
ATOM     12  C   UNL     1     140.697 171.340 178.141  1.00  0.00     0.000 C 
BRANCH  12  13
ATOM     13  C   UNL     1     140.515 170.630 176.787  1.00  0.00    -0.000 C 
BRANCH  13  14
ATOM     14  C   UNL     1     141.396 171.224 175.679  1.00  0.00    -0.000 C 
BRANCH  14  15
ATOM     15  C   UNL     1     142.522 170.252 175.295  1.00  0.00    -0.000 C 
BRANCH  15  16
ATOM     16  C   UNL     1     142.778 169.186 176.372  1.00  0.00    -0.000 C 
BRANCH  16  17
ATOM     17  C   UNL     1     144.168 169.313 177.014  1.00  0.00    -0.000 C 
BRANCH  17  18
ATOM     18  C   UNL     1     144.525 170.787 177.257  1.00  0.00    -0.000 C 
BRANCH  18  19
ATOM     19  C   UNL     1     145.392 170.987 178.509  1.00  0.00    -0.003 C 
ATOM     20  C   UNL     1     145.566 172.459 178.879  1.00  0.00     0.004 C 
ENDBRANCH  18  19
ENDBRANCH  17  18
ENDBRANCH  16  17
ENDBRANCH  15  16
ENDBRANCH  14  15
ENDBRANCH  13  14
ENDBRANCH  12  13
ENDBRANCH   1  12
TORSDOF 16
ENDMDL
MODEL 6
REMARK VINA RESULT:     1.348      3.631      8.021
REMARK INTER + INTRA:           1.731
REMARK INTER:                   3.232
REMARK INTRA:                  -1.501
REMARK UNBOUND:                -0.877
REMARK SMILES CCCCCCCCCCCCCCCCCC(=O)[O-]
REMARK SMILES IDX 10 1 11 2 12 3 13 4 14 5 15 6 16 7 17 8 18 9 19 10 20 11
REMARK SMILES IDX 9 12 8 13 7 14 6 15 5 16 4 17 3 18 2 19 1 20
REMARK H PARENT
REMARK Flexibility Score: inf
ROOT
ATOM      1  C   UNL     1     141.861 174.609 173.608  1.00  0.00     0.000 C 
ENDROOT
BRANCH   1   2
ATOM      2  C   UNL     1     143.166 175.431 173.578  1.00  0.00     0.000 C 
BRANCH   2   3
ATOM      3  C   UNL     1     143.578 175.946 172.186  1.00  0.00     0.000 C 
BRANCH   3   4
ATOM      4  C   UNL     1     142.415 176.125 171.192  1.00  0.00     0.000 C 
BRANCH   4   5
ATOM      5  C   UNL     1     142.776 175.749 169.738  1.00  0.00     0.000 C 
BRANCH   5   6
ATOM      6  C   UNL     1     142.365 174.313 169.383  1.00  0.00     0.000 C 
BRANCH   6   7
ATOM      7  C   UNL     1     143.593 173.459 169.033  1.00  0.00     0.006 C 
BRANCH   7   8
ATOM      8  C   UNL     1     143.326 172.512 167.856  1.00  0.00     0.053 C 
BRANCH   8   9
ATOM      9  C   UNL     1     144.500 172.430 166.930  1.00  0.00     0.041 C 
ATOM     10  O   UNL     1     145.646 172.172 167.382  1.00  0.00    -0.550 OA
ATOM     11  O   UNL     1     144.334 172.672 165.572  1.00  0.00    -0.550 OA
ENDBRANCH   8   9
ENDBRANCH   7   8
ENDBRANCH   6   7
ENDBRANCH   5   6
ENDBRANCH   4   5
ENDBRANCH   3   4
ENDBRANCH   2   3
ENDBRANCH   1   2
BRANCH   1  12
ATOM     12  C   UNL     1     141.393 174.172 175.009  1.00  0.00     0.000 C 
BRANCH  12  13
ATOM     13  C   UNL     1     142.506 174.076 176.068  1.00  0.00    -0.000 C 
BRANCH  13  14
ATOM     14  C   UNL     1     141.959 173.954 177.499  1.00  0.00    -0.000 C 
BRANCH  14  15
ATOM     15  C   UNL     1     142.693 172.847 178.272  1.00  0.00    -0.000 C 
BRANCH  15  16
ATOM     16  C   UNL     1     141.735 171.794 178.852  1.00  0.00    -0.000 C 
BRANCH  16  17
ATOM     17  C   UNL     1     140.461 171.624 178.010  1.00  0.00    -0.000 C 
BRANCH  17  18
ATOM     18  C   UNL     1     140.542 170.356 177.147  1.00  0.00    -0.000 C 
BRANCH  18  19
ATOM     19  C   UNL     1     141.136 170.624 175.756  1.00  0.00    -0.003 C 
ATOM     20  C   UNL     1     142.605 170.215 175.652  1.00  0.00     0.004 C 
ENDBRANCH  18  19
ENDBRANCH  17  18
ENDBRANCH  16  17
ENDBRANCH  15  16
ENDBRANCH  14  15
ENDBRANCH  13  14
ENDBRANCH  12  13
ENDBRANCH   1  12
TORSDOF 16
ENDMDL
MODEL 7
REMARK VINA RESULT:     1.425      2.258      3.467
REMARK INTER + INTRA:           1.880
REMARK INTER:                   2.051
REMARK INTRA:                  -0.171
REMARK UNBOUND:                -0.877
REMARK SMILES CCCCCCCCCCCCCCCCCC(=O)[O-]
REMARK SMILES IDX 10 1 11 2 12 3 13 4 14 5 15 6 16 7 17 8 18 9 19 10 20 11
REMARK SMILES IDX 9 12 8 13 7 14 6 15 5 16 4 17 3 18 2 19 1 20
REMARK H PARENT
REMARK Flexibility Score: inf
ROOT
ATOM      1  C   UNL     1     141.880 172.374 178.113  1.00  0.00     0.000 C 
ENDROOT
BRANCH   1   2
ATOM      2  C   UNL     1     140.716 171.387 178.337  1.00  0.00     0.000 C 
BRANCH   2   3
ATOM      3  C   UNL     1     140.470 170.400 177.181  1.00  0.00     0.000 C 
BRANCH   3   4
ATOM      4  C   UNL     1     140.919 170.900 175.795  1.00  0.00     0.000 C 
BRANCH   4   5
ATOM      5  C   UNL     1     142.328 170.418 175.387  1.00  0.00     0.000 C 
BRANCH   5   6
ATOM      6  C   UNL     1     142.945 169.461 176.418  1.00  0.00     0.000 C 
BRANCH   6   7
ATOM      7  C   UNL     1     144.299 169.988 176.917  1.00  0.00     0.006 C 
BRANCH   7   8
ATOM      8  C   UNL     1     144.218 171.446 177.388  1.00  0.00     0.053 C 
BRANCH   8   9
ATOM      9  C   UNL     1     145.145 171.714 178.533  1.00  0.00     0.041 C 
ATOM     10  O   UNL     1     145.776 170.767 179.072  1.00  0.00    -0.550 OA
ATOM     11  O   UNL     1     145.286 173.005 179.026  1.00  0.00    -0.550 OA
ENDBRANCH   8   9
ENDBRANCH   7   8
ENDBRANCH   6   7
ENDBRANCH   5   6
ENDBRANCH   4   5
ENDBRANCH   3   4
ENDBRANCH   2   3
ENDBRANCH   1   2
BRANCH   1  12
ATOM     12  C   UNL     1     141.467 173.849 177.950  1.00  0.00     0.000 C 
BRANCH  12  13
ATOM     13  C   UNL     1     142.126 174.584 176.768  1.00  0.00    -0.000 C 
BRANCH  13  14
ATOM     14  C   UNL     1     141.600 174.111 175.404  1.00  0.00    -0.000 C 
BRANCH  14  15
ATOM     15  C   UNL     1     141.929 175.135 174.306  1.00  0.00    -0.000 C 
BRANCH  15  16
ATOM     16  C   UNL     1     143.085 174.681 173.401  1.00  0.00    -0.000 C 
BRANCH  16  17
ATOM     17  C   UNL     1     143.466 175.737 172.352  1.00  0.00    -0.000 C 
BRANCH  17  18
ATOM     18  C   UNL     1     142.248 176.124 171.499  1.00  0.00    -0.000 C 
BRANCH  18  19
ATOM     19  C   UNL     1     142.218 175.394 170.147  1.00  0.00    -0.003 C 
ATOM     20  C   UNL     1     140.833 174.846 169.803  1.00  0.00     0.004 C 
ENDBRANCH  18  19
ENDBRANCH  17  18
ENDBRANCH  16  17
ENDBRANCH  15  16
ENDBRANCH  14  15
ENDBRANCH  13  14
ENDBRANCH  12  13
ENDBRANCH   1  12
TORSDOF 16
ENDMDL
MODEL 8
REMARK VINA RESULT:     1.703      2.994      7.499
REMARK INTER + INTRA:           2.418
REMARK INTER:                   1.702
REMARK INTRA:                   0.716
REMARK UNBOUND:                -0.877
REMARK SMILES CCCCCCCCCCCCCCCCCC(=O)[O-]
REMARK SMILES IDX 10 1 11 2 12 3 13 4 14 5 15 6 16 7 17 8 18 9 19 10 20 11
REMARK SMILES IDX 9 12 8 13 7 14 6 15 5 16 4 17 3 18 2 19 1 20
REMARK H PARENT
REMARK Flexibility Score: inf
ROOT
ATOM      1  C   UNL     1     141.918 172.175 178.419  1.00  0.00     0.000 C 
ENDROOT
BRANCH   1   2
ATOM      2  C   UNL     1     141.804 173.713 178.409  1.00  0.00     0.000 C 
BRANCH   2   3
ATOM      3  C   UNL     1     141.278 174.317 177.094  1.00  0.00     0.000 C 
BRANCH   3   4
ATOM      4  C   UNL     1     142.339 174.490 175.991  1.00  0.00     0.000 C 
BRANCH   4   5
ATOM      5  C   UNL     1     141.834 175.272 174.759  1.00  0.00     0.000 C 
BRANCH   5   6
ATOM      6  C   UNL     1     142.863 175.304 173.620  1.00  0.00     0.000 C 
BRANCH   6   7
ATOM      7  C   UNL     1     142.343 176.125 172.430  1.00  0.00     0.006 C 
BRANCH   7   8
ATOM      8  C   UNL     1     143.194 175.925 171.169  1.00  0.00     0.053 C 
BRANCH   8   9
ATOM      9  C   UNL     1     142.377 176.042 169.920  1.00  0.00     0.041 C 
ATOM     10  O   UNL     1     142.942 176.120 168.798  1.00  0.00    -0.550 OA
ATOM     11  O   UNL     1     140.991 176.100 169.998  1.00  0.00    -0.550 OA
ENDBRANCH   8   9
ENDBRANCH   7   8
ENDBRANCH   6   7
ENDBRANCH   5   6
ENDBRANCH   4   5
ENDBRANCH   3   4
ENDBRANCH   2   3
ENDBRANCH   1   2
BRANCH   1  12
ATOM     12  C   UNL     1     140.616 171.419 178.089  1.00  0.00     0.000 C 
BRANCH  12  13
ATOM     13  C   UNL     1     140.567 170.787 176.686  1.00  0.00    -0.000 C 
BRANCH  13  14
ATOM     14  C   UNL     1     141.795 171.137 175.831  1.00  0.00    -0.000 C 
BRANCH  14  15
ATOM     15  C   UNL     1     142.752 169.940 175.733  1.00  0.00    -0.000 C 
BRANCH  15  16
ATOM     16  C   UNL     1     143.492 169.663 177.051  1.00  0.00    -0.000 C 
BRANCH  16  17
ATOM     17  C   UNL     1     144.778 170.491 177.195  1.00  0.00    -0.000 C 
BRANCH  17  18
ATOM     18  C   UNL     1     144.453 171.945 177.569  1.00  0.00    -0.000 C 
BRANCH  18  19
ATOM     19  C   UNL     1     144.960 172.322 178.969  1.00  0.00    -0.003 C 
ATOM     20  C   UNL     1     146.474 172.176 179.109  1.00  0.00     0.004 C 
ENDBRANCH  18  19
ENDBRANCH  17  18
ENDBRANCH  16  17
ENDBRANCH  15  16
ENDBRANCH  14  15
ENDBRANCH  13  14
ENDBRANCH  12  13
ENDBRANCH   1  12
TORSDOF 16
ENDMDL
