MODEL 1
REMARK VINA RESULT:    -5.021      0.000      0.000
REMARK INTER + INTRA:          -5.581
REMARK INTER:                  -5.315
REMARK INTRA:                  -0.266
REMARK UNBOUND:                -0.266
REMARK SMILES O=c1cc(-c2ccccc2)oc2ccccc12
REMARK SMILES IDX 4 1 3 2 2 3 1 4 17 5 16 6 15 7 14 8 13 9 12 10 11 11 5 12
REMARK SMILES IDX 8 13 7 14 9 15 6 16 10 17
REMARK H PARENT
REMARK Flexibility Score: inf
ROOT
ATOM      1  C   UNL     1      -6.377  -1.525 -10.871  1.00  0.00     0.138 A 
ATOM      2  C   UNL     1      -5.930  -0.808 -12.000  1.00  0.00     0.100 A 
ATOM      3  C   UNL     1      -6.274  -1.251 -13.278  1.00  0.00     0.193 A 
ATOM      4  O   UNL     1      -5.874  -0.608 -14.287  1.00  0.00    -0.289 OA
ATOM      5  C   UNL     1      -7.060  -2.403 -13.422  1.00  0.00     0.065 A 
ATOM      6  C   UNL     1      -7.442  -2.901 -14.680  1.00  0.00     0.016 A 
ATOM      7  C   UNL     1      -8.226  -4.056 -14.767  1.00  0.00     0.001 A 
ATOM      8  C   UNL     1      -8.634  -4.718 -13.604  1.00  0.00     0.004 A 
ATOM      9  C   UNL     1      -8.259  -4.229 -12.350  1.00  0.00     0.048 A 
ATOM     10  C   UNL     1      -7.474  -3.074 -12.252  1.00  0.00     0.138 A 
ATOM     11  O   UNL     1      -7.123  -2.617 -11.054  1.00  0.00    -0.456 OA
ENDROOT
BRANCH   1  12
ATOM     12  C   UNL     1      -6.054  -1.120  -9.468  1.00  0.00     0.017 A 
ATOM     13  C   UNL     1      -5.396  -0.277  -6.856  1.00  0.00     0.000 A 
ATOM     14  C   UNL     1      -6.158  -1.430  -7.047  1.00  0.00     0.001 A 
ATOM     15  C   UNL     1      -4.960   0.458  -7.957  1.00  0.00     0.001 A 
ATOM     16  C   UNL     1      -6.486  -1.852  -8.339  1.00  0.00     0.012 A 
ATOM     17  C   UNL     1      -5.284   0.042  -9.251  1.00  0.00     0.012 A 
ENDBRANCH   1  12
TORSDOF 1
ENDMDL
MODEL 2
REMARK VINA RESULT:    -4.997     12.890     14.592
REMARK INTER + INTRA:          -5.556
REMARK INTER:                  -5.290
REMARK INTRA:                  -0.266
REMARK UNBOUND:                -0.266
REMARK SMILES O=c1cc(-c2ccccc2)oc2ccccc12
REMARK SMILES IDX 4 1 3 2 2 3 1 4 17 5 16 6 15 7 14 8 13 9 12 10 11 11 5 12
REMARK SMILES IDX 8 13 7 14 9 15 6 16 10 17
REMARK H PARENT
REMARK Flexibility Score: inf
ROOT
ATOM      1  C   UNL     1       6.681   1.504 -11.141  1.00  0.00     0.138 A 
ATOM      2  C   UNL     1       6.152   0.841 -12.268  1.00  0.00     0.100 A 
ATOM      3  C   UNL     1       6.492   1.280 -13.548  1.00  0.00     0.193 A 
ATOM      4  O   UNL     1       6.018   0.686 -14.555  1.00  0.00    -0.289 OA
ATOM      5  C   UNL     1       7.355   2.374 -13.697  1.00  0.00     0.065 A 
ATOM      6  C   UNL     1       7.737   2.866 -14.958  1.00  0.00     0.016 A 
ATOM      7  C   UNL     1       8.602   3.962 -15.050  1.00  0.00     0.001 A 
ATOM      8  C   UNL     1       9.090   4.572 -13.889  1.00  0.00     0.004 A 
ATOM      9  C   UNL     1       8.715   4.089 -12.632  1.00  0.00     0.048 A 
ATOM     10  C   UNL     1       7.850   2.993 -12.530  1.00  0.00     0.138 A 
ATOM     11  O   UNL     1       7.500   2.541 -11.329  1.00  0.00    -0.456 OA
ENDROOT
BRANCH   1  12
ATOM     12  C   UNL     1       6.369   1.099  -9.736  1.00  0.00     0.017 A 
ATOM     13  C   UNL     1       5.728   0.258  -7.119  1.00  0.00     0.000 A 
ATOM     14  C   UNL     1       6.525   1.386  -7.315  1.00  0.00     0.001 A 
ATOM     15  C   UNL     1       5.249  -0.453  -8.218  1.00  0.00     0.001 A 
ATOM     16  C   UNL     1       6.845   1.807  -8.610  1.00  0.00     0.012 A 
ATOM     17  C   UNL     1       5.564  -0.039  -9.514  1.00  0.00     0.012 A 
ENDBRANCH   1  12
TORSDOF 1
ENDMDL
MODEL 3
REMARK VINA RESULT:    -4.906      1.241      2.405
REMARK INTER + INTRA:          -5.459
REMARK INTER:                  -5.197
REMARK INTRA:                  -0.262
REMARK UNBOUND:                -0.266
REMARK SMILES O=c1cc(-c2ccccc2)oc2ccccc12
REMARK SMILES IDX 4 1 3 2 2 3 1 4 17 5 16 6 15 7 14 8 13 9 12 10 11 11 5 12
REMARK SMILES IDX 8 13 7 14 9 15 6 16 10 17
REMARK H PARENT
REMARK Flexibility Score: inf
ROOT
ATOM      1  C   UNL     1      -6.312  -1.593 -10.509  1.00  0.00     0.138 A 
ATOM      2  C   UNL     1      -6.755  -2.915 -10.727  1.00  0.00     0.100 A 
ATOM      3  C   UNL     1      -7.086  -3.325 -12.019  1.00  0.00     0.193 A 
ATOM      4  O   UNL     1      -7.482  -4.507 -12.213  1.00  0.00    -0.289 OA
ATOM      5  C   UNL     1      -6.975  -2.418 -13.082  1.00  0.00     0.065 A 
ATOM      6  C   UNL     1      -7.293  -2.768 -14.407  1.00  0.00     0.016 A 
ATOM      7  C   UNL     1      -7.165  -1.823 -15.431  1.00  0.00     0.001 A 
ATOM      8  C   UNL     1      -6.719  -0.529 -15.142  1.00  0.00     0.004 A 
ATOM      9  C   UNL     1      -6.401  -0.174 -13.828  1.00  0.00     0.048 A 
ATOM     10  C   UNL     1      -6.526  -1.112 -12.796  1.00  0.00     0.138 A 
ATOM     11  O   UNL     1      -6.220  -0.763 -11.550  1.00  0.00    -0.456 OA
ENDROOT
BRANCH   1  12
ATOM     12  C   UNL     1      -5.936  -1.072  -9.158  1.00  0.00     0.017 A 
ATOM     13  C   UNL     1      -5.180  -0.014  -6.653  1.00  0.00     0.000 A 
ATOM     14  C   UNL     1      -5.951  -1.175  -6.717  1.00  0.00     0.001 A 
ATOM     15  C   UNL     1      -4.783   0.622  -7.828  1.00  0.00     0.001 A 
ATOM     16  C   UNL     1      -6.328  -1.703  -7.956  1.00  0.00     0.012 A 
ATOM     17  C   UNL     1      -5.156   0.100  -9.069  1.00  0.00     0.012 A 
ENDBRANCH   1  12
TORSDOF 1
ENDMDL
MODEL 4
REMARK VINA RESULT:    -4.821     12.276     13.695
REMARK INTER + INTRA:          -5.369
REMARK INTER:                  -5.113
REMARK INTRA:                  -0.256
REMARK UNBOUND:                -0.266
REMARK SMILES O=c1cc(-c2ccccc2)oc2ccccc12
REMARK SMILES IDX 4 1 3 2 2 3 1 4 17 5 16 6 15 7 14 8 13 9 12 10 11 11 5 12
REMARK SMILES IDX 8 13 7 14 9 15 6 16 10 17
REMARK H PARENT
REMARK Flexibility Score: inf
ROOT
ATOM      1  C   UNL     1       6.411   1.306 -10.766  1.00  0.00     0.138 A 
ATOM      2  C   UNL     1       7.113   2.515 -10.959  1.00  0.00     0.100 A 
ATOM      3  C   UNL     1       7.485   2.896 -12.249  1.00  0.00     0.193 A 
ATOM      4  O   UNL     1       8.113   3.977 -12.420  1.00  0.00    -0.289 OA
ATOM      5  C   UNL     1       7.157   2.073 -13.335  1.00  0.00     0.065 A 
ATOM      6  C   UNL     1       7.503   2.400 -14.659  1.00  0.00     0.016 A 
ATOM      7  C   UNL     1       7.151   1.541 -15.706  1.00  0.00     0.001 A 
ATOM      8  C   UNL     1       6.454   0.358 -15.441  1.00  0.00     0.004 A 
ATOM      9  C   UNL     1       6.107   0.026 -14.129  1.00  0.00     0.048 A 
ATOM     10  C   UNL     1       6.454   0.878 -13.074  1.00  0.00     0.138 A 
ATOM     11  O   UNL     1       6.119   0.553 -11.829  1.00  0.00    -0.456 OA
ENDROOT
BRANCH   1  12
ATOM     12  C   UNL     1       5.974   0.824  -9.420  1.00  0.00     0.017 A 
ATOM     13  C   UNL     1       5.227  -0.040  -6.839  1.00  0.00     0.000 A 
ATOM     14  C   UNL     1       4.456  -0.397  -7.945  1.00  0.00     0.001 A 
ATOM     15  C   UNL     1       6.366   0.744  -7.009  1.00  0.00     0.001 A 
ATOM     16  C   UNL     1       4.822   0.028  -9.226  1.00  0.00     0.012 A 
ATOM     17  C   UNL     1       6.739   1.172  -8.286  1.00  0.00     0.012 A 
ENDBRANCH   1  12
TORSDOF 1
ENDMDL
MODEL 5
REMARK VINA RESULT:    -4.800     12.706     14.440
REMARK INTER + INTRA:          -5.347
REMARK INTER:                  -5.082
REMARK INTRA:                  -0.266
REMARK UNBOUND:                -0.266
REMARK SMILES O=c1cc(-c2ccccc2)oc2ccccc12
REMARK SMILES IDX 4 1 3 2 2 3 1 4 17 5 16 6 15 7 14 8 13 9 12 10 11 11 5 12
REMARK SMILES IDX 8 13 7 14 9 15 6 16 10 17
REMARK H PARENT
REMARK Flexibility Score: inf
ROOT
ATOM      1  C   UNL     1       6.420   1.645 -10.957  1.00  0.00     0.138 A 
ATOM      2  C   UNL     1       6.681   2.837 -10.249  1.00  0.00     0.100 A 
ATOM      3  C   UNL     1       6.465   2.880  -8.870  1.00  0.00     0.193 A 
ATOM      4  O   UNL     1       6.699   3.946  -8.238  1.00  0.00    -0.289 OA
ATOM      5  C   UNL     1       5.991   1.738  -8.209  1.00  0.00     0.065 A 
ATOM      6  C   UNL     1       5.753   1.715  -6.823  1.00  0.00     0.016 A 
ATOM      7  C   UNL     1       5.279   0.549  -6.214  1.00  0.00     0.001 A 
ATOM      8  C   UNL     1       5.042  -0.598  -6.978  1.00  0.00     0.004 A 
ATOM      9  C   UNL     1       5.276  -0.583  -8.356  1.00  0.00     0.048 A 
ATOM     10  C   UNL     1       5.751   0.579  -8.976  1.00  0.00     0.138 A 
ATOM     11  O   UNL     1       5.971   0.582 -10.287  1.00  0.00    -0.456 OA
ENDROOT
BRANCH   1  12
ATOM     12  C   UNL     1       6.625   1.513 -12.433  1.00  0.00     0.017 A 
ATOM     13  C   UNL     1       7.049   1.355 -15.219  1.00  0.00     0.000 A 
ATOM     14  C   UNL     1       6.492   0.275 -14.534  1.00  0.00     0.001 A 
ATOM     15  C   UNL     1       7.396   2.513 -14.525  1.00  0.00     0.001 A 
ATOM     16  C   UNL     1       6.279   0.348 -13.154  1.00  0.00     0.012 A 
ATOM     17  C   UNL     1       7.186   2.594 -13.145  1.00  0.00     0.012 A 
ENDBRANCH   1  12
TORSDOF 1
ENDMDL
MODEL 6
REMARK VINA RESULT:    -4.797      8.524     10.789
REMARK INTER + INTRA:          -5.344
REMARK INTER:                  -5.123
REMARK INTRA:                  -0.220
REMARK UNBOUND:                -0.266
REMARK SMILES O=c1cc(-c2ccccc2)oc2ccccc12
REMARK SMILES IDX 4 1 3 2 2 3 1 4 17 5 16 6 15 7 14 8 13 9 12 10 11 11 5 12
REMARK SMILES IDX 8 13 7 14 9 15 6 16 10 17
REMARK H PARENT
REMARK Flexibility Score: inf
ROOT
ATOM      1  C   UNL     1       3.011   0.220  -8.398  1.00  0.00     0.138 A 
ATOM      2  C   UNL     1       2.633   1.224  -7.481  1.00  0.00     0.100 A 
ATOM      3  C   UNL     1       1.460   1.073  -6.740  1.00  0.00     0.193 A 
ATOM      4  O   UNL     1       1.123   1.971  -5.921  1.00  0.00    -0.289 OA
ATOM      5  C   UNL     1       0.673  -0.073  -6.918  1.00  0.00     0.065 A 
ATOM      6  C   UNL     1      -0.520  -0.285  -6.203  1.00  0.00     0.016 A 
ATOM      7  C   UNL     1      -1.268  -1.447  -6.419  1.00  0.00     0.001 A 
ATOM      8  C   UNL     1      -0.833  -2.402  -7.344  1.00  0.00     0.004 A 
ATOM      9  C   UNL     1       0.351  -2.199  -8.058  1.00  0.00     0.048 A 
ATOM     10  C   UNL     1       1.107  -1.039  -7.849  1.00  0.00     0.138 A 
ATOM     11  O   UNL     1       2.232  -0.856  -8.534  1.00  0.00    -0.456 OA
ENDROOT
BRANCH   1  12
ATOM     12  C   UNL     1       4.251   0.301  -9.230  1.00  0.00     0.017 A 
ATOM     13  C   UNL     1       6.539   0.503 -10.869  1.00  0.00     0.000 A 
ATOM     14  C   UNL     1       6.623  -0.127  -9.627  1.00  0.00     0.001 A 
ATOM     15  C   UNL     1       5.324   1.032 -11.300  1.00  0.00     0.001 A 
ATOM     16  C   UNL     1       5.492  -0.229  -8.811  1.00  0.00     0.012 A 
ATOM     17  C   UNL     1       4.189   0.933 -10.490  1.00  0.00     0.012 A 
ENDBRANCH   1  12
TORSDOF 1
ENDMDL
MODEL 7
REMARK VINA RESULT:    -4.775     12.843     14.722
REMARK INTER + INTRA:          -5.321
REMARK INTER:                  -5.098
REMARK INTRA:                  -0.223
REMARK UNBOUND:                -0.266
REMARK SMILES O=c1cc(-c2ccccc2)oc2ccccc12
REMARK SMILES IDX 4 1 3 2 2 3 1 4 17 5 16 6 15 7 14 8 13 9 12 10 11 11 5 12
REMARK SMILES IDX 8 13 7 14 9 15 6 16 10 17
REMARK H PARENT
REMARK Flexibility Score: inf
ROOT
ATOM      1  C   UNL     1       6.341   4.221  -7.607  1.00  0.00     0.138 A 
ATOM      2  C   UNL     1       6.366   3.980  -8.997  1.00  0.00     0.100 A 
ATOM      3  C   UNL     1       6.091   2.699  -9.479  1.00  0.00     0.193 A 
ATOM      4  O   UNL     1       6.113   2.486 -10.722  1.00  0.00    -0.289 OA
ATOM      5  C   UNL     1       5.792   1.670  -8.575  1.00  0.00     0.065 A 
ATOM      6  C   UNL     1       5.506   0.359  -8.996  1.00  0.00     0.016 A 
ATOM      7  C   UNL     1       5.215  -0.631  -8.051  1.00  0.00     0.001 A 
ATOM      8  C   UNL     1       5.207  -0.321  -6.687  1.00  0.00     0.004 A 
ATOM      9  C   UNL     1       5.491   0.979  -6.261  1.00  0.00     0.048 A 
ATOM     10  C   UNL     1       5.783   1.977  -7.199  1.00  0.00     0.138 A 
ATOM     11  O   UNL     1       6.051   3.211  -6.783  1.00  0.00    -0.456 OA
ENDROOT
BRANCH   1  12
ATOM     12  C   UNL     1       6.623   5.561  -7.007  1.00  0.00     0.017 A 
ATOM     13  C   UNL     1       7.251   8.080  -5.899  1.00  0.00     0.000 A 
ATOM     14  C   UNL     1       5.936   7.616  -5.878  1.00  0.00     0.001 A 
ATOM     15  C   UNL     1       8.255   7.298  -6.467  1.00  0.00     0.001 A 
ATOM     16  C   UNL     1       5.620   6.368  -6.426  1.00  0.00     0.012 A 
ATOM     17  C   UNL     1       7.947   6.050  -7.016  1.00  0.00     0.012 A 
ENDBRANCH   1  12
TORSDOF 1
ENDMDL
MODEL 8
REMARK VINA RESULT:    -4.761      5.850      8.875
REMARK INTER + INTRA:          -5.306
REMARK INTER:                  -5.057
REMARK INTRA:                  -0.249
REMARK UNBOUND:                -0.266
REMARK SMILES O=c1cc(-c2ccccc2)oc2ccccc12
REMARK SMILES IDX 4 1 3 2 2 3 1 4 17 5 16 6 15 7 14 8 13 9 12 10 11 11 5 12
REMARK SMILES IDX 8 13 7 14 9 15 6 16 10 17
REMARK H PARENT
REMARK Flexibility Score: inf
ROOT
ATOM      1  C   UNL     1      -1.073  -0.146  -7.799  1.00  0.00     0.138 A 
ATOM      2  C   UNL     1      -0.548  -0.594  -9.030  1.00  0.00     0.100 A 
ATOM      3  C   UNL     1       0.835  -0.662  -9.204  1.00  0.00     0.193 A 
ATOM      4  O   UNL     1       1.303  -1.063 -10.305  1.00  0.00    -0.289 OA
ATOM      5  C   UNL     1       1.683  -0.285  -8.154  1.00  0.00     0.065 A 
ATOM      6  C   UNL     1       3.085  -0.331  -8.265  1.00  0.00     0.016 A 
ATOM      7  C   UNL     1       3.886   0.058  -7.186  1.00  0.00     0.001 A 
ATOM      8  C   UNL     1       3.297   0.491  -5.994  1.00  0.00     0.004 A 
ATOM      9  C   UNL     1       1.905   0.539  -5.875  1.00  0.00     0.048 A 
ATOM     10  C   UNL     1       1.095   0.153  -6.949  1.00  0.00     0.138 A 
ATOM     11  O   UNL     1      -0.228   0.202  -6.826  1.00  0.00    -0.456 OA
ENDROOT
BRANCH   1  12
ATOM     12  C   UNL     1      -2.540  -0.043  -7.528  1.00  0.00     0.017 A 
ATOM     13  C   UNL     1      -5.293   0.117  -6.925  1.00  0.00     0.000 A 
ATOM     14  C   UNL     1      -4.829   0.509  -8.181  1.00  0.00     0.001 A 
ATOM     15  C   UNL     1      -4.395  -0.354  -5.968  1.00  0.00     0.001 A 
ATOM     16  C   UNL     1      -3.465   0.432  -8.484  1.00  0.00     0.012 A 
ATOM     17  C   UNL     1      -3.032  -0.435  -6.265  1.00  0.00     0.012 A 
ENDBRANCH   1  12
TORSDOF 1
ENDMDL
MODEL 9
REMARK VINA RESULT:    -4.742      1.712      6.274
REMARK INTER + INTRA:          -5.286
REMARK INTER:                  -5.020
REMARK INTRA:                  -0.266
REMARK UNBOUND:                -0.266
REMARK SMILES O=c1cc(-c2ccccc2)oc2ccccc12
REMARK SMILES IDX 4 1 3 2 2 3 1 4 17 5 16 6 15 7 14 8 13 9 12 10 11 11 5 12
REMARK SMILES IDX 8 13 7 14 9 15 6 16 10 17
REMARK H PARENT
REMARK Flexibility Score: inf
ROOT
ATOM      1  C   UNL     1      -6.123  -1.856 -10.601  1.00  0.00     0.138 A 
ATOM      2  C   UNL     1      -6.385  -3.043  -9.883  1.00  0.00     0.100 A 
ATOM      3  C   UNL     1      -6.154  -3.081  -8.508  1.00  0.00     0.193 A 
ATOM      4  O   UNL     1      -6.388  -4.143  -7.867  1.00  0.00    -0.289 OA
ATOM      5  C   UNL     1      -5.664  -1.940  -7.857  1.00  0.00     0.065 A 
ATOM      6  C   UNL     1      -5.410  -1.913  -6.474  1.00  0.00     0.016 A 
ATOM      7  C   UNL     1      -4.921  -0.747  -5.875  1.00  0.00     0.001 A 
ATOM      8  C   UNL     1      -4.685   0.395  -6.648  1.00  0.00     0.004 A 
ATOM      9  C   UNL     1      -4.934   0.376  -8.023  1.00  0.00     0.048 A 
ATOM     10  C   UNL     1      -5.424  -0.786  -8.632  1.00  0.00     0.138 A 
ATOM     11  O   UNL     1      -5.658  -0.793  -9.941  1.00  0.00    -0.456 OA
ENDROOT
BRANCH   1  12
ATOM     12  C   UNL     1      -6.344  -1.730 -12.074  1.00  0.00     0.017 A 
ATOM     13  C   UNL     1      -6.722  -1.399 -14.851  1.00  0.00     0.000 A 
ATOM     14  C   UNL     1      -7.074  -2.600 -14.237  1.00  0.00     0.001 A 
ATOM     15  C   UNL     1      -6.184  -0.361 -14.092  1.00  0.00     0.001 A 
ATOM     16  C   UNL     1      -6.888  -2.769 -12.861  1.00  0.00     0.012 A 
ATOM     17  C   UNL     1      -5.996  -0.522 -12.717  1.00  0.00     0.012 A 
ENDBRANCH   1  12
TORSDOF 1
ENDMDL
