MODEL 1
REMARK VINA RESULT:    -4.347      0.000      0.000
REMARK INTER + INTRA:          -6.661
REMARK INTER:                  -6.635
REMARK INTRA:                  -0.026
REMARK UNBOUND:                -0.026
REMARK SMILES CC1=CCC[C@@H](C)C(=O)C[C@H](C(C)C)C(=O)C1
REMARK SMILES IDX 8 1 9 2 6 3 7 4 5 5 4 6 3 7 2 8 1 9 10 11 11 12 15 13 16 14
REMARK SMILES IDX 17 15 12 17 13 18 14 19
REMARK H PARENT
REMARK Flexibility Score: 70.00
ROOT
ATOM      1  C   UNL     1      16.451 -29.399  22.387  1.00  0.00     0.136 C 
ATOM      2  O   UNL     1      15.863 -28.745  21.538  1.00  0.00    -0.299 OA
ENDROOT
BRANCH   1   3
ATOM      3  C   UNL     1      17.963 -29.495  22.356  1.00  0.00     0.053 C 
ATOM      4  C   UNL     1      18.544 -28.140  21.938  1.00  0.00     0.016 C 
BRANCH   3   5
ATOM      5  C   UNL     1      18.474 -30.611  21.415  1.00  0.00     0.015 C 
BRANCH   5   6
ATOM      6  C   UNL     1      17.422 -31.689  21.097  1.00  0.00     0.028 C 
BRANCH   6   7
ATOM      7  C   UNL     1      17.545 -32.874  22.027  1.00  0.00    -0.028 C 
ATOM      8  C   UNL     1      16.513 -33.567  22.557  1.00  0.00    -0.070 CG0
ATOM      9  C   UNL     1      16.834 -34.721  23.475  1.00  0.00     0.039 C 
ATOM     10  G   UNL     1      15.059 -33.240  22.270  1.00  0.00     0.000 G0
ENDBRANCH   6   7
ENDBRANCH   5   6
ENDBRANCH   3   5
ENDBRANCH   1   3
BRANCH   1  11
ATOM     11  C   UNL     1      15.658 -30.046  23.498  1.00  0.00     0.087 C 
BRANCH  11  12
ATOM     12  C   UNL     1      14.402 -30.770  22.961  1.00  0.00     0.066 C 
BRANCH  12  13
ATOM     13  C   UNL     1      14.471 -32.258  23.267  1.00  0.00     0.140 C 
ATOM     14  O   UNL     1      14.019 -32.684  24.320  1.00  0.00    -0.299 OA
BRANCH  13  15
ATOM     15  C   UNL     1      15.055 -33.236  22.279  1.00  0.00     0.106 CG0
ATOM     16  G   UNL     1      16.511 -33.550  22.572  1.00  0.00     0.000 G0
ENDBRANCH  13  15
ENDBRANCH  12  13
BRANCH  12  17
ATOM     17  C   UNL     1      13.058 -30.158  23.467  1.00  0.00    -0.006 C 
ATOM     18  C   UNL     1      11.958 -30.249  22.399  1.00  0.00     0.008 C 
ATOM     19  C   UNL     1      13.179 -28.709  23.972  1.00  0.00     0.008 C 
ENDBRANCH  12  17
ENDBRANCH  11  12
ENDBRANCH   1  11
TORSDOF 1
ENDMDL
MODEL 2
REMARK VINA RESULT:    -4.212      2.604      4.950
REMARK INTER + INTRA:          -6.455
REMARK INTER:                  -6.207
REMARK INTRA:                  -0.248
REMARK UNBOUND:                -0.026
REMARK SMILES CC1=CCC[C@@H](C)C(=O)C[C@H](C(C)C)C(=O)C1
REMARK SMILES IDX 8 1 9 2 6 3 7 4 5 5 4 6 3 7 2 8 1 9 10 11 11 12 15 13 16 14
REMARK SMILES IDX 17 15 12 17 13 18 14 19
REMARK H PARENT
REMARK Flexibility Score: 70.00
ROOT
ATOM      1  C   UNL     1      15.068 -33.130  22.324  1.00  0.00     0.136 C 
ATOM      2  O   UNL     1      14.285 -32.777  21.455  1.00  0.00    -0.299 OA
ENDROOT
BRANCH   1   3
ATOM      3  C   UNL     1      15.216 -32.308  23.589  1.00  0.00     0.053 C 
ATOM      4  C   UNL     1      13.834 -32.095  24.215  1.00  0.00     0.016 C 
BRANCH   3   5
ATOM      5  C   UNL     1      15.909 -30.947  23.343  1.00  0.00     0.015 C 
BRANCH   5   6
ATOM      6  C   UNL     1      17.403 -30.932  23.713  1.00  0.00     0.028 C 
BRANCH   6   7
ATOM      7  C   UNL     1      17.730 -31.993  24.738  1.00  0.00    -0.028 C 
ATOM      8  C   UNL     1      18.464 -33.105  24.512  1.00  0.00    -0.070 CG0
ATOM      9  C   UNL     1      18.679 -34.057  25.663  1.00  0.00     0.039 C 
ATOM     10  G   UNL     1      19.079 -33.432  23.163  1.00  0.00     0.000 G0
ENDBRANCH   6   7
ENDBRANCH   5   6
ENDBRANCH   3   5
ENDBRANCH   1   3
BRANCH   1  11
ATOM     11  C   UNL     1      15.828 -34.424  22.150  1.00  0.00     0.087 C 
BRANCH  11  12
ATOM     12  C   UNL     1      17.195 -34.201  21.463  1.00  0.00     0.066 C 
BRANCH  12  13
ATOM     13  C   UNL     1      18.332 -34.524  22.419  1.00  0.00     0.140 C 
ATOM     14  O   UNL     1      18.677 -35.685  22.582  1.00  0.00    -0.299 OA
BRANCH  13  15
ATOM     15  C   UNL     1      19.077 -33.436  23.150  1.00  0.00     0.106 CG0
ATOM     16  G   UNL     1      18.466 -33.128  24.505  1.00  0.00     0.000 G0
ENDBRANCH  13  15
ENDBRANCH  12  13
BRANCH  12  17
ATOM     17  C   UNL     1      17.358 -34.975  20.118  1.00  0.00    -0.006 C 
ATOM     18  C   UNL     1      17.686 -34.026  18.955  1.00  0.00     0.008 C 
ATOM     19  C   UNL     1      16.150 -35.856  19.751  1.00  0.00     0.008 C 
ENDBRANCH  12  17
ENDBRANCH  11  12
ENDBRANCH   1  11
TORSDOF 1
ENDMDL
MODEL 3
REMARK VINA RESULT:    -4.209      2.448      5.039
REMARK INTER + INTRA:          -6.450
REMARK INTER:                  -6.384
REMARK INTRA:                  -0.065
REMARK UNBOUND:                -0.026
REMARK SMILES CC1=CCC[C@@H](C)C(=O)C[C@H](C(C)C)C(=O)C1
REMARK SMILES IDX 8 1 9 2 6 3 7 4 5 5 4 6 3 7 2 8 1 9 10 11 11 12 15 13 16 14
REMARK SMILES IDX 17 15 12 17 13 18 14 19
REMARK H PARENT
REMARK Flexibility Score: 70.00
ROOT
ATOM      1  C   UNL     1      14.380 -32.793  21.412  1.00  0.00     0.136 C 
ATOM      2  O   UNL     1      13.906 -32.888  20.288  1.00  0.00    -0.299 OA
ENDROOT
BRANCH   1   3
ATOM      3  C   UNL     1      13.684 -31.945  22.457  1.00  0.00     0.053 C 
ATOM      4  C   UNL     1      12.909 -30.822  21.759  1.00  0.00     0.016 C 
BRANCH   3   5
ATOM      5  C   UNL     1      14.663 -31.352  23.498  1.00  0.00     0.015 C 
BRANCH   5   6
ATOM      6  C   UNL     1      15.473 -30.150  22.979  1.00  0.00     0.028 C 
BRANCH   6   7
ATOM      7  C   UNL     1      16.863 -30.122  23.571  1.00  0.00    -0.028 C 
ATOM      8  C   UNL     1      17.990 -30.536  22.949  1.00  0.00    -0.070 CG0
ATOM      9  C   UNL     1      19.291 -30.437  23.706  1.00  0.00     0.039 C 
ATOM     10  G   UNL     1      18.002 -31.087  21.535  1.00  0.00     0.000 G0
ENDBRANCH   6   7
ENDBRANCH   5   6
ENDBRANCH   3   5
ENDBRANCH   1   3
BRANCH   1  11
ATOM     11  C   UNL     1      15.620 -33.582  21.757  1.00  0.00     0.087 C 
BRANCH  11  12
ATOM     12  C   UNL     1      16.777 -33.296  20.772  1.00  0.00     0.066 C 
BRANCH  12  13
ATOM     13  C   UNL     1      17.920 -32.587  21.481  1.00  0.00     0.140 C 
ATOM     14  O   UNL     1      18.810 -33.242  22.004  1.00  0.00    -0.299 OA
BRANCH  13  15
ATOM     15  C   UNL     1      18.005 -31.082  21.525  1.00  0.00     0.106 CG0
ATOM     16  G   UNL     1      18.003 -30.546  22.945  1.00  0.00     0.000 G0
ENDBRANCH  13  15
ENDBRANCH  12  13
BRANCH  12  17
ATOM     17  C   UNL     1      17.288 -34.562  20.016  1.00  0.00    -0.006 C 
ATOM     18  C   UNL     1      17.923 -34.197  18.665  1.00  0.00     0.008 C 
ATOM     19  C   UNL     1      16.216 -35.648  19.814  1.00  0.00     0.008 C 
ENDBRANCH  12  17
ENDBRANCH  11  12
ENDBRANCH   1  11
TORSDOF 1
ENDMDL
MODEL 4
REMARK VINA RESULT:    -4.205      2.211      4.546
REMARK INTER + INTRA:          -6.443
REMARK INTER:                  -6.179
REMARK INTRA:                  -0.264
REMARK UNBOUND:                -0.026
REMARK SMILES CC1=CCC[C@@H](C)C(=O)C[C@H](C(C)C)C(=O)C1
REMARK SMILES IDX 8 1 9 2 6 3 7 4 5 5 4 6 3 7 2 8 1 9 10 11 11 12 15 13 16 14
REMARK SMILES IDX 17 15 12 17 13 18 14 19
REMARK H PARENT
REMARK Flexibility Score: 70.00
ROOT
ATOM      1  C   UNL     1      18.538 -31.983  21.005  1.00  0.00     0.136 C 
ATOM      2  O   UNL     1      19.753 -32.111  20.948  1.00  0.00    -0.299 OA
ENDROOT
BRANCH   1   3
ATOM      3  C   UNL     1      17.935 -30.777  21.697  1.00  0.00     0.053 C 
ATOM      4  C   UNL     1      18.684 -29.516  21.252  1.00  0.00     0.016 C 
BRANCH   3   5
ATOM      5  C   UNL     1      17.957 -30.896  23.240  1.00  0.00     0.015 C 
BRANCH   5   6
ATOM      6  C   UNL     1      16.588 -31.239  23.857  1.00  0.00     0.028 C 
BRANCH   6   7
ATOM      7  C   UNL     1      15.453 -30.812  22.956  1.00  0.00    -0.028 C 
ATOM      8  C   UNL     1      14.610 -31.644  22.306  1.00  0.00    -0.070 CG0
ATOM      9  C   UNL     1      13.536 -31.029  21.443  1.00  0.00     0.039 C 
ATOM     10  G   UNL     1      14.694 -33.156  22.409  1.00  0.00     0.000 G0
ENDBRANCH   6   7
ENDBRANCH   5   6
ENDBRANCH   3   5
ENDBRANCH   1   3
BRANCH   1  11
ATOM     11  C   UNL     1      17.657 -33.001  20.322  1.00  0.00     0.087 C 
BRANCH  11  12
ATOM     12  C   UNL     1      16.966 -33.940  21.339  1.00  0.00     0.066 C 
BRANCH  12  13
ATOM     13  C   UNL     1      15.456 -33.779  21.275  1.00  0.00     0.140 C 
ATOM     14  O   UNL     1      14.843 -34.180  20.296  1.00  0.00    -0.299 OA
BRANCH  13  15
ATOM     15  C   UNL     1      14.682 -33.165  22.414  1.00  0.00     0.106 CG0
ATOM     16  G   UNL     1      14.591 -31.654  22.300  1.00  0.00     0.000 G0
ENDBRANCH  13  15
ENDBRANCH  12  13
BRANCH  12  17
ATOM     17  C   UNL     1      17.376 -35.439  21.191  1.00  0.00    -0.006 C 
ATOM     18  C   UNL     1      18.365 -35.866  22.286  1.00  0.00     0.008 C 
ATOM     19  C   UNL     1      17.939 -35.802  19.805  1.00  0.00     0.008 C 
ENDBRANCH  12  17
ENDBRANCH  11  12
ENDBRANCH   1  11
TORSDOF 1
ENDMDL
MODEL 5
REMARK VINA RESULT:    -4.105      1.553      4.136
REMARK INTER + INTRA:          -6.292
REMARK INTER:                  -6.443
REMARK INTRA:                   0.151
REMARK UNBOUND:                -0.026
REMARK SMILES CC1=CCC[C@@H](C)C(=O)C[C@H](C(C)C)C(=O)C1
REMARK SMILES IDX 8 1 9 2 6 3 7 4 5 5 4 6 3 7 2 8 1 9 10 11 11 12 15 13 16 14
REMARK SMILES IDX 17 15 12 17 13 18 14 19
REMARK H PARENT
REMARK Flexibility Score: 70.00
ROOT
ATOM      1  C   UNL     1      14.623 -29.747  22.493  1.00  0.00     0.136 C 
ATOM      2  O   UNL     1      14.257 -28.745  23.092  1.00  0.00    -0.299 OA
ENDROOT
BRANCH   1   3
ATOM      3  C   UNL     1      13.792 -31.012  22.557  1.00  0.00     0.053 C 
ATOM      4  C   UNL     1      12.351 -30.688  22.148  1.00  0.00     0.016 C 
BRANCH   3   5
ATOM      5  C   UNL     1      13.816 -31.677  23.955  1.00  0.00     0.015 C 
BRANCH   5   6
ATOM      6  C   UNL     1      14.681 -32.949  24.025  1.00  0.00     0.028 C 
BRANCH   6   7
ATOM      7  C   UNL     1      14.815 -33.601  22.668  1.00  0.00    -0.028 C 
ATOM      8  C   UNL     1      15.934 -33.612  21.909  1.00  0.00    -0.070 CG0
ATOM      9  C   UNL     1      15.875 -34.312  20.574  1.00  0.00     0.039 C 
ATOM     10  G   UNL     1      17.235 -32.959  22.340  1.00  0.00     0.000 G0
ENDBRANCH   6   7
ENDBRANCH   5   6
ENDBRANCH   3   5
ENDBRANCH   1   3
BRANCH   1  11
ATOM     11  C   UNL     1      15.868 -29.683  21.641  1.00  0.00     0.087 C 
BRANCH  11  12
ATOM     12  C   UNL     1      17.083 -30.329  22.347  1.00  0.00     0.066 C 
BRANCH  12  13
ATOM     13  C   UNL     1      17.468 -31.631  21.664  1.00  0.00     0.140 C 
ATOM     14  O   UNL     1      18.001 -31.606  20.564  1.00  0.00    -0.299 OA
BRANCH  13  15
ATOM     15  C   UNL     1      17.240 -32.965  22.330  1.00  0.00     0.106 CG0
ATOM     16  G   UNL     1      15.936 -33.610  21.897  1.00  0.00     0.000 G0
ENDBRANCH  13  15
ENDBRANCH  12  13
BRANCH  12  17
ATOM     17  C   UNL     1      18.315 -29.380  22.476  1.00  0.00    -0.006 C 
ATOM     18  C   UNL     1      18.591 -28.630  21.163  1.00  0.00     0.008 C 
ATOM     19  C   UNL     1      19.598 -30.079  22.960  1.00  0.00     0.008 C 
ENDBRANCH  12  17
ENDBRANCH  11  12
ENDBRANCH   1  11
TORSDOF 1
ENDMDL
MODEL 6
REMARK VINA RESULT:    -4.050      2.178      4.470
REMARK INTER + INTRA:          -6.208
REMARK INTER:                  -5.947
REMARK INTRA:                  -0.261
REMARK UNBOUND:                -0.026
REMARK SMILES CC1=CCC[C@@H](C)C(=O)C[C@H](C(C)C)C(=O)C1
REMARK SMILES IDX 8 1 9 2 6 3 7 4 5 5 4 6 3 7 2 8 1 9 10 11 11 12 15 13 16 14
REMARK SMILES IDX 17 15 12 17 13 18 14 19
REMARK H PARENT
REMARK Flexibility Score: 70.00
ROOT
ATOM      1  C   UNL     1      17.555 -34.168  21.792  1.00  0.00     0.136 C 
ATOM      2  O   UNL     1      18.512 -34.929  21.799  1.00  0.00    -0.299 OA
ENDROOT
BRANCH   1   3
ATOM      3  C   UNL     1      17.466 -33.074  20.748  1.00  0.00     0.053 C 
ATOM      4  C   UNL     1      17.977 -33.615  19.408  1.00  0.00     0.016 C 
BRANCH   3   5
ATOM      5  C   UNL     1      18.248 -31.800  21.145  1.00  0.00     0.015 C 
BRANCH   5   6
ATOM      6  C   UNL     1      17.367 -30.690  21.747  1.00  0.00     0.028 C 
BRANCH   6   7
ATOM      7  C   UNL     1      15.928 -30.825  21.304  1.00  0.00    -0.028 C 
ATOM      8  C   UNL     1      14.872 -31.043  22.120  1.00  0.00    -0.070 CG0
ATOM      9  C   UNL     1      13.506 -31.157  21.491  1.00  0.00     0.039 C 
ATOM     10  G   UNL     1      15.002 -31.175  23.627  1.00  0.00     0.000 G0
ENDBRANCH   6   7
ENDBRANCH   5   6
ENDBRANCH   3   5
ENDBRANCH   1   3
BRANCH   1  11
ATOM     11  C   UNL     1      16.439 -34.378  22.788  1.00  0.00     0.087 C 
BRANCH  11  12
ATOM     12  C   UNL     1      16.492 -33.344  23.937  1.00  0.00     0.066 C 
BRANCH  12  13
ATOM     13  C   UNL     1      15.160 -32.624  24.070  1.00  0.00     0.140 C 
ATOM     14  O   UNL     1      14.202 -33.204  24.561  1.00  0.00    -0.299 OA
BRANCH  13  15
ATOM     15  C   UNL     1      14.997 -31.187  23.641  1.00  0.00     0.106 CG0
ATOM     16  G   UNL     1      14.889 -31.044  22.134  1.00  0.00     0.000 G0
ENDBRANCH  13  15
ENDBRANCH  12  13
BRANCH  12  17
ATOM     17  C   UNL     1      16.941 -33.946  25.305  1.00  0.00    -0.006 C 
ATOM     18  C   UNL     1      18.153 -33.199  25.882  1.00  0.00     0.008 C 
ATOM     19  C   UNL     1      17.230 -35.457  25.262  1.00  0.00     0.008 C 
ENDBRANCH  12  17
ENDBRANCH  11  12
ENDBRANCH   1  11
TORSDOF 1
ENDMDL
MODEL 7
REMARK VINA RESULT:    -4.048      2.052      4.000
REMARK INTER + INTRA:          -6.204
REMARK INTER:                  -5.979
REMARK INTRA:                  -0.225
REMARK UNBOUND:                -0.026
REMARK SMILES CC1=CCC[C@@H](C)C(=O)C[C@H](C(C)C)C(=O)C1
REMARK SMILES IDX 8 1 9 2 6 3 7 4 5 5 4 6 3 7 2 8 1 9 10 11 11 12 15 13 16 14
REMARK SMILES IDX 17 15 12 17 13 18 14 19
REMARK H PARENT
REMARK Flexibility Score: 70.00
ROOT
ATOM      1  C   UNL     1      16.060 -33.261  21.177  1.00  0.00     0.136 C 
ATOM      2  O   UNL     1      15.646 -34.382  21.440  1.00  0.00    -0.299 OA
ENDROOT
BRANCH   1   3
ATOM      3  C   UNL     1      17.465 -33.079  20.641  1.00  0.00     0.053 C 
ATOM      4  C   UNL     1      17.626 -33.907  19.362  1.00  0.00     0.016 C 
BRANCH   3   5
ATOM      5  C   UNL     1      18.555 -33.465  21.670  1.00  0.00     0.015 C 
BRANCH   5   6
ATOM      6  C   UNL     1      18.917 -32.332  22.647  1.00  0.00     0.028 C 
BRANCH   6   7
ATOM      7  C   UNL     1      19.211 -31.042  21.916  1.00  0.00    -0.028 C 
ATOM      8  C   UNL     1      18.539 -29.880  22.072  1.00  0.00    -0.070 CG0
ATOM      9  C   UNL     1      18.974 -28.695  21.245  1.00  0.00     0.039 C 
ATOM     10  G   UNL     1      17.378 -29.716  23.036  1.00  0.00     0.000 G0
ENDBRANCH   6   7
ENDBRANCH   5   6
ENDBRANCH   3   5
ENDBRANCH   1   3
BRANCH   1  11
ATOM     11  C   UNL     1      15.132 -32.079  21.329  1.00  0.00     0.087 C 
BRANCH  11  12
ATOM     12  C   UNL     1      15.353 -31.342  22.670  1.00  0.00     0.066 C 
BRANCH  12  13
ATOM     13  C   UNL     1      16.037 -30.004  22.438  1.00  0.00     0.140 C 
ATOM     14  O   UNL     1      15.481 -29.145  21.769  1.00  0.00    -0.299 OA
BRANCH  13  15
ATOM     15  C   UNL     1      17.381 -29.693  23.046  1.00  0.00     0.106 CG0
ATOM     16  G   UNL     1      18.520 -29.898  22.064  1.00  0.00     0.000 G0
ENDBRANCH  13  15
ENDBRANCH  12  13
BRANCH  12  17
ATOM     17  C   UNL     1      14.053 -31.166  23.514  1.00  0.00    -0.006 C 
ATOM     18  C   UNL     1      13.851 -32.332  24.494  1.00  0.00     0.008 C 
ATOM     19  C   UNL     1      12.780 -30.964  22.672  1.00  0.00     0.008 C 
ENDBRANCH  12  17
ENDBRANCH  11  12
ENDBRANCH   1  11
TORSDOF 1
ENDMDL
MODEL 8
REMARK VINA RESULT:    -4.035      2.107      4.529
REMARK INTER + INTRA:          -6.185
REMARK INTER:                  -6.166
REMARK INTRA:                  -0.018
REMARK UNBOUND:                -0.026
REMARK SMILES CC1=CCC[C@@H](C)C(=O)C[C@H](C(C)C)C(=O)C1
REMARK SMILES IDX 8 1 9 2 6 3 7 4 5 5 4 6 3 7 2 8 1 9 10 11 11 12 15 13 16 14
REMARK SMILES IDX 17 15 12 17 13 18 14 19
REMARK H PARENT
REMARK Flexibility Score: 70.00
ROOT
ATOM      1  C   UNL     1      16.784 -30.097  22.365  1.00  0.00     0.136 C 
ATOM      2  O   UNL     1      17.114 -30.152  23.541  1.00  0.00    -0.299 OA
ENDROOT
BRANCH   1   3
ATOM      3  C   UNL     1      15.399 -29.612  21.989  1.00  0.00     0.053 C 
ATOM      4  C   UNL     1      14.817 -28.803  23.153  1.00  0.00     0.016 C 
BRANCH   3   5
ATOM      5  C   UNL     1      14.441 -30.765  21.607  1.00  0.00     0.015 C 
BRANCH   5   6
ATOM      6  C   UNL     1      14.760 -32.098  22.310  1.00  0.00     0.028 C 
BRANCH   6   7
ATOM      7  C   UNL     1      14.838 -33.239  21.322  1.00  0.00    -0.028 C 
ATOM      8  C   UNL     1      15.925 -34.011  21.099  1.00  0.00    -0.070 CG0
ATOM      9  C   UNL     1      15.815 -35.103  20.064  1.00  0.00     0.039 C 
ATOM     10  G   UNL     1      17.237 -33.830  21.840  1.00  0.00     0.000 G0
ENDBRANCH   6   7
ENDBRANCH   5   6
ENDBRANCH   3   5
ENDBRANCH   1   3
BRANCH   1  11
ATOM     11  C   UNL     1      17.794 -30.451  21.299  1.00  0.00     0.087 C 
BRANCH  11  12
ATOM     12  C   UNL     1      18.701 -31.625  21.733  1.00  0.00     0.066 C 
BRANCH  12  13
ATOM     13  C   UNL     1      18.222 -32.929  21.116  1.00  0.00     0.140 C 
ATOM     14  O   UNL     1      18.643 -33.274  20.021  1.00  0.00    -0.299 OA
BRANCH  13  15
ATOM     15  C   UNL     1      17.258 -33.834  21.841  1.00  0.00     0.106 CG0
ATOM     16  G   UNL     1      15.942 -33.987  21.100  1.00  0.00     0.000 G0
ENDBRANCH  13  15
ENDBRANCH  12  13
BRANCH  12  17
ATOM     17  C   UNL     1      20.216 -31.392  21.440  1.00  0.00    -0.006 C 
ATOM     18  C   UNL     1      21.103 -31.962  22.558  1.00  0.00     0.008 C 
ATOM     19  C   UNL     1      20.586 -29.922  21.177  1.00  0.00     0.008 C 
ENDBRANCH  12  17
ENDBRANCH  11  12
ENDBRANCH   1  11
TORSDOF 1
ENDMDL
MODEL 9
REMARK VINA RESULT:    -3.955      1.968      4.979
REMARK INTER + INTRA:          -6.062
REMARK INTER:                  -5.847
REMARK INTRA:                  -0.214
REMARK UNBOUND:                -0.026
REMARK SMILES CC1=CCC[C@@H](C)C(=O)C[C@H](C(C)C)C(=O)C1
REMARK SMILES IDX 8 1 9 2 6 3 7 4 5 5 4 6 3 7 2 8 1 9 10 11 11 12 15 13 16 14
REMARK SMILES IDX 17 15 12 17 13 18 14 19
REMARK H PARENT
REMARK Flexibility Score: 70.00
ROOT
ATOM      1  C   UNL     1      14.834 -32.281  23.856  1.00  0.00     0.136 C 
ATOM      2  O   UNL     1      14.259 -33.312  24.172  1.00  0.00    -0.299 OA
ENDROOT
BRANCH   1   3
ATOM      3  C   UNL     1      14.036 -31.087  23.373  1.00  0.00     0.053 C 
ATOM      4  C   UNL     1      13.571 -31.342  21.935  1.00  0.00     0.016 C 
BRANCH   3   5
ATOM      5  C   UNL     1      14.831 -29.761  23.451  1.00  0.00     0.015 C 
BRANCH   5   6
ATOM      6  C   UNL     1      15.163 -29.152  22.077  1.00  0.00     0.028 C 
BRANCH   6   7
ATOM      7  C   UNL     1      16.567 -28.594  22.044  1.00  0.00    -0.028 C 
ATOM      8  C   UNL     1      17.672 -29.267  21.651  1.00  0.00    -0.070 CG0
ATOM      9  C   UNL     1      18.994 -28.542  21.694  1.00  0.00     0.039 C 
ATOM     10  G   UNL     1      17.638 -30.706  21.171  1.00  0.00     0.000 G0
ENDBRANCH   6   7
ENDBRANCH   5   6
ENDBRANCH   3   5
ENDBRANCH   1   3
BRANCH   1  11
ATOM     11  C   UNL     1      16.333 -32.193  24.017  1.00  0.00     0.087 C 
BRANCH  11  12
ATOM     12  C   UNL     1      17.079 -32.733  22.774  1.00  0.00     0.066 C 
BRANCH  12  13
ATOM     13  C   UNL     1      18.058 -31.697  22.247  1.00  0.00     0.140 C 
ATOM     14  O   UNL     1      19.203 -31.670  22.674  1.00  0.00    -0.299 OA
BRANCH  13  15
ATOM     15  C   UNL     1      17.661 -30.715  21.173  1.00  0.00     0.106 CG0
ATOM     16  G   UNL     1      17.675 -29.281  21.670  1.00  0.00     0.000 G0
ENDBRANCH  13  15
ENDBRANCH  12  13
BRANCH  12  17
ATOM     17  C   UNL     1      17.788 -34.103  23.011  1.00  0.00    -0.006 C 
ATOM     18  C   UNL     1      17.358 -35.149  21.971  1.00  0.00     0.008 C 
ATOM     19  C   UNL     1      17.603 -34.669  24.430  1.00  0.00     0.008 C 
ENDBRANCH  12  17
ENDBRANCH  11  12
ENDBRANCH   1  11
TORSDOF 1
ENDMDL
