MODEL 1
REMARK VINA RESULT:    -3.189      0.000      0.000
REMARK INTER + INTRA:          -3.571
REMARK INTER:                  -3.562
REMARK INTRA:                  -0.009
REMARK UNBOUND:                -0.009
REMARK SMILES CCCC(=O)[O-]
REMARK SMILES IDX 3 1 4 2 5 3 6 4 2 5 1 6
REMARK H PARENT
REMARK Flexibility Score: inf
ROOT
ATOM      1  C   UNL     1      36.598  24.877 223.315  1.00  0.00     0.052 C 
ENDROOT
BRANCH   1   2
ATOM      2  C   UNL     1      36.201  24.814 224.755  1.00  0.00     0.041 C 
ATOM      3  O   UNL     1      36.253  23.723 225.379  1.00  0.00    -0.550 OA
ATOM      4  O   UNL     1      35.725  25.952 225.395  1.00  0.00    -0.550 OA
ENDBRANCH   1   2
BRANCH   1   5
ATOM      5  C   UNL     1      36.071  23.654 222.559  1.00  0.00     0.003 C 
ATOM      6  C   UNL     1      36.421  23.729 221.076  1.00  0.00     0.004 C 
ENDBRANCH   1   5
TORSDOF 2
ENDMDL
MODEL 2
REMARK VINA RESULT:    -3.158      1.301      1.762
REMARK INTER + INTRA:          -3.536
REMARK INTER:                  -3.523
REMARK INTRA:                  -0.014
REMARK UNBOUND:                -0.009
REMARK SMILES CCCC(=O)[O-]
REMARK SMILES IDX 3 1 4 2 5 3 6 4 2 5 1 6
REMARK H PARENT
REMARK Flexibility Score: inf
ROOT
ATOM      1  C   UNL     1      35.566  23.713 221.976  1.00  0.00     0.052 C 
ENDROOT
BRANCH   1   2
ATOM      2  C   UNL     1      36.127  24.158 223.289  1.00  0.00     0.041 C 
ATOM      3  O   UNL     1      36.156  23.366 224.267  1.00  0.00    -0.550 OA
ATOM      4  O   UNL     1      36.572  25.464 223.448  1.00  0.00    -0.550 OA
ENDBRANCH   1   2
BRANCH   1   5
ATOM      5  C   UNL     1      36.655  23.716 220.899  1.00  0.00     0.003 C 
ATOM      6  C   UNL     1      36.086  24.115 219.542  1.00  0.00     0.004 C 
ENDBRANCH   1   5
TORSDOF 2
ENDMDL
MODEL 3
REMARK VINA RESULT:    -3.033      1.915      3.190
REMARK INTER + INTRA:          -3.397
REMARK INTER:                  -3.335
REMARK INTRA:                  -0.062
REMARK UNBOUND:                -0.009
REMARK SMILES CCCC(=O)[O-]
REMARK SMILES IDX 3 1 4 2 5 3 6 4 2 5 1 6
REMARK H PARENT
REMARK Flexibility Score: inf
ROOT
ATOM      1  C   UNL     1      37.369  25.619 223.955  1.00  0.00     0.052 C 
ENDROOT
BRANCH   1   2
ATOM      2  C   UNL     1      36.332  25.135 224.917  1.00  0.00     0.041 C 
ATOM      3  O   UNL     1      35.561  25.953 225.482  1.00  0.00    -0.550 OA
ATOM      4  O   UNL     1      36.249  23.783 225.229  1.00  0.00    -0.550 OA
ENDBRANCH   1   2
BRANCH   1   5
ATOM      5  C   UNL     1      38.774  25.376 224.513  1.00  0.00     0.003 C 
ATOM      6  C   UNL     1      39.119  26.393 225.597  1.00  0.00     0.004 C 
ENDBRANCH   1   5
TORSDOF 2
ENDMDL
MODEL 4
REMARK VINA RESULT:    -3.010      1.901      2.880
REMARK INTER + INTRA:          -3.371
REMARK INTER:                  -3.308
REMARK INTRA:                  -0.063
REMARK UNBOUND:                -0.009
REMARK SMILES CCCC(=O)[O-]
REMARK SMILES IDX 3 1 4 2 5 3 6 4 2 5 1 6
REMARK H PARENT
REMARK Flexibility Score: inf
ROOT
ATOM      1  C   UNL     1      37.339  25.602 223.947  1.00  0.00     0.052 C 
ENDROOT
BRANCH   1   2
ATOM      2  C   UNL     1      36.319  25.093 224.914  1.00  0.00     0.041 C 
ATOM      3  O   UNL     1      36.232  23.861 225.153  1.00  0.00    -0.550 OA
ATOM      4  O   UNL     1      35.429  25.975 225.514  1.00  0.00    -0.550 OA
ENDBRANCH   1   2
BRANCH   1   5
ATOM      5  C   UNL     1      38.754  25.342 224.473  1.00  0.00     0.003 C 
ATOM      6  C   UNL     1      39.131  26.346 225.558  1.00  0.00     0.004 C 
ENDBRANCH   1   5
TORSDOF 2
ENDMDL
MODEL 5
REMARK VINA RESULT:    -2.871      1.937      3.032
REMARK INTER + INTRA:          -3.215
REMARK INTER:                  -3.177
REMARK INTRA:                  -0.038
REMARK UNBOUND:                -0.009
REMARK SMILES CCCC(=O)[O-]
REMARK SMILES IDX 3 1 4 2 5 3 6 4 2 5 1 6
REMARK H PARENT
REMARK Flexibility Score: inf
ROOT
ATOM      1  C   UNL     1      37.771  24.461 223.775  1.00  0.00     0.052 C 
ENDROOT
BRANCH   1   2
ATOM      2  C   UNL     1      36.496  23.897 224.316  1.00  0.00     0.041 C 
ATOM      3  O   UNL     1      35.407  24.115 223.724  1.00  0.00    -0.550 OA
ATOM      4  O   UNL     1      36.503  23.172 225.501  1.00  0.00    -0.550 OA
ENDBRANCH   1   2
BRANCH   1   5
ATOM      5  C   UNL     1      37.872  25.957 224.088  1.00  0.00     0.003 C 
ATOM      6  C   UNL     1      38.776  26.209 225.290  1.00  0.00     0.004 C 
ENDBRANCH   1   5
TORSDOF 2
ENDMDL
MODEL 6
REMARK VINA RESULT:    -2.869      6.319      6.947
REMARK INTER + INTRA:          -3.213
REMARK INTER:                  -3.172
REMARK INTRA:                  -0.041
REMARK UNBOUND:                -0.009
REMARK SMILES CCCC(=O)[O-]
REMARK SMILES IDX 3 1 4 2 5 3 6 4 2 5 1 6
REMARK H PARENT
REMARK Flexibility Score: inf
ROOT
ATOM      1  C   UNL     1      37.186  18.739 226.527  1.00  0.00     0.052 C 
ENDROOT
BRANCH   1   2
ATOM      2  C   UNL     1      35.917  19.526 226.449  1.00  0.00     0.041 C 
ATOM      3  O   UNL     1      34.901  19.037 225.890  1.00  0.00    -0.550 OA
ATOM      4  O   UNL     1      35.869  20.821 226.951  1.00  0.00    -0.550 OA
ENDBRANCH   1   2
BRANCH   1   5
ATOM      5  C   UNL     1      37.327  18.084 227.904  1.00  0.00     0.003 C 
ATOM      6  C   UNL     1      36.676  16.704 227.926  1.00  0.00     0.004 C 
ENDBRANCH   1   5
TORSDOF 2
ENDMDL
MODEL 7
REMARK VINA RESULT:    -2.831     10.995     11.638
REMARK INTER + INTRA:          -3.171
REMARK INTER:                  -3.153
REMARK INTRA:                  -0.018
REMARK UNBOUND:                -0.009
REMARK SMILES CCCC(=O)[O-]
REMARK SMILES IDX 3 1 4 2 5 3 6 4 2 5 1 6
REMARK H PARENT
REMARK Flexibility Score: inf
ROOT
ATOM      1  C   UNL     1      30.211  24.225 233.799  1.00  0.00     0.052 C 
ENDROOT
BRANCH   1   2
ATOM      2  C   UNL     1      29.720  23.537 232.566  1.00  0.00     0.041 C 
ATOM      3  O   UNL     1      29.334  24.211 231.576  1.00  0.00    -0.550 OA
ATOM      4  O   UNL     1      29.641  22.150 232.528  1.00  0.00    -0.550 OA
ENDBRANCH   1   2
BRANCH   1   5
ATOM      5  C   UNL     1      31.206  23.336 234.550  1.00  0.00     0.003 C 
ATOM      6  C   UNL     1      32.560  24.024 234.693  1.00  0.00     0.004 C 
ENDBRANCH   1   5
TORSDOF 2
ENDMDL
MODEL 8
REMARK VINA RESULT:    -2.773      2.353      2.673
REMARK INTER + INTRA:          -3.106
REMARK INTER:                  -3.092
REMARK INTRA:                  -0.014
REMARK UNBOUND:                -0.009
REMARK SMILES CCCC(=O)[O-]
REMARK SMILES IDX 3 1 4 2 5 3 6 4 2 5 1 6
REMARK H PARENT
REMARK Flexibility Score: inf
ROOT
ATOM      1  C   UNL     1      37.885  23.739 223.280  1.00  0.00     0.052 C 
ENDROOT
BRANCH   1   2
ATOM      2  C   UNL     1      36.721  24.619 223.607  1.00  0.00     0.041 C 
ATOM      3  O   UNL     1      35.593  24.115 223.845  1.00  0.00    -0.550 OA
ATOM      4  O   UNL     1      36.870  26.000 223.600  1.00  0.00    -0.550 OA
ENDBRANCH   1   2
BRANCH   1   5
ATOM      5  C   UNL     1      39.194  24.387 223.741  1.00  0.00     0.003 C 
ATOM      6  C   UNL     1      40.380  23.866 222.935  1.00  0.00     0.004 C 
ENDBRANCH   1   5
TORSDOF 2
ENDMDL
MODEL 9
REMARK VINA RESULT:    -2.740      2.197      2.585
REMARK INTER + INTRA:          -3.069
REMARK INTER:                  -3.058
REMARK INTRA:                  -0.010
REMARK UNBOUND:                -0.009
REMARK SMILES CCCC(=O)[O-]
REMARK SMILES IDX 3 1 4 2 5 3 6 4 2 5 1 6
REMARK H PARENT
REMARK Flexibility Score: inf
ROOT
ATOM      1  C   UNL     1      36.944  24.062 225.671  1.00  0.00     0.052 C 
ENDROOT
BRANCH   1   2
ATOM      2  C   UNL     1      36.285  25.283 225.113  1.00  0.00     0.041 C 
ATOM      3  O   UNL     1      36.868  25.973 224.236  1.00  0.00    -0.550 OA
ATOM      4  O   UNL     1      35.047  25.687 225.596  1.00  0.00    -0.550 OA
ENDBRANCH   1   2
BRANCH   1   5
ATOM      5  C   UNL     1      36.951  22.935 224.635  1.00  0.00     0.003 C 
ATOM      6  C   UNL     1      38.095  21.958 224.891  1.00  0.00     0.004 C 
ENDBRANCH   1   5
TORSDOF 2
ENDMDL
