MODEL 1
REMARK VINA RESULT:    -4.183      0.000      0.000
REMARK INTER + INTRA:          -6.820
REMARK INTER:                  -6.384
REMARK INTRA:                  -0.437
REMARK UNBOUND:                -0.437
REMARK SMILES O=C([O-])CCCCCCCCC(=O)[O-]
REMARK SMILES IDX 7 1 6 2 5 3 4 4 2 5 1 6 3 7 8 8 9 9 10 10 11 11 12 12 13 13
REMARK SMILES IDX 14 14
REMARK H PARENT
REMARK Flexibility Score: inf
ROOT
ATOM      1  C   UNL     1     131.528 133.441 130.733  1.00  0.00     0.000 C 
ENDROOT
BRANCH   1   2
ATOM      2  C   UNL     1     131.462 134.569 131.770  1.00  0.00     0.000 C 
BRANCH   2   3
ATOM      3  C   UNL     1     132.355 135.749 131.358  1.00  0.00     0.006 C 
BRANCH   3   4
ATOM      4  C   UNL     1     131.741 137.103 131.737  1.00  0.00     0.053 C 
BRANCH   4   5
ATOM      5  C   UNL     1     130.524 137.411 130.919  1.00  0.00     0.041 C 
ATOM      6  O   UNL     1     130.497 137.124 129.693  1.00  0.00    -0.550 OA
ATOM      7  O   UNL     1     129.434 138.045 131.502  1.00  0.00    -0.550 OA
ENDBRANCH   4   5
ENDBRANCH   3   4
ENDBRANCH   2   3
ENDBRANCH   1   2
BRANCH   1   8
ATOM      8  C   UNL     1     131.262 133.975 129.321  1.00  0.00     0.000 C 
BRANCH   8   9
ATOM      9  C   UNL     1     130.973 132.826 128.344  1.00  0.00     0.000 C 
BRANCH   9  10
ATOM     10  C   UNL     1     130.241 131.651 129.012  1.00  0.00     0.006 C 
BRANCH  10  11
ATOM     11  C   UNL     1     129.527 130.747 127.999  1.00  0.00     0.053 C 
BRANCH  11  12
ATOM     12  C   UNL     1     128.478 131.518 127.263  1.00  0.00     0.041 C 
ATOM     13  O   UNL     1     128.362 131.397 126.014  1.00  0.00    -0.550 OA
ATOM     14  O   UNL     1     127.659 132.408 127.946  1.00  0.00    -0.550 OA
ENDBRANCH  11  12
ENDBRANCH  10  11
ENDBRANCH   9  10
ENDBRANCH   8   9
ENDBRANCH   1   8
TORSDOF 9
ENDMDL
MODEL 2
REMARK VINA RESULT:    -4.147      7.869     11.167
REMARK INTER + INTRA:          -6.766
REMARK INTER:                  -6.454
REMARK INTRA:                  -0.312
REMARK UNBOUND:                -0.437
REMARK SMILES O=C([O-])CCCCCCCCC(=O)[O-]
REMARK SMILES IDX 7 1 6 2 5 3 4 4 2 5 1 6 3 7 8 8 9 9 10 10 11 11 12 12 13 13
REMARK SMILES IDX 14 14
REMARK H PARENT
REMARK Flexibility Score: inf
ROOT
ATOM      1  C   UNL     1     127.464 125.298 124.438  1.00  0.00     0.000 C 
ENDROOT
BRANCH   1   2
ATOM      2  C   UNL     1     126.576 124.715 125.543  1.00  0.00     0.000 C 
BRANCH   2   3
ATOM      3  C   UNL     1     127.373 124.513 126.842  1.00  0.00     0.006 C 
BRANCH   3   4
ATOM      4  C   UNL     1     126.461 124.381 128.068  1.00  0.00     0.053 C 
BRANCH   4   5
ATOM      5  C   UNL     1     125.980 122.975 128.255  1.00  0.00     0.041 C 
ATOM      6  O   UNL     1     126.776 122.080 128.642  1.00  0.00    -0.550 OA
ATOM      7  O   UNL     1     124.661 122.646 127.969  1.00  0.00    -0.550 OA
ENDBRANCH   4   5
ENDBRANCH   3   4
ENDBRANCH   2   3
ENDBRANCH   1   2
BRANCH   1   8
ATOM      8  C   UNL     1     126.617 125.853 123.286  1.00  0.00     0.000 C 
BRANCH   8   9
ATOM      9  C   UNL     1     127.413 126.877 122.463  1.00  0.00     0.000 C 
BRANCH   9  10
ATOM     10  C   UNL     1     127.975 128.020 123.324  1.00  0.00     0.006 C 
BRANCH  10  11
ATOM     11  C   UNL     1     128.604 129.138 122.482  1.00  0.00     0.053 C 
BRANCH  11  12
ATOM     12  C   UNL     1     129.309 130.120 123.363  1.00  0.00     0.041 C 
ATOM     13  O   UNL     1     130.542 130.330 123.219  1.00  0.00    -0.550 OA
ATOM     14  O   UNL     1     128.616 130.768 124.377  1.00  0.00    -0.550 OA
ENDBRANCH  11  12
ENDBRANCH  10  11
ENDBRANCH   9  10
ENDBRANCH   8   9
ENDBRANCH   1   8
TORSDOF 9
ENDMDL
MODEL 3
REMARK VINA RESULT:    -4.113      2.737      4.251
REMARK INTER + INTRA:          -6.714
REMARK INTER:                  -6.373
REMARK INTRA:                  -0.341
REMARK UNBOUND:                -0.437
REMARK SMILES O=C([O-])CCCCCCCCC(=O)[O-]
REMARK SMILES IDX 7 1 6 2 5 3 4 4 2 5 1 6 3 7 8 8 9 9 10 10 11 11 12 12 13 13
REMARK SMILES IDX 14 14
REMARK H PARENT
REMARK Flexibility Score: inf
ROOT
ATOM      1  C   UNL     1     129.296 132.674 127.894  1.00  0.00     0.000 C 
ENDROOT
BRANCH   1   2
ATOM      2  C   UNL     1     130.191 131.898 128.868  1.00  0.00     0.000 C 
BRANCH   2   3
ATOM      3  C   UNL     1     131.463 132.695 129.199  1.00  0.00     0.006 C 
BRANCH   3   4
ATOM      4  C   UNL     1     131.522 133.106 130.676  1.00  0.00     0.053 C 
BRANCH   4   5
ATOM      5  C   UNL     1     131.465 134.593 130.843  1.00  0.00     0.041 C 
ATOM      6  O   UNL     1     132.469 135.221 131.270  1.00  0.00    -0.550 OA
ATOM      7  O   UNL     1     130.292 135.282 130.559  1.00  0.00    -0.550 OA
ENDBRANCH   4   5
ENDBRANCH   3   4
ENDBRANCH   2   3
ENDBRANCH   1   2
BRANCH   1   8
ATOM      8  C   UNL     1     128.346 131.729 127.149  1.00  0.00     0.000 C 
BRANCH   8   9
ATOM      9  C   UNL     1     129.079 130.993 126.018  1.00  0.00     0.000 C 
BRANCH   9  10
ATOM     10  C   UNL     1     128.171 130.706 124.811  1.00  0.00     0.006 C 
BRANCH  10  11
ATOM     11  C   UNL     1     128.827 131.083 123.476  1.00  0.00     0.053 C 
BRANCH  11  12
ATOM     12  C   UNL     1     129.396 129.868 122.814  1.00  0.00     0.041 C 
ATOM     13  O   UNL     1     130.643 129.701 122.763  1.00  0.00    -0.550 OA
ATOM     14  O   UNL     1     128.553 128.944 122.211  1.00  0.00    -0.550 OA
ENDBRANCH  11  12
ENDBRANCH  10  11
ENDBRANCH   9  10
ENDBRANCH   8   9
ENDBRANCH   1   8
TORSDOF 9
ENDMDL
MODEL 4
REMARK VINA RESULT:    -4.040      4.537      6.976
REMARK INTER + INTRA:          -6.603
REMARK INTER:                  -6.270
REMARK INTRA:                  -0.333
REMARK UNBOUND:                -0.437
REMARK SMILES O=C([O-])CCCCCCCCC(=O)[O-]
REMARK SMILES IDX 7 1 6 2 5 3 4 4 2 5 1 6 3 7 8 8 9 9 10 10 11 11 12 12 13 13
REMARK SMILES IDX 14 14
REMARK H PARENT
REMARK Flexibility Score: inf
ROOT
ATOM      1  C   UNL     1     129.294 130.651 124.429  1.00  0.00     0.000 C 
ENDROOT
BRANCH   1   2
ATOM      2  C   UNL     1     128.356 131.089 125.561  1.00  0.00     0.000 C 
BRANCH   2   3
ATOM      3  C   UNL     1     129.082 131.070 126.915  1.00  0.00     0.006 C 
BRANCH   3   4
ATOM      4  C   UNL     1     128.211 131.629 128.048  1.00  0.00     0.053 C 
BRANCH   4   5
ATOM      5  C   UNL     1     128.321 133.120 128.152  1.00  0.00     0.041 C 
ATOM      6  O   UNL     1     127.357 133.851 127.806  1.00  0.00    -0.550 OA
ATOM      7  O   UNL     1     129.501 133.702 128.597  1.00  0.00    -0.550 OA
ENDBRANCH   4   5
ENDBRANCH   3   4
ENDBRANCH   2   3
ENDBRANCH   1   2
BRANCH   1   8
ATOM      8  C   UNL     1     128.527 130.485 123.111  1.00  0.00     0.000 C 
BRANCH   8   9
ATOM      9  C   UNL     1     128.721 129.074 122.537  1.00  0.00     0.000 C 
BRANCH   9  10
ATOM     10  C   UNL     1     127.989 127.997 123.355  1.00  0.00     0.006 C 
BRANCH  10  11
ATOM     11  C   UNL     1     127.309 126.945 122.469  1.00  0.00     0.053 C 
BRANCH  11  12
ATOM     12  C   UNL     1     126.742 125.844 123.309  1.00  0.00     0.041 C 
ATOM     13  O   UNL     1     125.559 125.453 123.127  1.00  0.00    -0.550 OA
ATOM     14  O   UNL     1     127.503 125.282 124.325  1.00  0.00    -0.550 OA
ENDBRANCH  11  12
ENDBRANCH  10  11
ENDBRANCH   9  10
ENDBRANCH   8   9
ENDBRANCH   1   8
TORSDOF 9
ENDMDL
MODEL 5
REMARK VINA RESULT:    -4.005      7.520     10.088
REMARK INTER + INTRA:          -6.549
REMARK INTER:                  -6.178
REMARK INTRA:                  -0.372
REMARK UNBOUND:                -0.437
REMARK SMILES O=C([O-])CCCCCCCCC(=O)[O-]
REMARK SMILES IDX 7 1 6 2 5 3 4 4 2 5 1 6 3 7 8 8 9 9 10 10 11 11 12 12 13 13
REMARK SMILES IDX 14 14
REMARK H PARENT
REMARK Flexibility Score: inf
ROOT
ATOM      1  C   UNL     1     126.965 126.330 122.622  1.00  0.00     0.000 C 
ENDROOT
BRANCH   1   2
ATOM      2  C   UNL     1     127.682 127.425 123.421  1.00  0.00     0.000 C 
BRANCH   2   3
ATOM      3  C   UNL     1     128.295 128.478 122.484  1.00  0.00     0.006 C 
BRANCH   3   4
ATOM      4  C   UNL     1     129.373 129.318 123.181  1.00  0.00     0.053 C 
BRANCH   4   5
ATOM      5  C   UNL     1     128.845 130.650 123.617  1.00  0.00     0.041 C 
ATOM      6  O   UNL     1     128.725 131.587 122.784  1.00  0.00    -0.550 OA
ATOM      7  O   UNL     1     128.518 130.869 124.949  1.00  0.00    -0.550 OA
ENDBRANCH   4   5
ENDBRANCH   3   4
ENDBRANCH   2   3
ENDBRANCH   1   2
BRANCH   1   8
ATOM      8  C   UNL     1     126.918 125.015 123.410  1.00  0.00     0.000 C 
BRANCH   8   9
ATOM      9  C   UNL     1     127.556 125.183 124.797  1.00  0.00     0.000 C 
BRANCH   9  10
ATOM     10  C   UNL     1     126.675 124.623 125.926  1.00  0.00     0.006 C 
BRANCH  10  11
ATOM     11  C   UNL     1     127.419 124.528 127.264  1.00  0.00     0.053 C 
BRANCH  11  12
ATOM     12  C   UNL     1     127.374 123.128 127.788  1.00  0.00     0.041 C 
ATOM     13  O   UNL     1     128.415 122.419 127.790  1.00  0.00    -0.550 OA
ATOM     14  O   UNL     1     126.173 122.588 128.229  1.00  0.00    -0.550 OA
ENDBRANCH  11  12
ENDBRANCH  10  11
ENDBRANCH   9  10
ENDBRANCH   8   9
ENDBRANCH   1   8
TORSDOF 9
ENDMDL
MODEL 6
REMARK VINA RESULT:    -3.942      2.591      6.496
REMARK INTER + INTRA:          -6.453
REMARK INTER:                  -5.992
REMARK INTRA:                  -0.461
REMARK UNBOUND:                -0.437
REMARK SMILES O=C([O-])CCCCCCCCC(=O)[O-]
REMARK SMILES IDX 7 1 6 2 5 3 4 4 2 5 1 6 3 7 8 8 9 9 10 10 11 11 12 12 13 13
REMARK SMILES IDX 14 14
REMARK H PARENT
REMARK Flexibility Score: inf
ROOT
ATOM      1  C   UNL     1     130.147 134.805 129.805  1.00  0.00     0.000 C 
ENDROOT
BRANCH   1   2
ATOM      2  C   UNL     1     130.991 133.539 129.609  1.00  0.00     0.000 C 
BRANCH   2   3
ATOM      3  C   UNL     1     130.758 132.933 128.216  1.00  0.00     0.006 C 
BRANCH   3   4
ATOM      4  C   UNL     1     129.763 131.766 128.249  1.00  0.00     0.053 C 
BRANCH   4   5
ATOM      5  C   UNL     1     128.520 132.071 127.472  1.00  0.00     0.041 C 
ATOM      6  O   UNL     1     128.279 131.459 126.398  1.00  0.00    -0.550 OA
ATOM      7  O   UNL     1     127.645 133.055 127.914  1.00  0.00    -0.550 OA
ENDBRANCH   4   5
ENDBRANCH   3   4
ENDBRANCH   2   3
ENDBRANCH   1   2
BRANCH   1   8
ATOM      8  C   UNL     1     130.812 135.761 130.802  1.00  0.00     0.000 C 
BRANCH   8   9
ATOM      9  C   UNL     1     132.186 135.231 131.238  1.00  0.00     0.000 C 
BRANCH   9  10
ATOM     10  C   UNL     1     132.874 136.144 132.266  1.00  0.00     0.006 C 
BRANCH  10  11
ATOM     11  C   UNL     1     134.020 135.441 133.005  1.00  0.00     0.053 C 
BRANCH  11  12
ATOM     12  C   UNL     1     135.054 134.968 132.034  1.00  0.00     0.041 C 
ATOM     13  O   UNL     1     135.334 133.743 131.953  1.00  0.00    -0.550 OA
ATOM     14  O   UNL     1     135.745 135.884 131.251  1.00  0.00    -0.550 OA
ENDBRANCH  11  12
ENDBRANCH  10  11
ENDBRANCH   9  10
ENDBRANCH   8   9
ENDBRANCH   1   8
TORSDOF 9
ENDMDL
MODEL 7
REMARK VINA RESULT:    -3.941     12.119     15.136
REMARK INTER + INTRA:          -6.451
REMARK INTER:                  -6.063
REMARK INTRA:                  -0.388
REMARK UNBOUND:                -0.437
REMARK SMILES O=C([O-])CCCCCCCCC(=O)[O-]
REMARK SMILES IDX 7 1 6 2 5 3 4 4 2 5 1 6 3 7 8 8 9 9 10 10 11 11 12 12 13 13
REMARK SMILES IDX 14 14
REMARK H PARENT
REMARK Flexibility Score: inf
ROOT
ATOM      1  C   UNL     1     125.877 120.861 130.164  1.00  0.00     0.000 C 
ENDROOT
BRANCH   1   2
ATOM      2  C   UNL     1     124.790 121.864 129.759  1.00  0.00     0.000 C 
BRANCH   2   3
ATOM      3  C   UNL     1     125.052 122.419 128.350  1.00  0.00     0.006 C 
BRANCH   3   4
ATOM      4  C   UNL     1     125.809 123.753 128.383  1.00  0.00     0.053 C 
BRANCH   4   5
ATOM      5  C   UNL     1     127.040 123.716 127.531  1.00  0.00     0.041 C 
ATOM      6  O   UNL     1     127.995 122.952 127.830  1.00  0.00    -0.550 OA
ATOM      7  O   UNL     1     127.147 124.550 126.424  1.00  0.00    -0.550 OA
ENDBRANCH   4   5
ENDBRANCH   3   4
ENDBRANCH   2   3
ENDBRANCH   1   2
BRANCH   1   8
ATOM      8  C   UNL     1     125.306 119.440 130.261  1.00  0.00     0.000 C 
BRANCH   8   9
ATOM      9  C   UNL     1     124.190 119.367 131.314  1.00  0.00     0.000 C 
BRANCH   9  10
ATOM     10  C   UNL     1     123.900 117.929 131.771  1.00  0.00     0.006 C 
BRANCH  10  11
ATOM     11  C   UNL     1     123.048 117.875 133.046  1.00  0.00     0.053 C 
BRANCH  11  12
ATOM     12  C   UNL     1     121.692 118.451 132.790  1.00  0.00     0.041 C 
ATOM     13  O   UNL     1     120.898 117.875 131.999  1.00  0.00    -0.550 OA
ATOM     14  O   UNL     1     121.320 119.648 133.387  1.00  0.00    -0.550 OA
ENDBRANCH  11  12
ENDBRANCH  10  11
ENDBRANCH   9  10
ENDBRANCH   8   9
ENDBRANCH   1   8
TORSDOF 9
ENDMDL
MODEL 8
REMARK VINA RESULT:    -3.924     10.699     13.950
REMARK INTER + INTRA:          -6.425
REMARK INTER:                  -5.921
REMARK INTRA:                  -0.505
REMARK UNBOUND:                -0.437
REMARK SMILES O=C([O-])CCCCCCCCC(=O)[O-]
REMARK SMILES IDX 7 1 6 2 5 3 4 4 2 5 1 6 3 7 8 8 9 9 10 10 11 11 12 12 13 13
REMARK SMILES IDX 14 14
REMARK H PARENT
REMARK Flexibility Score: inf
ROOT
ATOM      1  C   UNL     1     125.109 121.313 130.627  1.00  0.00     0.000 C 
ENDROOT
BRANCH   1   2
ATOM      2  C   UNL     1     124.261 120.068 130.917  1.00  0.00     0.000 C 
BRANCH   2   3
ATOM      3  C   UNL     1     122.985 120.439 131.689  1.00  0.00     0.006 C 
BRANCH   3   4
ATOM      4  C   UNL     1     123.083 120.082 133.178  1.00  0.00     0.053 C 
BRANCH   4   5
ATOM      5  C   UNL     1     123.020 121.300 134.047  1.00  0.00     0.041 C 
ATOM      6  O   UNL     1     124.060 121.974 134.269  1.00  0.00    -0.550 OA
ATOM      7  O   UNL     1     121.820 121.672 134.640  1.00  0.00    -0.550 OA
ENDBRANCH   4   5
ENDBRANCH   3   4
ENDBRANCH   2   3
ENDBRANCH   1   2
BRANCH   1   8
ATOM      8  C   UNL     1     124.255 122.585 130.684  1.00  0.00     0.000 C 
BRANCH   8   9
ATOM      9  C   UNL     1     124.451 123.435 129.419  1.00  0.00     0.000 C 
BRANCH   9  10
ATOM     10  C   UNL     1     125.208 122.684 128.312  1.00  0.00     0.006 C 
BRANCH  10  11
ATOM     11  C   UNL     1     126.649 123.182 128.140  1.00  0.00     0.053 C 
BRANCH  11  12
ATOM     12  C   UNL     1     126.659 124.546 127.527  1.00  0.00     0.041 C 
ATOM     13  O   UNL     1     126.641 124.678 126.274  1.00  0.00    -0.550 OA
ATOM     14  O   UNL     1     126.737 125.672 128.335  1.00  0.00    -0.550 OA
ENDBRANCH  11  12
ENDBRANCH  10  11
ENDBRANCH   9  10
ENDBRANCH   8   9
ENDBRANCH   1   8
TORSDOF 9
ENDMDL
MODEL 9
REMARK VINA RESULT:    -3.793      2.585      2.912
REMARK INTER + INTRA:          -6.225
REMARK INTER:                  -5.855
REMARK INTRA:                  -0.369
REMARK UNBOUND:                -0.437
REMARK SMILES O=C([O-])CCCCCCCCC(=O)[O-]
REMARK SMILES IDX 7 1 6 2 5 3 4 4 2 5 1 6 3 7 8 8 9 9 10 10 11 11 12 12 13 13
REMARK SMILES IDX 14 14
REMARK H PARENT
REMARK Flexibility Score: inf
ROOT
ATOM      1  C   UNL     1     131.717 133.557 132.123  1.00  0.00     0.000 C 
ENDROOT
BRANCH   1   2
ATOM      2  C   UNL     1     132.460 134.708 132.812  1.00  0.00     0.000 C 
BRANCH   2   3
ATOM      3  C   UNL     1     132.662 135.888 131.849  1.00  0.00     0.006 C 
BRANCH   3   4
ATOM      4  C   UNL     1     133.733 136.867 132.348  1.00  0.00     0.053 C 
BRANCH   4   5
ATOM      5  C   UNL     1     135.100 136.256 132.324  1.00  0.00     0.041 C 
ATOM      6  O   UNL     1     135.596 135.856 131.238  1.00  0.00    -0.550 OA
ATOM      7  O   UNL     1     135.814 136.097 133.505  1.00  0.00    -0.550 OA
ENDBRANCH   4   5
ENDBRANCH   3   4
ENDBRANCH   2   3
ENDBRANCH   1   2
BRANCH   1   8
ATOM      8  C   UNL     1     131.375 133.914 130.671  1.00  0.00     0.000 C 
BRANCH   8   9
ATOM      9  C   UNL     1     131.466 132.677 129.765  1.00  0.00     0.000 C 
BRANCH   9  10
ATOM     10  C   UNL     1     130.605 132.806 128.499  1.00  0.00     0.006 C 
BRANCH  10  11
ATOM     11  C   UNL     1     129.748 131.560 128.238  1.00  0.00     0.053 C 
BRANCH  11  12
ATOM     12  C   UNL     1     128.578 131.903 127.372  1.00  0.00     0.041 C 
ATOM     13  O   UNL     1     128.440 131.355 126.247  1.00  0.00    -0.550 OA
ATOM     14  O   UNL     1     127.665 132.864 127.785  1.00  0.00    -0.550 OA
ENDBRANCH  11  12
ENDBRANCH  10  11
ENDBRANCH   9  10
ENDBRANCH   8   9
ENDBRANCH   1   8
TORSDOF 9
ENDMDL
