MODEL 1
REMARK VINA RESULT:    -4.667      0.000      0.000
REMARK INTER + INTRA:          -7.389
REMARK INTER:                  -6.304
REMARK INTRA:                  -1.085
REMARK UNBOUND:                -1.085
REMARK SMILES CC(=O)CCC=C(C)CCC=C(C)C
REMARK SMILES IDX 7 1 6 2 8 3 9 4 10 5 11 6 13 7 12 8 14 9 5 10 4 11 2 12 3 13
REMARK SMILES IDX 1 14
REMARK H PARENT
REMARK Flexibility Score: inf
ROOT
ATOM      1  C   UNL     1       8.912  -3.313  42.378  1.00  0.00    -0.077 C 
ATOM      2  C   UNL     1       7.787  -3.997  42.686  1.00  0.00    -0.028 C 
ATOM      3  C   UNL     1      10.265  -3.983  42.330  1.00  0.00     0.039 C 
ENDROOT
BRANCH   1   4
ATOM      4  C   UNL     1       8.812  -1.829  42.104  1.00  0.00     0.034 C 
BRANCH   4   5
ATOM      5  C   UNL     1       9.190  -1.519  40.650  1.00  0.00     0.032 C 
BRANCH   5   6
ATOM      6  C   UNL     1       7.969  -1.537  39.765  1.00  0.00    -0.028 C 
ATOM      7  C   UNL     1       8.502  -3.790  38.808  1.00  0.00     0.039 C 
ATOM      8  C   UNL     1       7.634  -2.561  38.949  1.00  0.00    -0.080 C 
ATOM      9  C   UNL     1       6.362  -2.454  38.148  1.00  0.00     0.039 C 
ENDBRANCH   5   6
ENDBRANCH   4   5
ENDBRANCH   1   4
BRANCH   2  10
ATOM     10  C   UNL     1       7.730  -5.487  42.926  1.00  0.00     0.035 C 
BRANCH  10  11
ATOM     11  C   UNL     1       7.468  -6.269  41.632  1.00  0.00     0.079 C 
BRANCH  11  12
ATOM     12  C   UNL     1       8.346  -7.491  41.531  1.00  0.00     0.130 C 
ATOM     13  O   UNL     1       9.537  -7.361  41.288  1.00  0.00    -0.300 OA
ATOM     14  C   UNL     1       7.792  -8.869  41.738  1.00  0.00     0.087 C 
ENDBRANCH  11  12
ENDBRANCH  10  11
ENDBRANCH   2  10
TORSDOF 6
ENDMDL
MODEL 2
REMARK VINA RESULT:    -4.656      2.651      4.042
REMARK INTER + INTRA:          -7.374
REMARK INTER:                  -6.339
REMARK INTRA:                  -1.035
REMARK UNBOUND:                -1.085
REMARK SMILES CC(=O)CCC=C(C)CCC=C(C)C
REMARK SMILES IDX 7 1 6 2 8 3 9 4 10 5 11 6 13 7 12 8 14 9 5 10 4 11 2 12 3 13
REMARK SMILES IDX 1 14
REMARK H PARENT
REMARK Flexibility Score: inf
ROOT
ATOM      1  C   UNL     1       7.682  -6.521  42.886  1.00  0.00    -0.077 C 
ATOM      2  C   UNL     1       7.675  -7.241  41.743  1.00  0.00    -0.028 C 
ATOM      3  C   UNL     1       8.052  -7.136  44.216  1.00  0.00     0.039 C 
ENDROOT
BRANCH   1   4
ATOM      4  C   UNL     1       7.280  -5.063  42.834  1.00  0.00     0.034 C 
BRANCH   4   5
ATOM      5  C   UNL     1       8.006  -4.342  41.692  1.00  0.00     0.032 C 
BRANCH   5   6
ATOM      6  C   UNL     1       9.361  -3.856  42.141  1.00  0.00    -0.028 C 
ATOM      7  C   UNL     1      10.597  -5.331  40.539  1.00  0.00     0.039 C 
ATOM      8  C   UNL     1      10.534  -4.273  41.615  1.00  0.00    -0.080 C 
ATOM      9  C   UNL     1      11.811  -3.670  42.140  1.00  0.00     0.039 C 
ENDBRANCH   5   6
ENDBRANCH   4   5
ENDBRANCH   1   4
BRANCH   2  10
ATOM     10  C   UNL     1       8.106  -8.685  41.639  1.00  0.00     0.035 C 
BRANCH  10  11
ATOM     11  C   UNL     1       6.997  -9.576  41.062  1.00  0.00     0.079 C 
BRANCH  11  12
ATOM     12  C   UNL     1       6.408 -10.485  42.111  1.00  0.00     0.130 C 
ATOM     13  O   UNL     1       5.479 -11.223  41.819  1.00  0.00    -0.300 OA
ATOM     14  C   UNL     1       6.950 -10.514  43.510  1.00  0.00     0.087 C 
ENDBRANCH  11  12
ENDBRANCH  10  11
ENDBRANCH   2  10
TORSDOF 6
ENDMDL
MODEL 3
REMARK VINA RESULT:    -4.602      2.229      5.820
REMARK INTER + INTRA:          -7.301
REMARK INTER:                  -6.779
REMARK INTRA:                  -0.522
REMARK UNBOUND:                -1.085
REMARK SMILES CC(=O)CCC=C(C)CCC=C(C)C
REMARK SMILES IDX 7 1 6 2 8 3 9 4 10 5 11 6 13 7 12 8 14 9 5 10 4 11 2 12 3 13
REMARK SMILES IDX 1 14
REMARK H PARENT
REMARK Flexibility Score: inf
ROOT
ATOM      1  C   UNL     1       7.960  -4.295  42.055  1.00  0.00    -0.077 C 
ATOM      2  C   UNL     1       8.077  -4.458  40.717  1.00  0.00    -0.028 C 
ATOM      3  C   UNL     1       8.272  -2.979  42.729  1.00  0.00     0.039 C 
ENDROOT
BRANCH   1   4
ATOM      4  C   UNL     1       7.531  -5.474  42.899  1.00  0.00     0.034 C 
BRANCH   4   5
ATOM      5  C   UNL     1       8.658  -6.509  42.997  1.00  0.00     0.032 C 
BRANCH   5   6
ATOM      6  C   UNL     1       8.227  -7.692  43.828  1.00  0.00    -0.028 C 
ATOM      7  C   UNL     1       7.695  -9.103  41.828  1.00  0.00     0.039 C 
ATOM      8  C   UNL     1       7.816  -8.874  43.316  1.00  0.00    -0.080 C 
ATOM      9  C   UNL     1       7.451  -9.981  44.270  1.00  0.00     0.039 C 
ENDBRANCH   5   6
ENDBRANCH   4   5
ENDBRANCH   1   4
BRANCH   2  10
ATOM     10  C   UNL     1       8.439  -3.357  39.750  1.00  0.00     0.035 C 
BRANCH  10  11
ATOM     11  C   UNL     1       8.460  -3.852  38.297  1.00  0.00     0.079 C 
BRANCH  11  12
ATOM     12  C   UNL     1       7.293  -3.315  37.507  1.00  0.00     0.130 C 
ATOM     13  O   UNL     1       7.078  -3.741  36.382  1.00  0.00    -0.300 OA
ATOM     14  C   UNL     1       6.375  -2.276  38.080  1.00  0.00     0.087 C 
ENDBRANCH  11  12
ENDBRANCH  10  11
ENDBRANCH   2  10
TORSDOF 6
ENDMDL
MODEL 4
REMARK VINA RESULT:    -4.594      3.469      7.900
REMARK INTER + INTRA:          -7.291
REMARK INTER:                  -6.428
REMARK INTRA:                  -0.862
REMARK UNBOUND:                -1.085
REMARK SMILES CC(=O)CCC=C(C)CCC=C(C)C
REMARK SMILES IDX 7 1 6 2 8 3 9 4 10 5 11 6 13 7 12 8 14 9 5 10 4 11 2 12 3 13
REMARK SMILES IDX 1 14
REMARK H PARENT
REMARK Flexibility Score: inf
ROOT
ATOM      1  C   UNL     1       6.489 -10.454  42.710  1.00  0.00    -0.077 C 
ATOM      2  C   UNL     1       7.020  -9.743  41.689  1.00  0.00    -0.028 C 
ATOM      3  C   UNL     1       7.130 -10.487  44.078  1.00  0.00     0.039 C 
ENDROOT
BRANCH   1   4
ATOM      4  C   UNL     1       5.233 -11.261  42.462  1.00  0.00     0.034 C 
BRANCH   4   5
ATOM      5  C   UNL     1       4.971 -11.408  40.959  1.00  0.00     0.032 C 
BRANCH   5   6
ATOM      6  C   UNL     1       5.261 -12.815  40.500  1.00  0.00    -0.028 C 
ATOM      7  C   UNL     1       7.008 -12.088  38.859  1.00  0.00     0.039 C 
ATOM      8  C   UNL     1       6.192 -13.139  39.575  1.00  0.00    -0.080 C 
ATOM      9  C   UNL     1       6.398 -14.594  39.243  1.00  0.00     0.039 C 
ENDBRANCH   5   6
ENDBRANCH   4   5
ENDBRANCH   1   4
BRANCH   2  10
ATOM     10  C   UNL     1       8.233  -8.852  41.807  1.00  0.00     0.035 C 
BRANCH  10  11
ATOM     11  C   UNL     1       7.880  -7.371  41.606  1.00  0.00     0.079 C 
BRANCH  11  12
ATOM     12  C   UNL     1       7.902  -6.610  42.907  1.00  0.00     0.130 C 
ATOM     13  O   UNL     1       8.412  -7.118  43.896  1.00  0.00    -0.300 OA
ATOM     14  C   UNL     1       7.322  -5.230  43.014  1.00  0.00     0.087 C 
ENDBRANCH  11  12
ENDBRANCH  10  11
ENDBRANCH   2  10
TORSDOF 6
ENDMDL
MODEL 5
REMARK VINA RESULT:    -4.523      1.814      2.906
REMARK INTER + INTRA:          -7.195
REMARK INTER:                  -6.447
REMARK INTRA:                  -0.748
REMARK UNBOUND:                -1.085
REMARK SMILES CC(=O)CCC=C(C)CCC=C(C)C
REMARK SMILES IDX 7 1 6 2 8 3 9 4 10 5 11 6 13 7 12 8 14 9 5 10 4 11 2 12 3 13
REMARK SMILES IDX 1 14
REMARK H PARENT
REMARK Flexibility Score: inf
ROOT
ATOM      1  C   UNL     1       8.145  -2.972  39.961  1.00  0.00    -0.077 C 
ATOM      2  C   UNL     1       8.153  -2.817  41.304  1.00  0.00    -0.028 C 
ATOM      3  C   UNL     1       8.712  -4.205  39.296  1.00  0.00     0.039 C 
ENDROOT
BRANCH   1   4
ATOM      4  C   UNL     1       7.578  -1.864  39.102  1.00  0.00     0.034 C 
BRANCH   4   5
ATOM      5  C   UNL     1       6.389  -2.372  38.278  1.00  0.00     0.032 C 
BRANCH   5   6
ATOM      6  C   UNL     1       6.235  -1.570  37.010  1.00  0.00    -0.028 C 
ATOM      7  C   UNL     1       7.340  -3.311  35.588  1.00  0.00     0.039 C 
ATOM      8  C   UNL     1       6.635  -1.990  35.789  1.00  0.00    -0.080 C 
ATOM      9  C   UNL     1       6.381  -1.095  34.603  1.00  0.00     0.039 C 
ENDBRANCH   5   6
ENDBRANCH   4   5
ENDBRANCH   1   4
BRANCH   2  10
ATOM     10  C   UNL     1       8.635  -3.861  42.283  1.00  0.00     0.035 C 
BRANCH  10  11
ATOM     11  C   UNL     1       7.486  -4.735  42.805  1.00  0.00     0.079 C 
BRANCH  11  12
ATOM     12  C   UNL     1       7.863  -6.194  42.834  1.00  0.00     0.130 C 
ATOM     13  O   UNL     1       8.203  -6.709  43.890  1.00  0.00    -0.300 OA
ATOM     14  C   UNL     1       7.814  -7.038  41.595  1.00  0.00     0.087 C 
ENDBRANCH  11  12
ENDBRANCH  10  11
ENDBRANCH   2  10
TORSDOF 6
ENDMDL
MODEL 6
REMARK VINA RESULT:    -4.505      1.937      3.248
REMARK INTER + INTRA:          -7.171
REMARK INTER:                  -6.626
REMARK INTRA:                  -0.545
REMARK UNBOUND:                -1.085
REMARK SMILES CC(=O)CCC=C(C)CCC=C(C)C
REMARK SMILES IDX 7 1 6 2 8 3 9 4 10 5 11 6 13 7 12 8 14 9 5 10 4 11 2 12 3 13
REMARK SMILES IDX 1 14
REMARK H PARENT
REMARK Flexibility Score: inf
ROOT
ATOM      1  C   UNL     1       7.867  -6.431  42.872  1.00  0.00    -0.077 C 
ATOM      2  C   UNL     1       7.957  -7.152  41.732  1.00  0.00    -0.028 C 
ATOM      3  C   UNL     1       8.005  -7.071  44.234  1.00  0.00     0.039 C 
ENDROOT
BRANCH   1   4
ATOM      4  C   UNL     1       7.593  -4.946  42.777  1.00  0.00     0.034 C 
BRANCH   4   5
ATOM      5  C   UNL     1       8.575  -4.274  41.810  1.00  0.00     0.032 C 
BRANCH   5   6
ATOM      6  C   UNL     1       7.897  -3.940  40.505  1.00  0.00    -0.028 C 
ATOM      7  C   UNL     1       8.310  -1.481  40.739  1.00  0.00     0.039 C 
ATOM      8  C   UNL     1       7.792  -2.692  39.998  1.00  0.00    -0.080 C 
ATOM      9  C   UNL     1       7.119  -2.514  38.662  1.00  0.00     0.039 C 
ENDBRANCH   5   6
ENDBRANCH   4   5
ENDBRANCH   1   4
BRANCH   2  10
ATOM     10  C   UNL     1       8.283  -8.626  41.675  1.00  0.00     0.035 C 
BRANCH  10  11
ATOM     11  C   UNL     1       7.033  -9.481  41.423  1.00  0.00     0.079 C 
BRANCH  11  12
ATOM     12  C   UNL     1       6.991 -10.687  42.328  1.00  0.00     0.130 C 
ATOM     13  O   UNL     1       7.078 -11.807  41.846  1.00  0.00    -0.300 OA
ATOM     14  C   UNL     1       6.860 -10.543  43.815  1.00  0.00     0.087 C 
ENDBRANCH  11  12
ENDBRANCH  10  11
ENDBRANCH   2  10
TORSDOF 6
ENDMDL
MODEL 7
REMARK VINA RESULT:    -4.495      2.434      6.795
REMARK INTER + INTRA:          -7.156
REMARK INTER:                  -6.422
REMARK INTRA:                  -0.734
REMARK UNBOUND:                -1.085
REMARK SMILES CC(=O)CCC=C(C)CCC=C(C)C
REMARK SMILES IDX 7 1 6 2 8 3 9 4 10 5 11 6 13 7 12 8 14 9 5 10 4 11 2 12 3 13
REMARK SMILES IDX 1 14
REMARK H PARENT
REMARK Flexibility Score: inf
ROOT
ATOM      1  C   UNL     1       8.119  -7.432  42.351  1.00  0.00    -0.077 C 
ATOM      2  C   UNL     1       7.765  -6.346  41.628  1.00  0.00    -0.028 C 
ATOM      3  C   UNL     1       8.343  -7.358  43.844  1.00  0.00     0.039 C 
ENDROOT
BRANCH   1   4
ATOM      4  C   UNL     1       8.324  -8.750  41.637  1.00  0.00     0.034 C 
BRANCH   4   5
ATOM      5  C   UNL     1       6.985  -9.467  41.428  1.00  0.00     0.032 C 
BRANCH   5   6
ATOM      6  C   UNL     1       7.114 -10.939  41.725  1.00  0.00    -0.028 C 
ATOM      7  C   UNL     1       6.746 -10.635  44.184  1.00  0.00     0.039 C 
ATOM      8  C   UNL     1       6.985 -11.483  42.956  1.00  0.00    -0.080 C 
ATOM      9  C   UNL     1       7.102 -12.978  43.096  1.00  0.00     0.039 C 
ENDBRANCH   5   6
ENDBRANCH   4   5
ENDBRANCH   1   4
BRANCH   2  10
ATOM     10  C   UNL     1       7.473  -4.985  42.214  1.00  0.00     0.035 C 
BRANCH  10  11
ATOM     11  C   UNL     1       8.287  -3.878  41.531  1.00  0.00     0.079 C 
BRANCH  11  12
ATOM     12  C   UNL     1       9.459  -3.445  42.375  1.00  0.00     0.130 C 
ATOM     13  O   UNL     1       9.335  -2.502  43.142  1.00  0.00    -0.300 OA
ATOM     14  C   UNL     1      10.776  -4.159  42.305  1.00  0.00     0.087 C 
ENDBRANCH  11  12
ENDBRANCH  10  11
ENDBRANCH   2  10
TORSDOF 6
ENDMDL
MODEL 8
REMARK VINA RESULT:    -4.432      1.329      2.048
REMARK INTER + INTRA:          -7.072
REMARK INTER:                  -6.493
REMARK INTRA:                  -0.579
REMARK UNBOUND:                -1.085
REMARK SMILES CC(=O)CCC=C(C)CCC=C(C)C
REMARK SMILES IDX 7 1 6 2 8 3 9 4 10 5 11 6 13 7 12 8 14 9 5 10 4 11 2 12 3 13
REMARK SMILES IDX 1 14
REMARK H PARENT
REMARK Flexibility Score: inf
ROOT
ATOM      1  C   UNL     1       8.327  -3.406  41.434  1.00  0.00    -0.077 C 
ATOM      2  C   UNL     1       7.839  -4.666  41.379  1.00  0.00    -0.028 C 
ATOM      3  C   UNL     1       8.613  -2.718  42.749  1.00  0.00     0.039 C 
ENDROOT
BRANCH   1   4
ATOM      4  C   UNL     1       8.564  -2.657  40.141  1.00  0.00     0.034 C 
BRANCH   4   5
ATOM      5  C   UNL     1       7.282  -2.603  39.303  1.00  0.00     0.032 C 
BRANCH   5   6
ATOM      6  C   UNL     1       7.469  -3.325  37.992  1.00  0.00    -0.028 C 
ATOM      7  C   UNL     1       6.070  -1.689  36.711  1.00  0.00     0.039 C 
ATOM      8  C   UNL     1       6.951  -2.912  36.814  1.00  0.00    -0.080 C 
ATOM      9  C   UNL     1       7.253  -3.716  35.575  1.00  0.00     0.039 C 
ENDBRANCH   5   6
ENDBRANCH   4   5
ENDBRANCH   1   4
BRANCH   2  10
ATOM     10  C   UNL     1       7.609  -5.548  42.583  1.00  0.00     0.035 C 
BRANCH  10  11
ATOM     11  C   UNL     1       8.768  -6.528  42.809  1.00  0.00     0.079 C 
BRANCH  11  12
ATOM     12  C   UNL     1       8.792  -7.615  41.764  1.00  0.00     0.130 C 
ATOM     13  O   UNL     1       9.810  -7.809  41.117  1.00  0.00    -0.300 OA
ATOM     14  C   UNL     1       7.592  -8.480  41.511  1.00  0.00     0.087 C 
ENDBRANCH  11  12
ENDBRANCH  10  11
ENDBRANCH   2  10
TORSDOF 6
ENDMDL
MODEL 9
REMARK VINA RESULT:    -4.404      2.632      5.885
REMARK INTER + INTRA:          -7.034
REMARK INTER:                  -6.554
REMARK INTRA:                  -0.480
REMARK UNBOUND:                -1.085
REMARK SMILES CC(=O)CCC=C(C)CCC=C(C)C
REMARK SMILES IDX 7 1 6 2 8 3 9 4 10 5 11 6 13 7 12 8 14 9 5 10 4 11 2 12 3 13
REMARK SMILES IDX 1 14
REMARK H PARENT
REMARK Flexibility Score: inf
ROOT
ATOM      1  C   UNL     1       8.307  -3.080  40.813  1.00  0.00    -0.077 C 
ATOM      2  C   UNL     1       7.814  -3.351  39.583  1.00  0.00    -0.028 C 
ATOM      3  C   UNL     1       8.299  -1.682  41.386  1.00  0.00     0.039 C 
ENDROOT
BRANCH   1   4
ATOM      4  C   UNL     1       8.909  -4.208  41.622  1.00  0.00     0.034 C 
BRANCH   4   5
ATOM      5  C   UNL     1       7.824  -4.939  42.423  1.00  0.00     0.032 C 
BRANCH   5   6
ATOM      6  C   UNL     1       7.489  -6.263  41.783  1.00  0.00    -0.028 C 
ATOM      7  C   UNL     1       8.979  -7.562  43.320  1.00  0.00     0.039 C 
ATOM      8  C   UNL     1       7.981  -7.454  42.192  1.00  0.00    -0.080 C 
ATOM      9  C   UNL     1       7.526  -8.701  41.479  1.00  0.00     0.039 C 
ENDBRANCH   5   6
ENDBRANCH   4   5
ENDBRANCH   1   4
BRANCH   2  10
ATOM     10  C   UNL     1       7.137  -2.339  38.691  1.00  0.00     0.035 C 
BRANCH  10  11
ATOM     11  C   UNL     1       6.679  -2.957  37.362  1.00  0.00     0.079 C 
BRANCH  11  12
ATOM     12  C   UNL     1       6.126  -1.915  36.423  1.00  0.00     0.130 C 
ATOM     13  O   UNL     1       6.166  -2.108  35.216  1.00  0.00    -0.300 OA
ATOM     14  C   UNL     1       5.510  -0.648  36.938  1.00  0.00     0.087 C 
ENDBRANCH  11  12
ENDBRANCH  10  11
ENDBRANCH   2  10
TORSDOF 6
ENDMDL
