MODEL 1
REMARK VINA RESULT:    -4.416      0.000      0.000
REMARK INTER + INTRA:          -4.416
REMARK INTER:                  -4.416
REMARK INTRA:                   0.000
REMARK UNBOUND:                 0.000
REMARK SMILES c1ccc2ccccc2c1
REMARK SMILES IDX 2 1 1 2 10 3 9 4 8 5 7 6 6 7 5 8 4 9 3 10
REMARK H PARENT
REMARK Flexibility Score: inf
ROOT
ATOM      1  C   UNL     1     127.760 124.343 132.740  1.00  0.00     0.001 A 
ATOM      2  C   UNL     1     127.031 123.179 132.997  1.00  0.00     0.001 A 
ATOM      3  C   UNL     1     127.358 122.370 134.089  1.00  0.00     0.009 A 
ATOM      4  C   UNL     1     128.422 122.724 134.933  1.00  0.00    -0.018 A 
ATOM      5  C   UNL     1     128.762 121.921 136.033  1.00  0.00     0.009 A 
ATOM      6  C   UNL     1     129.825 122.285 136.865  1.00  0.00     0.001 A 
ATOM      7  C   UNL     1     130.554 123.449 136.609  1.00  0.00     0.001 A 
ATOM      8  C   UNL     1     130.226 124.258 135.516  1.00  0.00     0.009 A 
ATOM      9  C   UNL     1     129.162 123.904 134.672  1.00  0.00    -0.018 A 
ATOM     10  C   UNL     1     128.823 124.707 133.572  1.00  0.00     0.009 A 
ENDROOT
TORSDOF 0
ENDMDL
MODEL 2
REMARK VINA RESULT:    -4.394      0.072      4.018
REMARK INTER + INTRA:          -4.394
REMARK INTER:                  -4.394
REMARK INTRA:                   0.000
REMARK UNBOUND:                 0.000
REMARK SMILES c1ccc2ccccc2c1
REMARK SMILES IDX 2 1 1 2 10 3 9 4 8 5 7 6 6 7 5 8 4 9 3 10
REMARK H PARENT
REMARK Flexibility Score: inf
ROOT
ATOM      1  C   UNL     1     129.889 122.264 136.888  1.00  0.00     0.001 A 
ATOM      2  C   UNL     1     130.621 123.419 136.598  1.00  0.00     0.001 A 
ATOM      3  C   UNL     1     130.273 124.217 135.504  1.00  0.00     0.009 A 
ATOM      4  C   UNL     1     129.186 123.862 134.691  1.00  0.00    -0.018 A 
ATOM      5  C   UNL     1     128.826 124.654 133.590  1.00  0.00     0.009 A 
ATOM      6  C   UNL     1     127.741 124.288 132.787  1.00  0.00     0.001 A 
ATOM      7  C   UNL     1     127.009 123.134 133.077  1.00  0.00     0.001 A 
ATOM      8  C   UNL     1     127.357 122.335 134.171  1.00  0.00     0.009 A 
ATOM      9  C   UNL     1     128.444 122.691 134.984  1.00  0.00    -0.018 A 
ATOM     10  C   UNL     1     128.804 121.898 136.085  1.00  0.00     0.009 A 
ENDROOT
TORSDOF 0
ENDMDL
MODEL 3
REMARK VINA RESULT:    -4.385      0.119      2.083
REMARK INTER + INTRA:          -4.385
REMARK INTER:                  -4.385
REMARK INTRA:                   0.000
REMARK UNBOUND:                 0.000
REMARK SMILES c1ccc2ccccc2c1
REMARK SMILES IDX 2 1 1 2 10 3 9 4 8 5 7 6 6 7 5 8 4 9 3 10
REMARK H PARENT
REMARK Flexibility Score: inf
ROOT
ATOM      1  C   UNL     1     127.003 123.045 133.099  1.00  0.00     0.001 A 
ATOM      2  C   UNL     1     127.716 124.199 132.766  1.00  0.00     0.001 A 
ATOM      3  C   UNL     1     128.801 124.607 133.549  1.00  0.00     0.009 A 
ATOM      4  C   UNL     1     129.177 123.858 134.675  1.00  0.00    -0.018 A 
ATOM      5  C   UNL     1     130.264 124.256 135.470  1.00  0.00     0.009 A 
ATOM      6  C   UNL     1     130.627 123.501 136.589  1.00  0.00     0.001 A 
ATOM      7  C   UNL     1     129.914 122.347 136.922  1.00  0.00     0.001 A 
ATOM      8  C   UNL     1     128.829 121.939 136.139  1.00  0.00     0.009 A 
ATOM      9  C   UNL     1     128.453 122.688 135.013  1.00  0.00    -0.018 A 
ATOM     10  C   UNL     1     127.367 122.290 134.219  1.00  0.00     0.009 A 
ENDROOT
TORSDOF 0
ENDMDL
MODEL 4
REMARK VINA RESULT:    -4.350      1.257      2.372
REMARK INTER + INTRA:          -4.350
REMARK INTER:                  -4.350
REMARK INTRA:                   0.000
REMARK UNBOUND:                 0.000
REMARK SMILES c1ccc2ccccc2c1
REMARK SMILES IDX 2 1 1 2 10 3 9 4 8 5 7 6 6 7 5 8 4 9 3 10
REMARK H PARENT
REMARK Flexibility Score: inf
ROOT
ATOM      1  C   UNL     1     129.350 124.894 133.424  1.00  0.00     0.001 A 
ATOM      2  C   UNL     1     128.123 124.895 132.756  1.00  0.00     0.001 A 
ATOM      3  C   UNL     1     127.033 124.193 133.283  1.00  0.00     0.009 A 
ATOM      4  C   UNL     1     127.169 123.484 134.487  1.00  0.00    -0.018 A 
ATOM      5  C   UNL     1     126.084 122.776 135.027  1.00  0.00     0.009 A 
ATOM      6  C   UNL     1     126.233 122.073 136.227  1.00  0.00     0.001 A 
ATOM      7  C   UNL     1     127.461 122.072 136.894  1.00  0.00     0.001 A 
ATOM      8  C   UNL     1     128.550 122.773 136.367  1.00  0.00     0.009 A 
ATOM      9  C   UNL     1     128.414 123.482 135.164  1.00  0.00    -0.018 A 
ATOM     10  C   UNL     1     129.499 124.191 134.623  1.00  0.00     0.009 A 
ENDROOT
TORSDOF 0
ENDMDL
MODEL 5
REMARK VINA RESULT:    -4.347      1.332      3.370
REMARK INTER + INTRA:          -4.347
REMARK INTER:                  -4.347
REMARK INTRA:                   0.000
REMARK UNBOUND:                 0.000
REMARK SMILES c1ccc2ccccc2c1
REMARK SMILES IDX 2 1 1 2 10 3 9 4 8 5 7 6 6 7 5 8 4 9 3 10
REMARK H PARENT
REMARK Flexibility Score: inf
ROOT
ATOM      1  C   UNL     1     125.816 122.343 135.776  1.00  0.00     0.001 A 
ATOM      2  C   UNL     1     126.862 122.303 136.701  1.00  0.00     0.001 A 
ATOM      3  C   UNL     1     128.088 122.907 136.404  1.00  0.00     0.009 A 
ATOM      4  C   UNL     1     128.272 123.557 135.173  1.00  0.00    -0.018 A 
ATOM      5  C   UNL     1     129.497 124.168 134.862  1.00  0.00     0.009 A 
ATOM      6  C   UNL     1     129.668 124.811 133.632  1.00  0.00     0.001 A 
ATOM      7  C   UNL     1     128.621 124.851 132.708  1.00  0.00     0.001 A 
ATOM      8  C   UNL     1     127.395 124.247 133.005  1.00  0.00     0.009 A 
ATOM      9  C   UNL     1     127.211 123.597 134.235  1.00  0.00    -0.018 A 
ATOM     10  C   UNL     1     125.986 122.986 134.546  1.00  0.00     0.009 A 
ENDROOT
TORSDOF 0
ENDMDL
MODEL 6
REMARK VINA RESULT:    -4.342      1.263      2.667
REMARK INTER + INTRA:          -4.342
REMARK INTER:                  -4.342
REMARK INTRA:                   0.000
REMARK UNBOUND:                 0.000
REMARK SMILES c1ccc2ccccc2c1
REMARK SMILES IDX 2 1 1 2 10 3 9 4 8 5 7 6 6 7 5 8 4 9 3 10
REMARK H PARENT
REMARK Flexibility Score: inf
ROOT
ATOM      1  C   UNL     1     128.125 124.839 132.768  1.00  0.00     0.001 A 
ATOM      2  C   UNL     1     129.350 124.891 133.437  1.00  0.00     0.001 A 
ATOM      3  C   UNL     1     129.517 124.223 134.655  1.00  0.00     0.009 A 
ATOM      4  C   UNL     1     128.452 123.497 135.210  1.00  0.00    -0.018 A 
ATOM      5  C   UNL     1     128.605 122.822 136.431  1.00  0.00     0.009 A 
ATOM      6  C   UNL     1     127.536 122.102 136.974  1.00  0.00     0.001 A 
ATOM      7  C   UNL     1     126.311 122.050 136.305  1.00  0.00     0.001 A 
ATOM      8  C   UNL     1     126.144 122.718 135.087  1.00  0.00     0.009 A 
ATOM      9  C   UNL     1     127.209 123.444 134.532  1.00  0.00    -0.018 A 
ATOM     10  C   UNL     1     127.055 124.119 133.311  1.00  0.00     0.009 A 
ENDROOT
TORSDOF 0
ENDMDL
MODEL 7
REMARK VINA RESULT:    -4.330      0.180      3.438
REMARK INTER + INTRA:          -4.330
REMARK INTER:                  -4.330
REMARK INTRA:                   0.000
REMARK UNBOUND:                 0.000
REMARK SMILES c1ccc2ccccc2c1
REMARK SMILES IDX 2 1 1 2 10 3 9 4 8 5 7 6 6 7 5 8 4 9 3 10
REMARK H PARENT
REMARK Flexibility Score: inf
ROOT
ATOM      1  C   UNL     1     130.720 123.443 136.516  1.00  0.00     0.001 A 
ATOM      2  C   UNL     1     129.982 122.318 136.893  1.00  0.00     0.001 A 
ATOM      3  C   UNL     1     128.869 121.922 136.144  1.00  0.00     0.009 A 
ATOM      4  C   UNL     1     128.488 122.654 135.010  1.00  0.00    -0.018 A 
ATOM      5  C   UNL     1     127.373 122.268 134.249  1.00  0.00     0.009 A 
ATOM      6  C   UNL     1     127.004 123.007 133.121  1.00  0.00     0.001 A 
ATOM      7  C   UNL     1     127.741 124.132 132.743  1.00  0.00     0.001 A 
ATOM      8  C   UNL     1     128.854 124.528 133.492  1.00  0.00     0.009 A 
ATOM      9  C   UNL     1     129.235 123.796 134.627  1.00  0.00    -0.018 A 
ATOM     10  C   UNL     1     130.350 124.182 135.388  1.00  0.00     0.009 A 
ENDROOT
TORSDOF 0
ENDMDL
MODEL 8
REMARK VINA RESULT:    -4.223     10.324     12.176
REMARK INTER + INTRA:          -4.223
REMARK INTER:                  -4.223
REMARK INTRA:                   0.000
REMARK UNBOUND:                 0.000
REMARK SMILES c1ccc2ccccc2c1
REMARK SMILES IDX 2 1 1 2 10 3 9 4 8 5 7 6 6 7 5 8 4 9 3 10
REMARK H PARENT
REMARK Flexibility Score: inf
ROOT
ATOM      1  C   UNL     1     131.697 129.488 142.824  1.00  0.00     0.001 A 
ATOM      2  C   UNL     1     131.976 130.213 143.984  1.00  0.00     0.001 A 
ATOM      3  C   UNL     1     131.791 131.600 144.010  1.00  0.00     0.009 A 
ATOM      4  C   UNL     1     131.324 132.268 142.868  1.00  0.00    -0.018 A 
ATOM      5  C   UNL     1     131.134 133.659 142.879  1.00  0.00     0.009 A 
ATOM      6  C   UNL     1     130.669 134.313 141.734  1.00  0.00     0.001 A 
ATOM      7  C   UNL     1     130.390 133.587 140.573  1.00  0.00     0.001 A 
ATOM      8  C   UNL     1     130.575 132.201 140.548  1.00  0.00     0.009 A 
ATOM      9  C   UNL     1     131.042 131.533 141.690  1.00  0.00    -0.018 A 
ATOM     10  C   UNL     1     131.232 130.142 141.678  1.00  0.00     0.009 A 
ENDROOT
TORSDOF 0
ENDMDL
MODEL 9
REMARK VINA RESULT:    -4.218     10.380     11.900
REMARK INTER + INTRA:          -4.218
REMARK INTER:                  -4.218
REMARK INTRA:                   0.000
REMARK UNBOUND:                 0.000
REMARK SMILES c1ccc2ccccc2c1
REMARK SMILES IDX 2 1 1 2 10 3 9 4 8 5 7 6 6 7 5 8 4 9 3 10
REMARK H PARENT
REMARK Flexibility Score: inf
ROOT
ATOM      1  C   UNL     1     130.376 133.604 140.621  1.00  0.00     0.001 A 
ATOM      2  C   UNL     1     130.674 134.341 141.770  1.00  0.00     0.001 A 
ATOM      3  C   UNL     1     131.160 133.698 142.913  1.00  0.00     0.009 A 
ATOM      4  C   UNL     1     131.350 132.308 142.911  1.00  0.00    -0.018 A 
ATOM      5  C   UNL     1     131.837 131.649 144.051  1.00  0.00     0.009 A 
ATOM      6  C   UNL     1     132.021 130.263 144.036  1.00  0.00     0.001 A 
ATOM      7  C   UNL     1     131.723 129.526 142.887  1.00  0.00     0.001 A 
ATOM      8  C   UNL     1     131.237 130.169 141.744  1.00  0.00     0.009 A 
ATOM      9  C   UNL     1     131.047 131.560 141.746  1.00  0.00    -0.018 A 
ATOM     10  C   UNL     1     130.560 132.218 140.606  1.00  0.00     0.009 A 
ENDROOT
TORSDOF 0
ENDMDL
