MODEL 1
REMARK VINA RESULT:    12.674      0.000      0.000
REMARK INTER + INTRA:          12.674
REMARK INTER:                  12.674
REMARK INTRA:                   0.000
REMARK UNBOUND:                 0.000
REMARK SMILES C=C1CCC[C@]2(C)C=C3OC(=O)C(C)=C3C[C@H]12
REMARK SMILES IDX 14 1 13 2 15 3 16 4 17 5 2 6 1 7 3 8 4 9 5 10 6 11 8 12 9 13
REMARK SMILES IDX 10 14 11 15 12 16 7 17
REMARK H PARENT
REMARK Flexibility Score: inf
ROOT
ATOM      1  C   UNL     1      18.773  92.732   9.675  1.00  0.00     0.053 C 
ATOM      2  C   UNL     1      18.539  93.776   8.628  1.00  0.00     0.041 C 
ATOM      3  C   UNL     1      18.168  95.035   8.835  1.00  0.00     0.005 C 
ATOM      4  C   UNL     1      17.978  95.764  10.125  1.00  0.00     0.049 C 
ATOM      5  C   UNL     1      17.077  97.011   9.895  1.00  0.00     0.029 C 
ATOM      6  C   UNL     1      15.572  96.733   9.863  1.00  0.00    -0.073 C 
ATOM      7  C   UNL     1      15.029  95.501   9.874  1.00  0.00     0.008 C 
ATOM      8  C   UNL     1      14.645  97.925   9.756  1.00  0.00     0.031 C 
ATOM      9  C   UNL     1      15.409  99.204   9.386  1.00  0.00     0.005 C 
ATOM     10  C   UNL     1      16.395  98.919   8.244  1.00  0.00     0.012 C 
ATOM     11  C   UNL     1      17.499  97.869   8.626  1.00  0.00    -0.004 C 
ATOM     12  C   UNL     1      17.752  96.980   7.408  1.00  0.00     0.027 C 
ATOM     13  C   UNL     1      18.076  95.699   7.551  1.00  0.00     0.131 C 
ATOM     14  O   UNL     1      18.371  94.808   6.529  1.00  0.00    -0.423 OA
ATOM     15  C   UNL     1      18.654  93.612   7.177  1.00  0.00     0.339 C 
ATOM     16  O   UNL     1      18.969  92.548   6.581  1.00  0.00    -0.246 OA
ATOM     17  C   UNL     1      18.814  98.619   8.934  1.00  0.00     0.016 C 
ENDROOT
TORSDOF 0
ENDMDL
MODEL 2
REMARK VINA RESULT:    13.607      2.483      4.725
REMARK INTER + INTRA:          13.607
REMARK INTER:                  13.607
REMARK INTRA:                   0.000
REMARK UNBOUND:                 0.000
REMARK SMILES C=C1CCC[C@]2(C)C=C3OC(=O)C(C)=C3C[C@H]12
REMARK SMILES IDX 14 1 13 2 15 3 16 4 17 5 2 6 1 7 3 8 4 9 5 10 6 11 8 12 9 13
REMARK SMILES IDX 10 14 11 15 12 16 7 17
REMARK H PARENT
REMARK Flexibility Score: inf
ROOT
ATOM      1  C   UNL     1      20.062  99.263  10.031  1.00  0.00     0.053 C 
ATOM      2  C   UNL     1      18.819  99.073   9.221  1.00  0.00     0.041 C 
ATOM      3  C   UNL     1      18.012  98.018   9.245  1.00  0.00     0.005 C 
ATOM      4  C   UNL     1      18.063  96.810  10.124  1.00  0.00     0.049 C 
ATOM      5  C   UNL     1      17.257  95.651   9.469  1.00  0.00     0.029 C 
ATOM      6  C   UNL     1      18.004  94.863   8.390  1.00  0.00    -0.073 C 
ATOM      7  C   UNL     1      19.212  95.206   7.902  1.00  0.00     0.008 C 
ATOM      8  C   UNL     1      17.309  93.654   7.802  1.00  0.00     0.031 C 
ATOM      9  C   UNL     1      15.823  93.615   8.187  1.00  0.00     0.005 C 
ATOM     10  C   UNL     1      15.192  95.002   8.004  1.00  0.00     0.012 C 
ATOM     11  C   UNL     1      15.833  96.100   8.927  1.00  0.00    -0.004 C 
ATOM     12  C   UNL     1      15.923  97.400   8.127  1.00  0.00     0.027 C 
ATOM     13  C   UNL     1      16.922  98.256   8.322  1.00  0.00     0.131 C 
ATOM     14  O   UNL     1      17.087  99.481   7.692  1.00  0.00    -0.423 OA
ATOM     15  C   UNL     1      18.258  99.998   8.233  1.00  0.00     0.339 C 
ATOM     16  O   UNL     1      18.750 101.112   7.908  1.00  0.00    -0.246 OA
ATOM     17  C   UNL     1      14.891  96.356  10.124  1.00  0.00     0.016 C 
ENDROOT
TORSDOF 0
ENDMDL
MODEL 3
REMARK VINA RESULT:    14.986      2.377      4.630
REMARK INTER + INTRA:          14.986
REMARK INTER:                  14.986
REMARK INTRA:                   0.000
REMARK UNBOUND:                 0.000
REMARK SMILES C=C1CCC[C@]2(C)C=C3OC(=O)C(C)=C3C[C@H]12
REMARK SMILES IDX 14 1 13 2 15 3 16 4 17 5 2 6 1 7 3 8 4 9 5 10 6 11 8 12 9 13
REMARK SMILES IDX 10 14 11 15 12 16 7 17
REMARK H PARENT
REMARK Flexibility Score: inf
ROOT
ATOM      1  C   UNL     1      17.994 100.735   7.959  1.00  0.00     0.053 C 
ATOM      2  C   UNL     1      18.425  99.494   8.676  1.00  0.00     0.041 C 
ATOM      3  C   UNL     1      17.916  98.276   8.525  1.00  0.00     0.005 C 
ATOM      4  C   UNL     1      16.873  97.801   7.567  1.00  0.00     0.049 C 
ATOM      5  C   UNL     1      16.251  96.472   8.085  1.00  0.00     0.029 C 
ATOM      6  C   UNL     1      15.161  96.631   9.149  1.00  0.00    -0.073 C 
ATOM      7  C   UNL     1      14.840  97.801   9.734  1.00  0.00     0.008 C 
ATOM      8  C   UNL     1      14.444  95.378   9.605  1.00  0.00     0.031 C 
ATOM      9  C   UNL     1      15.164  94.109   9.127  1.00  0.00     0.005 C 
ATOM     10  C   UNL     1      16.674  94.235   9.370  1.00  0.00     0.012 C 
ATOM     11  C   UNL     1      17.334  95.416   8.570  1.00  0.00    -0.004 C 
ATOM     12  C   UNL     1      18.389  96.066   9.465  1.00  0.00     0.027 C 
ATOM     13  C   UNL     1      18.637  97.370   9.395  1.00  0.00     0.131 C 
ATOM     14  O   UNL     1      19.596  98.063  10.120  1.00  0.00    -0.423 OA
ATOM     15  C   UNL     1      19.475  99.380   9.691  1.00  0.00     0.339 C 
ATOM     16  O   UNL     1      20.183 100.327  10.125  1.00  0.00    -0.246 OA
ATOM     17  C   UNL     1      18.064  94.835   7.338  1.00  0.00     0.016 C 
ENDROOT
TORSDOF 0
ENDMDL
