MODEL 1
REMARK VINA RESULT:    -4.774      0.000      0.000
REMARK INTER + INTRA:          -5.471
REMARK INTER:                  -5.332
REMARK INTRA:                  -0.139
REMARK UNBOUND:                -0.139
REMARK SMILES O=C([O-])C=Cc1ccccc1
REMARK SMILES IDX 4 1 5 2 2 3 1 4 3 5 6 6 7 7 11 8 8 9 10 10 9 11
REMARK H PARENT
REMARK Flexibility Score: inf
ROOT
ATOM      1  C   UNL     1      34.804   7.491   4.768  1.00  0.00     0.025 C 
ATOM      2  C   UNL     1      35.153   8.188   3.676  1.00  0.00     0.010 C 
ENDROOT
BRANCH   1   3
ATOM      3  C   UNL     1      35.385   6.172   5.064  1.00  0.00     0.064 C 
ATOM      4  O   UNL     1      36.451   5.821   4.494  1.00  0.00    -0.545 OA
ATOM      5  O   UNL     1      34.776   5.303   5.962  1.00  0.00    -0.545 OA
ENDBRANCH   1   3
BRANCH   2   6
ATOM      6  C   UNL     1      34.609   9.525   3.313  1.00  0.00    -0.026 A 
ATOM      7  C   UNL     1      34.637  10.539   4.289  1.00  0.00     0.008 A 
ATOM      8  C   UNL     1      34.068   9.826   2.043  1.00  0.00     0.008 A 
ATOM      9  C   UNL     1      34.141  11.816   4.006  1.00  0.00     0.001 A 
ATOM     10  C   UNL     1      33.574  11.105   1.769  1.00  0.00     0.001 A 
ATOM     11  C   UNL     1      33.610  12.099   2.748  1.00  0.00     0.000 A 
ENDBRANCH   2   6
TORSDOF 2
ENDMDL
MODEL 2
REMARK VINA RESULT:    -4.741      0.205      1.470
REMARK INTER + INTRA:          -5.434
REMARK INTER:                  -5.303
REMARK INTRA:                  -0.131
REMARK UNBOUND:                -0.139
REMARK SMILES O=C([O-])C=Cc1ccccc1
REMARK SMILES IDX 4 1 5 2 2 3 1 4 3 5 6 6 7 7 11 8 8 9 10 10 9 11
REMARK H PARENT
REMARK Flexibility Score: inf
ROOT
ATOM      1  C   UNL     1      34.948   7.545   4.692  1.00  0.00     0.025 C 
ATOM      2  C   UNL     1      35.265   8.308   3.636  1.00  0.00     0.010 C 
ENDROOT
BRANCH   1   3
ATOM      3  C   UNL     1      35.590   6.242   4.927  1.00  0.00     0.064 C 
ATOM      4  O   UNL     1      36.612   5.924   4.265  1.00  0.00    -0.545 OA
ATOM      5  O   UNL     1      35.086   5.352   5.869  1.00  0.00    -0.545 OA
ENDBRANCH   1   3
BRANCH   2   6
ATOM      6  C   UNL     1      34.659   9.634   3.334  1.00  0.00    -0.026 A 
ATOM      7  C   UNL     1      34.028   9.806   2.088  1.00  0.00     0.008 A 
ATOM      8  C   UNL     1      34.685  10.723   4.233  1.00  0.00     0.008 A 
ATOM      9  C   UNL     1      33.440  11.028   1.748  1.00  0.00     0.001 A 
ATOM     10  C   UNL     1      34.095  11.943   3.885  1.00  0.00     0.001 A 
ATOM     11  C   UNL     1      33.474  12.096   2.644  1.00  0.00     0.000 A 
ENDBRANCH   2   6
TORSDOF 2
ENDMDL
MODEL 3
REMARK VINA RESULT:    -4.667     14.025     15.251
REMARK INTER + INTRA:          -5.351
REMARK INTER:                  -5.216
REMARK INTRA:                  -0.135
REMARK UNBOUND:                -0.139
REMARK SMILES O=C([O-])C=Cc1ccccc1
REMARK SMILES IDX 4 1 5 2 2 3 1 4 3 5 6 6 7 7 11 8 8 9 10 10 9 11
REMARK H PARENT
REMARK Flexibility Score: inf
ROOT
ATOM      1  C   UNL     1      39.515   2.595  -8.375  1.00  0.00     0.025 C 
ATOM      2  C   UNL     1      40.316   3.111  -7.431  1.00  0.00     0.010 C 
ENDROOT
BRANCH   1   3
ATOM      3  C   UNL     1      38.258   3.251  -8.768  1.00  0.00     0.064 C 
ATOM      4  O   UNL     1      37.869   4.273  -8.145  1.00  0.00    -0.545 OA
ATOM      5  O   UNL     1      37.489   2.761  -9.819  1.00  0.00    -0.545 OA
ENDBRANCH   1   3
BRANCH   2   6
ATOM      6  C   UNL     1      41.599   2.505  -6.982  1.00  0.00    -0.026 A 
ATOM      7  C   UNL     1      42.676   2.486  -7.888  1.00  0.00     0.008 A 
ATOM      8  C   UNL     1      41.789   1.952  -5.696  1.00  0.00     0.008 A 
ATOM      9  C   UNL     1      43.906   1.931  -7.523  1.00  0.00     0.001 A 
ATOM     10  C   UNL     1      43.023   1.397  -5.339  1.00  0.00     0.001 A 
ATOM     11  C   UNL     1      44.080   1.387  -6.251  1.00  0.00     0.000 A 
ENDBRANCH   2   6
TORSDOF 2
ENDMDL
MODEL 4
REMARK VINA RESULT:    -4.643      8.196      8.924
REMARK INTER + INTRA:          -5.324
REMARK INTER:                  -5.195
REMARK INTRA:                  -0.129
REMARK UNBOUND:                -0.139
REMARK SMILES O=C([O-])C=Cc1ccccc1
REMARK SMILES IDX 4 1 5 2 2 3 1 4 3 5 6 6 7 7 11 8 8 9 10 10 9 11
REMARK H PARENT
REMARK Flexibility Score: inf
ROOT
ATOM      1  C   UNL     1      41.080   7.562   0.318  1.00  0.00     0.025 C 
ATOM      2  C   UNL     1      41.276   8.696  -0.372  1.00  0.00     0.010 C 
ENDROOT
BRANCH   1   3
ATOM      3  C   UNL     1      40.797   7.572   1.762  1.00  0.00     0.064 C 
ATOM      4  O   UNL     1      40.540   6.490   2.352  1.00  0.00    -0.545 OA
ATOM      5  O   UNL     1      40.807   8.757   2.489  1.00  0.00    -0.545 OA
ENDBRANCH   1   3
BRANCH   2   6
ATOM      6  C   UNL     1      41.565   8.764  -1.830  1.00  0.00    -0.026 A 
ATOM      7  C   UNL     1      42.912   8.754  -2.239  1.00  0.00     0.008 A 
ATOM      8  C   UNL     1      40.560   8.835  -2.820  1.00  0.00     0.008 A 
ATOM      9  C   UNL     1      43.247   8.815  -3.595  1.00  0.00     0.001 A 
ATOM     10  C   UNL     1      40.903   8.896  -4.174  1.00  0.00     0.001 A 
ATOM     11  C   UNL     1      42.244   8.886  -4.562  1.00  0.00     0.000 A 
ENDBRANCH   2   6
TORSDOF 2
ENDMDL
MODEL 5
REMARK VINA RESULT:    -4.603     14.131     15.270
REMARK INTER + INTRA:          -5.280
REMARK INTER:                  -5.150
REMARK INTRA:                  -0.130
REMARK UNBOUND:                -0.139
REMARK SMILES O=C([O-])C=Cc1ccccc1
REMARK SMILES IDX 4 1 5 2 2 3 1 4 3 5 6 6 7 7 11 8 8 9 10 10 9 11
REMARK H PARENT
REMARK Flexibility Score: inf
ROOT
ATOM      1  C   UNL     1      39.626   2.658  -8.398  1.00  0.00     0.025 C 
ATOM      2  C   UNL     1      40.494   3.174  -7.515  1.00  0.00     0.010 C 
ENDROOT
BRANCH   1   3
ATOM      3  C   UNL     1      38.382   3.356  -8.761  1.00  0.00     0.064 C 
ATOM      4  O   UNL     1      38.159   4.506  -8.301  1.00  0.00    -0.545 OA
ATOM      5  O   UNL     1      37.446   2.766  -9.603  1.00  0.00    -0.545 OA
ENDBRANCH   1   3
BRANCH   2   6
ATOM      6  C   UNL     1      41.768   2.526  -7.100  1.00  0.00    -0.026 A 
ATOM      7  C   UNL     1      41.840   1.971  -5.809  1.00  0.00     0.008 A 
ATOM      8  C   UNL     1      42.905   2.441  -7.936  1.00  0.00     0.008 A 
ATOM      9  C   UNL     1      43.010   1.349  -5.363  1.00  0.00     0.001 A 
ATOM     10  C   UNL     1      44.072   1.818  -7.482  1.00  0.00     0.001 A 
ATOM     11  C   UNL     1      44.125   1.273  -6.197  1.00  0.00     0.000 A 
ENDBRANCH   2   6
TORSDOF 2
ENDMDL
MODEL 6
REMARK VINA RESULT:    -4.559      3.214      5.343
REMARK INTER + INTRA:          -5.230
REMARK INTER:                  -5.101
REMARK INTRA:                  -0.129
REMARK UNBOUND:                -0.139
REMARK SMILES O=C([O-])C=Cc1ccccc1
REMARK SMILES IDX 4 1 5 2 2 3 1 4 3 5 6 6 7 7 11 8 8 9 10 10 9 11
REMARK H PARENT
REMARK Flexibility Score: inf
ROOT
ATOM      1  C   UNL     1      33.988   9.788   3.131  1.00  0.00     0.025 C 
ATOM      2  C   UNL     1      34.705   8.677   2.902  1.00  0.00     0.010 C 
ENDROOT
BRANCH   1   3
ATOM      3  C   UNL     1      33.763  10.795   2.081  1.00  0.00     0.064 C 
ATOM      4  O   UNL     1      34.699  11.570   1.754  1.00  0.00    -0.545 OA
ATOM      5  O   UNL     1      32.532  10.907   1.444  1.00  0.00    -0.545 OA
ENDBRANCH   1   3
BRANCH   2   6
ATOM      6  C   UNL     1      34.974   7.617   3.912  1.00  0.00    -0.026 A 
ATOM      7  C   UNL     1      36.234   6.991   3.895  1.00  0.00     0.008 A 
ATOM      8  C   UNL     1      34.032   7.213   4.884  1.00  0.00     0.008 A 
ATOM      9  C   UNL     1      36.545   5.988   4.819  1.00  0.00     0.001 A 
ATOM     10  C   UNL     1      34.351   6.209   5.804  1.00  0.00     0.001 A 
ATOM     11  C   UNL     1      35.606   5.597   5.772  1.00  0.00     0.000 A 
ENDBRANCH   2   6
TORSDOF 2
ENDMDL
MODEL 7
REMARK VINA RESULT:    -4.502     13.516     14.311
REMARK INTER + INTRA:          -5.167
REMARK INTER:                  -5.039
REMARK INTRA:                  -0.127
REMARK UNBOUND:                -0.139
REMARK SMILES O=C([O-])C=Cc1ccccc1
REMARK SMILES IDX 4 1 5 2 2 3 1 4 3 5 6 6 7 7 11 8 8 9 10 10 9 11
REMARK H PARENT
REMARK Flexibility Score: inf
ROOT
ATOM      1  C   UNL     1      42.000   1.988  -6.848  1.00  0.00     0.025 C 
ATOM      2  C   UNL     1      40.782   2.483  -6.580  1.00  0.00     0.010 C 
ENDROOT
BRANCH   1   3
ATOM      3  C   UNL     1      42.967   1.687  -5.781  1.00  0.00     0.064 C 
ATOM      4  O   UNL     1      43.814   2.556  -5.447  1.00  0.00    -0.545 OA
ATOM      5  O   UNL     1      42.963   0.457  -5.133  1.00  0.00    -0.545 OA
ENDBRANCH   1   3
BRANCH   2   6
ATOM      6  C   UNL     1      39.754   2.811  -7.605  1.00  0.00    -0.026 A 
ATOM      7  C   UNL     1      39.172   4.092  -7.573  1.00  0.00     0.008 A 
ATOM      8  C   UNL     1      39.337   1.904  -8.605  1.00  0.00     0.008 A 
ATOM      9  C   UNL     1      38.201   4.458  -8.510  1.00  0.00     0.001 A 
ATOM     10  C   UNL     1      38.365   2.278  -9.539  1.00  0.00     0.001 A 
ATOM     11  C   UNL     1      37.797   3.553  -9.492  1.00  0.00     0.000 A 
ENDBRANCH   2   6
TORSDOF 2
ENDMDL
MODEL 8
REMARK VINA RESULT:    -4.467      7.626      8.889
REMARK INTER + INTRA:          -5.128
REMARK INTER:                  -5.000
REMARK INTRA:                  -0.128
REMARK UNBOUND:                -0.139
REMARK SMILES O=C([O-])C=Cc1ccccc1
REMARK SMILES IDX 4 1 5 2 2 3 1 4 3 5 6 6 7 7 11 8 8 9 10 10 9 11
REMARK H PARENT
REMARK Flexibility Score: inf
ROOT
ATOM      1  C   UNL     1      40.763   8.772  -1.858  1.00  0.00     0.025 C 
ATOM      2  C   UNL     1      41.603   8.465  -0.859  1.00  0.00     0.010 C 
ENDROOT
BRANCH   1   3
ATOM      3  C   UNL     1      41.215   8.843  -3.257  1.00  0.00     0.064 C 
ATOM      4  O   UNL     1      40.365   8.926  -4.181  1.00  0.00    -0.545 OA
ATOM      5  O   UNL     1      42.568   8.819  -3.578  1.00  0.00    -0.545 OA
ENDBRANCH   1   3
BRANCH   2   6
ATOM      6  C   UNL     1      41.219   8.375   0.576  1.00  0.00    -0.026 A 
ATOM      7  C   UNL     1      40.891   7.109   1.096  1.00  0.00     0.008 A 
ATOM      8  C   UNL     1      41.169   9.493   1.439  1.00  0.00     0.008 A 
ATOM      9  C   UNL     1      40.523   6.961   2.437  1.00  0.00     0.001 A 
ATOM     10  C   UNL     1      40.799   9.337   2.779  1.00  0.00     0.001 A 
ATOM     11  C   UNL     1      40.476   8.073   3.278  1.00  0.00     0.000 A 
ENDBRANCH   2   6
TORSDOF 2
ENDMDL
MODEL 9
REMARK VINA RESULT:    -4.354     14.196     15.350
REMARK INTER + INTRA:          -5.002
REMARK INTER:                  -4.857
REMARK INTRA:                  -0.145
REMARK UNBOUND:                -0.139
REMARK SMILES O=C([O-])C=Cc1ccccc1
REMARK SMILES IDX 4 1 5 2 2 3 1 4 3 5 6 6 7 7 11 8 8 9 10 10 9 11
REMARK H PARENT
REMARK Flexibility Score: inf
ROOT
ATOM      1  C   UNL     1      39.960   4.004  -8.118  1.00  0.00     0.025 C 
ATOM      2  C   UNL     1      41.202   3.586  -8.399  1.00  0.00     0.010 C 
ENDROOT
BRANCH   1   3
ATOM      3  C   UNL     1      39.188   4.830  -9.061  1.00  0.00     0.064 C 
ATOM      4  O   UNL     1      39.262   6.085  -8.991  1.00  0.00    -0.545 OA
ATOM      5  O   UNL     1      38.376   4.249 -10.028  1.00  0.00    -0.545 OA
ENDBRANCH   1   3
BRANCH   2   6
ATOM      6  C   UNL     1      42.041   2.750  -7.497  1.00  0.00    -0.026 A 
ATOM      7  C   UNL     1      41.496   2.358  -6.261  1.00  0.00     0.008 A 
ATOM      8  C   UNL     1      43.351   2.331  -7.821  1.00  0.00     0.008 A 
ATOM      9  C   UNL     1      42.235   1.571  -5.371  1.00  0.00     0.001 A 
ATOM     10  C   UNL     1      44.084   1.545  -6.925  1.00  0.00     0.001 A 
ATOM     11  C   UNL     1      43.527   1.165  -5.702  1.00  0.00     0.000 A 
ENDBRANCH   2   6
TORSDOF 2
ENDMDL
