MODEL 1
REMARK VINA RESULT:    -3.979      0.000      0.000
REMARK INTER + INTRA:          -7.508
REMARK INTER:                  -6.306
REMARK INTRA:                  -1.203
REMARK UNBOUND:                -1.203
REMARK SMILES CCCCCCCCCCCC(=O)[O-]
REMARK SMILES IDX 7 1 8 2 9 3 10 4 11 5 12 6 13 7 14 8 6 9 5 10 4 11 3 12 2 13
REMARK SMILES IDX 1 14
REMARK H PARENT
REMARK Flexibility Score: inf
ROOT
ATOM      1  C   UNL     1      58.519  34.393  80.850  1.00  0.00     0.000 C 
ENDROOT
BRANCH   1   2
ATOM      2  C   UNL     1      59.028  33.800  79.528  1.00  0.00     0.000 C 
BRANCH   2   3
ATOM      3  C   UNL     1      57.873  33.208  78.711  1.00  0.00     0.000 C 
BRANCH   3   4
ATOM      4  C   UNL     1      58.338  32.818  77.301  1.00  0.00     0.006 C 
BRANCH   4   5
ATOM      5  C   UNL     1      58.338  31.298  77.089  1.00  0.00     0.053 C 
BRANCH   5   6
ATOM      6  C   UNL     1      57.631  30.915  75.824  1.00  0.00     0.041 C 
ATOM      7  O   UNL     1      57.410  31.777  74.934  1.00  0.00    -0.550 OA
ATOM      8  O   UNL     1      57.188  29.610  75.645  1.00  0.00    -0.550 OA
ENDBRANCH   5   6
ENDBRANCH   4   5
ENDBRANCH   3   4
ENDBRANCH   2   3
ENDBRANCH   1   2
BRANCH   1   9
ATOM      9  C   UNL     1      59.066  35.805  81.115  1.00  0.00     0.000 C 
BRANCH   9  10
ATOM     10  C   UNL     1      58.002  36.898  80.931  1.00  0.00    -0.000 C 
BRANCH  10  11
ATOM     11  C   UNL     1      58.003  37.426  79.490  1.00  0.00    -0.000 C 
BRANCH  11  12
ATOM     12  C   UNL     1      56.776  36.968  78.681  1.00  0.00    -0.000 C 
BRANCH  12  13
ATOM     13  C   UNL     1      57.069  36.592  77.218  1.00  0.00    -0.003 C 
ATOM     14  C   UNL     1      58.561  36.597  76.888  1.00  0.00     0.004 C 
ENDBRANCH  12  13
ENDBRANCH  11  12
ENDBRANCH  10  11
ENDBRANCH   9  10
ENDBRANCH   1   9
TORSDOF 10
ENDMDL
MODEL 2
REMARK VINA RESULT:    -3.958      1.091      2.066
REMARK INTER + INTRA:          -7.474
REMARK INTER:                  -6.622
REMARK INTRA:                  -0.852
REMARK UNBOUND:                -1.203
REMARK SMILES CCCCCCCCCCCC(=O)[O-]
REMARK SMILES IDX 7 1 8 2 9 3 10 4 11 5 12 6 13 7 14 8 6 9 5 10 4 11 3 12 2 13
REMARK SMILES IDX 1 14
REMARK H PARENT
REMARK Flexibility Score: inf
ROOT
ATOM      1  C   UNL     1      57.843  33.287  79.089  1.00  0.00     0.000 C 
ENDROOT
BRANCH   1   2
ATOM      2  C   UNL     1      57.952  33.182  77.560  1.00  0.00     0.000 C 
BRANCH   2   3
ATOM      3  C   UNL     1      58.813  31.981  77.153  1.00  0.00     0.000 C 
BRANCH   3   4
ATOM      4  C   UNL     1      57.938  30.807  76.689  1.00  0.00     0.006 C 
BRANCH   4   5
ATOM      5  C   UNL     1      57.473  30.967  75.236  1.00  0.00     0.053 C 
BRANCH   5   6
ATOM      6  C   UNL     1      56.731  29.758  74.755  1.00  0.00     0.041 C 
ATOM      7  O   UNL     1      57.267  28.621  74.808  1.00  0.00    -0.550 OA
ATOM      8  O   UNL     1      55.456  29.894  74.218  1.00  0.00    -0.550 OA
ENDBRANCH   5   6
ENDBRANCH   4   5
ENDBRANCH   3   4
ENDBRANCH   2   3
ENDBRANCH   1   2
BRANCH   1   9
ATOM      9  C   UNL     1      59.106  33.879  79.734  1.00  0.00     0.000 C 
BRANCH   9  10
ATOM     10  C   UNL     1      58.787  34.923  80.814  1.00  0.00    -0.000 C 
BRANCH  10  11
ATOM     11  C   UNL     1      58.765  36.338  80.218  1.00  0.00    -0.000 C 
BRANCH  11  12
ATOM     12  C   UNL     1      57.338  36.884  80.023  1.00  0.00    -0.000 C 
BRANCH  12  13
ATOM     13  C   UNL     1      56.834  36.871  78.569  1.00  0.00    -0.003 C 
ATOM     14  C   UNL     1      57.962  36.987  77.545  1.00  0.00     0.004 C 
ENDBRANCH  12  13
ENDBRANCH  11  12
ENDBRANCH  10  11
ENDBRANCH   9  10
ENDBRANCH   1   9
TORSDOF 10
ENDMDL
MODEL 3
REMARK VINA RESULT:    -3.878      3.085      6.152
REMARK INTER + INTRA:          -7.348
REMARK INTER:                  -6.705
REMARK INTRA:                  -0.642
REMARK UNBOUND:                -1.203
REMARK SMILES CCCCCCCCCCCC(=O)[O-]
REMARK SMILES IDX 7 1 8 2 9 3 10 4 11 5 12 6 13 7 14 8 6 9 5 10 4 11 3 12 2 13
REMARK SMILES IDX 1 14
REMARK H PARENT
REMARK Flexibility Score: inf
ROOT
ATOM      1  C   UNL     1      58.051  33.075  78.599  1.00  0.00     0.000 C 
ENDROOT
BRANCH   1   2
ATOM      2  C   UNL     1      57.680  33.995  79.771  1.00  0.00     0.000 C 
BRANCH   2   3
ATOM      3  C   UNL     1      58.893  34.250  80.674  1.00  0.00     0.000 C 
BRANCH   3   4
ATOM      4  C   UNL     1      58.967  35.725  81.095  1.00  0.00     0.006 C 
BRANCH   4   5
ATOM      5  C   UNL     1      58.069  36.621  80.233  1.00  0.00     0.053 C 
BRANCH   5   6
ATOM      6  C   UNL     1      58.858  37.371  79.204  1.00  0.00     0.041 C 
ATOM      7  O   UNL     1      58.571  38.566  78.930  1.00  0.00    -0.550 OA
ATOM      8  O   UNL     1      59.891  36.738  78.524  1.00  0.00    -0.550 OA
ENDBRANCH   5   6
ENDBRANCH   4   5
ENDBRANCH   3   4
ENDBRANCH   2   3
ENDBRANCH   1   2
BRANCH   1   9
ATOM      9  C   UNL     1      57.684  33.678  77.233  1.00  0.00     0.000 C 
BRANCH   9  10
ATOM     10  C   UNL     1      57.931  32.706  76.070  1.00  0.00    -0.000 C 
BRANCH  10  11
ATOM     11  C   UNL     1      58.391  31.336  76.588  1.00  0.00    -0.000 C 
BRANCH  11  12
ATOM     12  C   UNL     1      57.572  30.169  76.008  1.00  0.00    -0.000 C 
BRANCH  12  13
ATOM     13  C   UNL     1      57.050  30.393  74.578  1.00  0.00    -0.003 C 
ATOM     14  C   UNL     1      55.668  29.785  74.344  1.00  0.00     0.004 C 
ENDBRANCH  12  13
ENDBRANCH  11  12
ENDBRANCH  10  11
ENDBRANCH   9  10
ENDBRANCH   1   9
TORSDOF 10
ENDMDL
MODEL 4
REMARK VINA RESULT:    -3.791      3.220      5.390
REMARK INTER + INTRA:          -7.210
REMARK INTER:                  -6.089
REMARK INTRA:                  -1.122
REMARK UNBOUND:                -1.203
REMARK SMILES CCCCCCCCCCCC(=O)[O-]
REMARK SMILES IDX 7 1 8 2 9 3 10 4 11 5 12 6 13 7 14 8 6 9 5 10 4 11 3 12 2 13
REMARK SMILES IDX 1 14
REMARK H PARENT
REMARK Flexibility Score: inf
ROOT
ATOM      1  C   UNL     1      59.028  35.427  81.191  1.00  0.00     0.000 C 
ENDROOT
BRANCH   1   2
ATOM      2  C   UNL     1      58.690  36.632  80.302  1.00  0.00     0.000 C 
BRANCH   2   3
ATOM      3  C   UNL     1      57.174  36.847  80.222  1.00  0.00     0.000 C 
BRANCH   3   4
ATOM      4  C   UNL     1      56.718  37.026  78.766  1.00  0.00     0.006 C 
BRANCH   4   5
ATOM      5  C   UNL     1      57.899  37.233  77.809  1.00  0.00     0.053 C 
BRANCH   5   6
ATOM      6  C   UNL     1      57.908  38.615  77.230  1.00  0.00     0.041 C 
ATOM      7  O   UNL     1      58.449  39.562  77.858  1.00  0.00    -0.550 OA
ATOM      8  O   UNL     1      57.289  38.861  76.011  1.00  0.00    -0.550 OA
ENDBRANCH   5   6
ENDBRANCH   4   5
ENDBRANCH   3   4
ENDBRANCH   2   3
ENDBRANCH   1   2
BRANCH   1   9
ATOM      9  C   UNL     1      58.403  34.119  80.679  1.00  0.00     0.000 C 
BRANCH   9  10
ATOM     10  C   UNL     1      58.935  33.710  79.297  1.00  0.00    -0.000 C 
BRANCH  10  11
ATOM     11  C   UNL     1      57.844  33.007  78.476  1.00  0.00    -0.000 C 
BRANCH  11  12
ATOM     12  C   UNL     1      57.779  33.499  77.018  1.00  0.00    -0.000 C 
BRANCH  12  13
ATOM     13  C   UNL     1      58.287  32.490  75.973  1.00  0.00    -0.003 C 
ATOM     14  C   UNL     1      58.030  31.037  76.371  1.00  0.00     0.004 C 
ENDBRANCH  12  13
ENDBRANCH  11  12
ENDBRANCH  10  11
ENDBRANCH   9  10
ENDBRANCH   1   9
TORSDOF 10
ENDMDL
MODEL 5
REMARK VINA RESULT:    -3.742      3.028      6.707
REMARK INTER + INTRA:          -7.133
REMARK INTER:                  -6.154
REMARK INTRA:                  -0.979
REMARK UNBOUND:                -1.203
REMARK SMILES CCCCCCCCCCCC(=O)[O-]
REMARK SMILES IDX 7 1 8 2 9 3 10 4 11 5 12 6 13 7 14 8 6 9 5 10 4 11 3 12 2 13
REMARK SMILES IDX 1 14
REMARK H PARENT
REMARK Flexibility Score: inf
ROOT
ATOM      1  C   UNL     1      59.181  31.591  75.324  1.00  0.00     0.000 C 
ENDROOT
BRANCH   1   2
ATOM      2  C   UNL     1      58.449  32.550  76.275  1.00  0.00     0.000 C 
BRANCH   2   3
ATOM      3  C   UNL     1      58.498  32.035  77.718  1.00  0.00     0.000 C 
BRANCH   3   4
ATOM      4  C   UNL     1      57.835  33.031  78.682  1.00  0.00     0.006 C 
BRANCH   4   5
ATOM      5  C   UNL     1      58.865  33.819  79.502  1.00  0.00     0.053 C 
BRANCH   5   6
ATOM      6  C   UNL     1      58.444  35.244  79.697  1.00  0.00     0.041 C 
ATOM      7  O   UNL     1      59.118  36.009  80.435  1.00  0.00    -0.550 OA
ATOM      8  O   UNL     1      57.288  35.716  79.088  1.00  0.00    -0.550 OA
ENDBRANCH   5   6
ENDBRANCH   4   5
ENDBRANCH   3   4
ENDBRANCH   2   3
ENDBRANCH   1   2
BRANCH   1   9
ATOM      9  C   UNL     1      59.453  30.219  75.961  1.00  0.00     0.000 C 
BRANCH   9  10
ATOM     10  C   UNL     1      58.858  29.059  75.147  1.00  0.00    -0.000 C 
BRANCH  10  11
ATOM     11  C   UNL     1      57.406  28.787  75.562  1.00  0.00    -0.000 C 
BRANCH  11  12
ATOM     12  C   UNL     1      56.407  28.964  74.404  1.00  0.00    -0.000 C 
BRANCH  12  13
ATOM     13  C   UNL     1      55.714  30.338  74.352  1.00  0.00    -0.003 C 
ATOM     14  C   UNL     1      56.041  31.124  73.083  1.00  0.00     0.004 C 
ENDBRANCH  12  13
ENDBRANCH  11  12
ENDBRANCH  10  11
ENDBRANCH   9  10
ENDBRANCH   1   9
TORSDOF 10
ENDMDL
MODEL 6
REMARK VINA RESULT:    -3.739      1.776      2.252
REMARK INTER + INTRA:          -7.127
REMARK INTER:                  -5.963
REMARK INTRA:                  -1.164
REMARK UNBOUND:                -1.203
REMARK SMILES CCCCCCCCCCCC(=O)[O-]
REMARK SMILES IDX 7 1 8 2 9 3 10 4 11 5 12 6 13 7 14 8 6 9 5 10 4 11 3 12 2 13
REMARK SMILES IDX 1 14
REMARK H PARENT
REMARK Flexibility Score: inf
ROOT
ATOM      1  C   UNL     1      59.054  34.581  80.105  1.00  0.00     0.000 C 
ENDROOT
BRANCH   1   2
ATOM      2  C   UNL     1      57.962  33.539  79.822  1.00  0.00     0.000 C 
BRANCH   2   3
ATOM      3  C   UNL     1      58.003  33.086  78.357  1.00  0.00     0.000 C 
BRANCH   3   4
ATOM      4  C   UNL     1      57.582  34.224  77.416  1.00  0.00     0.006 C 
BRANCH   4   5
ATOM      5  C   UNL     1      58.205  34.086  76.021  1.00  0.00     0.053 C 
BRANCH   5   6
ATOM      6  C   UNL     1      57.159  34.019  74.951  1.00  0.00     0.041 C 
ATOM      7  O   UNL     1      57.146  33.060  74.135  1.00  0.00    -0.550 OA
ATOM      8  O   UNL     1      56.217  35.034  74.836  1.00  0.00    -0.550 OA
ENDBRANCH   5   6
ENDBRANCH   4   5
ENDBRANCH   3   4
ENDBRANCH   2   3
ENDBRANCH   1   2
BRANCH   1   9
ATOM      9  C   UNL     1      58.733  35.457  81.328  1.00  0.00     0.000 C 
BRANCH   9  10
ATOM     10  C   UNL     1      58.340  36.891  80.943  1.00  0.00    -0.000 C 
BRANCH  10  11
ATOM     11  C   UNL     1      57.242  36.889  79.871  1.00  0.00    -0.000 C 
BRANCH  11  12
ATOM     12  C   UNL     1      57.561  37.817  78.683  1.00  0.00    -0.000 C 
BRANCH  12  13
ATOM     13  C   UNL     1      59.050  38.170  78.521  1.00  0.00    -0.003 C 
ATOM     14  C   UNL     1      59.785  37.234  77.563  1.00  0.00     0.004 C 
ENDBRANCH  12  13
ENDBRANCH  11  12
ENDBRANCH  10  11
ENDBRANCH   9  10
ENDBRANCH   1   9
TORSDOF 10
ENDMDL
MODEL 7
REMARK VINA RESULT:    -3.729      3.252      6.193
REMARK INTER + INTRA:          -7.112
REMARK INTER:                  -6.274
REMARK INTRA:                  -0.838
REMARK UNBOUND:                -1.203
REMARK SMILES CCCCCCCCCCCC(=O)[O-]
REMARK SMILES IDX 7 1 8 2 9 3 10 4 11 5 12 6 13 7 14 8 6 9 5 10 4 11 3 12 2 13
REMARK SMILES IDX 1 14
REMARK H PARENT
REMARK Flexibility Score: inf
ROOT
ATOM      1  C   UNL     1      57.575  34.528  77.441  1.00  0.00     0.000 C 
ENDROOT
BRANCH   1   2
ATOM      2  C   UNL     1      57.963  33.281  78.250  1.00  0.00     0.000 C 
BRANCH   2   3
ATOM      3  C   UNL     1      57.868  33.554  79.756  1.00  0.00     0.000 C 
BRANCH   3   4
ATOM      4  C   UNL     1      59.182  34.141  80.294  1.00  0.00     0.006 C 
BRANCH   4   5
ATOM      5  C   UNL     1      58.946  35.355  81.203  1.00  0.00     0.053 C 
BRANCH   5   6
ATOM      6  C   UNL     1      58.482  36.548  80.425  1.00  0.00     0.041 C 
ATOM      7  O   UNL     1      59.162  36.979  79.457  1.00  0.00    -0.550 OA
ATOM      8  O   UNL     1      57.312  37.203  80.790  1.00  0.00    -0.550 OA
ENDBRANCH   5   6
ENDBRANCH   4   5
ENDBRANCH   3   4
ENDBRANCH   2   3
ENDBRANCH   1   2
BRANCH   1   9
ATOM      9  C   UNL     1      57.661  34.299  75.923  1.00  0.00     0.000 C 
BRANCH   9  10
ATOM     10  C   UNL     1      58.443  33.028  75.558  1.00  0.00    -0.000 C 
BRANCH  10  11
ATOM     11  C   UNL     1      57.555  32.040  74.789  1.00  0.00    -0.000 C 
BRANCH  11  12
ATOM     12  C   UNL     1      57.390  30.692  75.514  1.00  0.00    -0.000 C 
BRANCH  12  13
ATOM     13  C   UNL     1      58.690  30.103  76.088  1.00  0.00    -0.003 C 
ATOM     14  C   UNL     1      58.998  28.704  75.557  1.00  0.00     0.004 C 
ENDBRANCH  12  13
ENDBRANCH  11  12
ENDBRANCH  10  11
ENDBRANCH   9  10
ENDBRANCH   1   9
TORSDOF 10
ENDMDL
MODEL 8
REMARK VINA RESULT:    -3.685      2.264      4.356
REMARK INTER + INTRA:          -7.041
REMARK INTER:                  -5.882
REMARK INTRA:                  -1.160
REMARK UNBOUND:                -1.203
REMARK SMILES CCCCCCCCCCCC(=O)[O-]
REMARK SMILES IDX 7 1 8 2 9 3 10 4 11 5 12 6 13 7 14 8 6 9 5 10 4 11 3 12 2 13
REMARK SMILES IDX 1 14
REMARK H PARENT
REMARK Flexibility Score: inf
ROOT
ATOM      1  C   UNL     1      59.071  36.572  79.291  1.00  0.00     0.000 C 
ENDROOT
BRANCH   1   2
ATOM      2  C   UNL     1      58.256  37.803  78.867  1.00  0.00     0.000 C 
BRANCH   2   3
ATOM      3  C   UNL     1      56.777  37.446  78.683  1.00  0.00     0.000 C 
BRANCH   3   4
ATOM      4  C   UNL     1      56.612  36.250  77.734  1.00  0.00     0.006 C 
BRANCH   4   5
ATOM      5  C   UNL     1      56.239  36.684  76.311  1.00  0.00     0.053 C 
BRANCH   5   6
ATOM      6  C   UNL     1      57.318  36.345  75.328  1.00  0.00     0.041 C 
ATOM      7  O   UNL     1      57.081  36.369  74.092  1.00  0.00    -0.550 OA
ATOM      8  O   UNL     1      58.578  35.971  75.781  1.00  0.00    -0.550 OA
ENDBRANCH   5   6
ENDBRANCH   4   5
ENDBRANCH   3   4
ENDBRANCH   2   3
ENDBRANCH   1   2
BRANCH   1   9
ATOM      9  C   UNL     1      58.788  36.146  80.741  1.00  0.00     0.000 C 
BRANCH   9  10
ATOM     10  C   UNL     1      58.624  34.626  80.891  1.00  0.00    -0.000 C 
BRANCH  10  11
ATOM     11  C   UNL     1      59.060  33.899  79.612  1.00  0.00    -0.000 C 
BRANCH  11  12
ATOM     12  C   UNL     1      57.930  33.065  78.981  1.00  0.00    -0.000 C 
BRANCH  12  13
ATOM     13  C   UNL     1      58.073  32.822  77.468  1.00  0.00    -0.003 C 
ATOM     14  C   UNL     1      58.360  31.362  77.122  1.00  0.00     0.004 C 
ENDBRANCH  12  13
ENDBRANCH  11  12
ENDBRANCH  10  11
ENDBRANCH   9  10
ENDBRANCH   1   9
TORSDOF 10
ENDMDL
MODEL 9
REMARK VINA RESULT:    -3.630      1.983      3.849
REMARK INTER + INTRA:          -6.955
REMARK INTER:                  -5.580
REMARK INTRA:                  -1.375
REMARK UNBOUND:                -1.203
REMARK SMILES CCCCCCCCCCCC(=O)[O-]
REMARK SMILES IDX 7 1 8 2 9 3 10 4 11 5 12 6 13 7 14 8 6 9 5 10 4 11 3 12 2 13
REMARK SMILES IDX 1 14
REMARK H PARENT
REMARK Flexibility Score: inf
ROOT
ATOM      1  C   UNL     1      59.287  37.025  78.213  1.00  0.00     0.000 C 
ENDROOT
BRANCH   1   2
ATOM      2  C   UNL     1      58.598  36.655  76.891  1.00  0.00     0.000 C 
BRANCH   2   3
ATOM      3  C   UNL     1      57.212  37.303  76.794  1.00  0.00     0.000 C 
BRANCH   3   4
ATOM      4  C   UNL     1      56.140  36.262  76.439  1.00  0.00     0.006 C 
BRANCH   4   5
ATOM      5  C   UNL     1      56.731  35.040  75.726  1.00  0.00     0.053 C 
BRANCH   5   6
ATOM      6  C   UNL     1      56.252  34.939  74.310  1.00  0.00     0.041 C 
ATOM      7  O   UNL     1      55.631  35.897  73.780  1.00  0.00    -0.550 OA
ATOM      8  O   UNL     1      56.464  33.771  73.586  1.00  0.00    -0.550 OA
ENDBRANCH   5   6
ENDBRANCH   4   5
ENDBRANCH   3   4
ENDBRANCH   2   3
ENDBRANCH   1   2
BRANCH   1   9
ATOM      9  C   UNL     1      58.315  37.635  79.237  1.00  0.00     0.000 C 
BRANCH   9  10
ATOM     10  C   UNL     1      57.879  36.629  80.313  1.00  0.00    -0.000 C 
BRANCH  10  11
ATOM     11  C   UNL     1      59.052  35.731  80.731  1.00  0.00    -0.000 C 
BRANCH  11  12
ATOM     12  C   UNL     1      58.685  34.235  80.749  1.00  0.00    -0.000 C 
BRANCH  12  13
ATOM     13  C   UNL     1      57.760  33.782  79.606  1.00  0.00    -0.003 C 
ATOM     14  C   UNL     1      58.521  33.178  78.426  1.00  0.00     0.004 C 
ENDBRANCH  12  13
ENDBRANCH  11  12
ENDBRANCH  10  11
ENDBRANCH   9  10
ENDBRANCH   1   9
TORSDOF 10
ENDMDL
