MODEL 1
REMARK VINA RESULT:    -6.773      0.000      0.000
REMARK INTER + INTRA:          -8.317
REMARK INTER:                  -8.159
REMARK INTRA:                  -0.158
REMARK UNBOUND:                -0.158
REMARK SMILES O=c1c(O)c(-c2ccc(O)c(O)c2)oc2cc(O)cc(O)c12
REMARK SMILES IDX 5 1 3 2 2 3 1 4 22 5 20 6 19 7 17 8 16 9 15 10 14 11 6 12
REMARK SMILES IDX 7 13 8 14 9 15 13 16 11 17 10 18 12 20 4 22 21 24 18 26
REMARK H PARENT 10 19 12 21 4 23 21 25 18 27
REMARK Flexibility Score: inf
ROOT
ATOM      1  C   UNL     1     -25.857  91.081  79.768  1.00  0.00     0.180 A 
ATOM      2  C   UNL     1     -26.045  90.983  81.157  1.00  0.00     0.208 A 
ATOM      3  C   UNL     1     -25.427  91.923  81.997  1.00  0.00     0.238 A 
ATOM      4  O   UNL     1     -25.554  91.797  83.243  1.00  0.00    -0.285 OA
ATOM      5  C   UNL     1     -24.642  92.960  81.436  1.00  0.00     0.111 A 
ATOM      6  C   UNL     1     -24.001  93.989  82.188  1.00  0.00     0.134 A 
ATOM      7  C   UNL     1     -23.144  94.887  81.541  1.00  0.00     0.093 A 
ATOM      8  C   UNL     1     -22.954  94.831  80.158  1.00  0.00     0.123 A 
ATOM      9  C   UNL     1     -23.620  93.866  79.407  1.00  0.00     0.094 A 
ATOM     10  C   UNL     1     -24.455  92.934  80.029  1.00  0.00     0.146 A 
ATOM     11  O   UNL     1     -25.062  92.026  79.277  1.00  0.00    -0.452 OA
ENDROOT
BRANCH   1  12
ATOM     12  C   UNL     1     -26.497  90.143  78.818  1.00  0.00     0.025 A 
ATOM     13  C   UNL     1     -27.894  90.040  78.721  1.00  0.00     0.016 A 
ATOM     14  C   UNL     1     -28.474  89.164  77.802  1.00  0.00     0.051 A 
ATOM     15  C   UNL     1     -27.677  88.388  76.953  1.00  0.00     0.157 A 
ATOM     16  C   UNL     1     -25.696  89.382  77.953  1.00  0.00     0.062 A 
ATOM     17  C   UNL     1     -26.269  88.501  77.026  1.00  0.00     0.158 A 
BRANCH  15  18
ATOM     18  O   UNL     1     -28.320  87.530  76.058  1.00  0.00    -0.504 OA
ATOM     19  H   UNL     1     -28.790  86.679  76.331  1.00  0.00     0.293 HD
ENDBRANCH  15  18
BRANCH  17  20
ATOM     20  O   UNL     1     -25.410  87.767  76.206  1.00  0.00    -0.504 OA
ATOM     21  H   UNL     1     -24.546  88.127  75.828  1.00  0.00     0.293 HD
ENDBRANCH  17  20
ENDBRANCH   1  12
BRANCH   2  22
ATOM     22  O   UNL     1     -26.806  89.939  81.691  1.00  0.00    -0.502 OA
ATOM     23  H   UNL     1     -27.255  90.002  82.598  1.00  0.00     0.293 HD
ENDBRANCH   2  22
BRANCH   6  24
ATOM     24  O   UNL     1     -24.196  94.190  83.558  1.00  0.00    -0.507 OA
ATOM     25  H   UNL     1     -23.468  94.431  84.214  1.00  0.00     0.293 HD
ENDBRANCH   6  24
BRANCH   8  26
ATOM     26  O   UNL     1     -22.110  95.737  79.520  1.00  0.00    -0.508 OA
ATOM     27  H   UNL     1     -22.453  96.376  78.813  1.00  0.00     0.293 HD
ENDBRANCH   8  26
TORSDOF 6
ENDMDL
MODEL 2
REMARK VINA RESULT:    -6.718      7.338     10.590
REMARK INTER + INTRA:          -8.250
REMARK INTER:                  -8.219
REMARK INTRA:                  -0.032
REMARK UNBOUND:                -0.158
REMARK SMILES O=c1c(O)c(-c2ccc(O)c(O)c2)oc2cc(O)cc(O)c12
REMARK SMILES IDX 5 1 3 2 2 3 1 4 22 5 20 6 19 7 17 8 16 9 15 10 14 11 6 12
REMARK SMILES IDX 7 13 8 14 9 15 13 16 11 17 10 18 12 20 4 22 21 24 18 26
REMARK H PARENT 10 19 12 21 4 23 21 25 18 27
REMARK Flexibility Score: inf
ROOT
ATOM      1  C   UNL     1     -26.313  84.144  82.495  1.00  0.00     0.180 A 
ATOM      2  C   UNL     1     -26.767  84.262  81.171  1.00  0.00     0.208 A 
ATOM      3  C   UNL     1     -26.439  83.260  80.246  1.00  0.00     0.238 A 
ATOM      4  O   UNL     1     -26.802  83.398  79.049  1.00  0.00    -0.285 OA
ATOM      5  C   UNL     1     -25.675  82.142  80.660  1.00  0.00     0.111 A 
ATOM      6  C   UNL     1     -25.317  81.047  79.817  1.00  0.00     0.134 A 
ATOM      7  C   UNL     1     -24.449  80.059  80.298  1.00  0.00     0.093 A 
ATOM      8  C   UNL     1     -23.977  80.094  81.613  1.00  0.00     0.123 A 
ATOM      9  C   UNL     1     -24.367  81.127  82.461  1.00  0.00     0.094 A 
ATOM     10  C   UNL     1     -25.204  82.146  81.999  1.00  0.00     0.146 A 
ATOM     11  O   UNL     1     -25.543  83.117  82.838  1.00  0.00    -0.452 OA
ENDROOT
BRANCH   1  12
ATOM     12  C   UNL     1     -26.640  85.148  83.534  1.00  0.00     0.025 A 
ATOM     13  C   UNL     1     -27.961  85.567  83.756  1.00  0.00     0.016 A 
ATOM     14  C   UNL     1     -28.248  86.498  84.756  1.00  0.00     0.051 A 
ATOM     15  C   UNL     1     -27.228  87.017  85.562  1.00  0.00     0.157 A 
ATOM     16  C   UNL     1     -25.619  85.651  84.355  1.00  0.00     0.062 A 
ATOM     17  C   UNL     1     -25.897  86.585  85.362  1.00  0.00     0.158 A 
BRANCH  15  18
ATOM     18  O   UNL     1     -27.581  87.947  86.542  1.00  0.00    -0.504 OA
ATOM     19  H   UNL     1     -28.484  87.977  86.993  1.00  0.00     0.293 HD
ENDBRANCH  15  18
BRANCH  17  20
ATOM     20  O   UNL     1     -24.829  87.050  86.132  1.00  0.00    -0.504 OA
ATOM     21  H   UNL     1     -24.334  86.489  86.810  1.00  0.00     0.293 HD
ENDBRANCH  17  20
ENDBRANCH   1  12
BRANCH   2  22
ATOM     22  O   UNL     1     -27.502  85.385  80.778  1.00  0.00    -0.502 OA
ATOM     23  H   UNL     1     -27.405  86.285  81.233  1.00  0.00     0.293 HD
ENDBRANCH   2  22
BRANCH   6  24
ATOM     24  O   UNL     1     -25.807  80.869  78.520  1.00  0.00    -0.507 OA
ATOM     25  H   UNL     1     -26.081  79.981  78.125  1.00  0.00     0.293 HD
ENDBRANCH   6  24
BRANCH   8  26
ATOM     26  O   UNL     1     -23.125  79.099  82.088  1.00  0.00    -0.508 OA
ATOM     27  H   UNL     1     -23.379  78.120  82.049  1.00  0.00     0.293 HD
ENDBRANCH   8  26
TORSDOF 6
ENDMDL
MODEL 3
REMARK VINA RESULT:    -6.640      8.573     10.043
REMARK INTER + INTRA:          -8.156
REMARK INTER:                  -7.872
REMARK INTRA:                  -0.284
REMARK UNBOUND:                -0.158
REMARK SMILES O=c1c(O)c(-c2ccc(O)c(O)c2)oc2cc(O)cc(O)c12
REMARK SMILES IDX 5 1 3 2 2 3 1 4 22 5 20 6 19 7 17 8 16 9 15 10 14 11 6 12
REMARK SMILES IDX 7 13 8 14 9 15 13 16 11 17 10 18 12 20 4 22 21 24 18 26
REMARK H PARENT 10 19 12 21 4 23 21 25 18 27
REMARK Flexibility Score: inf
ROOT
ATOM      1  C   UNL     1     -26.632  82.340  78.012  1.00  0.00     0.180 A 
ATOM      2  C   UNL     1     -27.146  83.371  78.815  1.00  0.00     0.208 A 
ATOM      3  C   UNL     1     -26.753  83.449  80.160  1.00  0.00     0.238 A 
ATOM      4  O   UNL     1     -27.260  84.342  80.889  1.00  0.00    -0.285 OA
ATOM      5  C   UNL     1     -25.836  82.504  80.682  1.00  0.00     0.111 A 
ATOM      6  C   UNL     1     -25.337  82.511  82.019  1.00  0.00     0.134 A 
ATOM      7  C   UNL     1     -24.535  81.453  82.463  1.00  0.00     0.093 A 
ATOM      8  C   UNL     1     -24.162  80.421  81.598  1.00  0.00     0.123 A 
ATOM      9  C   UNL     1     -24.595  80.436  80.276  1.00  0.00     0.094 A 
ATOM     10  C   UNL     1     -25.426  81.460  79.813  1.00  0.00     0.146 A 
ATOM     11  O   UNL     1     -25.824  81.430  78.547  1.00  0.00    -0.452 OA
ENDROOT
BRANCH   1  12
ATOM     12  C   UNL     1     -26.980  82.208  76.579  1.00  0.00     0.025 A 
ATOM     13  C   UNL     1     -28.209  81.665  76.172  1.00  0.00     0.016 A 
ATOM     14  C   UNL     1     -28.524  81.571  74.816  1.00  0.00     0.051 A 
ATOM     15  C   UNL     1     -27.631  82.030  73.841  1.00  0.00     0.157 A 
ATOM     16  C   UNL     1     -26.092  82.688  75.604  1.00  0.00     0.062 A 
ATOM     17  C   UNL     1     -26.400  82.600  74.241  1.00  0.00     0.158 A 
BRANCH  15  18
ATOM     18  O   UNL     1     -28.006  81.904  72.501  1.00  0.00    -0.504 OA
ATOM     19  H   UNL     1     -27.355  81.752  71.746  1.00  0.00     0.293 HD
ENDBRANCH  15  18
BRANCH  17  20
ATOM     20  O   UNL     1     -25.463  83.087  73.328  1.00  0.00    -0.504 OA
ATOM     21  H   UNL     1     -24.849  83.867  73.510  1.00  0.00     0.293 HD
ENDBRANCH  17  20
ENDBRANCH   1  12
BRANCH   2  22
ATOM     22  O   UNL     1     -28.067  84.280  78.286  1.00  0.00    -0.502 OA
ATOM     23  H   UNL     1     -29.038  84.303  78.576  1.00  0.00     0.293 HD
ENDBRANCH   2  22
BRANCH   6  24
ATOM     24  O   UNL     1     -25.574  83.541  82.935  1.00  0.00    -0.507 OA
ATOM     25  H   UNL     1     -25.943  83.410  83.865  1.00  0.00     0.293 HD
ENDBRANCH   6  24
BRANCH   8  26
ATOM     26  O   UNL     1     -23.351  79.379  82.045  1.00  0.00    -0.508 OA
ATOM     27  H   UNL     1     -22.532  79.085  81.527  1.00  0.00     0.293 HD
ENDBRANCH   8  26
TORSDOF 6
ENDMDL
MODEL 4
REMARK VINA RESULT:    -6.585      7.735     10.941
REMARK INTER + INTRA:          -8.090
REMARK INTER:                  -7.925
REMARK INTRA:                  -0.166
REMARK UNBOUND:                -0.158
REMARK SMILES O=c1c(O)c(-c2ccc(O)c(O)c2)oc2cc(O)cc(O)c12
REMARK SMILES IDX 5 1 3 2 2 3 1 4 22 5 20 6 19 7 17 8 16 9 15 10 14 11 6 12
REMARK SMILES IDX 7 13 8 14 9 15 13 16 11 17 10 18 12 20 4 22 21 24 18 26
REMARK H PARENT 10 19 12 21 4 23 21 25 18 27
REMARK Flexibility Score: inf
ROOT
ATOM      1  C   UNL     1     -26.236  83.865  82.832  1.00  0.00     0.180 A 
ATOM      2  C   UNL     1     -27.515  83.420  82.459  1.00  0.00     0.208 A 
ATOM      3  C   UNL     1     -27.686  82.079  82.078  1.00  0.00     0.238 A 
ATOM      4  O   UNL     1     -28.822  81.700  81.692  1.00  0.00    -0.285 OA
ATOM      5  C   UNL     1     -26.579  81.196  82.092  1.00  0.00     0.111 A 
ATOM      6  C   UNL     1     -26.644  79.809  81.765  1.00  0.00     0.134 A 
ATOM      7  C   UNL     1     -25.463  79.061  81.687  1.00  0.00     0.093 A 
ATOM      8  C   UNL     1     -24.225  79.636  81.988  1.00  0.00     0.123 A 
ATOM      9  C   UNL     1     -24.158  80.974  82.365  1.00  0.00     0.094 A 
ATOM     10  C   UNL     1     -25.315  81.756  82.418  1.00  0.00     0.146 A 
ATOM     11  O   UNL     1     -25.205  83.030  82.773  1.00  0.00    -0.452 OA
ENDROOT
BRANCH   1  12
ATOM     12  C   UNL     1     -25.983  85.257  83.270  1.00  0.00     0.025 A 
ATOM     13  C   UNL     1     -26.144  86.341  82.392  1.00  0.00     0.016 A 
ATOM     14  C   UNL     1     -25.921  87.646  82.834  1.00  0.00     0.051 A 
ATOM     15  C   UNL     1     -25.549  87.898  84.159  1.00  0.00     0.157 A 
ATOM     16  C   UNL     1     -25.631  85.509  84.605  1.00  0.00     0.062 A 
ATOM     17  C   UNL     1     -25.406  86.815  85.058  1.00  0.00     0.158 A 
BRANCH  15  18
ATOM     18  O   UNL     1     -25.338  89.226  84.536  1.00  0.00    -0.504 OA
ATOM     19  H   UNL     1     -25.161  89.522  85.485  1.00  0.00     0.293 HD
ENDBRANCH  15  18
BRANCH  17  20
ATOM     20  O   UNL     1     -25.047  86.989  86.396  1.00  0.00    -0.504 OA
ATOM     21  H   UNL     1     -25.710  87.072  87.153  1.00  0.00     0.293 HD
ENDBRANCH  17  20
ENDBRANCH   1  12
BRANCH   2  22
ATOM     22  O   UNL     1     -28.590  84.313  82.431  1.00  0.00    -0.502 OA
ATOM     23  H   UNL     1     -29.306  84.280  81.715  1.00  0.00     0.293 HD
ENDBRANCH   2  22
BRANCH   6  24
ATOM     24  O   UNL     1     -27.837  79.116  81.537  1.00  0.00    -0.507 OA
ATOM     25  H   UNL     1     -28.339  78.590  82.237  1.00  0.00     0.293 HD
ENDBRANCH   6  24
BRANCH   8  26
ATOM     26  O   UNL     1     -23.057  78.880  81.922  1.00  0.00    -0.508 OA
ATOM     27  H   UNL     1     -23.058  77.930  81.573  1.00  0.00     0.293 HD
ENDBRANCH   8  26
TORSDOF 6
ENDMDL
MODEL 5
REMARK VINA RESULT:    -6.580      2.243      2.654
REMARK INTER + INTRA:          -8.084
REMARK INTER:                  -7.922
REMARK INTRA:                  -0.162
REMARK UNBOUND:                -0.158
REMARK SMILES O=c1c(O)c(-c2ccc(O)c(O)c2)oc2cc(O)cc(O)c12
REMARK SMILES IDX 5 1 3 2 2 3 1 4 22 5 20 6 19 7 17 8 16 9 15 10 14 11 6 12
REMARK SMILES IDX 7 13 8 14 9 15 13 16 11 17 10 18 12 20 4 22 21 24 18 26
REMARK H PARENT 10 19 12 21 4 23 21 25 18 27
REMARK Flexibility Score: inf
ROOT
ATOM      1  C   UNL     1     -26.066  90.245  78.758  1.00  0.00     0.180 A 
ATOM      2  C   UNL     1     -27.312  90.768  79.144  1.00  0.00     0.208 A 
ATOM      3  C   UNL     1     -27.398  92.116  79.524  1.00  0.00     0.238 A 
ATOM      4  O   UNL     1     -28.505  92.564  79.920  1.00  0.00    -0.285 OA
ATOM      5  C   UNL     1     -26.239  92.930  79.498  1.00  0.00     0.111 A 
ATOM      6  C   UNL     1     -26.217  94.320  79.824  1.00  0.00     0.134 A 
ATOM      7  C   UNL     1     -24.993  94.995  79.889  1.00  0.00     0.093 A 
ATOM      8  C   UNL     1     -23.795  94.346  79.577  1.00  0.00     0.123 A 
ATOM      9  C   UNL     1     -23.812  93.006  79.201  1.00  0.00     0.094 A 
ATOM     10  C   UNL     1     -25.015  92.295  79.161  1.00  0.00     0.146 A 
ATOM     11  O   UNL     1     -24.985  91.017  78.807  1.00  0.00    -0.452 OA
ENDROOT
BRANCH   1  12
ATOM     12  C   UNL     1     -25.901  88.840  78.321  1.00  0.00     0.025 A 
ATOM     13  C   UNL     1     -26.121  87.769  79.201  1.00  0.00     0.016 A 
ATOM     14  C   UNL     1     -25.982  86.452  78.759  1.00  0.00     0.051 A 
ATOM     15  C   UNL     1     -25.637  86.177  77.431  1.00  0.00     0.157 A 
ATOM     16  C   UNL     1     -25.576  88.566  76.982  1.00  0.00     0.062 A 
ATOM     17  C   UNL     1     -25.435  87.249  76.530  1.00  0.00     0.158 A 
BRANCH  15  18
ATOM     18  O   UNL     1     -25.510  84.838  77.054  1.00  0.00    -0.504 OA
ATOM     19  H   UNL     1     -25.724  84.059  77.659  1.00  0.00     0.293 HD
ENDBRANCH  15  18
BRANCH  17  20
ATOM     20  O   UNL     1     -25.098  87.052  75.189  1.00  0.00    -0.504 OA
ATOM     21  H   UNL     1     -25.349  86.231  74.658  1.00  0.00     0.293 HD
ENDBRANCH  17  20
ENDBRANCH   1  12
BRANCH   2  22
ATOM     22  O   UNL     1     -28.438  89.941  79.183  1.00  0.00    -0.502 OA
ATOM     23  H   UNL     1     -28.465  89.035  78.730  1.00  0.00     0.293 HD
ENDBRANCH   2  22
BRANCH   6  24
ATOM     24  O   UNL     1     -27.364  95.083  80.061  1.00  0.00    -0.507 OA
ATOM     25  H   UNL     1     -27.364  96.063  80.302  1.00  0.00     0.293 HD
ENDBRANCH   6  24
BRANCH   8  26
ATOM     26  O   UNL     1     -22.583  95.030  79.630  1.00  0.00    -0.508 OA
ATOM     27  H   UNL     1     -22.342  95.623  80.414  1.00  0.00     0.293 HD
ENDBRANCH   8  26
TORSDOF 6
ENDMDL
MODEL 6
REMARK VINA RESULT:    -6.559      4.586      9.140
REMARK INTER + INTRA:          -8.059
REMARK INTER:                  -7.776
REMARK INTRA:                  -0.283
REMARK UNBOUND:                -0.158
REMARK SMILES O=c1c(O)c(-c2ccc(O)c(O)c2)oc2cc(O)cc(O)c12
REMARK SMILES IDX 5 1 3 2 2 3 1 4 22 5 20 6 19 7 17 8 16 9 15 10 14 11 6 12
REMARK SMILES IDX 7 13 8 14 9 15 13 16 11 17 10 18 12 20 4 22 21 24 18 26
REMARK H PARENT 10 19 12 21 4 23 21 25 18 27
REMARK Flexibility Score: inf
ROOT
ATOM      1  C   UNL     1     -27.649  87.162  76.574  1.00  0.00     0.180 A 
ATOM      2  C   UNL     1     -26.395  87.256  75.947  1.00  0.00     0.208 A 
ATOM      3  C   UNL     1     -25.868  86.125  75.306  1.00  0.00     0.238 A 
ATOM      4  O   UNL     1     -24.720  86.199  74.793  1.00  0.00    -0.285 OA
ATOM      5  C   UNL     1     -26.607  84.917  75.285  1.00  0.00     0.111 A 
ATOM      6  C   UNL     1     -26.188  83.720  74.631  1.00  0.00     0.134 A 
ATOM      7  C   UNL     1     -26.939  82.549  74.786  1.00  0.00     0.093 A 
ATOM      8  C   UNL     1     -28.128  82.548  75.519  1.00  0.00     0.123 A 
ATOM      9  C   UNL     1     -28.576  83.724  76.112  1.00  0.00     0.094 A 
ATOM     10  C   UNL     1     -27.831  84.901  76.005  1.00  0.00     0.146 A 
ATOM     11  O   UNL     1     -28.289  85.998  76.594  1.00  0.00    -0.452 OA
ENDROOT
BRANCH   1  12
ATOM     12  C   UNL     1     -28.282  88.319  77.249  1.00  0.00     0.025 A 
ATOM     13  C   UNL     1     -29.328  89.035  76.646  1.00  0.00     0.016 A 
ATOM     14  C   UNL     1     -29.924  90.108  77.310  1.00  0.00     0.051 A 
ATOM     15  C   UNL     1     -29.501  90.478  78.592  1.00  0.00     0.157 A 
ATOM     16  C   UNL     1     -27.870  88.675  78.543  1.00  0.00     0.062 A 
ATOM     17  C   UNL     1     -28.463  89.749  79.218  1.00  0.00     0.158 A 
BRANCH  15  18
ATOM     18  O   UNL     1     -30.136  91.563  79.201  1.00  0.00    -0.504 OA
ATOM     19  H   UNL     1     -29.727  92.481  79.285  1.00  0.00     0.293 HD
ENDBRANCH  15  18
BRANCH  17  20
ATOM     20  O   UNL     1     -27.994  90.054  80.498  1.00  0.00    -0.504 OA
ATOM     21  H   UNL     1     -27.048  90.341  80.699  1.00  0.00     0.293 HD
ENDBRANCH  17  20
ENDBRANCH   1  12
BRANCH   2  22
ATOM     22  O   UNL     1     -25.672  88.451  75.998  1.00  0.00    -0.502 OA
ATOM     23  H   UNL     1     -25.688  89.063  76.806  1.00  0.00     0.293 HD
ENDBRANCH   2  22
BRANCH   6  24
ATOM     24  O   UNL     1     -25.066  83.637  73.801  1.00  0.00    -0.507 OA
ATOM     25  H   UNL     1     -24.893  84.235  73.006  1.00  0.00     0.293 HD
ENDBRANCH   6  24
BRANCH   8  26
ATOM     26  O   UNL     1     -28.877  81.380  75.655  1.00  0.00    -0.508 OA
ATOM     27  H   UNL     1     -29.491  81.054  74.919  1.00  0.00     0.293 HD
ENDBRANCH   8  26
TORSDOF 6
ENDMDL
MODEL 7
REMARK VINA RESULT:    -6.548      4.164      7.205
REMARK INTER + INTRA:          -8.046
REMARK INTER:                  -7.761
REMARK INTRA:                  -0.285
REMARK UNBOUND:                -0.158
REMARK SMILES O=c1c(O)c(-c2ccc(O)c(O)c2)oc2cc(O)cc(O)c12
REMARK SMILES IDX 5 1 3 2 2 3 1 4 22 5 20 6 19 7 17 8 16 9 15 10 14 11 6 12
REMARK SMILES IDX 7 13 8 14 9 15 13 16 11 17 10 18 12 20 4 22 21 24 18 26
REMARK H PARENT 10 19 12 21 4 23 21 25 18 27
REMARK Flexibility Score: inf
ROOT
ATOM      1  C   UNL     1     -24.967  91.768  83.910  1.00  0.00     0.180 A 
ATOM      2  C   UNL     1     -26.333  91.868  84.219  1.00  0.00     0.208 A 
ATOM      3  C   UNL     1     -26.920  90.892  85.039  1.00  0.00     0.238 A 
ATOM      4  O   UNL     1     -28.156  90.956  85.267  1.00  0.00    -0.285 OA
ATOM      5  C   UNL     1     -26.129  89.836  85.555  1.00  0.00     0.111 A 
ATOM      6  C   UNL     1     -26.609  88.814  86.427  1.00  0.00     0.134 A 
ATOM      7  C   UNL     1     -25.770  87.748  86.771  1.00  0.00     0.093 A 
ATOM      8  C   UNL     1     -24.447  87.700  86.323  1.00  0.00     0.123 A 
ATOM      9  C   UNL     1     -23.951  88.722  85.519  1.00  0.00     0.094 A 
ATOM     10  C   UNL     1     -24.775  89.782  85.130  1.00  0.00     0.146 A 
ATOM     11  O   UNL     1     -24.265  90.731  84.355  1.00  0.00    -0.452 OA
ENDROOT
BRANCH   1  12
ATOM     12  C   UNL     1     -24.272  92.772  83.072  1.00  0.00     0.025 A 
ATOM     13  C   UNL     1     -23.444  93.753  83.642  1.00  0.00     0.016 A 
ATOM     14  C   UNL     1     -22.782  94.675  82.830  1.00  0.00     0.051 A 
ATOM     15  C   UNL     1     -22.919  94.630  81.438  1.00  0.00     0.157 A 
ATOM     16  C   UNL     1     -24.393  92.711  81.675  1.00  0.00     0.062 A 
ATOM     17  C   UNL     1     -23.732  93.631  80.853  1.00  0.00     0.158 A 
BRANCH  15  18
ATOM     18  O   UNL     1     -22.232  95.583  80.683  1.00  0.00    -0.504 OA
ATOM     19  H   UNL     1     -22.578  96.513  80.499  1.00  0.00     0.293 HD
ENDBRANCH  15  18
BRANCH  17  20
ATOM     20  O   UNL     1     -23.909  93.517  79.472  1.00  0.00    -0.504 OA
ATOM     21  H   UNL     1     -23.546  94.177  78.800  1.00  0.00     0.293 HD
ENDBRANCH  17  20
ENDBRANCH   1  12
BRANCH   2  22
ATOM     22  O   UNL     1     -27.101  92.905  83.682  1.00  0.00    -0.502 OA
ATOM     23  H   UNL     1     -27.818  93.384  84.215  1.00  0.00     0.293 HD
ENDBRANCH   2  22
BRANCH   6  24
ATOM     24  O   UNL     1     -27.883  88.816  87.004  1.00  0.00    -0.507 OA
ATOM     25  H   UNL     1     -28.144  89.346  87.823  1.00  0.00     0.293 HD
ENDBRANCH   6  24
BRANCH   8  26
ATOM     26  O   UNL     1     -23.614  86.642  86.682  1.00  0.00    -0.508 OA
ATOM     27  H   UNL     1     -23.917  85.679  86.607  1.00  0.00     0.293 HD
ENDBRANCH   8  26
TORSDOF 6
ENDMDL
MODEL 8
REMARK VINA RESULT:    -6.539      6.512      7.170
REMARK INTER + INTRA:          -8.036
REMARK INTER:                  -7.744
REMARK INTRA:                  -0.292
REMARK UNBOUND:                -0.158
REMARK SMILES O=c1c(O)c(-c2ccc(O)c(O)c2)oc2cc(O)cc(O)c12
REMARK SMILES IDX 5 1 3 2 2 3 1 4 22 5 20 6 19 7 17 8 16 9 15 10 14 11 6 12
REMARK SMILES IDX 7 13 8 14 9 15 13 16 11 17 10 18 12 20 4 22 21 24 18 26
REMARK H PARENT 10 19 12 21 4 23 21 25 18 27
REMARK Flexibility Score: inf
ROOT
ATOM      1  C   UNL     1     -27.677  87.071  84.973  1.00  0.00     0.180 A 
ATOM      2  C   UNL     1     -26.428  86.893  85.593  1.00  0.00     0.208 A 
ATOM      3  C   UNL     1     -25.834  87.981  86.253  1.00  0.00     0.238 A 
ATOM      4  O   UNL     1     -24.691  87.830  86.758  1.00  0.00    -0.285 OA
ATOM      5  C   UNL     1     -26.503  89.228  86.299  1.00  0.00     0.111 A 
ATOM      6  C   UNL     1     -26.013  90.386  86.973  1.00  0.00     0.134 A 
ATOM      7  C   UNL     1     -26.696  91.602  86.844  1.00  0.00     0.093 A 
ATOM      8  C   UNL     1     -27.886  91.685  86.117  1.00  0.00     0.123 A 
ATOM      9  C   UNL     1     -28.403  90.547  85.504  1.00  0.00     0.094 A 
ATOM     10  C   UNL     1     -27.726  89.327  85.585  1.00  0.00     0.146 A 
ATOM     11  O   UNL     1     -28.249  88.270  84.978  1.00  0.00    -0.452 OA
ENDROOT
BRANCH   1  12
ATOM     12  C   UNL     1     -28.377  85.965  84.281  1.00  0.00     0.025 A 
ATOM     13  C   UNL     1     -29.444  85.282  84.886  1.00  0.00     0.016 A 
ATOM     14  C   UNL     1     -30.103  84.258  84.204  1.00  0.00     0.051 A 
ATOM     15  C   UNL     1     -29.725  83.906  82.904  1.00  0.00     0.157 A 
ATOM     16  C   UNL     1     -28.010  85.629  82.968  1.00  0.00     0.062 A 
ATOM     17  C   UNL     1     -28.667  84.603  82.276  1.00  0.00     0.158 A 
BRANCH  15  18
ATOM     18  O   UNL     1     -30.423  82.870  82.279  1.00  0.00    -0.504 OA
ATOM     19  H   UNL     1     -30.994  82.199  82.769  1.00  0.00     0.293 HD
ENDBRANCH  15  18
BRANCH  17  20
ATOM     20  O   UNL     1     -28.239  84.315  80.978  1.00  0.00    -0.504 OA
ATOM     21  H   UNL     1     -27.563  84.867  80.471  1.00  0.00     0.293 HD
ENDBRANCH  17  20
ENDBRANCH   1  12
BRANCH   2  22
ATOM     22  O   UNL     1     -25.775  85.660  85.516  1.00  0.00    -0.502 OA
ATOM     23  H   UNL     1     -26.163  84.813  85.914  1.00  0.00     0.293 HD
ENDBRANCH   2  22
BRANCH   6  24
ATOM     24  O   UNL     1     -24.886  90.389  87.800  1.00  0.00    -0.507 OA
ATOM     25  H   UNL     1     -23.986  90.007  87.548  1.00  0.00     0.293 HD
ENDBRANCH   6  24
BRANCH   8  26
ATOM     26  O   UNL     1     -28.567  92.895  86.006  1.00  0.00    -0.508 OA
ATOM     27  H   UNL     1     -29.193  93.221  86.732  1.00  0.00     0.293 HD
ENDBRANCH   8  26
TORSDOF 6
ENDMDL
MODEL 9
REMARK VINA RESULT:    -6.507      7.627     10.180
REMARK INTER + INTRA:          -7.997
REMARK INTER:                  -7.700
REMARK INTRA:                  -0.297
REMARK UNBOUND:                -0.158
REMARK SMILES O=c1c(O)c(-c2ccc(O)c(O)c2)oc2cc(O)cc(O)c12
REMARK SMILES IDX 5 1 3 2 2 3 1 4 22 5 20 6 19 7 17 8 16 9 15 10 14 11 6 12
REMARK SMILES IDX 7 13 8 14 9 15 13 16 11 17 10 18 12 20 4 22 21 24 18 26
REMARK H PARENT 10 19 12 21 4 23 21 25 18 27
REMARK Flexibility Score: inf
ROOT
ATOM      1  C   UNL     1     -25.241  82.339  77.736  1.00  0.00     0.180 A 
ATOM      2  C   UNL     1     -26.617  82.314  77.453  1.00  0.00     0.208 A 
ATOM      3  C   UNL     1     -27.161  83.311  76.629  1.00  0.00     0.238 A 
ATOM      4  O   UNL     1     -28.403  83.315  76.423  1.00  0.00    -0.285 OA
ATOM      5  C   UNL     1     -26.320  84.312  76.084  1.00  0.00     0.111 A 
ATOM      6  C   UNL     1     -26.756  85.348  75.205  1.00  0.00     0.134 A 
ATOM      7  C   UNL     1     -25.863  86.359  74.831  1.00  0.00     0.093 A 
ATOM      8  C   UNL     1     -24.532  86.336  75.255  1.00  0.00     0.123 A 
ATOM      9  C   UNL     1     -24.082  85.298  76.065  1.00  0.00     0.094 A 
ATOM     10  C   UNL     1     -24.958  84.294  76.484  1.00  0.00     0.146 A 
ATOM     11  O   UNL     1     -24.489  83.328  77.264  1.00  0.00    -0.452 OA
ENDROOT
BRANCH   1  12
ATOM     12  C   UNL     1     -24.590  81.308  78.576  1.00  0.00     0.025 A 
ATOM     13  C   UNL     1     -23.864  80.250  78.005  1.00  0.00     0.016 A 
ATOM     14  C   UNL     1     -23.241  79.303  78.818  1.00  0.00     0.051 A 
ATOM     15  C   UNL     1     -23.315  79.398  80.213  1.00  0.00     0.157 A 
ATOM     16  C   UNL     1     -24.647  81.418  79.975  1.00  0.00     0.062 A 
ATOM     17  C   UNL     1     -24.024  80.472  80.798  1.00  0.00     0.158 A 
BRANCH  15  18
ATOM     18  O   UNL     1     -22.671  78.415  80.968  1.00  0.00    -0.504 OA
ATOM     19  H   UNL     1     -21.669  78.304  81.013  1.00  0.00     0.293 HD
ENDBRANCH  15  18
BRANCH  17  20
ATOM     20  O   UNL     1     -24.133  80.638  82.181  1.00  0.00    -0.504 OA
ATOM     21  H   UNL     1     -23.510  80.213  82.851  1.00  0.00     0.293 HD
ENDBRANCH  17  20
ENDBRANCH   1  12
BRANCH   2  22
ATOM     22  O   UNL     1     -27.433  81.330  78.019  1.00  0.00    -0.502 OA
ATOM     23  H   UNL     1     -27.586  81.259  79.018  1.00  0.00     0.293 HD
ENDBRANCH   2  22
BRANCH   6  24
ATOM     24  O   UNL     1     -28.038  85.412  74.651  1.00  0.00    -0.507 OA
ATOM     25  H   UNL     1     -28.248  85.739  73.719  1.00  0.00     0.293 HD
ENDBRANCH   6  24
BRANCH   8  26
ATOM     26  O   UNL     1     -23.647  87.339  74.866  1.00  0.00    -0.508 OA
ATOM     27  H   UNL     1     -23.970  88.190  74.421  1.00  0.00     0.293 HD
ENDBRANCH   8  26
TORSDOF 6
ENDMDL
