MODEL 1
REMARK VINA RESULT:    -4.287      0.000      0.000
REMARK INTER + INTRA:          -5.166
REMARK INTER:                  -5.039
REMARK INTRA:                  -0.127
REMARK UNBOUND:                -0.127
REMARK SMILES O=C([O-])C=Cc1ccc(O)c(O)c1
REMARK SMILES IDX 6 1 13 2 7 3 11 4 8 5 9 6 5 7 4 8 2 9 1 10 3 11 12 12 10 14
REMARK H PARENT 12 13 10 15
REMARK Flexibility Score: inf
ROOT
ATOM      1  C   UNL     1       7.010   6.384  26.503  1.00  0.00    -0.022 A 
ATOM      2  C   UNL     1       8.022   6.960  25.710  1.00  0.00     0.058 A 
ATOM      3  C   UNL     1       6.733   5.014  26.358  1.00  0.00     0.012 A 
ATOM      4  C   UNL     1       8.723   6.185  24.775  1.00  0.00     0.157 A 
ATOM      5  C   UNL     1       7.430   4.242  25.426  1.00  0.00     0.051 A 
ATOM      6  C   UNL     1       8.424   4.824  24.630  1.00  0.00     0.157 A 
ENDROOT
BRANCH   1   7
ATOM      7  C   UNL     1       6.249   7.158  27.515  1.00  0.00     0.010 C 
ATOM      8  C   UNL     1       5.452   8.193  27.214  1.00  0.00     0.025 C 
BRANCH   8   9
ATOM      9  C   UNL     1       4.706   8.926  28.249  1.00  0.00     0.064 C 
ATOM     10  O   UNL     1       4.895   8.650  29.463  1.00  0.00    -0.545 OA
ATOM     11  O   UNL     1       3.793   9.918  27.909  1.00  0.00    -0.545 OA
ENDBRANCH   8   9
ENDBRANCH   1   7
BRANCH   4  12
ATOM     12  O   UNL     1       9.722   6.758  23.989  1.00  0.00    -0.504 OA
ATOM     13  H   UNL     1      10.659   6.374  23.961  1.00  0.00     0.293 HD
ENDBRANCH   4  12
BRANCH   6  14
ATOM     14  O   UNL     1       9.121   4.058  23.697  1.00  0.00    -0.504 OA
ATOM     15  H   UNL     1       8.888   4.083  22.711  1.00  0.00     0.293 HD
ENDBRANCH   6  14
TORSDOF 4
ENDMDL
MODEL 2
REMARK VINA RESULT:    -4.260     16.869     17.895
REMARK INTER + INTRA:          -5.134
REMARK INTER:                  -5.001
REMARK INTRA:                  -0.133
REMARK UNBOUND:                -0.127
REMARK SMILES O=C([O-])C=Cc1ccc(O)c(O)c1
REMARK SMILES IDX 6 1 13 2 7 3 11 4 8 5 9 6 5 7 4 8 2 9 1 10 3 11 12 12 10 14
REMARK H PARENT 12 13 10 15
REMARK Flexibility Score: inf
ROOT
ATOM      1  C   UNL     1      10.491  -5.658  37.995  1.00  0.00    -0.022 A 
ATOM      2  C   UNL     1      10.638  -5.519  36.600  1.00  0.00     0.058 A 
ATOM      3  C   UNL     1       9.649  -6.667  38.491  1.00  0.00     0.012 A 
ATOM      4  C   UNL     1       9.935  -6.359  35.724  1.00  0.00     0.157 A 
ATOM      5  C   UNL     1       8.949  -7.502  37.618  1.00  0.00     0.051 A 
ATOM      6  C   UNL     1       9.087  -7.350  36.233  1.00  0.00     0.157 A 
ENDROOT
BRANCH   1   7
ATOM      7  C   UNL     1      11.221  -4.803  38.964  1.00  0.00     0.010 C 
ATOM      8  C   UNL     1      12.311  -5.201  39.635  1.00  0.00     0.025 C 
BRANCH   8   9
ATOM      9  C   UNL     1      13.010  -4.315  40.579  1.00  0.00     0.064 C 
ATOM     10  O   UNL     1      14.148  -4.641  41.010  1.00  0.00    -0.545 OA
ATOM     11  O   UNL     1      12.435  -3.123  41.005  1.00  0.00    -0.545 OA
ENDBRANCH   8   9
ENDBRANCH   1   7
BRANCH   4  12
ATOM     12  O   UNL     1      10.079  -6.219  34.344  1.00  0.00    -0.504 OA
ATOM     13  H   UNL     1      10.106  -5.307  33.904  1.00  0.00     0.293 HD
ENDBRANCH   4  12
BRANCH   6  14
ATOM     14  O   UNL     1       8.388  -8.180  35.358  1.00  0.00    -0.504 OA
ATOM     15  H   UNL     1       7.462  -8.523  35.580  1.00  0.00     0.293 HD
ENDBRANCH   6  14
TORSDOF 4
ENDMDL
MODEL 3
REMARK VINA RESULT:    -4.253     14.326     15.403
REMARK INTER + INTRA:          -5.126
REMARK INTER:                  -4.999
REMARK INTRA:                  -0.127
REMARK UNBOUND:                -0.127
REMARK SMILES O=C([O-])C=Cc1ccc(O)c(O)c1
REMARK SMILES IDX 6 1 13 2 7 3 11 4 8 5 9 6 5 7 4 8 2 9 1 10 3 11 12 12 10 14
REMARK H PARENT 12 13 10 15
REMARK Flexibility Score: inf
ROOT
ATOM      1  C   UNL     1      17.904   6.393  35.563  1.00  0.00    -0.022 A 
ATOM      2  C   UNL     1      16.885   7.005  36.320  1.00  0.00     0.058 A 
ATOM      3  C   UNL     1      18.175   5.030  35.767  1.00  0.00     0.012 A 
ATOM      4  C   UNL     1      16.172   6.271  37.279  1.00  0.00     0.157 A 
ATOM      5  C   UNL     1      17.465   4.300  36.723  1.00  0.00     0.051 A 
ATOM      6  C   UNL     1      16.464   4.917  37.483  1.00  0.00     0.157 A 
ENDROOT
BRANCH   1   7
ATOM      7  C   UNL     1      18.679   7.123  34.528  1.00  0.00     0.010 C 
ATOM      8  C   UNL     1      19.535   8.117  34.803  1.00  0.00     0.025 C 
BRANCH   8   9
ATOM      9  C   UNL     1      20.292   8.806  33.746  1.00  0.00     0.064 C 
ATOM     10  O   UNL     1      20.091   8.503  32.541  1.00  0.00    -0.545 OA
ATOM     11  O   UNL     1      21.227   9.787  34.056  1.00  0.00    -0.545 OA
ENDBRANCH   8   9
ENDBRANCH   1   7
BRANCH   4  12
ATOM     12  O   UNL     1      15.166   6.879  38.029  1.00  0.00    -0.504 OA
ATOM     13  H   UNL     1      14.230   6.495  38.070  1.00  0.00     0.293 HD
ENDBRANCH   4  12
BRANCH   6  14
ATOM     14  O   UNL     1      15.755   4.192  38.439  1.00  0.00    -0.504 OA
ATOM     15  H   UNL     1      14.990   3.582  38.181  1.00  0.00     0.293 HD
ENDBRANCH   6  14
TORSDOF 4
ENDMDL
MODEL 4
REMARK VINA RESULT:    -4.062     13.267     15.235
REMARK INTER + INTRA:          -4.902
REMARK INTER:                  -4.771
REMARK INTRA:                  -0.131
REMARK UNBOUND:                -0.127
REMARK SMILES O=C([O-])C=Cc1ccc(O)c(O)c1
REMARK SMILES IDX 6 1 13 2 7 3 11 4 8 5 9 6 5 7 4 8 2 9 1 10 3 11 12 12 10 14
REMARK H PARENT 12 13 10 15
REMARK Flexibility Score: inf
ROOT
ATOM      1  C   UNL     1      14.590  -5.658  24.677  1.00  0.00    -0.022 A 
ATOM      2  C   UNL     1      14.194  -5.840  26.017  1.00  0.00     0.058 A 
ATOM      3  C   UNL     1      15.761  -6.289  24.225  1.00  0.00     0.012 A 
ATOM      4  C   UNL     1      14.970  -6.618  26.890  1.00  0.00     0.157 A 
ATOM      5  C   UNL     1      16.534  -7.062  25.094  1.00  0.00     0.051 A 
ATOM      6  C   UNL     1      16.143  -7.227  26.429  1.00  0.00     0.157 A 
ENDROOT
BRANCH   1   7
ATOM      7  C   UNL     1      13.799  -4.855  23.712  1.00  0.00     0.010 C 
ATOM      8  C   UNL     1      12.850  -5.370  22.918  1.00  0.00     0.025 C 
BRANCH   8   9
ATOM      9  C   UNL     1      12.081  -4.534  21.982  1.00  0.00     0.064 C 
ATOM     10  O   UNL     1      12.595  -3.478  21.527  1.00  0.00    -0.545 OA
ATOM     11  O   UNL     1      10.795  -4.889  21.593  1.00  0.00    -0.545 OA
ENDBRANCH   8   9
ENDBRANCH   1   7
BRANCH   4  12
ATOM     12  O   UNL     1      14.578  -6.795  28.216  1.00  0.00    -0.504 OA
ATOM     13  H   UNL     1      13.940  -6.152  28.671  1.00  0.00     0.293 HD
ENDBRANCH   4  12
BRANCH   6  14
ATOM     14  O   UNL     1      16.913  -7.996  27.300  1.00  0.00    -0.504 OA
ATOM     15  H   UNL     1      16.670  -8.955  27.515  1.00  0.00     0.293 HD
ENDBRANCH   6  14
TORSDOF 4
ENDMDL
MODEL 5
REMARK VINA RESULT:    -4.024      6.183      7.374
REMARK INTER + INTRA:          -4.857
REMARK INTER:                  -4.737
REMARK INTRA:                  -0.121
REMARK UNBOUND:                -0.127
REMARK SMILES O=C([O-])C=Cc1ccc(O)c(O)c1
REMARK SMILES IDX 6 1 13 2 7 3 11 4 8 5 9 6 5 7 4 8 2 9 1 10 3 11 12 12 10 14
REMARK H PARENT 12 13 10 15
REMARK Flexibility Score: inf
ROOT
ATOM      1  C   UNL     1      12.687   7.445  24.880  1.00  0.00    -0.022 A 
ATOM      2  C   UNL     1      11.839   6.664  24.068  1.00  0.00     0.058 A 
ATOM      3  C   UNL     1      13.187   8.655  24.371  1.00  0.00     0.012 A 
ATOM      4  C   UNL     1      11.522   7.078  22.766  1.00  0.00     0.157 A 
ATOM      5  C   UNL     1      12.871   9.065  23.074  1.00  0.00     0.051 A 
ATOM      6  C   UNL     1      12.041   8.278  22.267  1.00  0.00     0.157 A 
ENDROOT
BRANCH   1   7
ATOM      7  C   UNL     1      13.043   7.058  26.268  1.00  0.00     0.010 C 
ATOM      8  C   UNL     1      13.717   5.942  26.579  1.00  0.00     0.025 C 
BRANCH   8   9
ATOM      9  C   UNL     1      14.060   5.603  27.969  1.00  0.00     0.064 C 
ATOM     10  O   UNL     1      13.183   5.099  28.719  1.00  0.00    -0.545 OA
ATOM     11  O   UNL     1      15.337   5.830  28.470  1.00  0.00    -0.545 OA
ENDBRANCH   8   9
ENDBRANCH   1   7
BRANCH   4  12
ATOM     12  O   UNL     1      10.685   6.303  21.963  1.00  0.00    -0.504 OA
ATOM     13  H   UNL     1      10.961   5.382  21.646  1.00  0.00     0.293 HD
ENDBRANCH   4  12
BRANCH   6  14
ATOM     14  O   UNL     1      11.726   8.684  20.971  1.00  0.00    -0.504 OA
ATOM     15  H   UNL     1      11.415   8.022  20.270  1.00  0.00     0.293 HD
ENDBRANCH   6  14
TORSDOF 4
ENDMDL
MODEL 6
REMARK VINA RESULT:    -3.965     12.498     14.252
REMARK INTER + INTRA:          -4.788
REMARK INTER:                  -4.661
REMARK INTRA:                  -0.126
REMARK UNBOUND:                -0.127
REMARK SMILES O=C([O-])C=Cc1ccc(O)c(O)c1
REMARK SMILES IDX 6 1 13 2 7 3 11 4 8 5 9 6 5 7 4 8 2 9 1 10 3 11 12 12 10 14
REMARK H PARENT 12 13 10 15
REMARK Flexibility Score: inf
ROOT
ATOM      1  C   UNL     1      12.703   7.761  37.568  1.00  0.00    -0.022 A 
ATOM      2  C   UNL     1      13.274   7.545  38.838  1.00  0.00     0.058 A 
ATOM      3  C   UNL     1      11.975   8.942  37.344  1.00  0.00     0.012 A 
ATOM      4  C   UNL     1      13.098   8.481  39.868  1.00  0.00     0.157 A 
ATOM      5  C   UNL     1      11.798   9.873  38.370  1.00  0.00     0.051 A 
ATOM      6  C   UNL     1      12.356   9.645  39.635  1.00  0.00     0.157 A 
ENDROOT
BRANCH   1   7
ATOM      7  C   UNL     1      12.871   6.808  36.443  1.00  0.00     0.010 C 
ATOM      8  C   UNL     1      14.007   6.141  36.196  1.00  0.00     0.025 C 
BRANCH   8   9
ATOM      9  C   UNL     1      14.125   5.196  35.075  1.00  0.00     0.064 C 
ATOM     10  O   UNL     1      15.259   4.752  34.754  1.00  0.00    -0.545 OA
ATOM     11  O   UNL     1      13.005   4.784  34.361  1.00  0.00    -0.545 OA
ENDBRANCH   8   9
ENDBRANCH   1   7
BRANCH   4  12
ATOM     12  O   UNL     1      13.661   8.264  41.124  1.00  0.00    -0.504 OA
ATOM     13  H   UNL     1      14.569   7.827  41.229  1.00  0.00     0.293 HD
ENDBRANCH   4  12
BRANCH   6  14
ATOM     14  O   UNL     1      12.180  10.572  40.661  1.00  0.00    -0.504 OA
ATOM     15  H   UNL     1      12.673  10.487  41.541  1.00  0.00     0.293 HD
ENDBRANCH   6  14
TORSDOF 4
ENDMDL
MODEL 7
REMARK VINA RESULT:    -3.958     12.511     15.062
REMARK INTER + INTRA:          -4.780
REMARK INTER:                  -4.655
REMARK INTRA:                  -0.125
REMARK UNBOUND:                -0.127
REMARK SMILES O=C([O-])C=Cc1ccc(O)c(O)c1
REMARK SMILES IDX 6 1 13 2 7 3 11 4 8 5 9 6 5 7 4 8 2 9 1 10 3 11 12 12 10 14
REMARK H PARENT 12 13 10 15
REMARK Flexibility Score: inf
ROOT
ATOM      1  C   UNL     1      13.949  -5.011  23.827  1.00  0.00    -0.022 A 
ATOM      2  C   UNL     1      12.952  -5.614  23.034  1.00  0.00     0.058 A 
ATOM      3  C   UNL     1      14.231  -3.647  23.640  1.00  0.00     0.012 A 
ATOM      4  C   UNL     1      12.272  -4.871  22.058  1.00  0.00     0.157 A 
ATOM      5  C   UNL     1      13.555  -2.908  22.667  1.00  0.00     0.051 A 
ATOM      6  C   UNL     1      12.576  -3.516  21.872  1.00  0.00     0.157 A 
ENDROOT
BRANCH   1   7
ATOM      7  C   UNL     1      14.688  -5.750  24.880  1.00  0.00     0.010 C 
ATOM      8  C   UNL     1      15.499  -6.787  24.631  1.00  0.00     0.025 C 
BRANCH   8   9
ATOM      9  C   UNL     1      16.223  -7.485  25.706  1.00  0.00     0.064 C 
ATOM     10  O   UNL     1      17.057  -8.382  25.413  1.00  0.00    -0.545 OA
ATOM     11  O   UNL     1      15.999  -7.171  27.042  1.00  0.00    -0.545 OA
ENDBRANCH   8   9
ENDBRANCH   1   7
BRANCH   4  12
ATOM     12  O   UNL     1      11.288  -5.469  21.273  1.00  0.00    -0.504 OA
ATOM     13  H   UNL     1      10.680  -4.922  20.675  1.00  0.00     0.293 HD
ENDBRANCH   4  12
BRANCH   6  14
ATOM     14  O   UNL     1      11.900  -2.783  20.899  1.00  0.00    -0.504 OA
ATOM     15  H   UNL     1      12.135  -1.817  20.705  1.00  0.00     0.293 HD
ENDBRANCH   6  14
TORSDOF 4
ENDMDL
MODEL 8
REMARK VINA RESULT:    -3.878      2.677      3.779
REMARK INTER + INTRA:          -4.686
REMARK INTER:                  -4.558
REMARK INTRA:                  -0.128
REMARK UNBOUND:                -0.127
REMARK SMILES O=C([O-])C=Cc1ccc(O)c(O)c1
REMARK SMILES IDX 6 1 13 2 7 3 11 4 8 5 9 6 5 7 4 8 2 9 1 10 3 11 12 12 10 14
REMARK H PARENT 12 13 10 15
REMARK Flexibility Score: inf
ROOT
ATOM      1  C   UNL     1      10.011   6.287  25.269  1.00  0.00    -0.022 A 
ATOM      2  C   UNL     1       9.836   6.168  23.875  1.00  0.00     0.058 A 
ATOM      3  C   UNL     1      11.282   6.618  25.767  1.00  0.00     0.012 A 
ATOM      4  C   UNL     1      10.920   6.351  23.004  1.00  0.00     0.157 A 
ATOM      5  C   UNL     1      12.361   6.799  24.899  1.00  0.00     0.051 A 
ATOM      6  C   UNL     1      12.185   6.664  23.516  1.00  0.00     0.157 A 
ENDROOT
BRANCH   1   7
ATOM      7  C   UNL     1       8.895   6.115  26.232  1.00  0.00     0.010 C 
ATOM      8  C   UNL     1       7.734   6.779  26.152  1.00  0.00     0.025 C 
BRANCH   8   9
ATOM      9  C   UNL     1       6.649   6.568  27.123  1.00  0.00     0.064 C 
ATOM     10  O   UNL     1       6.749   5.648  27.976  1.00  0.00    -0.545 OA
ATOM     11  O   UNL     1       5.512   7.369  27.114  1.00  0.00    -0.545 OA
ENDBRANCH   8   9
ENDBRANCH   1   7
BRANCH   4  12
ATOM     12  O   UNL     1      10.746   6.229  21.626  1.00  0.00    -0.504 OA
ATOM     13  H   UNL     1      11.525   6.315  20.984  1.00  0.00     0.293 HD
ENDBRANCH   4  12
BRANCH   6  14
ATOM     14  O   UNL     1      13.260   6.842  22.647  1.00  0.00    -0.504 OA
ATOM     15  H   UNL     1      13.360   6.284  21.807  1.00  0.00     0.293 HD
ENDBRANCH   6  14
TORSDOF 4
ENDMDL
MODEL 9
REMARK VINA RESULT:    -3.777     17.114     18.371
REMARK INTER + INTRA:          -4.567
REMARK INTER:                  -4.428
REMARK INTRA:                  -0.139
REMARK UNBOUND:                -0.127
REMARK SMILES O=C([O-])C=Cc1ccc(O)c(O)c1
REMARK SMILES IDX 6 1 13 2 7 3 11 4 8 5 9 6 5 7 4 8 2 9 1 10 3 11 12 12 10 14
REMARK H PARENT 12 13 10 15
REMARK Flexibility Score: inf
ROOT
ATOM      1  C   UNL     1      10.238  -5.848  38.567  1.00  0.00    -0.022 A 
ATOM      2  C   UNL     1      11.451  -6.071  39.249  1.00  0.00     0.058 A 
ATOM      3  C   UNL     1       9.873  -4.530  38.247  1.00  0.00     0.012 A 
ATOM      4  C   UNL     1      12.266  -4.993  39.623  1.00  0.00     0.157 A 
ATOM      5  C   UNL     1      10.684  -3.456  38.621  1.00  0.00     0.051 A 
ATOM      6  C   UNL     1      11.881  -3.683  39.311  1.00  0.00     0.157 A 
ENDROOT
BRANCH   1   7
ATOM      7  C   UNL     1       9.346  -6.954  38.139  1.00  0.00     0.010 C 
ATOM      8  C   UNL     1       9.036  -7.208  36.860  1.00  0.00     0.025 C 
BRANCH   8   9
ATOM      9  C   UNL     1       8.156  -8.324  36.480  1.00  0.00     0.064 C 
ATOM     10  O   UNL     1       7.751  -9.124  37.364  1.00  0.00    -0.545 OA
ATOM     11  O   UNL     1       7.763  -8.511  35.159  1.00  0.00    -0.545 OA
ENDBRANCH   8   9
ENDBRANCH   1   7
BRANCH   4  12
ATOM     12  O   UNL     1      13.465  -5.215  40.300  1.00  0.00    -0.504 OA
ATOM     13  H   UNL     1      14.154  -5.873  39.955  1.00  0.00     0.293 HD
ENDBRANCH   4  12
BRANCH   6  14
ATOM     14  O   UNL     1      12.693  -2.614  39.688  1.00  0.00    -0.504 OA
ATOM     15  H   UNL     1      12.562  -1.688  39.300  1.00  0.00     0.293 HD
ENDBRANCH   6  14
TORSDOF 4
ENDMDL
