MODEL 1
REMARK VINA RESULT:    -6.166      0.000      0.000
REMARK INTER + INTRA:          -8.554
REMARK INTER:                  -8.329
REMARK INTRA:                  -0.225
REMARK UNBOUND:                -0.225
REMARK SMILES CCCCCCC=CC(=O)[O-]
REMARK SMILES IDX 5 1 6 2 7 3 8 4 9 5 10 6 11 7 4 8 3 9 2 10 1 11
REMARK H PARENT
REMARK Flexibility Score: inf
ROOT
ATOM      1  C   UNL     1       5.438  -2.683  -2.544  1.00  0.00     0.004 C 
ENDROOT
BRANCH   1   2
ATOM      2  C   UNL     1       5.248  -1.293  -1.921  1.00  0.00     0.027 C 
BRANCH   2   3
ATOM      3  C   UNL     1       4.268  -0.474  -2.711  1.00  0.00    -0.025 C 
ATOM      4  C   UNL     1       4.501  -0.147  -3.987  1.00  0.00     0.020 C 
BRANCH   4   5
ATOM      5  C   UNL     1       3.561   0.665  -4.777  1.00  0.00     0.064 C 
ATOM      6  O   UNL     1       3.943   1.711  -5.369  1.00  0.00    -0.545 OA
ATOM      7  O   UNL     1       2.233   0.274  -4.873  1.00  0.00    -0.545 OA
ENDBRANCH   4   5
ENDBRANCH   2   3
ENDBRANCH   1   2
BRANCH   1   8
ATOM      8  C   UNL     1       4.157  -3.535  -2.514  1.00  0.00     0.000 C 
BRANCH   8   9
ATOM      9  C   UNL     1       4.328  -4.982  -3.011  1.00  0.00    -0.000 C 
BRANCH   9  10
ATOM     10  C   UNL     1       2.990  -5.709  -3.211  1.00  0.00    -0.003 C 
ATOM     11  C   UNL     1       2.948  -6.420  -4.561  1.00  0.00     0.004 C 
ENDBRANCH   9  10
ENDBRANCH   8   9
ENDBRANCH   1   8
TORSDOF 6
ENDMDL
MODEL 2
REMARK VINA RESULT:    -6.158      1.041      1.776
REMARK INTER + INTRA:          -8.543
REMARK INTER:                  -8.229
REMARK INTRA:                  -0.314
REMARK UNBOUND:                -0.225
REMARK SMILES CCCCCCC=CC(=O)[O-]
REMARK SMILES IDX 5 1 6 2 7 3 8 4 9 5 10 6 11 7 4 8 3 9 2 10 1 11
REMARK H PARENT
REMARK Flexibility Score: inf
ROOT
ATOM      1  C   UNL     1       5.437  -1.446  -2.915  1.00  0.00     0.004 C 
ENDROOT
BRANCH   1   2
ATOM      2  C   UNL     1       3.988  -0.941  -2.873  1.00  0.00     0.027 C 
BRANCH   2   3
ATOM      3  C   UNL     1       3.785   0.203  -3.825  1.00  0.00    -0.025 C 
ATOM      4  C   UNL     1       4.500   0.310  -4.950  1.00  0.00     0.020 C 
BRANCH   4   5
ATOM      5  C   UNL     1       4.328   1.428  -5.892  1.00  0.00     0.064 C 
ATOM      6  O   UNL     1       3.272   2.116  -5.899  1.00  0.00    -0.545 OA
ATOM      7  O   UNL     1       5.345   1.730  -6.786  1.00  0.00    -0.545 OA
ENDBRANCH   4   5
ENDBRANCH   2   3
ENDBRANCH   1   2
BRANCH   1   8
ATOM      8  C   UNL     1       5.558  -2.948  -2.598  1.00  0.00     0.000 C 
BRANCH   8   9
ATOM      9  C   UNL     1       4.217  -3.696  -2.482  1.00  0.00    -0.000 C 
BRANCH   9  10
ATOM     10  C   UNL     1       4.278  -5.126  -3.037  1.00  0.00    -0.003 C 
ATOM     11  C   UNL     1       2.878  -5.698  -3.239  1.00  0.00     0.004 C 
ENDBRANCH   9  10
ENDBRANCH   8   9
ENDBRANCH   1   8
TORSDOF 6
ENDMDL
MODEL 3
REMARK VINA RESULT:    -6.116      3.202      5.381
REMARK INTER + INTRA:          -8.486
REMARK INTER:                  -8.142
REMARK INTRA:                  -0.344
REMARK UNBOUND:                -0.225
REMARK SMILES CCCCCCC=CC(=O)[O-]
REMARK SMILES IDX 5 1 6 2 7 3 8 4 9 5 10 6 11 7 4 8 3 9 2 10 1 11
REMARK H PARENT
REMARK Flexibility Score: inf
ROOT
ATOM      1  C   UNL     1       5.575  -1.332  -2.654  1.00  0.00     0.004 C 
ENDROOT
BRANCH   1   2
ATOM      2  C   UNL     1       5.760  -2.852  -2.541  1.00  0.00     0.027 C 
BRANCH   2   3
ATOM      3  C   UNL     1       4.470  -3.575  -2.806  1.00  0.00    -0.025 C 
ATOM      4  C   UNL     1       4.429  -4.907  -2.924  1.00  0.00     0.020 C 
BRANCH   4   5
ATOM      5  C   UNL     1       3.179  -5.637  -3.196  1.00  0.00     0.064 C 
ATOM      6  O   UNL     1       2.289  -5.755  -2.312  1.00  0.00    -0.545 OA
ATOM      7  O   UNL     1       2.979  -6.204  -4.447  1.00  0.00    -0.545 OA
ENDBRANCH   4   5
ENDBRANCH   2   3
ENDBRANCH   1   2
BRANCH   1   8
ATOM      8  C   UNL     1       4.123  -0.884  -2.409  1.00  0.00     0.000 C 
BRANCH   8   9
ATOM      9  C   UNL     1       3.416  -0.281  -3.637  1.00  0.00    -0.000 C 
BRANCH   9  10
ATOM     10  C   UNL     1       4.242   0.812  -4.329  1.00  0.00    -0.003 C 
ATOM     11  C   UNL     1       4.461   0.486  -5.803  1.00  0.00     0.004 C 
ENDBRANCH   9  10
ENDBRANCH   8   9
ENDBRANCH   1   8
TORSDOF 6
ENDMDL
MODEL 4
REMARK VINA RESULT:    -5.793      3.488      5.456
REMARK INTER + INTRA:          -8.050
REMARK INTER:                  -7.684
REMARK INTRA:                  -0.366
REMARK UNBOUND:                -0.225
REMARK SMILES CCCCCCC=CC(=O)[O-]
REMARK SMILES IDX 5 1 6 2 7 3 8 4 9 5 10 6 11 7 4 8 3 9 2 10 1 11
REMARK H PARENT
REMARK Flexibility Score: inf
ROOT
ATOM      1  C   UNL     1       3.649   1.262  -5.195  1.00  0.00     0.004 C 
ENDROOT
BRANCH   1   2
ATOM      2  C   UNL     1       3.429   0.200  -4.108  1.00  0.00     0.027 C 
BRANCH   2   3
ATOM      3  C   UNL     1       4.726  -0.442  -3.706  1.00  0.00    -0.025 C 
ATOM      4  C   UNL     1       4.755  -1.524  -2.921  1.00  0.00     0.020 C 
BRANCH   4   5
ATOM      5  C   UNL     1       6.014  -2.163  -2.503  1.00  0.00     0.064 C 
ATOM      6  O   UNL     1       6.978  -1.477  -2.067  1.00  0.00    -0.545 OA
ATOM      7  O   UNL     1       6.142  -3.542  -2.591  1.00  0.00    -0.545 OA
ENDBRANCH   4   5
ENDBRANCH   2   3
ENDBRANCH   1   2
BRANCH   1   8
ATOM      8  C   UNL     1       3.917   0.654  -6.583  1.00  0.00     0.000 C 
BRANCH   8   9
ATOM      9  C   UNL     1       2.654   0.281  -7.381  1.00  0.00    -0.000 C 
BRANCH   9  10
ATOM     10  C   UNL     1       1.427   1.115  -6.987  1.00  0.00    -0.003 C 
ATOM     11  C   UNL     1       0.256   0.220  -6.595  1.00  0.00     0.004 C 
ENDBRANCH   9  10
ENDBRANCH   8   9
ENDBRANCH   1   8
TORSDOF 6
ENDMDL
MODEL 5
REMARK VINA RESULT:    -5.782      3.470      5.190
REMARK INTER + INTRA:          -8.035
REMARK INTER:                  -7.710
REMARK INTRA:                  -0.325
REMARK UNBOUND:                -0.225
REMARK SMILES CCCCCCC=CC(=O)[O-]
REMARK SMILES IDX 5 1 6 2 7 3 8 4 9 5 10 6 11 7 4 8 3 9 2 10 1 11
REMARK H PARENT
REMARK Flexibility Score: inf
ROOT
ATOM      1  C   UNL     1       4.085   0.590  -6.333  1.00  0.00     0.004 C 
ENDROOT
BRANCH   1   2
ATOM      2  C   UNL     1       2.949   1.207  -7.163  1.00  0.00     0.027 C 
BRANCH   2   3
ATOM      3  C   UNL     1       1.748   0.306  -7.193  1.00  0.00    -0.025 C 
ATOM      4  C   UNL     1       0.779   0.404  -6.276  1.00  0.00     0.020 C 
BRANCH   4   5
ATOM      5  C   UNL     1      -0.401  -0.477  -6.277  1.00  0.00     0.064 C 
ATOM      6  O   UNL     1      -0.858  -0.950  -7.351  1.00  0.00    -0.545 OA
ATOM      7  O   UNL     1      -1.020  -0.789  -5.075  1.00  0.00    -0.545 OA
ENDBRANCH   4   5
ENDBRANCH   2   3
ENDBRANCH   1   2
BRANCH   1   8
ATOM      8  C   UNL     1       4.096   1.081  -4.875  1.00  0.00     0.000 C 
BRANCH   8   9
ATOM      9  C   UNL     1       3.724   0.015  -3.829  1.00  0.00    -0.000 C 
BRANCH   9  10
ATOM     10  C   UNL     1       4.944  -0.742  -3.284  1.00  0.00    -0.003 C 
ATOM     11  C   UNL     1       4.705  -1.214  -1.853  1.00  0.00     0.004 C 
ENDBRANCH   9  10
ENDBRANCH   8   9
ENDBRANCH   1   8
TORSDOF 6
ENDMDL
MODEL 6
REMARK VINA RESULT:    -5.756      1.912      3.163
REMARK INTER + INTRA:          -8.001
REMARK INTER:                  -7.669
REMARK INTRA:                  -0.332
REMARK UNBOUND:                -0.225
REMARK SMILES CCCCCCC=CC(=O)[O-]
REMARK SMILES IDX 5 1 6 2 7 3 8 4 9 5 10 6 11 7 4 8 3 9 2 10 1 11
REMARK H PARENT
REMARK Flexibility Score: inf
ROOT
ATOM      1  C   UNL     1       3.421  -0.471  -3.198  1.00  0.00     0.004 C 
ENDROOT
BRANCH   1   2
ATOM      2  C   UNL     1       4.109   0.395  -4.264  1.00  0.00     0.027 C 
BRANCH   2   3
ATOM      3  C   UNL     1       3.136   0.824  -5.324  1.00  0.00    -0.025 C 
ATOM      4  C   UNL     1       1.891   0.339  -5.365  1.00  0.00     0.020 C 
BRANCH   4   5
ATOM      5  C   UNL     1       0.923   0.734  -6.402  1.00  0.00     0.064 C 
ATOM      6  O   UNL     1       1.148   1.715  -7.161  1.00  0.00    -0.545 OA
ATOM      7  O   UNL     1      -0.256   0.016  -6.546  1.00  0.00    -0.545 OA
ENDBRANCH   4   5
ENDBRANCH   2   3
ENDBRANCH   1   2
BRANCH   1   8
ATOM      8  C   UNL     1       4.417  -1.125  -2.223  1.00  0.00     0.000 C 
BRANCH   8   9
ATOM      9  C   UNL     1       5.604  -1.841  -2.892  1.00  0.00    -0.000 C 
BRANCH   9  10
ATOM     10  C   UNL     1       5.731  -3.312  -2.471  1.00  0.00    -0.003 C 
ATOM     11  C   UNL     1       4.415  -4.057  -2.671  1.00  0.00     0.004 C 
ENDBRANCH   9  10
ENDBRANCH   8   9
ENDBRANCH   1   8
TORSDOF 6
ENDMDL
MODEL 7
REMARK VINA RESULT:    -5.738      3.471      7.059
REMARK INTER + INTRA:          -7.976
REMARK INTER:                  -7.699
REMARK INTRA:                  -0.278
REMARK UNBOUND:                -0.225
REMARK SMILES CCCCCCC=CC(=O)[O-]
REMARK SMILES IDX 5 1 6 2 7 3 8 4 9 5 10 6 11 7 4 8 3 9 2 10 1 11
REMARK H PARENT
REMARK Flexibility Score: inf
ROOT
ATOM      1  C   UNL     1       4.535   2.146  -6.108  1.00  0.00     0.004 C 
ENDROOT
BRANCH   1   2
ATOM      2  C   UNL     1       3.642   1.248  -5.239  1.00  0.00     0.027 C 
BRANCH   2   3
ATOM      3  C   UNL     1       4.457   0.234  -4.490  1.00  0.00    -0.025 C 
ATOM      4  C   UNL     1       4.048  -0.262  -3.317  1.00  0.00     0.020 C 
BRANCH   4   5
ATOM      5  C   UNL     1       4.837  -1.247  -2.559  1.00  0.00     0.064 C 
ATOM      6  O   UNL     1       5.425  -2.197  -3.141  1.00  0.00    -0.545 OA
ATOM      7  O   UNL     1       4.932  -1.128  -1.179  1.00  0.00    -0.545 OA
ENDBRANCH   4   5
ENDBRANCH   2   3
ENDBRANCH   1   2
BRANCH   1   8
ATOM      8  C   UNL     1       4.337   3.645  -5.823  1.00  0.00     0.000 C 
BRANCH   8   9
ATOM      9  C   UNL     1       4.719   4.090  -4.399  1.00  0.00    -0.000 C 
BRANCH   9  10
ATOM     10  C   UNL     1       5.900   5.071  -4.374  1.00  0.00    -0.003 C 
ATOM     11  C   UNL     1       6.095   5.663  -2.981  1.00  0.00     0.004 C 
ENDBRANCH   9  10
ENDBRANCH   8   9
ENDBRANCH   1   8
TORSDOF 6
ENDMDL
MODEL 8
REMARK VINA RESULT:    -5.711      3.959      5.835
REMARK INTER + INTRA:          -7.939
REMARK INTER:                  -7.565
REMARK INTRA:                  -0.374
REMARK UNBOUND:                -0.225
REMARK SMILES CCCCCCC=CC(=O)[O-]
REMARK SMILES IDX 5 1 6 2 7 3 8 4 9 5 10 6 11 7 4 8 3 9 2 10 1 11
REMARK H PARENT
REMARK Flexibility Score: inf
ROOT
ATOM      1  C   UNL     1       4.274   2.209  -6.726  1.00  0.00     0.004 C 
ENDROOT
BRANCH   1   2
ATOM      2  C   UNL     1       3.770   3.251  -5.717  1.00  0.00     0.027 C 
BRANCH   2   3
ATOM      3  C   UNL     1       4.903   4.076  -5.178  1.00  0.00    -0.025 C 
ATOM      4  C   UNL     1       4.828   4.667  -3.980  1.00  0.00     0.020 C 
BRANCH   4   5
ATOM      5  C   UNL     1       5.921   5.490  -3.436  1.00  0.00     0.064 C 
ATOM      6  O   UNL     1       6.639   6.199  -4.191  1.00  0.00    -0.545 OA
ATOM      7  O   UNL     1       6.164   5.485  -2.070  1.00  0.00    -0.545 OA
ENDBRANCH   4   5
ENDBRANCH   2   3
ENDBRANCH   1   2
BRANCH   1   8
ATOM      8  C   UNL     1       4.515   0.828  -6.092  1.00  0.00     0.000 C 
BRANCH   8   9
ATOM      9  C   UNL     1       3.712   0.556  -4.806  1.00  0.00    -0.000 C 
BRANCH   9  10
ATOM     10  C   UNL     1       4.540  -0.144  -3.719  1.00  0.00    -0.003 C 
ATOM     11  C   UNL     1       3.641  -0.896  -2.742  1.00  0.00     0.004 C 
ENDBRANCH   9  10
ENDBRANCH   8   9
ENDBRANCH   1   8
TORSDOF 6
ENDMDL
MODEL 9
REMARK VINA RESULT:    -5.707      5.443      7.444
REMARK INTER + INTRA:          -7.934
REMARK INTER:                  -7.796
REMARK INTRA:                  -0.138
REMARK UNBOUND:                -0.225
REMARK SMILES CCCCCCC=CC(=O)[O-]
REMARK SMILES IDX 5 1 6 2 7 3 8 4 9 5 10 6 11 7 4 8 3 9 2 10 1 11
REMARK H PARENT
REMARK Flexibility Score: inf
ROOT
ATOM      1  C   UNL     1       3.412   2.148  -5.784  1.00  0.00     0.004 C 
ENDROOT
BRANCH   1   2
ATOM      2  C   UNL     1       2.663   1.640  -7.024  1.00  0.00     0.027 C 
BRANCH   2   3
ATOM      3  C   UNL     1       1.752   0.498  -6.677  1.00  0.00    -0.025 C 
ATOM      4  C   UNL     1       0.421   0.627  -6.728  1.00  0.00     0.020 C 
BRANCH   4   5
ATOM      5  C   UNL     1      -0.492  -0.474  -6.379  1.00  0.00     0.064 C 
ATOM      6  O   UNL     1      -0.763  -0.740  -5.177  1.00  0.00    -0.545 OA
ATOM      7  O   UNL     1      -1.065  -1.232  -7.391  1.00  0.00    -0.545 OA
ENDBRANCH   4   5
ENDBRANCH   2   3
ENDBRANCH   1   2
BRANCH   1   8
ATOM      8  C   UNL     1       3.805   3.632  -5.887  1.00  0.00     0.000 C 
BRANCH   8   9
ATOM      9  C   UNL     1       5.136   3.999  -5.206  1.00  0.00    -0.000 C 
BRANCH   9  10
ATOM     10  C   UNL     1       4.945   4.655  -3.831  1.00  0.00    -0.003 C 
ATOM     11  C   UNL     1       6.149   5.515  -3.459  1.00  0.00     0.004 C 
ENDBRANCH   9  10
ENDBRANCH   8   9
ENDBRANCH   1   8
TORSDOF 6
ENDMDL
