MODEL 1
REMARK VINA RESULT:    -4.314      0.000      0.000
REMARK INTER + INTRA:          -6.318
REMARK INTER:                  -6.079
REMARK INTRA:                  -0.239
REMARK UNBOUND:                -0.239
REMARK SMILES CCCCCCCCC(=O)[O-]
REMARK SMILES IDX 6 1 7 2 8 3 9 4 10 5 11 6 5 7 4 8 3 9 2 10 1 11
REMARK H PARENT
REMARK Flexibility Score: inf
ROOT
ATOM      1  C   UNL     1      13.203 -31.466  20.926  1.00  0.00     0.000 C 
ENDROOT
BRANCH   1   2
ATOM      2  C   UNL     1      14.288 -32.512  21.240  1.00  0.00     0.006 C 
BRANCH   2   3
ATOM      3  C   UNL     1      14.425 -33.616  20.180  1.00  0.00     0.053 C 
BRANCH   3   4
ATOM      4  C   UNL     1      15.375 -34.692  20.608  1.00  0.00     0.041 C 
ATOM      5  O   UNL     1      15.805 -35.528  19.769  1.00  0.00    -0.550 OA
ATOM      6  O   UNL     1      15.813 -34.750  21.925  1.00  0.00    -0.550 OA
ENDBRANCH   3   4
ENDBRANCH   2   3
ENDBRANCH   1   2
BRANCH   1   7
ATOM      7  C   UNL     1      12.493 -30.949  22.189  1.00  0.00     0.000 C 
BRANCH   7   8
ATOM      8  C   UNL     1      11.264 -30.087  21.862  1.00  0.00    -0.000 C 
BRANCH   8   9
ATOM      9  C   UNL     1      11.154 -28.849  22.770  1.00  0.00    -0.000 C 
BRANCH   9  10
ATOM     10  C   UNL     1      12.502 -28.455  23.393  1.00  0.00    -0.003 C 
ATOM     11  C   UNL     1      12.344 -27.703  24.715  1.00  0.00     0.004 C 
ENDBRANCH   9  10
ENDBRANCH   8   9
ENDBRANCH   7   8
ENDBRANCH   1   7
TORSDOF 7
ENDMDL
MODEL 2
REMARK VINA RESULT:    -4.301      1.460      2.138
REMARK INTER + INTRA:          -6.301
REMARK INTER:                  -6.019
REMARK INTRA:                  -0.282
REMARK UNBOUND:                -0.239
REMARK SMILES CCCCCCCCC(=O)[O-]
REMARK SMILES IDX 6 1 7 2 8 3 9 4 10 5 11 6 5 7 4 8 3 9 2 10 1 11
REMARK H PARENT
REMARK Flexibility Score: inf
ROOT
ATOM      1  C   UNL     1      14.326 -32.746  21.027  1.00  0.00     0.000 C 
ENDROOT
BRANCH   1   2
ATOM      2  C   UNL     1      14.536 -33.932  20.069  1.00  0.00     0.006 C 
BRANCH   2   3
ATOM      3  C   UNL     1      15.556 -34.969  20.564  1.00  0.00     0.053 C 
BRANCH   3   4
ATOM      4  C   UNL     1      16.578 -35.294  19.519  1.00  0.00     0.041 C 
ATOM      5  O   UNL     1      16.843 -36.495  19.243  1.00  0.00    -0.550 OA
ATOM      6  O   UNL     1      17.214 -34.273  18.824  1.00  0.00    -0.550 OA
ENDBRANCH   3   4
ENDBRANCH   2   3
ENDBRANCH   1   2
BRANCH   1   7
ATOM      7  C   UNL     1      13.272 -31.748  20.516  1.00  0.00     0.000 C 
BRANCH   7   8
ATOM      8  C   UNL     1      12.710 -30.860  21.637  1.00  0.00    -0.000 C 
BRANCH   8   9
ATOM      9  C   UNL     1      13.162 -31.318  23.035  1.00  0.00    -0.000 C 
BRANCH   9  10
ATOM     10  C   UNL     1      13.502 -30.139  23.960  1.00  0.00    -0.003 C 
ATOM     11  C   UNL     1      12.423 -29.056  23.957  1.00  0.00     0.004 C 
ENDBRANCH   9  10
ENDBRANCH   8   9
ENDBRANCH   7   8
ENDBRANCH   1   7
TORSDOF 7
ENDMDL
MODEL 3
REMARK VINA RESULT:    -4.251      1.281      1.972
REMARK INTER + INTRA:          -6.230
REMARK INTER:                  -5.754
REMARK INTRA:                  -0.477
REMARK UNBOUND:                -0.239
REMARK SMILES CCCCCCCCC(=O)[O-]
REMARK SMILES IDX 6 1 7 2 8 3 9 4 10 5 11 6 5 7 4 8 3 9 2 10 1 11
REMARK H PARENT
REMARK Flexibility Score: inf
ROOT
ATOM      1  C   UNL     1      14.411 -30.172  21.741  1.00  0.00     0.000 C 
ENDROOT
BRANCH   1   2
ATOM      2  C   UNL     1      13.656 -31.508  21.850  1.00  0.00     0.006 C 
BRANCH   2   3
ATOM      3  C   UNL     1      13.860 -32.448  20.652  1.00  0.00     0.053 C 
BRANCH   3   4
ATOM      4  C   UNL     1      14.728 -33.618  20.997  1.00  0.00     0.041 C 
ATOM      5  O   UNL     1      15.122 -34.403  20.094  1.00  0.00    -0.550 OA
ATOM      6  O   UNL     1      15.131 -33.823  22.311  1.00  0.00    -0.550 OA
ENDBRANCH   3   4
ENDBRANCH   2   3
ENDBRANCH   1   2
BRANCH   1   7
ATOM      7  C   UNL     1      14.443 -29.396  23.069  1.00  0.00     0.000 C 
BRANCH   7   8
ATOM      8  C   UNL     1      13.147 -29.561  23.879  1.00  0.00    -0.000 C 
BRANCH   8   9
ATOM      9  C   UNL     1      12.479 -28.212  24.203  1.00  0.00    -0.000 C 
BRANCH   9  10
ATOM     10  C   UNL     1      11.286 -27.911  23.282  1.00  0.00    -0.003 C 
ATOM     11  C   UNL     1      10.891 -29.107  22.417  1.00  0.00     0.004 C 
ENDBRANCH   9  10
ENDBRANCH   8   9
ENDBRANCH   7   8
ENDBRANCH   1   7
TORSDOF 7
ENDMDL
MODEL 4
REMARK VINA RESULT:    -4.226      3.889      5.963
REMARK INTER + INTRA:          -6.195
REMARK INTER:                  -5.544
REMARK INTRA:                  -0.651
REMARK UNBOUND:                -0.239
REMARK SMILES CCCCCCCCC(=O)[O-]
REMARK SMILES IDX 6 1 7 2 8 3 9 4 10 5 11 6 5 7 4 8 3 9 2 10 1 11
REMARK H PARENT
REMARK Flexibility Score: inf
ROOT
ATOM      1  C   UNL     1      12.660 -30.992  21.704  1.00  0.00     0.000 C 
ENDROOT
BRANCH   1   2
ATOM      2  C   UNL     1      13.492 -29.922  22.432  1.00  0.00     0.006 C 
BRANCH   2   3
ATOM      3  C   UNL     1      13.107 -29.718  23.906  1.00  0.00     0.053 C 
BRANCH   3   4
ATOM      4  C   UNL     1      12.373 -28.432  24.123  1.00  0.00     0.041 C 
ATOM      5  O   UNL     1      11.457 -28.084  23.332  1.00  0.00    -0.550 OA
ATOM      6  O   UNL     1      12.676 -27.633  25.219  1.00  0.00    -0.550 OA
ENDBRANCH   3   4
ENDBRANCH   2   3
ENDBRANCH   1   2
BRANCH   1   7
ATOM      7  C   UNL     1      13.489 -31.803  20.692  1.00  0.00     0.000 C 
BRANCH   7   8
ATOM      8  C   UNL     1      14.870 -32.194  21.241  1.00  0.00    -0.000 C 
BRANCH   8   9
ATOM      9  C   UNL     1      14.913 -33.649  21.745  1.00  0.00    -0.000 C 
BRANCH   9  10
ATOM     10  C   UNL     1      15.405 -33.753  23.197  1.00  0.00    -0.003 C 
ATOM     11  C   UNL     1      14.386 -33.225  24.205  1.00  0.00     0.004 C 
ENDBRANCH   9  10
ENDBRANCH   8   9
ENDBRANCH   7   8
ENDBRANCH   1   7
TORSDOF 7
ENDMDL
MODEL 5
REMARK VINA RESULT:    -4.212      2.089      2.581
REMARK INTER + INTRA:          -6.176
REMARK INTER:                  -5.691
REMARK INTRA:                  -0.485
REMARK UNBOUND:                -0.239
REMARK SMILES CCCCCCCCC(=O)[O-]
REMARK SMILES IDX 6 1 7 2 8 3 9 4 10 5 11 6 5 7 4 8 3 9 2 10 1 11
REMARK H PARENT
REMARK Flexibility Score: inf
ROOT
ATOM      1  C   UNL     1      14.793 -29.749  23.127  1.00  0.00     0.000 C 
ENDROOT
BRANCH   1   2
ATOM      2  C   UNL     1      15.416 -31.012  22.505  1.00  0.00     0.006 C 
BRANCH   2   3
ATOM      3  C   UNL     1      14.469 -32.220  22.449  1.00  0.00     0.053 C 
BRANCH   3   4
ATOM      4  C   UNL     1      13.973 -32.483  21.061  1.00  0.00     0.041 C 
ATOM      5  O   UNL     1      14.393 -33.481  20.416  1.00  0.00    -0.550 OA
ATOM      6  O   UNL     1      13.021 -31.647  20.491  1.00  0.00    -0.550 OA
ENDBRANCH   3   4
ENDBRANCH   2   3
ENDBRANCH   1   2
BRANCH   1   7
ATOM      7  C   UNL     1      13.483 -30.041  23.879  1.00  0.00     0.000 C 
BRANCH   7   8
ATOM      8  C   UNL     1      12.267 -29.364  23.229  1.00  0.00    -0.000 C 
BRANCH   8   9
ATOM      9  C   UNL     1      12.133 -27.883  23.630  1.00  0.00    -0.000 C 
BRANCH   9  10
ATOM     10  C   UNL     1      12.656 -27.608  25.048  1.00  0.00    -0.003 C 
ATOM     11  C   UNL     1      13.690 -26.484  25.088  1.00  0.00     0.004 C 
ENDBRANCH   9  10
ENDBRANCH   8   9
ENDBRANCH   7   8
ENDBRANCH   1   7
TORSDOF 7
ENDMDL
MODEL 6
REMARK VINA RESULT:    -4.197      3.030      6.181
REMARK INTER + INTRA:          -6.153
REMARK INTER:                  -5.629
REMARK INTRA:                  -0.525
REMARK UNBOUND:                -0.239
REMARK SMILES CCCCCCCCC(=O)[O-]
REMARK SMILES IDX 6 1 7 2 8 3 9 4 10 5 11 6 5 7 4 8 3 9 2 10 1 11
REMARK H PARENT
REMARK Flexibility Score: inf
ROOT
ATOM      1  C   UNL     1      14.512 -33.718  20.177  1.00  0.00     0.000 C 
ENDROOT
BRANCH   1   2
ATOM      2  C   UNL     1      14.308 -32.672  21.287  1.00  0.00     0.006 C 
BRANCH   2   3
ATOM      3  C   UNL     1      13.511 -31.433  20.847  1.00  0.00     0.053 C 
BRANCH   3   4
ATOM      4  C   UNL     1      12.600 -30.938  21.928  1.00  0.00     0.041 C 
ATOM      5  O   UNL     1      12.988 -30.925  23.126  1.00  0.00    -0.550 OA
ATOM      6  O   UNL     1      11.336 -30.459  21.608  1.00  0.00    -0.550 OA
ENDBRANCH   3   4
ENDBRANCH   2   3
ENDBRANCH   1   2
BRANCH   1   7
ATOM      7  C   UNL     1      15.492 -34.832  20.583  1.00  0.00     0.000 C 
BRANCH   7   8
ATOM      8  C   UNL     1      16.434 -35.235  19.439  1.00  0.00    -0.000 C 
BRANCH   8   9
ATOM      9  C   UNL     1      17.404 -34.104  19.048  1.00  0.00    -0.000 C 
BRANCH   9  10
ATOM     10  C   UNL     1      18.216 -33.586  20.245  1.00  0.00    -0.003 C 
ATOM     11  C   UNL     1      18.009 -32.093  20.497  1.00  0.00     0.004 C 
ENDBRANCH   9  10
ENDBRANCH   8   9
ENDBRANCH   7   8
ENDBRANCH   1   7
TORSDOF 7
ENDMDL
MODEL 7
REMARK VINA RESULT:    -4.179      3.724      6.256
REMARK INTER + INTRA:          -6.128
REMARK INTER:                  -5.686
REMARK INTRA:                  -0.442
REMARK UNBOUND:                -0.239
REMARK SMILES CCCCCCCCC(=O)[O-]
REMARK SMILES IDX 6 1 7 2 8 3 9 4 10 5 11 6 5 7 4 8 3 9 2 10 1 11
REMARK H PARENT
REMARK Flexibility Score: inf
ROOT
ATOM      1  C   UNL     1      14.733 -30.545  23.405  1.00  0.00     0.000 C 
ENDROOT
BRANCH   1   2
ATOM      2  C   UNL     1      14.038 -29.175  23.304  1.00  0.00     0.006 C 
BRANCH   2   3
ATOM      3  C   UNL     1      12.754 -29.056  24.139  1.00  0.00     0.053 C 
BRANCH   3   4
ATOM      4  C   UNL     1      11.624 -28.468  23.352  1.00  0.00     0.041 C 
ATOM      5  O   UNL     1      11.010 -29.169  22.505  1.00  0.00    -0.550 OA
ATOM      6  O   UNL     1      11.226 -27.157  23.579  1.00  0.00    -0.550 OA
ENDBRANCH   3   4
ENDBRANCH   2   3
ENDBRANCH   1   2
BRANCH   1   7
ATOM      7  C   UNL     1      13.870 -31.692  22.852  1.00  0.00     0.000 C 
BRANCH   7   8
ATOM      8  C   UNL     1      13.512 -31.498  21.371  1.00  0.00    -0.000 C 
BRANCH   8   9
ATOM      9  C   UNL     1      13.902 -32.711  20.506  1.00  0.00    -0.000 C 
BRANCH   9  10
ATOM     10  C   UNL     1      14.867 -33.663  21.230  1.00  0.00    -0.003 C 
ATOM     11  C   UNL     1      15.295 -34.844  20.359  1.00  0.00     0.004 C 
ENDBRANCH   9  10
ENDBRANCH   8   9
ENDBRANCH   7   8
ENDBRANCH   1   7
TORSDOF 7
ENDMDL
MODEL 8
REMARK VINA RESULT:    -4.155      1.817      2.329
REMARK INTER + INTRA:          -6.094
REMARK INTER:                  -5.485
REMARK INTRA:                  -0.609
REMARK UNBOUND:                -0.239
REMARK SMILES CCCCCCCCC(=O)[O-]
REMARK SMILES IDX 6 1 7 2 8 3 9 4 10 5 11 6 5 7 4 8 3 9 2 10 1 11
REMARK H PARENT
REMARK Flexibility Score: inf
ROOT
ATOM      1  C   UNL     1      13.852 -32.083  23.906  1.00  0.00     0.000 C 
ENDROOT
BRANCH   1   2
ATOM      2  C   UNL     1      14.691 -33.354  23.684  1.00  0.00     0.006 C 
BRANCH   2   3
ATOM      3  C   UNL     1      15.657 -33.272  22.492  1.00  0.00     0.053 C 
BRANCH   3   4
ATOM      4  C   UNL     1      15.095 -33.924  21.267  1.00  0.00     0.041 C 
ATOM      5  O   UNL     1      15.482 -35.073  20.926  1.00  0.00    -0.550 OA
ATOM      6  O   UNL     1      14.117 -33.278  20.520  1.00  0.00    -0.550 OA
ENDBRANCH   3   4
ENDBRANCH   2   3
ENDBRANCH   1   2
BRANCH   1   7
ATOM      7  C   UNL     1      14.595 -30.800  23.493  1.00  0.00     0.000 C 
BRANCH   7   8
ATOM      8  C   UNL     1      13.867 -30.029  22.381  1.00  0.00    -0.000 C 
BRANCH   8   9
ATOM      9  C   UNL     1      12.502 -30.650  22.031  1.00  0.00    -0.000 C 
BRANCH   9  10
ATOM     10  C   UNL     1      11.330 -29.702  22.332  1.00  0.00    -0.003 C 
ATOM     11  C   UNL     1      11.764 -28.450  23.092  1.00  0.00     0.004 C 
ENDBRANCH   9  10
ENDBRANCH   8   9
ENDBRANCH   7   8
ENDBRANCH   1   7
TORSDOF 7
ENDMDL
MODEL 9
REMARK VINA RESULT:    -4.136      9.351     10.376
REMARK INTER + INTRA:          -6.067
REMARK INTER:                  -5.750
REMARK INTRA:                  -0.318
REMARK UNBOUND:                -0.239
REMARK SMILES CCCCCCCCC(=O)[O-]
REMARK SMILES IDX 6 1 7 2 8 3 9 4 10 5 11 6 5 7 4 8 3 9 2 10 1 11
REMARK H PARENT
REMARK Flexibility Score: inf
ROOT
ATOM      1  C   UNL     1      20.363 -26.486  21.202  1.00  0.00     0.000 C 
ENDROOT
BRANCH   1   2
ATOM      2  C   UNL     1      20.893 -25.517  20.130  1.00  0.00     0.006 C 
BRANCH   2   3
ATOM      3  C   UNL     1      22.378 -25.711  19.784  1.00  0.00     0.053 C 
BRANCH   3   4
ATOM      4  C   UNL     1      23.215 -24.553  20.233  1.00  0.00     0.041 C 
ATOM      5  O   UNL     1      23.963 -23.956  19.413  1.00  0.00    -0.550 OA
ATOM      6  O   UNL     1      23.144 -24.110  21.548  1.00  0.00    -0.550 OA
ENDBRANCH   3   4
ENDBRANCH   2   3
ENDBRANCH   1   2
BRANCH   1   7
ATOM      7  C   UNL     1      19.884 -27.823  20.610  1.00  0.00     0.000 C 
BRANCH   7   8
ATOM      8  C   UNL     1      20.897 -28.958  20.823  1.00  0.00    -0.000 C 
BRANCH   8   9
ATOM      9  C   UNL     1      20.239 -30.243  21.359  1.00  0.00    -0.000 C 
BRANCH   9  10
ATOM     10  C   UNL     1      18.704 -30.166  21.350  1.00  0.00    -0.003 C 
ATOM     11  C   UNL     1      18.055 -31.395  20.716  1.00  0.00     0.004 C 
ENDBRANCH   9  10
ENDBRANCH   8   9
ENDBRANCH   7   8
ENDBRANCH   1   7
TORSDOF 7
ENDMDL
