MODEL 1
REMARK VINA RESULT:     1.726      0.000      0.000
REMARK INTER + INTRA:           1.726
REMARK INTER:                   1.726
REMARK INTRA:                   0.000
REMARK UNBOUND:                 0.000
REMARK SMILES CC1(C)[C@H]2CC[C@]1(C)C(=O)C2
REMARK SMILES IDX 1 1 2 2 4 3 5 4 6 5 7 6 9 7 10 8 11 9 8 10 3 11
REMARK H PARENT
REMARK Flexibility Score: inf
ROOT
ATOM      1  C   UNL     1      -6.082  -8.899  15.201  1.00  0.00     0.012 C 
ATOM      2  C   UNL     1      -6.627 -10.203  15.861  1.00  0.00    -0.020 C 
ATOM      3  C   UNL     1      -5.514 -11.169  16.333  1.00  0.00     0.003 C 
ATOM      4  C   UNL     1      -6.317 -12.424  16.778  1.00  0.00     0.005 C 
ATOM      5  C   UNL     1      -7.481 -12.472  15.758  1.00  0.00     0.015 C 
ATOM      6  C   UNL     1      -7.203 -11.236  14.868  1.00  0.00     0.032 C 
ATOM      7  C   UNL     1      -5.963 -11.595  14.088  1.00  0.00     0.139 C 
ATOM      8  O   UNL     1      -5.927 -11.942  12.917  1.00  0.00    -0.299 OA
ATOM      9  C   UNL     1      -4.788 -11.560  15.016  1.00  0.00     0.080 C 
ATOM     10  C   UNL     1      -8.393 -10.776  14.017  1.00  0.00     0.020 C 
ATOM     11  C   UNL     1      -7.594  -9.752  16.997  1.00  0.00     0.012 C 
ENDROOT
TORSDOF 0
ENDMDL
MODEL 2
REMARK VINA RESULT:     1.769      1.812      3.279
REMARK INTER + INTRA:           1.769
REMARK INTER:                   1.769
REMARK INTRA:                   0.000
REMARK UNBOUND:                 0.000
REMARK SMILES CC1(C)[C@H]2CC[C@]1(C)C(=O)C2
REMARK SMILES IDX 1 1 2 2 4 3 5 4 6 5 7 6 9 7 10 8 11 9 8 10 3 11
REMARK H PARENT
REMARK Flexibility Score: inf
ROOT
ATOM      1  C   UNL     1      -4.754 -11.325  14.563  1.00  0.00     0.012 C 
ATOM      2  C   UNL     1      -6.313 -11.365  14.565  1.00  0.00    -0.020 C 
ATOM      3  C   UNL     1      -6.966 -10.065  14.036  1.00  0.00     0.003 C 
ATOM      4  C   UNL     1      -8.478 -10.308  14.306  1.00  0.00     0.005 C 
ATOM      5  C   UNL     1      -8.471 -11.094  15.641  1.00  0.00     0.015 C 
ATOM      6  C   UNL     1      -6.961 -11.210  15.959  1.00  0.00     0.032 C 
ATOM      7  C   UNL     1      -6.532  -9.806  16.310  1.00  0.00     0.139 C 
ATOM      8  O   UNL     1      -6.324  -9.380  17.436  1.00  0.00    -0.299 OA
ATOM      9  C   UNL     1      -6.508  -8.987  15.057  1.00  0.00     0.080 C 
ATOM     10  C   UNL     1      -6.603 -12.275  17.001  1.00  0.00     0.020 C 
ATOM     11  C   UNL     1      -6.723 -12.643  13.774  1.00  0.00     0.012 C 
ENDROOT
TORSDOF 0
ENDMDL
MODEL 3
REMARK VINA RESULT:     1.950      1.556      2.855
REMARK INTER + INTRA:           1.950
REMARK INTER:                   1.950
REMARK INTRA:                   0.000
REMARK UNBOUND:                 0.000
REMARK SMILES CC1(C)[C@H]2CC[C@]1(C)C(=O)C2
REMARK SMILES IDX 1 1 2 2 4 3 5 4 6 5 7 6 9 7 10 8 11 9 8 10 3 11
REMARK H PARENT
REMARK Flexibility Score: inf
ROOT
ATOM      1  C   UNL     1      -6.132 -11.920  13.383  1.00  0.00     0.012 C 
ATOM      2  C   UNL     1      -5.825 -11.622  14.883  1.00  0.00    -0.020 C 
ATOM      3  C   UNL     1      -6.491 -12.620  15.862  1.00  0.00     0.003 C 
ATOM      4  C   UNL     1      -6.171 -12.001  17.251  1.00  0.00     0.005 C 
ATOM      5  C   UNL     1      -6.250 -10.478  16.981  1.00  0.00     0.015 C 
ATOM      6  C   UNL     1      -6.594 -10.419  15.473  1.00  0.00     0.032 C 
ATOM      7  C   UNL     1      -8.013 -10.923  15.381  1.00  0.00     0.139 C 
ATOM      8  O   UNL     1      -9.010 -10.235  15.222  1.00  0.00    -0.299 OA
ATOM      9  C   UNL     1      -8.012 -12.400  15.626  1.00  0.00     0.080 C 
ATOM     10  C   UNL     1      -6.346  -9.059  14.809  1.00  0.00     0.020 C 
ATOM     11  C   UNL     1      -4.274 -11.555  15.011  1.00  0.00     0.012 C 
ENDROOT
TORSDOF 0
ENDMDL
MODEL 4
REMARK VINA RESULT:     2.082      1.407      2.929
REMARK INTER + INTRA:           2.082
REMARK INTER:                   2.082
REMARK INTRA:                   0.000
REMARK UNBOUND:                 0.000
REMARK SMILES CC1(C)[C@H]2CC[C@]1(C)C(=O)C2
REMARK SMILES IDX 1 1 2 2 4 3 5 4 6 5 7 6 9 7 10 8 11 9 8 10 3 11
REMARK H PARENT
REMARK Flexibility Score: inf
ROOT
ATOM      1  C   UNL     1      -6.619  -9.469  17.080  1.00  0.00     0.012 C 
ATOM      2  C   UNL     1      -6.877  -9.744  15.566  1.00  0.00    -0.020 C 
ATOM      3  C   UNL     1      -8.341 -10.134  15.248  1.00  0.00     0.003 C 
ATOM      4  C   UNL     1      -8.275 -10.510  13.741  1.00  0.00     0.005 C 
ATOM      5  C   UNL     1      -6.884 -11.181  13.611  1.00  0.00     0.015 C 
ATOM      6  C   UNL     1      -6.329 -11.094  15.053  1.00  0.00     0.032 C 
ATOM      7  C   UNL     1      -7.174 -12.058  15.849  1.00  0.00     0.139 C 
ATOM      8  O   UNL     1      -6.836 -13.172  16.219  1.00  0.00    -0.299 OA
ATOM      9  C   UNL     1      -8.539 -11.467  16.023  1.00  0.00     0.080 C 
ATOM     10  C   UNL     1      -4.816 -11.307  15.174  1.00  0.00     0.020 C 
ATOM     11  C   UNL     1      -6.380  -8.483  14.797  1.00  0.00     0.012 C 
ENDROOT
TORSDOF 0
ENDMDL
MODEL 5
REMARK VINA RESULT:     2.266      1.074      1.167
REMARK INTER + INTRA:           2.266
REMARK INTER:                   2.266
REMARK INTRA:                   0.000
REMARK UNBOUND:                 0.000
REMARK SMILES CC1(C)[C@H]2CC[C@]1(C)C(=O)C2
REMARK SMILES IDX 1 1 2 2 4 3 5 4 6 5 7 6 9 7 10 8 11 9 8 10 3 11
REMARK H PARENT
REMARK Flexibility Score: inf
ROOT
ATOM      1  C   UNL     1      -6.320  -9.154  15.437  1.00  0.00     0.012 C 
ATOM      2  C   UNL     1      -6.954 -10.559  15.679  1.00  0.00    -0.020 C 
ATOM      3  C   UNL     1      -6.271 -11.360  16.814  1.00  0.00     0.003 C 
ATOM      4  C   UNL     1      -6.971 -12.745  16.724  1.00  0.00     0.005 C 
ATOM      5  C   UNL     1      -7.188 -12.926  15.201  1.00  0.00     0.015 C 
ATOM      6  C   UNL     1      -6.597 -11.621  14.616  1.00  0.00     0.032 C 
ATOM      7  C   UNL     1      -5.108 -11.741  14.833  1.00  0.00     0.139 C 
ATOM      8  O   UNL     1      -4.279 -12.020  13.980  1.00  0.00    -0.299 OA
ATOM      9  C   UNL     1      -4.822 -11.567  16.292  1.00  0.00     0.080 C 
ATOM     10  C   UNL     1      -7.018 -11.313  13.175  1.00  0.00     0.020 C 
ATOM     11  C   UNL     1      -8.478 -10.322  15.904  1.00  0.00     0.012 C 
ENDROOT
TORSDOF 0
ENDMDL
MODEL 6
REMARK VINA RESULT:     2.424      1.772      3.055
REMARK INTER + INTRA:           2.424
REMARK INTER:                   2.424
REMARK INTRA:                   0.000
REMARK UNBOUND:                 0.000
REMARK SMILES CC1(C)[C@H]2CC[C@]1(C)C(=O)C2
REMARK SMILES IDX 1 1 2 2 4 3 5 4 6 5 7 6 9 7 10 8 11 9 8 10 3 11
REMARK H PARENT
REMARK Flexibility Score: inf
ROOT
ATOM      1  C   UNL     1      -8.910 -10.677  15.597  1.00  0.00     0.012 C 
ATOM      2  C   UNL     1      -7.469 -10.655  15.000  1.00  0.00    -0.020 C 
ATOM      3  C   UNL     1      -7.042 -12.000  14.363  1.00  0.00     0.003 C 
ATOM      4  C   UNL     1      -5.547 -11.754  14.015  1.00  0.00     0.005 C 
ATOM      5  C   UNL     1      -5.059 -10.866  15.186  1.00  0.00     0.015 C 
ATOM      6  C   UNL     1      -6.335 -10.708  16.048  1.00  0.00     0.032 C 
ATOM      7  C   UNL     1      -6.570 -12.074  16.643  1.00  0.00     0.139 C 
ATOM      8  O   UNL     1      -6.324 -12.408  17.792  1.00  0.00    -0.299 OA
ATOM      9  C   UNL     1      -7.055 -12.990  15.562  1.00  0.00     0.080 C 
ATOM     10  C   UNL     1      -6.289  -9.560  17.062  1.00  0.00     0.020 C 
ATOM     11  C   UNL     1      -7.417  -9.448  14.016  1.00  0.00     0.012 C 
ENDROOT
TORSDOF 0
ENDMDL
MODEL 7
REMARK VINA RESULT:     2.845      1.352      2.997
REMARK INTER + INTRA:           2.845
REMARK INTER:                   2.845
REMARK INTRA:                   0.000
REMARK UNBOUND:                 0.000
REMARK SMILES CC1(C)[C@H]2CC[C@]1(C)C(=O)C2
REMARK SMILES IDX 1 1 2 2 4 3 5 4 6 5 7 6 9 7 10 8 11 9 8 10 3 11
REMARK H PARENT
REMARK Flexibility Score: inf
ROOT
ATOM      1  C   UNL     1      -7.356 -13.039  15.933  1.00  0.00     0.012 C 
ATOM      2  C   UNL     1      -6.602 -11.675  15.880  1.00  0.00    -0.020 C 
ATOM      3  C   UNL     1      -7.320 -10.540  16.650  1.00  0.00     0.003 C 
ATOM      4  C   UNL     1      -6.464  -9.292  16.294  1.00  0.00     0.005 C 
ATOM      5  C   UNL     1      -6.050  -9.560  14.826  1.00  0.00     0.015 C 
ATOM      6  C   UNL     1      -6.711 -10.929  14.532  1.00  0.00     0.032 C 
ATOM      7  C   UNL     1      -8.192 -10.642  14.492  1.00  0.00     0.139 C 
ATOM      8  O   UNL     1      -8.878 -10.550  13.486  1.00  0.00    -0.299 OA
ATOM      9  C   UNL     1      -8.665 -10.379  15.888  1.00  0.00     0.080 C 
ATOM     10  C   UNL     1      -6.160 -11.658  13.301  1.00  0.00     0.020 C 
ATOM     11  C   UNL     1      -5.151 -11.953  16.377  1.00  0.00     0.012 C 
ENDROOT
TORSDOF 0
ENDMDL
