MODEL 1
REMARK VINA RESULT:    -3.913      0.000      0.000
REMARK INTER + INTRA:          -5.122
REMARK INTER:                  -5.514
REMARK INTRA:                   0.392
REMARK UNBOUND:                 0.392
REMARK SMILES CC1=CCC(=C(C)C)C(=O)CC(C)=CCC1
REMARK SMILES IDX 12 1 14 2 13 3 15 4 16 5 2 6 1 7 3 8 11 10 9 11 10 12 5 13
REMARK SMILES IDX 6 14 7 15 8 16 4 17
REMARK H PARENT
REMARK Flexibility Score: 60.00
ROOT
ATOM      1  C   UNL     1      18.264  26.057  27.891  1.00  0.00    -0.070 C 
ATOM      2  C   UNL     1      19.220  25.117  27.706  1.00  0.00    -0.027 C 
ATOM      3  C   UNL     1      16.862  25.591  28.195  1.00  0.00     0.039 C 
ENDROOT
BRANCH   2   4
ATOM      4  C   UNL     1      20.659  25.401  27.335  1.00  0.00     0.032 C 
BRANCH   4   5
ATOM      5  C   UNL     1      21.513  25.706  28.574  1.00  0.00     0.034 C 
BRANCH   5   6
ATOM      6  C   UNL     1      22.258  27.031  28.488  1.00  0.00    -0.077 C 
ATOM      7  C   UNL     1      23.400  27.160  27.512  1.00  0.00     0.039 C 
ATOM      8  C   UNL     1      21.962  28.103  29.258  1.00  0.00    -0.023 CG0
ATOM      9  G   UNL     1      20.815  28.187  30.238  1.00  0.00     0.000 G0
ENDBRANCH   5   6
ENDBRANCH   4   5
ENDBRANCH   2   4
BRANCH   1  10
ATOM     10  C   UNL     1      18.541  27.545  27.811  1.00  0.00     0.111 C 
BRANCH  10  11
ATOM     11  C   UNL     1      18.464  28.184  29.169  1.00  0.00     0.163 C 
ATOM     12  O   UNL     1      17.401  28.086  29.839  1.00  0.00    -0.294 OA
BRANCH  11  13
ATOM     13  C   UNL     1      19.608  28.949  29.728  1.00  0.00    -0.002 C 
ATOM     14  C   UNL     1      19.570  30.309  29.769  1.00  0.00    -0.069 C 
ATOM     15  C   UNL     1      18.415  31.078  29.166  1.00  0.00     0.039 C 
ATOM     16  C   UNL     1      20.701  31.103  30.381  1.00  0.00     0.039 C 
BRANCH  13  17
ATOM     17  C   UNL     1      20.822  28.191  30.253  1.00  0.00     0.066 CG0
ATOM     18  G   UNL     1      21.955  28.093  29.258  1.00  0.00     0.000 G0
ENDBRANCH  13  17
ENDBRANCH  11  13
ENDBRANCH  10  11
ENDBRANCH   1  10
TORSDOF 0
ENDMDL
MODEL 2
REMARK VINA RESULT:    -3.893      1.915      3.793
REMARK INTER + INTRA:          -5.094
REMARK INTER:                  -5.369
REMARK INTRA:                   0.275
REMARK UNBOUND:                 0.392
REMARK SMILES CC1=CCC(=C(C)C)C(=O)CC(C)=CCC1
REMARK SMILES IDX 12 1 14 2 13 3 15 4 16 5 2 6 1 7 3 8 11 10 9 11 10 12 5 13
REMARK SMILES IDX 6 14 7 15 8 16 4 17
REMARK H PARENT
REMARK Flexibility Score: 60.00
ROOT
ATOM      1  C   UNL     1      20.630  25.556  28.084  1.00  0.00    -0.070 C 
ATOM      2  C   UNL     1      19.474  25.188  27.486  1.00  0.00    -0.027 C 
ATOM      3  C   UNL     1      21.925  25.088  27.470  1.00  0.00     0.039 C 
ENDROOT
BRANCH   2   4
ATOM      4  C   UNL     1      18.087  25.515  27.995  1.00  0.00     0.032 C 
BRANCH   4   5
ATOM      5  C   UNL     1      17.669  26.944  27.623  1.00  0.00     0.034 C 
BRANCH   5   6
ATOM      6  C   UNL     1      17.148  27.753  28.802  1.00  0.00    -0.077 C 
ATOM      7  C   UNL     1      15.882  27.305  29.488  1.00  0.00     0.039 C 
ATOM      8  C   UNL     1      17.753  28.872  29.263  1.00  0.00    -0.023 CG0
ATOM      9  G   UNL     1      19.059  29.434  28.753  1.00  0.00     0.000 G0
ENDBRANCH   5   6
ENDBRANCH   4   5
ENDBRANCH   2   4
BRANCH   1  10
ATOM     10  C   UNL     1      20.678  26.415  29.331  1.00  0.00     0.111 C 
BRANCH  10  11
ATOM     11  C   UNL     1      21.071  27.828  29.002  1.00  0.00     0.163 C 
ATOM     12  O   UNL     1      22.089  28.036  28.288  1.00  0.00    -0.294 OA
BRANCH  11  13
ATOM     13  C   UNL     1      20.297  28.985  29.520  1.00  0.00    -0.002 C 
ATOM     14  C   UNL     1      20.688  29.617  30.659  1.00  0.00    -0.069 C 
ATOM     15  C   UNL     1      21.854  29.106  31.477  1.00  0.00     0.039 C 
ATOM     16  C   UNL     1      19.944  30.828  31.174  1.00  0.00     0.039 C 
BRANCH  13  17
ATOM     17  C   UNL     1      19.062  29.453  28.758  1.00  0.00     0.066 CG0
ATOM     18  G   UNL     1      17.770  28.864  29.274  1.00  0.00     0.000 G0
ENDBRANCH  13  17
ENDBRANCH  11  13
ENDBRANCH  10  11
ENDBRANCH   1  10
TORSDOF 0
ENDMDL
MODEL 3
REMARK VINA RESULT:    -3.722      2.229      4.293
REMARK INTER + INTRA:          -4.853
REMARK INTER:                  -5.249
REMARK INTRA:                   0.396
REMARK UNBOUND:                 0.392
REMARK SMILES CC1=CCC(=C(C)C)C(=O)CC(C)=CCC1
REMARK SMILES IDX 12 1 14 2 13 3 15 4 16 5 2 6 1 7 3 8 11 10 9 11 10 12 5 13
REMARK SMILES IDX 6 14 7 15 8 16 4 17
REMARK H PARENT
REMARK Flexibility Score: 60.00
ROOT
ATOM      1  C   UNL     1      20.946  30.087  29.935  1.00  0.00    -0.070 C 
ATOM      2  C   UNL     1      21.436  28.873  29.593  1.00  0.00    -0.027 C 
ATOM      3  C   UNL     1      21.715  30.904  30.941  1.00  0.00     0.039 C 
ENDROOT
BRANCH   2   4
ATOM      4  C   UNL     1      20.767  27.898  28.650  1.00  0.00     0.032 C 
BRANCH   4   5
ATOM      5  C   UNL     1      19.746  27.013  29.380  1.00  0.00     0.034 C 
BRANCH   5   6
ATOM      6  C   UNL     1      18.390  26.954  28.692  1.00  0.00    -0.077 C 
ATOM      7  C   UNL     1      18.242  26.116  27.447  1.00  0.00     0.039 C 
ATOM      8  C   UNL     1      17.304  27.633  29.128  1.00  0.00    -0.023 CG0
ATOM      9  G   UNL     1      17.239  28.466  30.387  1.00  0.00     0.000 G0
ENDBRANCH   5   6
ENDBRANCH   4   5
ENDBRANCH   2   4
BRANCH   1  10
ATOM     10  C   UNL     1      19.669  30.657  29.350  1.00  0.00     0.111 C 
BRANCH  10  11
ATOM     11  C   UNL     1      18.571  30.691  30.377  1.00  0.00     0.163 C 
ATOM     12  O   UNL     1      18.750  31.323  31.452  1.00  0.00    -0.294 OA
BRANCH  11  13
ATOM     13  C   UNL     1      17.288  29.976  30.159  1.00  0.00    -0.002 C 
ATOM     14  C   UNL     1      16.185  30.657  29.744  1.00  0.00    -0.069 C 
ATOM     15  C   UNL     1      16.207  32.161  29.588  1.00  0.00     0.039 C 
ATOM     16  C   UNL     1      14.884  29.939  29.468  1.00  0.00     0.039 C 
BRANCH  13  17
ATOM     17  C   UNL     1      17.225  28.473  30.405  1.00  0.00     0.066 CG0
ATOM     18  G   UNL     1      17.310  27.646  29.144  1.00  0.00     0.000 G0
ENDBRANCH  13  17
ENDBRANCH  11  13
ENDBRANCH  10  11
ENDBRANCH   1  10
TORSDOF 0
ENDMDL
MODEL 4
REMARK VINA RESULT:    -3.708      2.653      6.216
REMARK INTER + INTRA:          -4.833
REMARK INTER:                  -5.351
REMARK INTRA:                   0.518
REMARK UNBOUND:                 0.392
REMARK SMILES CC1=CCC(=C(C)C)C(=O)CC(C)=CCC1
REMARK SMILES IDX 12 1 14 2 13 3 15 4 16 5 2 6 1 7 3 8 11 10 9 11 10 12 5 13
REMARK SMILES IDX 6 14 7 15 8 16 4 17
REMARK H PARENT
REMARK Flexibility Score: 60.00
ROOT
ATOM      1  C   UNL     1      19.714  32.039  29.846  1.00  0.00    -0.070 C 
ATOM      2  C   UNL     1      18.626  32.820  29.650  1.00  0.00    -0.027 C 
ATOM      3  C   UNL     1      20.844  32.593  30.676  1.00  0.00     0.039 C 
ENDROOT
BRANCH   2   4
ATOM      4  C   UNL     1      17.431  32.452  28.799  1.00  0.00     0.032 C 
BRANCH   4   5
ATOM      5  C   UNL     1      16.121  32.534  29.596  1.00  0.00     0.034 C 
BRANCH   5   6
ATOM      6  C   UNL     1      16.148  31.741  30.894  1.00  0.00    -0.077 C 
ATOM      7  C   UNL     1      15.928  32.470  32.196  1.00  0.00     0.039 C 
ATOM      8  C   UNL     1      16.380  30.410  30.949  1.00  0.00    -0.023 CG0
ATOM      9  G   UNL     1      16.554  29.501  29.755  1.00  0.00     0.000 G0
ENDBRANCH   5   6
ENDBRANCH   4   5
ENDBRANCH   2   4
BRANCH   1  10
ATOM     10  C   UNL     1      19.841  30.641  29.274  1.00  0.00     0.111 C 
BRANCH  10  11
ATOM     11  C   UNL     1      19.117  29.639  30.128  1.00  0.00     0.163 C 
ATOM     12  O   UNL     1      19.522  29.418  31.301  1.00  0.00    -0.294 OA
BRANCH  11  13
ATOM     13  C   UNL     1      17.946  28.886  29.610  1.00  0.00    -0.002 C 
ATOM     14  C   UNL     1      18.117  27.672  29.018  1.00  0.00    -0.069 C 
ATOM     15  C   UNL     1      19.500  27.104  28.785  1.00  0.00     0.039 C 
ATOM     16  C   UNL     1      16.934  26.868  28.532  1.00  0.00     0.039 C 
BRANCH  13  17
ATOM     17  C   UNL     1      16.553  29.490  29.752  1.00  0.00     0.066 CG0
ATOM     18  G   UNL     1      16.409  30.415  30.937  1.00  0.00     0.000 G0
ENDBRANCH  13  17
ENDBRANCH  11  13
ENDBRANCH  10  11
ENDBRANCH   1  10
TORSDOF 0
ENDMDL
MODEL 5
REMARK VINA RESULT:    -3.686      3.326      5.239
REMARK INTER + INTRA:          -4.803
REMARK INTER:                  -5.381
REMARK INTRA:                   0.578
REMARK UNBOUND:                 0.392
REMARK SMILES CC1=CCC(=C(C)C)C(=O)CC(C)=CCC1
REMARK SMILES IDX 12 1 14 2 13 3 15 4 16 5 2 6 1 7 3 8 11 10 9 11 10 12 5 13
REMARK SMILES IDX 6 14 7 15 8 16 4 17
REMARK H PARENT
REMARK Flexibility Score: 60.00
ROOT
ATOM      1  C   UNL     1      17.830  25.677  27.864  1.00  0.00    -0.070 C 
ATOM      2  C   UNL     1      16.857  24.768  27.621  1.00  0.00    -0.027 C 
ATOM      3  C   UNL     1      19.196  25.168  28.248  1.00  0.00     0.039 C 
ENDROOT
BRANCH   2   4
ATOM      4  C   UNL     1      15.420  25.099  27.285  1.00  0.00     0.032 C 
BRANCH   4   5
ATOM      5  C   UNL     1      14.453  24.579  28.358  1.00  0.00     0.034 C 
BRANCH   5   6
ATOM      6  C   UNL     1      14.897  24.891  29.780  1.00  0.00    -0.077 C 
ATOM      7  C   UNL     1      15.226  23.748  30.707  1.00  0.00     0.039 C 
ATOM      8  C   UNL     1      14.997  26.148  30.270  1.00  0.00    -0.023 CG0
ATOM      9  G   UNL     1      14.778  27.417  29.478  1.00  0.00     0.000 G0
ENDBRANCH   5   6
ENDBRANCH   4   5
ENDBRANCH   2   4
BRANCH   1  10
ATOM     10  C   UNL     1      17.606  27.173  27.764  1.00  0.00     0.111 C 
BRANCH  10  11
ATOM     11  C   UNL     1      17.318  27.769  29.113  1.00  0.00     0.163 C 
ATOM     12  O   UNL     1      18.216  27.761  29.998  1.00  0.00    -0.294 OA
BRANCH  11  13
ATOM     13  C   UNL     1      15.988  28.348  29.434  1.00  0.00    -0.002 C 
ATOM     14  C   UNL     1      15.861  29.679  29.684  1.00  0.00    -0.069 C 
ATOM     15  C   UNL     1      17.072  30.584  29.738  1.00  0.00     0.039 C 
ATOM     16  C   UNL     1      14.509  30.295  29.960  1.00  0.00     0.039 C 
BRANCH  13  17
ATOM     17  C   UNL     1      14.770  27.430  29.478  1.00  0.00     0.066 CG0
ATOM     18  G   UNL     1      14.994  26.161  30.266  1.00  0.00     0.000 G0
ENDBRANCH  13  17
ENDBRANCH  11  13
ENDBRANCH  10  11
ENDBRANCH   1  10
TORSDOF 0
ENDMDL
MODEL 6
REMARK VINA RESULT:    -3.676      2.788      5.536
REMARK INTER + INTRA:          -4.788
REMARK INTER:                  -5.298
REMARK INTRA:                   0.510
REMARK UNBOUND:                 0.392
REMARK SMILES CC1=CCC(=C(C)C)C(=O)CC(C)=CCC1
REMARK SMILES IDX 12 1 14 2 13 3 15 4 16 5 2 6 1 7 3 8 11 10 9 11 10 12 5 13
REMARK SMILES IDX 6 14 7 15 8 16 4 17
REMARK H PARENT
REMARK Flexibility Score: 60.00
ROOT
ATOM      1  C   UNL     1      15.367  31.599  30.677  1.00  0.00    -0.070 C 
ATOM      2  C   UNL     1      16.200  32.545  30.183  1.00  0.00    -0.027 C 
ATOM      3  C   UNL     1      14.576  31.930  31.917  1.00  0.00     0.039 C 
ENDROOT
BRANCH   2   4
ATOM      4  C   UNL     1      17.111  32.366  28.989  1.00  0.00     0.032 C 
BRANCH   4   5
ATOM      5  C   UNL     1      18.588  32.533  29.373  1.00  0.00     0.034 C 
BRANCH   5   6
ATOM      6  C   UNL     1      19.024  31.633  30.520  1.00  0.00    -0.077 C 
ATOM      7  C   UNL     1      19.501  32.269  31.802  1.00  0.00     0.039 C 
ATOM      8  C   UNL     1      19.025  30.282  30.449  1.00  0.00    -0.023 CG0
ATOM      9  G   UNL     1      18.520  29.467  29.281  1.00  0.00     0.000 G0
ENDBRANCH   5   6
ENDBRANCH   4   5
ENDBRANCH   2   4
BRANCH   1  10
ATOM     10  C   UNL     1      15.195  30.236  30.038  1.00  0.00     0.111 C 
BRANCH  10  11
ATOM     11  C   UNL     1      16.255  29.280  30.509  1.00  0.00     0.163 C 
ATOM     12  O   UNL     1      16.320  28.982  31.731  1.00  0.00    -0.294 OA
BRANCH  11  13
ATOM     13  C   UNL     1      17.242  28.696  29.564  1.00  0.00    -0.002 C 
ATOM     14  C   UNL     1      16.991  27.503  28.960  1.00  0.00    -0.069 C 
ATOM     15  C   UNL     1      15.757  26.697  29.301  1.00  0.00     0.039 C 
ATOM     16  C   UNL     1      17.959  26.918  27.958  1.00  0.00     0.039 C 
BRANCH  13  17
ATOM     17  C   UNL     1      18.536  29.451  29.283  1.00  0.00     0.066 CG0
ATOM     18  G   UNL     1      19.023  30.279  30.449  1.00  0.00     0.000 G0
ENDBRANCH  13  17
ENDBRANCH  11  13
ENDBRANCH  10  11
ENDBRANCH   1  10
TORSDOF 0
ENDMDL
MODEL 7
REMARK VINA RESULT:    -3.652      2.116      3.351
REMARK INTER + INTRA:          -4.754
REMARK INTER:                  -5.032
REMARK INTRA:                   0.278
REMARK UNBOUND:                 0.392
REMARK SMILES CC1=CCC(=C(C)C)C(=O)CC(C)=CCC1
REMARK SMILES IDX 12 1 14 2 13 3 15 4 16 5 2 6 1 7 3 8 11 10 9 11 10 12 5 13
REMARK SMILES IDX 6 14 7 15 8 16 4 17
REMARK H PARENT
REMARK Flexibility Score: 60.00
ROOT
ATOM      1  C   UNL     1      19.383  28.433  28.455  1.00  0.00    -0.070 C 
ATOM      2  C   UNL     1      20.549  27.849  28.817  1.00  0.00    -0.027 C 
ATOM      3  C   UNL     1      18.300  27.557  27.879  1.00  0.00     0.039 C 
ENDROOT
BRANCH   2   4
ATOM      4  C   UNL     1      21.760  28.580  29.352  1.00  0.00     0.032 C 
BRANCH   4   5
ATOM      5  C   UNL     1      21.591  28.948  30.834  1.00  0.00     0.034 C 
BRANCH   5   6
ATOM      6  C   UNL     1      21.939  30.396  31.145  1.00  0.00    -0.077 C 
ATOM      7  C   UNL     1      23.343  30.880  30.880  1.00  0.00     0.039 C 
ATOM      8  C   UNL     1      21.057  31.278  31.669  1.00  0.00    -0.023 CG0
ATOM      9  G   UNL     1      19.596  31.001  31.937  1.00  0.00     0.000 G0
ENDBRANCH   5   6
ENDBRANCH   4   5
ENDBRANCH   2   4
BRANCH   1  10
ATOM     10  C   UNL     1      19.121  29.918  28.608  1.00  0.00     0.111 C 
BRANCH  10  11
ATOM     11  C   UNL     1      18.311  30.201  29.842  1.00  0.00     0.163 C 
ATOM     12  O   UNL     1      17.294  29.499  30.089  1.00  0.00    -0.294 OA
BRANCH  11  13
ATOM     13  C   UNL     1      18.671  31.308  30.765  1.00  0.00    -0.002 C 
ATOM     14  C   UNL     1      18.185  32.562  30.556  1.00  0.00    -0.069 C 
ATOM     15  C   UNL     1      17.350  32.884  29.336  1.00  0.00     0.039 C 
ATOM     16  C   UNL     1      18.498  33.689  31.512  1.00  0.00     0.039 C 
BRANCH  13  17
ATOM     17  C   UNL     1      19.590  31.020  31.947  1.00  0.00     0.066 CG0
ATOM     18  G   UNL     1      21.051  31.274  31.657  1.00  0.00     0.000 G0
ENDBRANCH  13  17
ENDBRANCH  11  13
ENDBRANCH  10  11
ENDBRANCH   1  10
TORSDOF 0
ENDMDL
MODEL 8
REMARK VINA RESULT:    -3.581      2.935      5.036
REMARK INTER + INTRA:          -4.654
REMARK INTER:                  -5.077
REMARK INTRA:                   0.423
REMARK UNBOUND:                 0.392
REMARK SMILES CC1=CCC(=C(C)C)C(=O)CC(C)=CCC1
REMARK SMILES IDX 12 1 14 2 13 3 15 4 16 5 2 6 1 7 3 8 11 10 9 11 10 12 5 13
REMARK SMILES IDX 6 14 7 15 8 16 4 17
REMARK H PARENT
REMARK Flexibility Score: 60.00
ROOT
ATOM      1  C   UNL     1      19.085  26.866  28.454  1.00  0.00    -0.070 C 
ATOM      2  C   UNL     1      18.786  25.614  28.036  1.00  0.00    -0.027 C 
ATOM      3  C   UNL     1      20.448  27.107  29.052  1.00  0.00     0.039 C 
ENDROOT
BRANCH   2   4
ATOM      4  C   UNL     1      17.452  25.180  27.470  1.00  0.00     0.032 C 
BRANCH   4   5
ATOM      5  C   UNL     1      16.441  24.863  28.581  1.00  0.00     0.034 C 
BRANCH   5   6
ATOM      6  C   UNL     1      15.088  25.528  28.379  1.00  0.00    -0.077 C 
ATOM      7  C   UNL     1      14.185  25.023  27.281  1.00  0.00     0.039 C 
ATOM      8  C   UNL     1      14.651  26.570  29.124  1.00  0.00    -0.023 CG0
ATOM      9  G   UNL     1      15.378  27.166  30.306  1.00  0.00     0.000 G0
ENDBRANCH   5   6
ENDBRANCH   4   5
ENDBRANCH   2   4
BRANCH   1  10
ATOM     10  C   UNL     1      18.118  28.027  28.343  1.00  0.00     0.111 C 
BRANCH  10  11
ATOM     11  C   UNL     1      17.590  28.423  29.693  1.00  0.00     0.163 C 
ATOM     12  O   UNL     1      18.400  28.702  30.617  1.00  0.00    -0.294 OA
BRANCH  11  13
ATOM     13  C   UNL     1      16.130  28.471  29.967  1.00  0.00    -0.002 C 
ATOM     14  C   UNL     1      15.462  29.656  29.925  1.00  0.00    -0.069 C 
ATOM     15  C   UNL     1      16.195  30.959  29.694  1.00  0.00     0.039 C 
ATOM     16  C   UNL     1      13.970  29.718  30.150  1.00  0.00     0.039 C 
BRANCH  13  17
ATOM     17  C   UNL     1      15.394  27.177  30.297  1.00  0.00     0.066 CG0
ATOM     18  G   UNL     1      14.658  26.580  29.121  1.00  0.00     0.000 G0
ENDBRANCH  13  17
ENDBRANCH  11  13
ENDBRANCH  10  11
ENDBRANCH   1  10
TORSDOF 0
ENDMDL
MODEL 9
REMARK VINA RESULT:    -3.501      3.100      6.223
REMARK INTER + INTRA:          -4.542
REMARK INTER:                  -5.118
REMARK INTRA:                   0.576
REMARK UNBOUND:                 0.392
REMARK SMILES CC1=CCC(=C(C)C)C(=O)CC(C)=CCC1
REMARK SMILES IDX 12 1 14 2 13 3 15 4 16 5 2 6 1 7 3 8 11 10 9 11 10 12 5 13
REMARK SMILES IDX 6 14 7 15 8 16 4 17
REMARK H PARENT
REMARK Flexibility Score: 60.00
ROOT
ATOM      1  C   UNL     1      20.465  33.368  30.290  1.00  0.00    -0.070 C 
ATOM      2  C   UNL     1      19.413  33.750  29.529  1.00  0.00    -0.027 C 
ATOM      3  C   UNL     1      21.850  33.533  29.717  1.00  0.00     0.039 C 
ENDROOT
BRANCH   2   4
ATOM      4  C   UNL     1      17.958  33.601  29.918  1.00  0.00     0.032 C 
BRANCH   4   5
ATOM      5  C   UNL     1      17.206  32.673  28.953  1.00  0.00     0.034 C 
BRANCH   5   6
ATOM      6  C   UNL     1      16.832  31.332  29.568  1.00  0.00    -0.077 C 
ATOM      7  C   UNL     1      15.405  31.101  29.996  1.00  0.00     0.039 C 
ATOM      8  C   UNL     1      17.720  30.332  29.770  1.00  0.00    -0.023 CG0
ATOM      9  G   UNL     1      19.170  30.349  29.346  1.00  0.00     0.000 G0
ENDBRANCH   5   6
ENDBRANCH   4   5
ENDBRANCH   2   4
BRANCH   1  10
ATOM     10  C   UNL     1      20.311  32.791  31.683  1.00  0.00     0.111 C 
BRANCH  10  11
ATOM     11  C   UNL     1      19.817  31.372  31.629  1.00  0.00     0.163 C 
ATOM     12  O   UNL     1      19.113  30.927  32.575  1.00  0.00    -0.294 OA
BRANCH  11  13
ATOM     13  C   UNL     1      20.161  30.477  30.495  1.00  0.00    -0.002 C 
ATOM     14  C   UNL     1      21.339  29.796  30.491  1.00  0.00    -0.069 C 
ATOM     15  C   UNL     1      22.365  30.002  31.582  1.00  0.00     0.039 C 
ATOM     16  C   UNL     1      21.684  28.841  29.371  1.00  0.00     0.039 C 
BRANCH  13  17
ATOM     17  C   UNL     1      19.177  30.333  29.339  1.00  0.00     0.066 CG0
ATOM     18  G   UNL     1      17.729  30.337  29.768  1.00  0.00     0.000 G0
ENDBRANCH  13  17
ENDBRANCH  11  13
ENDBRANCH  10  11
ENDBRANCH   1  10
TORSDOF 0
ENDMDL
