MODEL 1
REMARK VINA RESULT:    -2.973      0.000      0.000
REMARK INTER + INTRA:          -3.234
REMARK INTER:                  -3.234
REMARK INTRA:                   0.000
REMARK UNBOUND:                 0.000
REMARK SMILES [NH3+]CC(=O)[O-]
REMARK SMILES IDX 2 1 1 2 3 6 4 7 5 8
REMARK H PARENT 1 3 1 4 1 5
REMARK Flexibility Score: inf
ROOT
ATOM      1  C   UNL     1       1.766  -1.896 -22.075  1.00  0.00     0.312 C 
ENDROOT
BRANCH   1   2
ATOM      2  N   UNL     1       0.580  -1.853 -21.222  1.00  0.00    -0.353 N 
ATOM      3  H   UNL     1       0.725  -2.484 -20.402  1.00  0.00     0.344 HD
ATOM      4  H   UNL     1      -0.258  -2.179 -21.756  1.00  0.00     0.344 HD
ATOM      5  H   UNL     1       0.421  -0.878 -20.877  1.00  0.00     0.344 HD
ENDBRANCH   1   2
BRANCH   1   6
ATOM      6  C   UNL     1       2.183  -0.513 -22.469  1.00  0.00     0.096 C 
ATOM      7  O   UNL     1       2.084   0.437 -21.648  1.00  0.00    -0.544 OA
ATOM      8  O   UNL     1       2.729  -0.283 -23.726  1.00  0.00    -0.544 OA
ENDBRANCH   1   6
TORSDOF 2
ENDMDL
MODEL 2
REMARK VINA RESULT:    -2.862      2.247      2.435
REMARK INTER + INTRA:          -3.113
REMARK INTER:                  -3.113
REMARK INTRA:                   0.000
REMARK UNBOUND:                 0.000
REMARK SMILES [NH3+]CC(=O)[O-]
REMARK SMILES IDX 2 1 1 2 3 6 4 7 5 8
REMARK H PARENT 1 3 1 4 1 5
REMARK Flexibility Score: inf
ROOT
ATOM      1  C   UNL     1       2.284  -0.600 -22.674  1.00  0.00     0.312 C 
ENDROOT
BRANCH   1   2
ATOM      2  N   UNL     1       1.899   0.514 -21.808  1.00  0.00    -0.353 N 
ATOM      3  H   UNL     1       0.927   0.814 -22.050  1.00  0.00     0.344 HD
ATOM      4  H   UNL     1       2.549   1.321 -21.951  1.00  0.00     0.344 HD
ATOM      5  H   UNL     1       1.923   0.214 -20.806  1.00  0.00     0.344 HD
ENDBRANCH   1   2
BRANCH   1   6
ATOM      6  C   UNL     1       1.951  -1.909 -22.029  1.00  0.00     0.096 C 
ATOM      7  O   UNL     1       0.874  -2.046 -21.392  1.00  0.00    -0.544 OA
ATOM      8  O   UNL     1       2.807  -2.993 -22.174  1.00  0.00    -0.544 OA
ENDBRANCH   1   6
TORSDOF 2
ENDMDL
MODEL 3
REMARK VINA RESULT:    -2.853      5.114      5.365
REMARK INTER + INTRA:          -3.103
REMARK INTER:                  -3.103
REMARK INTRA:                   0.000
REMARK UNBOUND:                 0.000
REMARK SMILES [NH3+]CC(=O)[O-]
REMARK SMILES IDX 2 1 1 2 3 6 4 7 5 8
REMARK H PARENT 1 3 1 4 1 5
REMARK Flexibility Score: inf
ROOT
ATOM      1  C   UNL     1       4.071  -5.917 -23.245  1.00  0.00     0.312 C 
ENDROOT
BRANCH   1   2
ATOM      2  N   UNL     1       3.643  -7.248 -22.819  1.00  0.00    -0.353 N 
ATOM      3  H   UNL     1       4.356  -7.950 -23.123  1.00  0.00     0.344 HD
ATOM      4  H   UNL     1       2.724  -7.487 -23.257  1.00  0.00     0.344 HD
ATOM      5  H   UNL     1       3.557  -7.281 -21.777  1.00  0.00     0.344 HD
ENDBRANCH   1   2
BRANCH   1   6
ATOM      6  C   UNL     1       4.137  -4.984 -22.075  1.00  0.00     0.096 C 
ATOM      7  O   UNL     1       4.910  -5.231 -21.111  1.00  0.00    -0.544 OA
ATOM      8  O   UNL     1       3.384  -3.818 -22.072  1.00  0.00    -0.544 OA
ENDBRANCH   1   6
TORSDOF 2
ENDMDL
MODEL 4
REMARK VINA RESULT:    -2.743     13.439     13.563
REMARK INTER + INTRA:          -2.984
REMARK INTER:                  -2.984
REMARK INTRA:                   0.000
REMARK UNBOUND:                 0.000
REMARK SMILES [NH3+]CC(=O)[O-]
REMARK SMILES IDX 2 1 1 2 3 6 4 7 5 8
REMARK H PARENT 1 3 1 4 1 5
REMARK Flexibility Score: inf
ROOT
ATOM      1  C   UNL     1       7.367 -10.125 -14.531  1.00  0.00     0.312 C 
ENDROOT
BRANCH   1   2
ATOM      2  N   UNL     1       7.357  -9.387 -15.793  1.00  0.00    -0.353 N 
ATOM      3  H   UNL     1       8.216  -8.794 -15.848  1.00  0.00     0.344 HD
ATOM      4  H   UNL     1       6.515  -8.770 -15.841  1.00  0.00     0.344 HD
ATOM      5  H   UNL     1       7.353 -10.055 -16.598  1.00  0.00     0.344 HD
ENDBRANCH   1   2
BRANCH   1   6
ATOM      6  C   UNL     1       8.252  -9.448 -13.531  1.00  0.00     0.096 C 
ATOM      7  O   UNL     1       7.764  -8.974 -12.471  1.00  0.00    -0.544 OA
ATOM      8  O   UNL     1       9.623  -9.386 -13.745  1.00  0.00    -0.544 OA
ENDBRANCH   1   6
TORSDOF 2
ENDMDL
MODEL 5
REMARK VINA RESULT:    -2.697      5.546      5.880
REMARK INTER + INTRA:          -2.933
REMARK INTER:                  -2.933
REMARK INTRA:                   0.000
REMARK UNBOUND:                 0.000
REMARK SMILES [NH3+]CC(=O)[O-]
REMARK SMILES IDX 2 1 1 2 3 6 4 7 5 8
REMARK H PARENT 1 3 1 4 1 5
REMARK Flexibility Score: inf
ROOT
ATOM      1  C   UNL     1       4.253  -5.003 -21.970  1.00  0.00     0.312 C 
ENDROOT
BRANCH   1   2
ATOM      2  N   UNL     1       5.188  -5.620 -21.031  1.00  0.00    -0.353 N 
ATOM      3  H   UNL     1       4.868  -6.593 -20.820  1.00  0.00     0.344 HD
ATOM      4  H   UNL     1       5.217  -5.072 -20.141  1.00  0.00     0.344 HD
ATOM      5  H   UNL     1       6.145  -5.662 -21.453  1.00  0.00     0.344 HD
ENDBRANCH   1   2
BRANCH   1   6
ATOM      6  C   UNL     1       4.097  -5.852 -23.194  1.00  0.00     0.096 C 
ATOM      7  O   UNL     1       3.505  -6.961 -23.125  1.00  0.00    -0.544 OA
ATOM      8  O   UNL     1       4.560  -5.394 -24.421  1.00  0.00    -0.544 OA
ENDBRANCH   1   6
TORSDOF 2
ENDMDL
MODEL 6
REMARK VINA RESULT:    -2.671     13.512     13.769
REMARK INTER + INTRA:          -2.906
REMARK INTER:                  -2.906
REMARK INTRA:                   0.000
REMARK UNBOUND:                 0.000
REMARK SMILES [NH3+]CC(=O)[O-]
REMARK SMILES IDX 2 1 1 2 3 6 4 7 5 8
REMARK H PARENT 1 3 1 4 1 5
REMARK Flexibility Score: inf
ROOT
ATOM      1  C   UNL     1       7.437  -9.857 -13.206  1.00  0.00     0.312 C 
ENDROOT
BRANCH   1   2
ATOM      2  N   UNL     1       8.202  -8.985 -12.317  1.00  0.00    -0.353 N 
ATOM      3  H   UNL     1       7.560  -8.271 -11.903  1.00  0.00     0.344 HD
ATOM      4  H   UNL     1       8.953  -8.494 -12.856  1.00  0.00     0.344 HD
ATOM      5  H   UNL     1       8.630  -9.546 -11.545  1.00  0.00     0.344 HD
ENDBRANCH   1   2
BRANCH   1   6
ATOM      6  C   UNL     1       8.111  -9.978 -14.537  1.00  0.00     0.096 C 
ATOM      7  O   UNL     1       7.437  -9.901 -15.598  1.00  0.00    -0.544 OA
ATOM      8  O   UNL     1       9.491 -10.125 -14.607  1.00  0.00    -0.544 OA
ENDBRANCH   1   6
TORSDOF 2
ENDMDL
MODEL 7
REMARK VINA RESULT:    -2.528      8.196      8.457
REMARK INTER + INTRA:          -2.750
REMARK INTER:                  -2.750
REMARK INTRA:                   0.000
REMARK UNBOUND:                 0.000
REMARK SMILES [NH3+]CC(=O)[O-]
REMARK SMILES IDX 2 1 1 2 3 6 4 7 5 8
REMARK H PARENT 1 3 1 4 1 5
REMARK Flexibility Score: inf
ROOT
ATOM      1  C   UNL     1      -4.194   3.022 -21.705  1.00  0.00     0.312 C 
ENDROOT
BRANCH   1   2
ATOM      2  N   UNL     1      -3.807   3.063 -20.296  1.00  0.00    -0.353 N 
ATOM      3  H   UNL     1      -2.991   3.708 -20.185  1.00  0.00     0.344 HD
ATOM      4  H   UNL     1      -3.531   2.108 -19.972  1.00  0.00     0.344 HD
ATOM      5  H   UNL     1      -4.602   3.418 -19.716  1.00  0.00     0.344 HD
ENDBRANCH   1   2
BRANCH   1   6
ATOM      6  C   UNL     1      -5.652   3.328 -21.861  1.00  0.00     0.096 C 
ATOM      7  O   UNL     1      -6.116   4.426 -21.455  1.00  0.00    -0.544 OA
ATOM      8  O   UNL     1      -6.488   2.421 -22.500  1.00  0.00    -0.544 OA
ENDBRANCH   1   6
TORSDOF 2
ENDMDL
MODEL 8
REMARK VINA RESULT:    -2.419      6.763      6.998
REMARK INTER + INTRA:          -2.631
REMARK INTER:                  -2.631
REMARK INTRA:                   0.000
REMARK UNBOUND:                 0.000
REMARK SMILES [NH3+]CC(=O)[O-]
REMARK SMILES IDX 2 1 1 2 3 6 4 7 5 8
REMARK H PARENT 1 3 1 4 1 5
REMARK Flexibility Score: inf
ROOT
ATOM      1  C   UNL     1      -4.394   2.950 -21.600  1.00  0.00     0.312 C 
ENDROOT
BRANCH   1   2
ATOM      2  N   UNL     1      -3.763   3.056 -20.285  1.00  0.00    -0.353 N 
ATOM      3  H   UNL     1      -2.864   2.522 -20.293  1.00  0.00     0.344 HD
ATOM      4  H   UNL     1      -4.391   2.653 -19.552  1.00  0.00     0.344 HD
ATOM      5  H   UNL     1      -3.560   4.059 -20.065  1.00  0.00     0.344 HD
ENDBRANCH   1   2
BRANCH   1   6
ATOM      6  C   UNL     1      -3.486   3.482 -22.665  1.00  0.00     0.096 C 
ATOM      7  O   UNL     1      -3.940   4.237 -23.565  1.00  0.00    -0.544 OA
ATOM      8  O   UNL     1      -2.130   3.184 -22.636  1.00  0.00    -0.544 OA
ENDBRANCH   1   6
TORSDOF 2
ENDMDL
