MODEL 1
REMARK VINA RESULT:    -5.717      0.000      0.000
REMARK INTER + INTRA:          -5.717
REMARK INTER:                  -5.717
REMARK INTRA:                   0.000
REMARK UNBOUND:                 0.000
REMARK SMILES O=c1ccc2ccccc2o1
REMARK SMILES IDX 7 1 8 2 9 3 10 4 5 5 6 6 4 7 3 8 2 9 1 10 11 11
REMARK H PARENT
REMARK Flexibility Score: inf
ROOT
ATOM      1  C   UNL     1      29.705  27.475  45.386  1.00  0.00     0.001 A 
ATOM      2  C   UNL     1      30.228  26.325  45.986  1.00  0.00     0.004 A 
ATOM      3  C   UNL     1      29.405  25.220  46.227  1.00  0.00     0.048 A 
ATOM      4  C   UNL     1      28.053  25.262  45.868  1.00  0.00     0.138 A 
ATOM      5  C   UNL     1      27.524  26.424  45.262  1.00  0.00     0.018 A 
ATOM      6  C   UNL     1      28.354  27.528  45.023  1.00  0.00     0.012 A 
ATOM      7  C   UNL     1      26.170  26.436  44.915  1.00  0.00     0.019 A 
ATOM      8  C   UNL     1      25.387  25.311  45.174  1.00  0.00     0.094 A 
ATOM      9  C   UNL     1      25.979  24.196  45.777  1.00  0.00     0.336 A 
ATOM     10  O   UNL     1      25.288  23.172  46.019  1.00  0.00    -0.246 OA
ATOM     11  O   UNL     1      27.269  24.211  46.098  1.00  0.00    -0.423 OA
ENDROOT
TORSDOF 0
ENDMDL
MODEL 2
REMARK VINA RESULT:    -5.591      1.328      2.282
REMARK INTER + INTRA:          -5.591
REMARK INTER:                  -5.591
REMARK INTRA:                   0.000
REMARK UNBOUND:                 0.000
REMARK SMILES O=c1ccc2ccccc2o1
REMARK SMILES IDX 7 1 8 2 9 3 10 4 5 5 6 6 4 7 3 8 2 9 1 10 11 11
REMARK H PARENT
REMARK Flexibility Score: inf
ROOT
ATOM      1  C   UNL     1      29.201  28.547  46.154  1.00  0.00     0.001 A 
ATOM      2  C   UNL     1      27.880  29.002  46.211  1.00  0.00     0.004 A 
ATOM      3  C   UNL     1      26.819  28.093  46.142  1.00  0.00     0.048 A 
ATOM      4  C   UNL     1      27.076  26.723  46.014  1.00  0.00     0.138 A 
ATOM      5  C   UNL     1      28.411  26.263  45.957  1.00  0.00     0.018 A 
ATOM      6  C   UNL     1      29.470  27.179  46.027  1.00  0.00     0.012 A 
ATOM      7  C   UNL     1      28.637  24.890  45.829  1.00  0.00     0.019 A 
ATOM      8  C   UNL     1      27.549  24.020  45.764  1.00  0.00     0.094 A 
ATOM      9  C   UNL     1      26.254  24.547  45.827  1.00  0.00     0.336 A 
ATOM     10  O   UNL     1      25.260  23.778  45.770  1.00  0.00    -0.246 OA
ATOM     11  O   UNL     1      26.066  25.858  45.948  1.00  0.00    -0.423 OA
ENDROOT
TORSDOF 0
ENDMDL
MODEL 3
REMARK VINA RESULT:    -5.487      1.398      3.709
REMARK INTER + INTRA:          -5.487
REMARK INTER:                  -5.487
REMARK INTRA:                   0.000
REMARK UNBOUND:                 0.000
REMARK SMILES O=c1ccc2ccccc2o1
REMARK SMILES IDX 7 1 8 2 9 3 10 4 5 5 6 6 4 7 3 8 2 9 1 10 11 11
REMARK H PARENT
REMARK Flexibility Score: inf
ROOT
ATOM      1  C   UNL     1      25.347  25.730  44.740  1.00  0.00     0.001 A 
ATOM      2  C   UNL     1      25.411  24.512  45.426  1.00  0.00     0.004 A 
ATOM      3  C   UNL     1      26.610  24.096  46.012  1.00  0.00     0.048 A 
ATOM      4  C   UNL     1      27.754  24.897  45.913  1.00  0.00     0.138 A 
ATOM      5  C   UNL     1      27.691  26.127  45.220  1.00  0.00     0.018 A 
ATOM      6  C   UNL     1      26.485  26.539  44.635  1.00  0.00     0.012 A 
ATOM      7  C   UNL     1      28.849  26.905  45.137  1.00  0.00     0.019 A 
ATOM      8  C   UNL     1      30.023  26.450  45.736  1.00  0.00     0.094 A 
ATOM      9  C   UNL     1      30.012  25.222  46.407  1.00  0.00     0.336 A 
ATOM     10  O   UNL     1      31.061  24.795  46.954  1.00  0.00    -0.246 OA
ATOM     11  O   UNL     1      28.896  24.500  46.470  1.00  0.00    -0.423 OA
ENDROOT
TORSDOF 0
ENDMDL
MODEL 4
REMARK VINA RESULT:    -5.228      9.646     10.650
REMARK INTER + INTRA:          -5.228
REMARK INTER:                  -5.228
REMARK INTRA:                   0.000
REMARK UNBOUND:                 0.000
REMARK SMILES O=c1ccc2ccccc2o1
REMARK SMILES IDX 7 1 8 2 9 3 10 4 5 5 6 6 4 7 3 8 2 9 1 10 11 11
REMARK H PARENT
REMARK Flexibility Score: inf
ROOT
ATOM      1  C   UNL     1      19.636  26.250  39.900  1.00  0.00     0.001 A 
ATOM      2  C   UNL     1      19.175  26.181  38.581  1.00  0.00     0.004 A 
ATOM      3  C   UNL     1      19.209  24.968  37.886  1.00  0.00     0.048 A 
ATOM      4  C   UNL     1      19.706  23.817  38.509  1.00  0.00     0.138 A 
ATOM      5  C   UNL     1      20.172  23.886  39.842  1.00  0.00     0.018 A 
ATOM      6  C   UNL     1      20.135  25.105  40.533  1.00  0.00     0.012 A 
ATOM      7  C   UNL     1      20.662  22.721  40.437  1.00  0.00     0.019 A 
ATOM      8  C   UNL     1      20.678  21.533  39.706  1.00  0.00     0.094 A 
ATOM      9  C   UNL     1      20.200  21.539  38.391  1.00  0.00     0.336 A 
ATOM     10  O   UNL     1      20.206  20.477  37.715  1.00  0.00    -0.246 OA
ATOM     11  O   UNL     1      19.739  22.662  37.847  1.00  0.00    -0.423 OA
ENDROOT
TORSDOF 0
ENDMDL
MODEL 5
REMARK VINA RESULT:    -4.955      9.916     11.033
REMARK INTER + INTRA:          -4.955
REMARK INTER:                  -4.955
REMARK INTRA:                   0.000
REMARK UNBOUND:                 0.000
REMARK SMILES O=c1ccc2ccccc2o1
REMARK SMILES IDX 7 1 8 2 9 3 10 4 5 5 6 6 4 7 3 8 2 9 1 10 11 11
REMARK H PARENT
REMARK Flexibility Score: inf
ROOT
ATOM      1  C   UNL     1      20.775  21.512  39.886  1.00  0.00     0.001 A 
ATOM      2  C   UNL     1      20.403  21.268  38.560  1.00  0.00     0.004 A 
ATOM      3  C   UNL     1      19.862  22.295  37.780  1.00  0.00     0.048 A 
ATOM      4  C   UNL     1      19.689  23.572  38.326  1.00  0.00     0.138 A 
ATOM      5  C   UNL     1      20.064  23.819  39.666  1.00  0.00     0.018 A 
ATOM      6  C   UNL     1      20.606  22.785  40.442  1.00  0.00     0.012 A 
ATOM      7  C   UNL     1      19.879  25.105  40.183  1.00  0.00     0.019 A 
ATOM      8  C   UNL     1      19.335  26.098  39.369  1.00  0.00     0.094 A 
ATOM      9  C   UNL     1      18.987  25.781  38.051  1.00  0.00     0.336 A 
ATOM     10  O   UNL     1      18.495  26.664  37.302  1.00  0.00    -0.246 OA
ATOM     11  O   UNL     1      19.173  24.550  37.584  1.00  0.00    -0.423 OA
ENDROOT
TORSDOF 0
ENDMDL
MODEL 6
REMARK VINA RESULT:    -4.923      9.430     10.505
REMARK INTER + INTRA:          -4.923
REMARK INTER:                  -4.923
REMARK INTRA:                   0.000
REMARK UNBOUND:                 0.000
REMARK SMILES O=c1ccc2ccccc2o1
REMARK SMILES IDX 7 1 8 2 9 3 10 4 5 5 6 6 4 7 3 8 2 9 1 10 11 11
REMARK H PARENT
REMARK Flexibility Score: inf
ROOT
ATOM      1  C   UNL     1      20.159  21.703  38.258  1.00  0.00     0.001 A 
ATOM      2  C   UNL     1      20.614  21.615  39.578  1.00  0.00     0.004 A 
ATOM      3  C   UNL     1      20.584  22.739  40.409  1.00  0.00     0.048 A 
ATOM      4  C   UNL     1      20.100  23.959  39.921  1.00  0.00     0.138 A 
ATOM      5  C   UNL     1      19.641  24.048  38.588  1.00  0.00     0.018 A 
ATOM      6  C   UNL     1      19.673  22.917  37.760  1.00  0.00     0.012 A 
ATOM      7  C   UNL     1      19.163  25.279  38.129  1.00  0.00     0.019 A 
ATOM      8  C   UNL     1      19.153  26.374  38.993  1.00  0.00     0.094 A 
ATOM      9  C   UNL     1      19.623  26.212  40.301  1.00  0.00     0.336 A 
ATOM     10  O   UNL     1      19.622  27.188  41.095  1.00  0.00    -0.246 OA
ATOM     11  O   UNL     1      20.073  25.029  40.712  1.00  0.00    -0.423 OA
ENDROOT
TORSDOF 0
ENDMDL
MODEL 7
REMARK VINA RESULT:    -4.854      9.421     10.447
REMARK INTER + INTRA:          -4.854
REMARK INTER:                  -4.854
REMARK INTRA:                   0.000
REMARK UNBOUND:                 0.000
REMARK SMILES O=c1ccc2ccccc2o1
REMARK SMILES IDX 7 1 8 2 9 3 10 4 5 5 6 6 4 7 3 8 2 9 1 10 11 11
REMARK H PARENT
REMARK Flexibility Score: inf
ROOT
ATOM      1  C   UNL     1      19.023  26.145  38.045  1.00  0.00     0.001 A 
ATOM      2  C   UNL     1      19.433  26.446  39.348  1.00  0.00     0.004 A 
ATOM      3  C   UNL     1      19.957  25.444  40.170  1.00  0.00     0.048 A 
ATOM      4  C   UNL     1      20.071  24.134  39.692  1.00  0.00     0.138 A 
ATOM      5  C   UNL     1      19.657  23.828  38.375  1.00  0.00     0.018 A 
ATOM      6  C   UNL     1      19.133  24.838  37.556  1.00  0.00     0.012 A 
ATOM      7  C   UNL     1      19.784  22.512  37.925  1.00  0.00     0.019 A 
ATOM      8  C   UNL     1      20.311  21.544  38.781  1.00  0.00     0.094 A 
ATOM      9  C   UNL     1      20.701  21.918  40.071  1.00  0.00     0.336 A 
ATOM     10  O   UNL     1      21.179  21.059  40.857  1.00  0.00    -0.246 OA
ATOM     11  O   UNL     1      20.569  23.179  40.475  1.00  0.00    -0.423 OA
ENDROOT
TORSDOF 0
ENDMDL
MODEL 8
REMARK VINA RESULT:    -4.647      8.329      9.891
REMARK INTER + INTRA:          -4.647
REMARK INTER:                  -4.647
REMARK INTRA:                   0.000
REMARK UNBOUND:                 0.000
REMARK SMILES O=c1ccc2ccccc2o1
REMARK SMILES IDX 7 1 8 2 9 3 10 4 5 5 6 6 4 7 3 8 2 9 1 10 11 11
REMARK H PARENT
REMARK Flexibility Score: inf
ROOT
ATOM      1  C   UNL     1      16.550  25.974  44.697  1.00  0.00     0.001 A 
ATOM      2  C   UNL     1      17.594  26.250  45.586  1.00  0.00     0.004 A 
ATOM      3  C   UNL     1      18.846  26.644  45.102  1.00  0.00     0.048 A 
ATOM      4  C   UNL     1      19.058  26.761  43.724  1.00  0.00     0.138 A 
ATOM      5  C   UNL     1      18.004  26.482  42.825  1.00  0.00     0.018 A 
ATOM      6  C   UNL     1      16.752  26.088  43.317  1.00  0.00     0.012 A 
ATOM      7  C   UNL     1      18.246  26.608  41.454  1.00  0.00     0.019 A 
ATOM      8  C   UNL     1      19.510  27.003  41.016  1.00  0.00     0.094 A 
ATOM      9  C   UNL     1      20.506  27.264  41.964  1.00  0.00     0.336 A 
ATOM     10  O   UNL     1      21.653  27.622  41.588  1.00  0.00    -0.246 OA
ATOM     11  O   UNL     1      20.250  27.136  43.263  1.00  0.00    -0.423 OA
ENDROOT
TORSDOF 0
ENDMDL
MODEL 9
REMARK VINA RESULT:    -4.637      8.499      9.879
REMARK INTER + INTRA:          -4.637
REMARK INTER:                  -4.637
REMARK INTRA:                   0.000
REMARK UNBOUND:                 0.000
REMARK SMILES O=c1ccc2ccccc2o1
REMARK SMILES IDX 7 1 8 2 9 3 10 4 5 5 6 6 4 7 3 8 2 9 1 10 11 11
REMARK H PARENT
REMARK Flexibility Score: inf
ROOT
ATOM      1  C   UNL     1      18.571  26.984  44.966  1.00  0.00     0.001 A 
ATOM      2  C   UNL     1      17.353  26.730  44.326  1.00  0.00     0.004 A 
ATOM      3  C   UNL     1      17.303  26.599  42.934  1.00  0.00     0.048 A 
ATOM      4  C   UNL     1      18.473  26.722  42.176  1.00  0.00     0.138 A 
ATOM      5  C   UNL     1      19.704  26.978  42.822  1.00  0.00     0.018 A 
ATOM      6  C   UNL     1      19.747  27.108  44.217  1.00  0.00     0.012 A 
ATOM      7  C   UNL     1      20.855  27.096  42.038  1.00  0.00     0.019 A 
ATOM      8  C   UNL     1      20.757  26.958  40.653  1.00  0.00     0.094 A 
ATOM      9  C   UNL     1      19.505  26.705  40.083  1.00  0.00     0.336 A 
ATOM     10  O   UNL     1      19.397  26.577  38.836  1.00  0.00    -0.246 OA
ATOM     11  O   UNL     1      18.425  26.598  40.852  1.00  0.00    -0.423 OA
ENDROOT
TORSDOF 0
ENDMDL
