MODEL 1
REMARK VINA RESULT:    -3.649      0.000      0.000
REMARK INTER + INTRA:          -6.017
REMARK INTER:                  -5.569
REMARK INTRA:                  -0.447
REMARK UNBOUND:                -0.447
REMARK SMILES CC1=CCC[C@H](C)C(=O)C[C@H](C(C)C)C(=O)C1
REMARK SMILES IDX 8 1 9 2 6 3 7 4 5 5 4 6 3 7 2 8 1 9 10 11 11 12 15 13 16 14
REMARK SMILES IDX 17 15 12 17 13 18 14 19
REMARK H PARENT
REMARK Flexibility Score: 70.00
ROOT
ATOM      1  C   UNL     1     -12.245   2.599  31.700  1.00  0.00     0.136 C 
ATOM      2  O   UNL     1     -11.075   2.422  32.009  1.00  0.00    -0.299 OA
ENDROOT
BRANCH   1   3
ATOM      3  C   UNL     1     -13.341   1.957  32.532  1.00  0.00     0.053 C 
ATOM      4  C   UNL     1     -12.841   0.614  33.075  1.00  0.00     0.016 C 
BRANCH   3   5
ATOM      5  C   UNL     1     -13.800   2.860  33.701  1.00  0.00     0.015 C 
BRANCH   5   6
ATOM      6  C   UNL     1     -15.154   3.544  33.458  1.00  0.00     0.028 C 
BRANCH   6   7
ATOM      7  C   UNL     1     -15.009   5.037  33.283  1.00  0.00    -0.028 C 
ATOM      8  C   UNL     1     -15.263   5.732  32.150  1.00  0.00    -0.070 CG0
ATOM      9  C   UNL     1     -15.040   7.223  32.176  1.00  0.00     0.039 C 
ATOM     10  G   UNL     1     -15.813   5.101  30.881  1.00  0.00     0.000 G0
ENDBRANCH   6   7
ENDBRANCH   5   6
ENDBRANCH   3   5
ENDBRANCH   1   3
BRANCH   1  11
ATOM     11  C   UNL     1     -12.567   3.320  30.408  1.00  0.00     0.087 C 
BRANCH  11  12
ATOM     12  C   UNL     1     -14.053   3.266  29.959  1.00  0.00     0.066 C 
BRANCH  12  13
ATOM     13  C   UNL     1     -14.695   4.647  29.927  1.00  0.00     0.140 C 
ATOM     14  O   UNL     1     -14.226   5.473  29.154  1.00  0.00    -0.299 OA
BRANCH  13  15
ATOM     15  C   UNL     1     -15.810   5.089  30.848  1.00  0.00     0.106 CG0
ATOM     16  G   UNL     1     -15.256   5.724  32.113  1.00  0.00     0.000 G0
ENDBRANCH  13  15
ENDBRANCH  12  13
BRANCH  12  17
ATOM     17  C   UNL     1     -14.374   2.335  28.736  1.00  0.00    -0.006 C 
ATOM     18  C   UNL     1     -15.825   2.526  28.258  1.00  0.00     0.008 C 
ATOM     19  C   UNL     1     -14.126   0.837  28.977  1.00  0.00     0.008 C 
ENDBRANCH  12  17
ENDBRANCH  11  12
ENDBRANCH   1  11
TORSDOF 1
ENDMDL
MODEL 2
REMARK VINA RESULT:    -3.404      2.381      4.640
REMARK INTER + INTRA:          -5.643
REMARK INTER:                  -5.145
REMARK INTRA:                  -0.498
REMARK UNBOUND:                -0.447
REMARK SMILES CC1=CCC[C@H](C)C(=O)C[C@H](C(C)C)C(=O)C1
REMARK SMILES IDX 8 1 9 2 6 3 7 4 5 5 4 6 3 7 2 8 1 9 10 11 11 12 15 13 16 14
REMARK SMILES IDX 17 15 12 17 13 18 14 19
REMARK H PARENT
REMARK Flexibility Score: 70.00
ROOT
ATOM      1  C   UNL     1     -16.078   5.204  32.273  1.00  0.00     0.136 C 
ATOM      2  O   UNL     1     -17.278   5.242  32.500  1.00  0.00    -0.299 OA
ENDROOT
BRANCH   1   3
ATOM      3  C   UNL     1     -15.575   5.479  30.868  1.00  0.00     0.053 C 
ATOM      4  C   UNL     1     -16.237   4.499  29.893  1.00  0.00     0.016 C 
BRANCH   3   5
ATOM      5  C   UNL     1     -15.847   6.934  30.417  1.00  0.00     0.015 C 
BRANCH   5   6
ATOM      6  C   UNL     1     -15.386   7.992  31.431  1.00  0.00     0.028 C 
BRANCH   6   7
ATOM      7  C   UNL     1     -13.906   8.268  31.325  1.00  0.00    -0.028 C 
ATOM      8  C   UNL     1     -12.968   7.934  32.242  1.00  0.00    -0.070 CG0
ATOM      9  C   UNL     1     -11.537   8.313  31.955  1.00  0.00     0.039 C 
ATOM     10  G   UNL     1     -13.271   7.151  33.509  1.00  0.00     0.000 G0
ENDBRANCH   6   7
ENDBRANCH   5   6
ENDBRANCH   3   5
ENDBRANCH   1   3
BRANCH   1  11
ATOM     11  C   UNL     1     -15.136   4.730  33.359  1.00  0.00     0.087 C 
BRANCH  11  12
ATOM     12  C   UNL     1     -13.652   4.558  32.937  1.00  0.00     0.066 C 
BRANCH  12  13
ATOM     13  C   UNL     1     -12.780   5.714  33.411  1.00  0.00     0.140 C 
ATOM     14  O   UNL     1     -11.647   5.450  33.793  1.00  0.00    -0.299 OA
BRANCH  13  15
ATOM     15  C   UNL     1     -13.253   7.146  33.525  1.00  0.00     0.106 CG0
ATOM     16  G   UNL     1     -12.969   7.919  32.248  1.00  0.00     0.000 G0
ENDBRANCH  13  15
ENDBRANCH  12  13
BRANCH  12  17
ATOM     17  C   UNL     1     -13.040   3.122  33.119  1.00  0.00    -0.006 C 
ATOM     18  C   UNL     1     -12.846   2.425  31.760  1.00  0.00     0.008 C 
ATOM     19  C   UNL     1     -13.836   2.189  34.044  1.00  0.00     0.008 C 
ENDBRANCH  12  17
ENDBRANCH  11  12
ENDBRANCH   1  11
TORSDOF 1
ENDMDL
MODEL 3
REMARK VINA RESULT:    -3.398      3.376      6.822
REMARK INTER + INTRA:          -5.633
REMARK INTER:                  -5.386
REMARK INTRA:                  -0.247
REMARK UNBOUND:                -0.447
REMARK SMILES CC1=CCC[C@H](C)C(=O)C[C@H](C(C)C)C(=O)C1
REMARK SMILES IDX 8 1 9 2 6 3 7 4 5 5 4 6 3 7 2 8 1 9 10 11 11 12 15 13 16 14
REMARK SMILES IDX 17 15 12 17 13 18 14 19
REMARK H PARENT
REMARK Flexibility Score: 70.00
ROOT
ATOM      1  C   UNL     1     -14.396   9.569  29.342  1.00  0.00     0.136 C 
ATOM      2  O   UNL     1     -14.764   9.575  28.177  1.00  0.00    -0.299 OA
ENDROOT
BRANCH   1   3
ATOM      3  C   UNL     1     -15.232  10.276  30.393  1.00  0.00     0.053 C 
ATOM      4  C   UNL     1     -15.793  11.574  29.803  1.00  0.00     0.016 C 
BRANCH   3   5
ATOM      5  C   UNL     1     -16.389   9.394  30.919  1.00  0.00     0.015 C 
BRANCH   5   6
ATOM      6  C   UNL     1     -16.137   8.814  32.319  1.00  0.00     0.028 C 
BRANCH   6   7
ATOM      7  C   UNL     1     -15.943   7.317  32.284  1.00  0.00    -0.028 C 
ATOM      8  C   UNL     1     -14.792   6.659  32.555  1.00  0.00    -0.070 CG0
ATOM      9  C   UNL     1     -14.802   5.154  32.449  1.00  0.00     0.039 C 
ATOM     10  G   UNL     1     -13.517   7.347  33.013  1.00  0.00     0.000 G0
ENDBRANCH   6   7
ENDBRANCH   5   6
ENDBRANCH   3   5
ENDBRANCH   1   3
BRANCH   1  11
ATOM     11  C   UNL     1     -13.038   8.992  29.684  1.00  0.00     0.087 C 
BRANCH  11  12
ATOM     12  C   UNL     1     -12.624   9.082  31.178  1.00  0.00     0.066 C 
BRANCH  12  13
ATOM     13  C   UNL     1     -12.621   7.720  31.859  1.00  0.00     0.140 C 
ATOM     14  O   UNL     1     -11.906   6.848  31.380  1.00  0.00    -0.299 OA
BRANCH  13  15
ATOM     15  C   UNL     1     -13.509   7.349  33.025  1.00  0.00     0.106 CG0
ATOM     16  G   UNL     1     -14.786   6.678  32.549  1.00  0.00     0.000 G0
ENDBRANCH  13  15
ENDBRANCH  12  13
BRANCH  12  17
ATOM     17  C   UNL     1     -11.400  10.011  31.503  1.00  0.00    -0.006 C 
ATOM     18  C   UNL     1     -10.640   9.513  32.746  1.00  0.00     0.008 C 
ATOM     19  C   UNL     1     -11.745  11.496  31.697  1.00  0.00     0.008 C 
ENDBRANCH  12  17
ENDBRANCH  11  12
ENDBRANCH   1  11
TORSDOF 1
ENDMDL
MODEL 4
REMARK VINA RESULT:    -3.385      1.743      2.199
REMARK INTER + INTRA:          -5.613
REMARK INTER:                  -5.236
REMARK INTRA:                  -0.377
REMARK UNBOUND:                -0.447
REMARK SMILES CC1=CCC[C@H](C)C(=O)C[C@H](C(C)C)C(=O)C1
REMARK SMILES IDX 8 1 9 2 6 3 7 4 5 5 4 6 3 7 2 8 1 9 10 11 11 12 15 13 16 14
REMARK SMILES IDX 17 15 12 17 13 18 14 19
REMARK H PARENT
REMARK Flexibility Score: 70.00
ROOT
ATOM      1  C   UNL     1     -13.332   1.039  30.400  1.00  0.00     0.136 C 
ATOM      2  O   UNL     1     -14.124   0.344  29.778  1.00  0.00    -0.299 OA
ENDROOT
BRANCH   1   3
ATOM      3  C   UNL     1     -12.828   0.567  31.752  1.00  0.00     0.053 C 
ATOM      4  C   UNL     1     -11.473   1.221  32.041  1.00  0.00     0.016 C 
BRANCH   3   5
ATOM      5  C   UNL     1     -13.820   0.882  32.896  1.00  0.00     0.015 C 
BRANCH   5   6
ATOM      6  C   UNL     1     -13.341   1.996  33.840  1.00  0.00     0.028 C 
BRANCH   6   7
ATOM      7  C   UNL     1     -14.344   3.120  33.941  1.00  0.00    -0.028 C 
ATOM      8  C   UNL     1     -14.346   4.252  33.200  1.00  0.00    -0.070 CG0
ATOM      9  C   UNL     1     -15.433   5.264  33.465  1.00  0.00     0.039 C 
ATOM     10  G   UNL     1     -13.354   4.528  32.082  1.00  0.00     0.000 G0
ENDBRANCH   6   7
ENDBRANCH   5   6
ENDBRANCH   3   5
ENDBRANCH   1   3
BRANCH   1  11
ATOM     11  C   UNL     1     -12.998   2.421  29.882  1.00  0.00     0.087 C 
BRANCH  11  12
ATOM     12  C   UNL     1     -14.187   3.416  29.798  1.00  0.00     0.066 C 
BRANCH  12  13
ATOM     13  C   UNL     1     -14.008   4.609  30.728  1.00  0.00     0.140 C 
ATOM     14  O   UNL     1     -14.368   5.705  30.320  1.00  0.00    -0.299 OA
BRANCH  13  15
ATOM     15  C   UNL     1     -13.333   4.540  32.080  1.00  0.00     0.106 CG0
ATOM     16  G   UNL     1     -14.339   4.243  33.180  1.00  0.00     0.000 G0
ENDBRANCH  13  15
ENDBRANCH  12  13
BRANCH  12  17
ATOM     17  C   UNL     1     -14.713   3.748  28.356  1.00  0.00    -0.006 C 
ATOM     18  C   UNL     1     -15.947   2.898  28.005  1.00  0.00     0.008 C 
ATOM     19  C   UNL     1     -13.674   3.597  27.234  1.00  0.00     0.008 C 
ENDBRANCH  12  17
ENDBRANCH  11  12
ENDBRANCH   1  11
TORSDOF 1
ENDMDL
MODEL 5
REMARK VINA RESULT:    -3.351      2.114      4.393
REMARK INTER + INTRA:          -5.561
REMARK INTER:                  -5.308
REMARK INTRA:                  -0.253
REMARK UNBOUND:                -0.447
REMARK SMILES CC1=CCC[C@H](C)C(=O)C[C@H](C(C)C)C(=O)C1
REMARK SMILES IDX 8 1 9 2 6 3 7 4 5 5 4 6 3 7 2 8 1 9 10 11 11 12 15 13 16 14
REMARK SMILES IDX 17 15 12 17 13 18 14 19
REMARK H PARENT
REMARK Flexibility Score: 70.00
ROOT
ATOM      1  C   UNL     1     -14.708   2.650  28.787  1.00  0.00     0.136 C 
ATOM      2  O   UNL     1     -15.893   2.612  28.489  1.00  0.00    -0.299 OA
ENDROOT
BRANCH   1   3
ATOM      3  C   UNL     1     -13.851   1.411  28.599  1.00  0.00     0.053 C 
ATOM      4  C   UNL     1     -12.378   1.825  28.509  1.00  0.00     0.016 C 
BRANCH   3   5
ATOM      5  C   UNL     1     -14.040   0.383  29.739  1.00  0.00     0.015 C 
BRANCH   5   6
ATOM      6  C   UNL     1     -12.806   0.226  30.641  1.00  0.00     0.028 C 
BRANCH   6   7
ATOM      7  C   UNL     1     -13.120   0.531  32.086  1.00  0.00    -0.028 C 
ATOM      8  C   UNL     1     -12.958   1.727  32.698  1.00  0.00    -0.070 CG0
ATOM      9  C   UNL     1     -13.318   1.823  34.159  1.00  0.00     0.039 C 
ATOM     10  G   UNL     1     -12.491   2.983  31.981  1.00  0.00     0.000 G0
ENDBRANCH   6   7
ENDBRANCH   5   6
ENDBRANCH   3   5
ENDBRANCH   1   3
BRANCH   1  11
ATOM     11  C   UNL     1     -14.160   3.879  29.481  1.00  0.00     0.087 C 
BRANCH  11  12
ATOM     12  C   UNL     1     -14.671   4.120  30.928  1.00  0.00     0.066 C 
BRANCH  12  13
ATOM     13  C   UNL     1     -13.545   4.065  31.953  1.00  0.00     0.140 C 
ATOM     14  O   UNL     1     -13.458   4.991  32.749  1.00  0.00    -0.299 OA
BRANCH  13  15
ATOM     15  C   UNL     1     -12.478   2.994  31.990  1.00  0.00     0.106 CG0
ATOM     16  G   UNL     1     -12.981   1.746  32.697  1.00  0.00     0.000 G0
ENDBRANCH  13  15
ENDBRANCH  12  13
BRANCH  12  17
ATOM     17  C   UNL     1     -15.707   5.285  31.113  1.00  0.00    -0.006 C 
ATOM     18  C   UNL     1     -16.709   4.964  32.237  1.00  0.00     0.008 C 
ATOM     19  C   UNL     1     -16.491   5.665  29.847  1.00  0.00     0.008 C 
ENDBRANCH  12  17
ENDBRANCH  11  12
ENDBRANCH   1  11
TORSDOF 1
ENDMDL
MODEL 6
REMARK VINA RESULT:    -3.318      4.655      7.047
REMARK INTER + INTRA:          -5.511
REMARK INTER:                  -5.051
REMARK INTRA:                  -0.460
REMARK UNBOUND:                -0.447
REMARK SMILES CC1=CCC[C@H](C)C(=O)C[C@H](C(C)C)C(=O)C1
REMARK SMILES IDX 8 1 9 2 6 3 7 4 5 5 4 6 3 7 2 8 1 9 10 11 11 12 15 13 16 14
REMARK SMILES IDX 17 15 12 17 13 18 14 19
REMARK H PARENT
REMARK Flexibility Score: 70.00
ROOT
ATOM      1  C   UNL     1     -12.926  11.374  30.560  1.00  0.00     0.136 C 
ATOM      2  O   UNL     1     -12.043  11.935  31.193  1.00  0.00    -0.299 OA
ENDROOT
BRANCH   1   3
ATOM      3  C   UNL     1     -14.270  12.057  30.388  1.00  0.00     0.053 C 
ATOM      4  C   UNL     1     -14.913  11.584  29.080  1.00  0.00     0.016 C 
BRANCH   3   5
ATOM      5  C   UNL     1     -15.226  11.786  31.572  1.00  0.00     0.015 C 
BRANCH   5   6
ATOM      6  C   UNL     1     -16.386  10.839  31.227  1.00  0.00     0.028 C 
BRANCH   6   7
ATOM      7  C   UNL     1     -16.459   9.667  32.176  1.00  0.00    -0.028 C 
ATOM      8  C   UNL     1     -15.979   8.424  31.941  1.00  0.00    -0.070 CG0
ATOM      9  C   UNL     1     -16.165   7.384  33.018  1.00  0.00     0.039 C 
ATOM     10  G   UNL     1     -15.216   8.040  30.684  1.00  0.00     0.000 G0
ENDBRANCH   6   7
ENDBRANCH   5   6
ENDBRANCH   3   5
ENDBRANCH   1   3
BRANCH   1  11
ATOM     11  C   UNL     1     -12.710   9.948  30.098  1.00  0.00     0.087 C 
BRANCH  11  12
ATOM     12  C   UNL     1     -12.720   8.869  31.214  1.00  0.00     0.066 C 
BRANCH  12  13
ATOM     13  C   UNL     1     -13.750   7.777  30.952  1.00  0.00     0.140 C 
ATOM     14  O   UNL     1     -13.349   6.622  30.895  1.00  0.00    -0.299 OA
BRANCH  13  15
ATOM     15  C   UNL     1     -15.213   8.037  30.668  1.00  0.00     0.106 CG0
ATOM     16  G   UNL     1     -15.956   8.425  31.935  1.00  0.00     0.000 G0
ENDBRANCH  13  15
ENDBRANCH  12  13
BRANCH  12  17
ATOM     17  C   UNL     1     -11.316   8.377  31.716  1.00  0.00    -0.006 C 
ATOM     18  C   UNL     1     -10.920   9.073  33.030  1.00  0.00     0.008 C 
ATOM     19  C   UNL     1     -10.171   8.540  30.705  1.00  0.00     0.008 C 
ENDBRANCH  12  17
ENDBRANCH  11  12
ENDBRANCH   1  11
TORSDOF 1
ENDMDL
MODEL 7
REMARK VINA RESULT:    -3.296      3.992      6.496
REMARK INTER + INTRA:          -5.477
REMARK INTER:                  -4.996
REMARK INTRA:                  -0.481
REMARK UNBOUND:                -0.447
REMARK SMILES CC1=CCC[C@H](C)C(=O)C[C@H](C(C)C)C(=O)C1
REMARK SMILES IDX 8 1 9 2 6 3 7 4 5 5 4 6 3 7 2 8 1 9 10 11 11 12 15 13 16 14
REMARK SMILES IDX 17 15 12 17 13 18 14 19
REMARK H PARENT
REMARK Flexibility Score: 70.00
ROOT
ATOM      1  C   UNL     1     -12.245   9.945  30.966  1.00  0.00     0.136 C 
ATOM      2  O   UNL     1     -11.745  10.957  31.435  1.00  0.00    -0.299 OA
ENDROOT
BRANCH   1   3
ATOM      3  C   UNL     1     -13.543  10.047  30.187  1.00  0.00     0.053 C 
ATOM      4  C   UNL     1     -13.620   8.893  29.181  1.00  0.00     0.016 C 
BRANCH   3   5
ATOM      5  C   UNL     1     -14.787  10.028  31.106  1.00  0.00     0.015 C 
BRANCH   5   6
ATOM      6  C   UNL     1     -15.643   8.760  30.963  1.00  0.00     0.028 C 
BRANCH   6   7
ATOM      7  C   UNL     1     -15.849   8.066  32.287  1.00  0.00    -0.028 C 
ATOM      8  C   UNL     1     -15.102   7.049  32.776  1.00  0.00    -0.070 CG0
ATOM      9  C   UNL     1     -15.483   6.480  34.120  1.00  0.00     0.039 C 
ATOM     10  G   UNL     1     -13.874   6.495  32.074  1.00  0.00     0.000 G0
ENDBRANCH   6   7
ENDBRANCH   5   6
ENDBRANCH   3   5
ENDBRANCH   1   3
BRANCH   1  11
ATOM     11  C   UNL     1     -11.643   8.598  31.307  1.00  0.00     0.087 C 
BRANCH  11  12
ATOM     12  C   UNL     1     -11.852   8.117  32.769  1.00  0.00     0.066 C 
BRANCH  12  13
ATOM     13  C   UNL     1     -12.590   6.786  32.838  1.00  0.00     0.140 C 
ATOM     14  O   UNL     1     -12.079   5.889  33.496  1.00  0.00    -0.299 OA
BRANCH  13  15
ATOM     15  C   UNL     1     -13.858   6.475  32.075  1.00  0.00     0.106 CG0
ATOM     16  G   UNL     1     -15.075   7.053  32.778  1.00  0.00     0.000 G0
ENDBRANCH  13  15
ENDBRANCH  12  13
BRANCH  12  17
ATOM     17  C   UNL     1     -10.620   8.266  33.731  1.00  0.00    -0.006 C 
ATOM     18  C   UNL     1     -10.728   9.546  34.579  1.00  0.00     0.008 C 
ATOM     19  C   UNL     1      -9.249   8.246  33.039  1.00  0.00     0.008 C 
ENDBRANCH  12  17
ENDBRANCH  11  12
ENDBRANCH   1  11
TORSDOF 1
ENDMDL
MODEL 8
REMARK VINA RESULT:    -3.293      4.045      6.632
REMARK INTER + INTRA:          -5.472
REMARK INTER:                  -5.194
REMARK INTRA:                  -0.278
REMARK UNBOUND:                -0.447
REMARK SMILES CC1=CCC[C@H](C)C(=O)C[C@H](C(C)C)C(=O)C1
REMARK SMILES IDX 8 1 9 2 6 3 7 4 5 5 4 6 3 7 2 8 1 9 10 11 11 12 15 13 16 14
REMARK SMILES IDX 17 15 12 17 13 18 14 19
REMARK H PARENT
REMARK Flexibility Score: 70.00
ROOT
ATOM      1  C   UNL     1     -12.166   9.741  29.949  1.00  0.00     0.136 C 
ATOM      2  O   UNL     1     -11.089   9.771  29.371  1.00  0.00    -0.299 OA
ENDROOT
BRANCH   1   3
ATOM      3  C   UNL     1     -12.538  10.870  30.893  1.00  0.00     0.053 C 
ATOM      4  C   UNL     1     -11.309  11.264  31.718  1.00  0.00     0.016 C 
BRANCH   3   5
ATOM      5  C   UNL     1     -13.090  12.107  30.146  1.00  0.00     0.015 C 
BRANCH   5   6
ATOM      6  C   UNL     1     -14.532  11.935  29.644  1.00  0.00     0.028 C 
BRANCH   6   7
ATOM      7  C   UNL     1     -15.504  11.730  30.781  1.00  0.00    -0.028 C 
ATOM      8  C   UNL     1     -16.126  10.570  31.095  1.00  0.00    -0.070 CG0
ATOM      9  C   UNL     1     -17.077  10.577  32.265  1.00  0.00     0.039 C 
ATOM     10  G   UNL     1     -15.874   9.258  30.371  1.00  0.00     0.000 G0
ENDBRANCH   6   7
ENDBRANCH   5   6
ENDBRANCH   3   5
ENDBRANCH   1   3
BRANCH   1  11
ATOM     11  C   UNL     1     -13.033   8.505  29.832  1.00  0.00     0.087 C 
BRANCH  11  12
ATOM     12  C   UNL     1     -13.653   7.988  31.158  1.00  0.00     0.066 C 
BRANCH  12  13
ATOM     13  C   UNL     1     -15.151   8.252  31.235  1.00  0.00     0.140 C 
ATOM     14  O   UNL     1     -15.811   7.556  31.996  1.00  0.00    -0.299 OA
BRANCH  13  15
ATOM     15  C   UNL     1     -15.885   9.252  30.370  1.00  0.00     0.106 CG0
ATOM     16  G   UNL     1     -16.124  10.553  31.118  1.00  0.00     0.000 G0
ENDBRANCH  13  15
ENDBRANCH  12  13
BRANCH  12  17
ATOM     17  C   UNL     1     -13.184   6.567  31.636  1.00  0.00    -0.006 C 
ATOM     18  C   UNL     1     -11.843   6.647  32.386  1.00  0.00     0.008 C 
ATOM     19  C   UNL     1     -13.066   5.514  30.523  1.00  0.00     0.008 C 
ENDBRANCH  12  17
ENDBRANCH  11  12
ENDBRANCH   1  11
TORSDOF 1
ENDMDL
MODEL 9
REMARK VINA RESULT:    -3.113      2.029      4.265
REMARK INTER + INTRA:          -5.199
REMARK INTER:                  -4.809
REMARK INTRA:                  -0.389
REMARK UNBOUND:                -0.447
REMARK SMILES CC1=CCC[C@H](C)C(=O)C[C@H](C(C)C)C(=O)C1
REMARK SMILES IDX 8 1 9 2 6 3 7 4 5 5 4 6 3 7 2 8 1 9 10 11 11 12 15 13 16 14
REMARK SMILES IDX 17 15 12 17 13 18 14 19
REMARK H PARENT
REMARK Flexibility Score: 70.00
ROOT
ATOM      1  C   UNL     1     -13.609   5.225  32.494  1.00  0.00     0.136 C 
ATOM      2  O   UNL     1     -13.257   6.220  33.112  1.00  0.00    -0.299 OA
ENDROOT
BRANCH   1   3
ATOM      3  C   UNL     1     -15.088   4.973  32.266  1.00  0.00     0.053 C 
ATOM      4  C   UNL     1     -15.888   5.581  33.422  1.00  0.00     0.016 C 
BRANCH   3   5
ATOM      5  C   UNL     1     -15.585   5.551  30.920  1.00  0.00     0.015 C 
BRANCH   5   6
ATOM      6  C   UNL     1     -15.852   4.483  29.849  1.00  0.00     0.028 C 
BRANCH   6   7
ATOM      7  C   UNL     1     -14.867   4.568  28.708  1.00  0.00    -0.028 C 
ATOM      8  C   UNL     1     -13.919   3.650  28.407  1.00  0.00    -0.070 CG0
ATOM      9  C   UNL     1     -13.020   3.930  27.229  1.00  0.00     0.039 C 
ATOM     10  G   UNL     1     -13.754   2.336  29.151  1.00  0.00     0.000 G0
ENDBRANCH   6   7
ENDBRANCH   5   6
ENDBRANCH   3   5
ENDBRANCH   1   3
BRANCH   1  11
ATOM     11  C   UNL     1     -12.572   4.190  32.110  1.00  0.00     0.087 C 
BRANCH  11  12
ATOM     12  C   UNL     1     -13.128   2.798  31.706  1.00  0.00     0.066 C 
BRANCH  12  13
ATOM     13  C   UNL     1     -12.766   2.427  30.273  1.00  0.00     0.140 C 
ATOM     14  O   UNL     1     -11.579   2.284  30.007  1.00  0.00    -0.299 OA
BRANCH  13  15
ATOM     15  C   UNL     1     -13.765   2.315  29.144  1.00  0.00     0.106 CG0
ATOM     16  G   UNL     1     -13.918   3.639  28.414  1.00  0.00     0.000 G0
ENDBRANCH  13  15
ENDBRANCH  12  13
BRANCH  12  17
ATOM     17  C   UNL     1     -12.970   1.652  32.768  1.00  0.00    -0.006 C 
ATOM     18  C   UNL     1     -13.389   0.291  32.184  1.00  0.00     0.008 C 
ATOM     19  C   UNL     1     -13.728   1.880  34.086  1.00  0.00     0.008 C 
ENDBRANCH  12  17
ENDBRANCH  11  12
ENDBRANCH   1  11
TORSDOF 1
ENDMDL
