MODEL 1
REMARK VINA RESULT:    -5.560      0.000      0.000
REMARK INTER + INTRA:         -10.550
REMARK INTER:                  -8.485
REMARK INTRA:                  -2.064
REMARK UNBOUND:                -2.064
REMARK SMILES OC[C@@H]1O[C@](CO)(O[C@@H]2O[C@@H](CO)[C@@H](O)[C@@H](O)[C@@H]2O)[C@H](O)[C@@H]1O
REMARK SMILES IDX 8 1 9 2 11 3 14 4 10 5 16 6 18 7 12 8 13 9 15 11 17 13 19 15
REMARK SMILES IDX 5 17 20 18 4 19 22 20 3 21 6 22 7 23 21 25 23 27 2 29 1 30
REMARK H PARENT 13 10 15 12 17 14 19 16 7 24 21 26 23 28 1 31
REMARK Flexibility Score: inf
ROOT
ATOM      1  O   UNL     1      22.864  64.859 -26.083  1.00  0.00    -0.313 OA
ENDROOT
BRANCH   1   2
ATOM      2  C   UNL     1      24.144  64.234 -26.069  1.00  0.00     0.285 C 
ATOM      3  C   UNL     1      25.214  66.226 -26.728  1.00  0.00     0.178 C 
ATOM      4  C   UNL     1      25.576  65.688 -28.137  1.00  0.00     0.177 C 
ATOM      5  O   UNL     1      25.174  65.171 -25.778  1.00  0.00    -0.341 OA
ATOM      6  C   UNL     1      24.572  64.587 -28.541  1.00  0.00     0.179 C 
ATOM      7  C   UNL     1      24.410  63.539 -27.423  1.00  0.00     0.202 C 
BRANCH   3   8
ATOM      8  C   UNL     1      26.218  67.280 -26.247  1.00  0.00     0.191 C 
BRANCH   8   9
ATOM      9  O   UNL     1      26.641  68.073 -27.321  1.00  0.00    -0.394 OA
ATOM     10  H   UNL     1      25.904  68.712 -27.498  1.00  0.00     0.210 HD
ENDBRANCH   8   9
ENDBRANCH   3   8
BRANCH   4  11
ATOM     11  O   UNL     1      26.905  65.227 -28.197  1.00  0.00    -0.387 OA
ATOM     12  H   UNL     1      26.932  64.306 -27.830  1.00  0.00     0.211 HD
ENDBRANCH   4  11
BRANCH   6  13
ATOM     13  O   UNL     1      24.938  63.988 -29.761  1.00  0.00    -0.387 OA
ATOM     14  H   UNL     1      25.613  64.569 -30.198  1.00  0.00     0.211 HD
ENDBRANCH   6  13
BRANCH   7  15
ATOM     15  O   UNL     1      23.350  62.677 -27.747  1.00  0.00    -0.385 OA
ATOM     16  H   UNL     1      22.539  63.243 -27.839  1.00  0.00     0.211 HD
ENDBRANCH   7  15
ENDBRANCH   1   2
BRANCH   1  17
ATOM     17  C   UNL     1      22.138  64.779 -24.855  1.00  0.00     0.224 C 
ATOM     18  C   UNL     1      21.815  66.175 -24.278  1.00  0.00     0.208 C 
ATOM     19  O   UNL     1      22.997  64.145 -23.925  1.00  0.00    -0.337 OA
ATOM     20  C   UNL     1      21.868  65.935 -22.789  1.00  0.00     0.180 C 
ATOM     21  C   UNL     1      22.844  64.759 -22.661  1.00  0.00     0.179 C 
BRANCH  17  22
ATOM     22  C   UNL     1      20.878  63.871 -24.973  1.00  0.00     0.225 C 
BRANCH  22  23
ATOM     23  O   UNL     1      20.741  63.323 -26.256  1.00  0.00    -0.391 OA
ATOM     24  H   UNL     1      21.294  62.500 -26.266  1.00  0.00     0.210 HD
ENDBRANCH  22  23
ENDBRANCH  17  22
BRANCH  18  25
ATOM     25  O   UNL     1      22.805  67.097 -24.662  1.00  0.00    -0.385 OA
ATOM     26  H   UNL     1      23.484  67.114 -23.938  1.00  0.00     0.211 HD
ENDBRANCH  18  25
BRANCH  20  27
ATOM     27  O   UNL     1      22.280  67.073 -22.073  1.00  0.00    -0.387 OA
ATOM     28  H   UNL     1      21.470  67.634 -21.948  1.00  0.00     0.211 HD
ENDBRANCH  20  27
BRANCH  21  29
ATOM     29  C   UNL     1      24.231  65.131 -22.106  1.00  0.00     0.191 C 
BRANCH  29  30
ATOM     30  O   UNL     1      24.918  65.989 -22.978  1.00  0.00    -0.394 OA
ATOM     31  H   UNL     1      25.057  65.489 -23.823  1.00  0.00     0.210 HD
ENDBRANCH  29  30
ENDBRANCH  21  29
ENDBRANCH   1  17
TORSDOF 13
ENDMDL
MODEL 2
REMARK VINA RESULT:    -5.505      2.194      5.741
REMARK INTER + INTRA:         -10.466
REMARK INTER:                  -9.041
REMARK INTRA:                  -1.425
REMARK UNBOUND:                -2.064
REMARK SMILES OC[C@@H]1O[C@](CO)(O[C@@H]2O[C@@H](CO)[C@@H](O)[C@@H](O)[C@@H]2O)[C@H](O)[C@@H]1O
REMARK SMILES IDX 8 1 9 2 11 3 14 4 10 5 16 6 18 7 12 8 13 9 15 11 17 13 19 15
REMARK SMILES IDX 5 17 20 18 4 19 22 20 3 21 6 22 7 23 21 25 23 27 2 29 1 30
REMARK H PARENT 13 10 15 12 17 14 19 16 7 24 21 26 23 28 1 31
REMARK Flexibility Score: inf
ROOT
ATOM      1  O   UNL     1      22.673  64.264 -25.028  1.00  0.00    -0.313 OA
ENDROOT
BRANCH   1   2
ATOM      2  C   UNL     1      23.817  64.937 -24.510  1.00  0.00     0.285 C 
ATOM      3  C   UNL     1      23.863  63.557 -22.601  1.00  0.00     0.178 C 
ATOM      4  C   UNL     1      23.438  64.697 -21.639  1.00  0.00     0.177 C 
ATOM      5  O   UNL     1      24.603  64.072 -23.699  1.00  0.00    -0.341 OA
ATOM      6  C   UNL     1      22.640  65.761 -22.422  1.00  0.00     0.179 C 
ATOM      7  C   UNL     1      23.380  66.183 -23.707  1.00  0.00     0.202 C 
BRANCH   3   8
ATOM      8  C   UNL     1      24.715  62.500 -21.889  1.00  0.00     0.191 C 
BRANCH   8   9
ATOM      9  O   UNL     1      23.935  61.382 -21.570  1.00  0.00    -0.394 OA
ATOM     10  H   UNL     1      23.000  61.624 -21.801  1.00  0.00     0.210 HD
ENDBRANCH   8   9
ENDBRANCH   3   8
BRANCH   4  11
ATOM     11  O   UNL     1      24.542  65.261 -20.973  1.00  0.00    -0.387 OA
ATOM     12  H   UNL     1      25.061  64.526 -20.555  1.00  0.00     0.211 HD
ENDBRANCH   4  11
BRANCH   6  13
ATOM     13  O   UNL     1      22.340  66.871 -21.612  1.00  0.00    -0.387 OA
ATOM     14  H   UNL     1      21.461  66.707 -21.180  1.00  0.00     0.211 HD
ENDBRANCH   6  13
BRANCH   7  15
ATOM     15  O   UNL     1      22.536  66.993 -24.482  1.00  0.00    -0.385 OA
ATOM     16  H   UNL     1      22.133  66.407 -25.176  1.00  0.00     0.211 HD
ENDBRANCH   7  15
ENDBRANCH   1   2
BRANCH   1  17
ATOM     17  C   UNL     1      22.720  63.983 -26.428  1.00  0.00     0.224 C 
ATOM     18  C   UNL     1      21.315  63.738 -27.020  1.00  0.00     0.208 C 
ATOM     19  O   UNL     1      23.435  62.768 -26.567  1.00  0.00    -0.337 OA
ATOM     20  C   UNL     1      21.585  62.717 -28.098  1.00  0.00     0.180 C 
ATOM     21  C   UNL     1      22.834  61.992 -27.584  1.00  0.00     0.179 C 
BRANCH  17  22
ATOM     22  C   UNL     1      23.527  65.055 -27.219  1.00  0.00     0.225 C 
BRANCH  22  23
ATOM     23  O   UNL     1      22.749  66.179 -27.528  1.00  0.00    -0.391 OA
ATOM     24  H   UNL     1      23.384  66.882 -27.823  1.00  0.00     0.210 HD
ENDBRANCH  22  23
ENDBRANCH  17  22
BRANCH  18  25
ATOM     25  O   UNL     1      20.464  63.201 -26.038  1.00  0.00    -0.385 OA
ATOM     26  H   UNL     1      19.787  63.896 -25.828  1.00  0.00     0.211 HD
ENDBRANCH  18  25
BRANCH  20  27
ATOM     27  O   UNL     1      20.495  61.855 -28.310  1.00  0.00    -0.387 OA
ATOM     28  H   UNL     1      19.695  62.320 -27.951  1.00  0.00     0.211 HD
ENDBRANCH  20  27
BRANCH  21  29
ATOM     29  C   UNL     1      22.579  60.569 -27.052  1.00  0.00     0.191 C 
BRANCH  29  30
ATOM     30  O   UNL     1      21.820  60.591 -25.873  1.00  0.00    -0.394 OA
ATOM     31  H   UNL     1      20.875  60.724 -26.142  1.00  0.00     0.210 HD
ENDBRANCH  29  30
ENDBRANCH  21  29
ENDBRANCH   1  17
TORSDOF 13
ENDMDL
MODEL 3
REMARK VINA RESULT:    -5.484      1.977      4.935
REMARK INTER + INTRA:         -10.435
REMARK INTER:                  -8.875
REMARK INTRA:                  -1.560
REMARK UNBOUND:                -2.064
REMARK SMILES OC[C@@H]1O[C@](CO)(O[C@@H]2O[C@@H](CO)[C@@H](O)[C@@H](O)[C@@H]2O)[C@H](O)[C@@H]1O
REMARK SMILES IDX 8 1 9 2 11 3 14 4 10 5 16 6 18 7 12 8 13 9 15 11 17 13 19 15
REMARK SMILES IDX 5 17 20 18 4 19 22 20 3 21 6 22 7 23 21 25 23 27 2 29 1 30
REMARK H PARENT 13 10 15 12 17 14 19 16 7 24 21 26 23 28 1 31
REMARK Flexibility Score: inf
ROOT
ATOM      1  O   UNL     1      23.003  64.709 -26.163  1.00  0.00    -0.313 OA
ENDROOT
BRANCH   1   2
ATOM      2  C   UNL     1      22.724  66.101 -26.050  1.00  0.00     0.285 C 
ATOM      3  C   UNL     1      24.954  66.582 -25.465  1.00  0.00     0.178 C 
ATOM      4  C   UNL     1      24.600  66.953 -24.002  1.00  0.00     0.177 C 
ATOM      5  O   UNL     1      23.876  66.885 -26.339  1.00  0.00    -0.341 OA
ATOM      6  C   UNL     1      23.303  66.227 -23.586  1.00  0.00     0.179 C 
ATOM      7  C   UNL     1      22.191  66.422 -24.635  1.00  0.00     0.202 C 
BRANCH   3   8
ATOM      8  C   UNL     1      26.203  67.326 -25.954  1.00  0.00     0.191 C 
BRANCH   8   9
ATOM      9  O   UNL     1      26.144  67.512 -27.341  1.00  0.00    -0.394 OA
ATOM     10  H   UNL     1      27.043  67.276 -27.688  1.00  0.00     0.210 HD
ENDBRANCH   8   9
ENDBRANCH   3   8
BRANCH   4  11
ATOM     11  O   UNL     1      24.497  68.345 -23.822  1.00  0.00    -0.387 OA
ATOM     12  H   UNL     1      24.304  68.521 -22.865  1.00  0.00     0.211 HD
ENDBRANCH   4  11
BRANCH   6  13
ATOM     13  O   UNL     1      22.881  66.630 -22.306  1.00  0.00    -0.387 OA
ATOM     14  H   UNL     1      22.824  67.621 -22.300  1.00  0.00     0.211 HD
ENDBRANCH   6  13
BRANCH   7  15
ATOM     15  O   UNL     1      21.106  65.589 -24.321  1.00  0.00    -0.385 OA
ATOM     16  H   UNL     1      21.486  64.757 -23.934  1.00  0.00     0.211 HD
ENDBRANCH   7  15
ENDBRANCH   1   2
BRANCH   1  17
ATOM     17  C   UNL     1      22.715  64.136 -27.440  1.00  0.00     0.224 C 
ATOM     18  C   UNL     1      21.229  63.738 -27.578  1.00  0.00     0.208 C 
ATOM     19  O   UNL     1      23.464  62.937 -27.516  1.00  0.00    -0.337 OA
ATOM     20  C   UNL     1      21.297  62.517 -28.462  1.00  0.00     0.180 C 
ATOM     21  C   UNL     1      22.688  61.947 -28.161  1.00  0.00     0.179 C 
BRANCH  17  22
ATOM     22  C   UNL     1      23.210  65.033 -28.614  1.00  0.00     0.225 C 
BRANCH  22  23
ATOM     23  O   UNL     1      24.608  65.132 -28.649  1.00  0.00    -0.391 OA
ATOM     24  H   UNL     1      24.835  65.995 -28.216  1.00  0.00     0.210 HD
ENDBRANCH  22  23
ENDBRANCH  17  22
BRANCH  18  25
ATOM     25  O   UNL     1      20.700  63.405 -26.319  1.00  0.00    -0.385 OA
ATOM     26  H   UNL     1      19.753  63.144 -26.462  1.00  0.00     0.211 HD
ENDBRANCH  18  25
BRANCH  20  27
ATOM     27  O   UNL     1      20.259  61.605 -28.201  1.00  0.00    -0.387 OA
ATOM     28  H   UNL     1      19.779  61.946 -27.401  1.00  0.00     0.211 HD
ENDBRANCH  20  27
BRANCH  21  29
ATOM     29  C   UNL     1      22.687  60.666 -27.307  1.00  0.00     0.191 C 
BRANCH  29  30
ATOM     30  O   UNL     1      22.077  60.880 -26.063  1.00  0.00    -0.394 OA
ATOM     31  H   UNL     1      21.112  61.029 -26.237  1.00  0.00     0.210 HD
ENDBRANCH  29  30
ENDBRANCH  21  29
ENDBRANCH   1  17
TORSDOF 13
ENDMDL
MODEL 4
REMARK VINA RESULT:    -5.476      1.934      4.644
REMARK INTER + INTRA:         -10.421
REMARK INTER:                  -8.254
REMARK INTRA:                  -2.167
REMARK UNBOUND:                -2.064
REMARK SMILES OC[C@@H]1O[C@](CO)(O[C@@H]2O[C@@H](CO)[C@@H](O)[C@@H](O)[C@@H]2O)[C@H](O)[C@@H]1O
REMARK SMILES IDX 8 1 9 2 11 3 14 4 10 5 16 6 18 7 12 8 13 9 15 11 17 13 19 15
REMARK SMILES IDX 5 17 20 18 4 19 22 20 3 21 6 22 7 23 21 25 23 27 2 29 1 30
REMARK H PARENT 13 10 15 12 17 14 19 16 7 24 21 26 23 28 1 31
REMARK Flexibility Score: inf
ROOT
ATOM      1  O   UNL     1      23.478  64.909 -25.786  1.00  0.00    -0.313 OA
ENDROOT
BRANCH   1   2
ATOM      2  C   UNL     1      23.568  66.144 -26.491  1.00  0.00     0.285 C 
ATOM      3  C   UNL     1      25.873  65.849 -26.875  1.00  0.00     0.178 C 
ATOM      4  C   UNL     1      26.285  66.997 -25.918  1.00  0.00     0.177 C 
ATOM      5  O   UNL     1      24.607  66.110 -27.463  1.00  0.00    -0.341 OA
ATOM      6  C   UNL     1      25.187  67.198 -24.851  1.00  0.00     0.179 C 
ATOM      7  C   UNL     1      23.793  67.306 -25.498  1.00  0.00     0.202 C 
BRANCH   3   8
ATOM      8  C   UNL     1      26.900  65.646 -27.996  1.00  0.00     0.191 C 
BRANCH   8   9
ATOM      9  O   UNL     1      26.249  65.480 -29.225  1.00  0.00    -0.394 OA
ATOM     10  H   UNL     1      26.879  64.978 -29.804  1.00  0.00     0.210 HD
ENDBRANCH   8   9
ENDBRANCH   3   8
BRANCH   4  11
ATOM     11  O   UNL     1      26.558  68.189 -26.614  1.00  0.00    -0.387 OA
ATOM     12  H   UNL     1      27.281  68.008 -27.269  1.00  0.00     0.211 HD
ENDBRANCH   4  11
BRANCH   6  13
ATOM     13  O   UNL     1      25.467  68.310 -24.037  1.00  0.00    -0.387 OA
ATOM     14  H   UNL     1      25.066  69.112 -24.463  1.00  0.00     0.211 HD
ENDBRANCH   6  13
BRANCH   7  15
ATOM     15  O   UNL     1      22.813  67.286 -24.492  1.00  0.00    -0.385 OA
ATOM     16  H   UNL     1      22.975  66.469 -23.951  1.00  0.00     0.211 HD
ENDBRANCH   7  15
ENDBRANCH   1   2
BRANCH   1  17
ATOM     17  C   UNL     1      22.427  64.042 -26.216  1.00  0.00     0.224 C 
ATOM     18  C   UNL     1      22.967  62.718 -26.799  1.00  0.00     0.208 C 
ATOM     19  O   UNL     1      21.768  64.711 -27.275  1.00  0.00    -0.337 OA
ATOM     20  C   UNL     1      21.952  62.391 -27.868  1.00  0.00     0.180 C 
ATOM     21  C   UNL     1      21.415  63.769 -28.269  1.00  0.00     0.179 C 
BRANCH  17  22
ATOM     22  C   UNL     1      21.355  63.820 -25.108  1.00  0.00     0.225 C 
BRANCH  22  23
ATOM     23  O   UNL     1      20.867  65.030 -24.595  1.00  0.00    -0.391 OA
ATOM     24  H   UNL     1      20.932  65.689 -25.333  1.00  0.00     0.210 HD
ENDBRANCH  22  23
ENDBRANCH  17  22
BRANCH  18  25
ATOM     25  O   UNL     1      24.234  62.923 -27.372  1.00  0.00    -0.385 OA
ATOM     26  H   UNL     1      24.582  62.031 -27.635  1.00  0.00     0.211 HD
ENDBRANCH  18  25
BRANCH  20  27
ATOM     27  O   UNL     1      22.513  61.682 -28.945  1.00  0.00    -0.387 OA
ATOM     28  H   UNL     1      22.845  60.823 -28.574  1.00  0.00     0.211 HD
ENDBRANCH  20  27
BRANCH  21  29
ATOM     29  C   UNL     1      21.899  64.274 -29.641  1.00  0.00     0.191 C 
BRANCH  29  30
ATOM     30  O   UNL     1      23.256  64.628 -29.607  1.00  0.00    -0.394 OA
ATOM     31  H   UNL     1      23.658  64.307 -30.455  1.00  0.00     0.210 HD
ENDBRANCH  29  30
ENDBRANCH  21  29
ENDBRANCH   1  17
TORSDOF 13
ENDMDL
MODEL 5
REMARK VINA RESULT:    -5.467      1.356      2.936
REMARK INTER + INTRA:         -10.407
REMARK INTER:                  -9.105
REMARK INTRA:                  -1.302
REMARK UNBOUND:                -2.064
REMARK SMILES OC[C@@H]1O[C@](CO)(O[C@@H]2O[C@@H](CO)[C@@H](O)[C@@H](O)[C@@H]2O)[C@H](O)[C@@H]1O
REMARK SMILES IDX 8 1 9 2 11 3 14 4 10 5 16 6 18 7 12 8 13 9 15 11 17 13 19 15
REMARK SMILES IDX 5 17 20 18 4 19 22 20 3 21 6 22 7 23 21 25 23 27 2 29 1 30
REMARK H PARENT 13 10 15 12 17 14 19 16 7 24 21 26 23 28 1 31
REMARK Flexibility Score: inf
ROOT
ATOM      1  O   UNL     1      23.379  64.822 -25.883  1.00  0.00    -0.313 OA
ENDROOT
BRANCH   1   2
ATOM      2  C   UNL     1      22.973  65.213 -27.192  1.00  0.00     0.285 C 
ATOM      3  C   UNL     1      23.588  63.125 -28.092  1.00  0.00     0.178 C 
ATOM      4  C   UNL     1      24.786  63.704 -28.887  1.00  0.00     0.177 C 
ATOM      5  O   UNL     1      22.554  64.091 -27.960  1.00  0.00    -0.341 OA
ATOM      6  C   UNL     1      25.288  64.992 -28.199  1.00  0.00     0.179 C 
ATOM      7  C   UNL     1      24.124  65.958 -27.904  1.00  0.00     0.202 C 
BRANCH   3   8
ATOM      8  C   UNL     1      23.006  61.877 -28.767  1.00  0.00     0.191 C 
BRANCH   8   9
ATOM      9  O   UNL     1      23.979  61.259 -29.564  1.00  0.00    -0.394 OA
ATOM     10  H   UNL     1      24.504  60.678 -28.954  1.00  0.00     0.210 HD
ENDBRANCH   8   9
ENDBRANCH   3   8
BRANCH   4  11
ATOM     11  O   UNL     1      24.460  63.930 -30.239  1.00  0.00    -0.387 OA
ATOM     12  H   UNL     1      25.026  64.673 -30.574  1.00  0.00     0.211 HD
ENDBRANCH   4  11
BRANCH   6  13
ATOM     13  O   UNL     1      26.296  65.614 -28.957  1.00  0.00    -0.387 OA
ATOM     14  H   UNL     1      26.789  64.909 -29.451  1.00  0.00     0.211 HD
ENDBRANCH   6  13
BRANCH   7  15
ATOM     15  O   UNL     1      24.591  67.014 -27.105  1.00  0.00    -0.385 OA
ATOM     16  H   UNL     1      23.934  67.128 -26.369  1.00  0.00     0.211 HD
ENDBRANCH   7  15
ENDBRANCH   1   2
BRANCH   1  17
ATOM     17  C   UNL     1      22.363  64.911 -24.883  1.00  0.00     0.224 C 
ATOM     18  C   UNL     1      22.200  66.350 -24.345  1.00  0.00     0.208 C 
ATOM     19  O   UNL     1      22.806  64.121 -23.795  1.00  0.00    -0.337 OA
ATOM     20  C   UNL     1      21.820  66.121 -22.902  1.00  0.00     0.180 C 
ATOM     21  C   UNL     1      22.465  64.767 -22.585  1.00  0.00     0.179 C 
BRANCH  17  22
ATOM     22  C   UNL     1      21.016  64.288 -25.353  1.00  0.00     0.225 C 
BRANCH  22  23
ATOM     23  O   UNL     1      21.104  62.897 -25.511  1.00  0.00    -0.391 OA
ATOM     24  H   UNL     1      20.491  62.664 -26.255  1.00  0.00     0.210 HD
ENDBRANCH  22  23
ENDBRANCH  17  22
BRANCH  18  25
ATOM     25  O   UNL     1      23.423  67.038 -24.427  1.00  0.00    -0.385 OA
ATOM     26  H   UNL     1      23.481  67.420 -25.342  1.00  0.00     0.211 HD
ENDBRANCH  18  25
BRANCH  20  27
ATOM     27  O   UNL     1      22.261  67.155 -22.058  1.00  0.00    -0.387 OA
ATOM     28  H   UNL     1      21.684  67.124 -21.251  1.00  0.00     0.211 HD
ENDBRANCH  20  27
BRANCH  21  29
ATOM     29  C   UNL     1      23.711  64.844 -21.682  1.00  0.00     0.191 C 
BRANCH  29  30
ATOM     30  O   UNL     1      23.357  64.931 -20.328  1.00  0.00    -0.394 OA
ATOM     31  H   UNL     1      22.387  64.733 -20.271  1.00  0.00     0.210 HD
ENDBRANCH  29  30
ENDBRANCH  21  29
ENDBRANCH   1  17
TORSDOF 13
ENDMDL
MODEL 6
REMARK VINA RESULT:    -5.464      2.285      5.437
REMARK INTER + INTRA:         -10.403
REMARK INTER:                  -9.171
REMARK INTRA:                  -1.232
REMARK UNBOUND:                -2.064
REMARK SMILES OC[C@@H]1O[C@](CO)(O[C@@H]2O[C@@H](CO)[C@@H](O)[C@@H](O)[C@@H]2O)[C@H](O)[C@@H]1O
REMARK SMILES IDX 8 1 9 2 11 3 14 4 10 5 16 6 18 7 12 8 13 9 15 11 17 13 19 15
REMARK SMILES IDX 5 17 20 18 4 19 22 20 3 21 6 22 7 23 21 25 23 27 2 29 1 30
REMARK H PARENT 13 10 15 12 17 14 19 16 7 24 21 26 23 28 1 31
REMARK Flexibility Score: inf
ROOT
ATOM      1  O   UNL     1      22.907  64.223 -25.417  1.00  0.00    -0.313 OA
ENDROOT
BRANCH   1   2
ATOM      2  C   UNL     1      22.341  64.430 -24.127  1.00  0.00     0.285 C 
ATOM      3  C   UNL     1      24.462  64.790 -23.167  1.00  0.00     0.178 C 
ATOM      4  C   UNL     1      24.437  63.466 -22.361  1.00  0.00     0.177 C 
ATOM      5  O   UNL     1      23.148  65.301 -23.342  1.00  0.00    -0.341 OA
ATOM      6  C   UNL     1      23.515  62.450 -23.068  1.00  0.00     0.179 C 
ATOM      7  C   UNL     1      22.148  63.076 -23.408  1.00  0.00     0.202 C 
BRANCH   3   8
ATOM      8  C   UNL     1      25.314  65.861 -22.476  1.00  0.00     0.191 C 
BRANCH   8   9
ATOM      9  O   UNL     1      26.234  65.262 -21.606  1.00  0.00    -0.394 OA
ATOM     10  H   UNL     1      26.289  64.309 -21.877  1.00  0.00     0.210 HD
ENDBRANCH   8   9
ENDBRANCH   3   8
BRANCH   4  11
ATOM     11  O   UNL     1      24.053  63.673 -21.022  1.00  0.00    -0.387 OA
ATOM     12  H   UNL     1      23.342  63.019 -20.799  1.00  0.00     0.211 HD
ENDBRANCH   4  11
BRANCH   6  13
ATOM     13  O   UNL     1      23.370  61.277 -22.304  1.00  0.00    -0.387 OA
ATOM     14  H   UNL     1      22.533  61.356 -21.777  1.00  0.00     0.211 HD
ENDBRANCH   6  13
BRANCH   7  15
ATOM     15  O   UNL     1      21.423  62.191 -24.220  1.00  0.00    -0.385 OA
ATOM     16  H   UNL     1      20.525  62.092 -23.806  1.00  0.00     0.211 HD
ENDBRANCH   7  15
ENDBRANCH   1   2
BRANCH   1  17
ATOM     17  C   UNL     1      22.391  65.068 -26.447  1.00  0.00     0.224 C 
ATOM     18  C   UNL     1      21.052  64.547 -27.013  1.00  0.00     0.208 C 
ATOM     19  O   UNL     1      23.326  65.018 -27.509  1.00  0.00    -0.337 OA
ATOM     20  C   UNL     1      21.122  64.965 -28.461  1.00  0.00     0.180 C 
ATOM     21  C   UNL     1      22.629  65.005 -28.739  1.00  0.00     0.179 C 
BRANCH  17  22
ATOM     22  C   UNL     1      22.317  66.560 -26.003  1.00  0.00     0.225 C 
BRANCH  22  23
ATOM     23  O   UNL     1      23.585  67.093 -25.729  1.00  0.00    -0.391 OA
ATOM     24  H   UNL     1      23.543  68.051 -25.983  1.00  0.00     0.210 HD
ENDBRANCH  22  23
ENDBRANCH  17  22
BRANCH  18  25
ATOM     25  O   UNL     1      20.997  63.146 -26.908  1.00  0.00    -0.385 OA
ATOM     26  H   UNL     1      20.733  62.798 -27.800  1.00  0.00     0.211 HD
ENDBRANCH  18  25
BRANCH  20  27
ATOM     27  O   UNL     1      20.428  64.085 -29.310  1.00  0.00    -0.387 OA
ATOM     28  H   UNL     1      20.437  63.198 -28.864  1.00  0.00     0.211 HD
ENDBRANCH  20  27
BRANCH  21  29
ATOM     29  C   UNL     1      23.154  63.847 -29.607  1.00  0.00     0.191 C 
BRANCH  29  30
ATOM     30  O   UNL     1      23.195  64.202 -30.964  1.00  0.00    -0.394 OA
ATOM     31  H   UNL     1      24.035  63.826 -31.334  1.00  0.00     0.210 HD
ENDBRANCH  29  30
ENDBRANCH  21  29
ENDBRANCH   1  17
TORSDOF 13
ENDMDL
MODEL 7
REMARK VINA RESULT:    -5.451      2.335      5.680
REMARK INTER + INTRA:         -10.383
REMARK INTER:                  -8.129
REMARK INTRA:                  -2.254
REMARK UNBOUND:                -2.064
REMARK SMILES OC[C@@H]1O[C@](CO)(O[C@@H]2O[C@@H](CO)[C@@H](O)[C@@H](O)[C@@H]2O)[C@H](O)[C@@H]1O
REMARK SMILES IDX 8 1 9 2 11 3 14 4 10 5 16 6 18 7 12 8 13 9 15 11 17 13 19 15
REMARK SMILES IDX 5 17 20 18 4 19 22 20 3 21 6 22 7 23 21 25 23 27 2 29 1 30
REMARK H PARENT 13 10 15 12 17 14 19 16 7 24 21 26 23 28 1 31
REMARK Flexibility Score: inf
ROOT
ATOM      1  O   UNL     1      22.680  64.633 -24.920  1.00  0.00    -0.313 OA
ENDROOT
BRANCH   1   2
ATOM      2  C   UNL     1      23.914  63.923 -24.867  1.00  0.00     0.285 C 
ATOM      3  C   UNL     1      22.832  61.933 -24.218  1.00  0.00     0.178 C 
ATOM      4  C   UNL     1      23.418  61.961 -22.783  1.00  0.00     0.177 C 
ATOM      5  O   UNL     1      23.726  62.539 -25.141  1.00  0.00    -0.341 OA
ATOM      6  C   UNL     1      23.751  63.415 -22.389  1.00  0.00     0.179 C 
ATOM      7  C   UNL     1      24.577  64.116 -23.485  1.00  0.00     0.202 C 
BRANCH   3   8
ATOM      8  C   UNL     1      22.541  60.503 -24.687  1.00  0.00     0.191 C 
BRANCH   8   9
ATOM      9  O   UNL     1      21.800  60.524 -25.876  1.00  0.00    -0.394 OA
ATOM     10  H   UNL     1      21.766  59.585 -26.195  1.00  0.00     0.210 HD
ENDBRANCH   8   9
ENDBRANCH   3   8
BRANCH   4  11
ATOM     11  O   UNL     1      24.539  61.118 -22.657  1.00  0.00    -0.387 OA
ATOM     12  H   UNL     1      24.221  60.179 -22.635  1.00  0.00     0.211 HD
ENDBRANCH   4  11
BRANCH   6  13
ATOM     13  O   UNL     1      24.396  63.470 -21.141  1.00  0.00    -0.387 OA
ATOM     14  H   UNL     1      23.986  64.205 -20.615  1.00  0.00     0.211 HD
ENDBRANCH   6  13
BRANCH   7  15
ATOM     15  O   UNL     1      24.685  65.483 -23.181  1.00  0.00    -0.385 OA
ATOM     16  H   UNL     1      25.546  65.603 -22.701  1.00  0.00     0.211 HD
ENDBRANCH   7  15
ENDBRANCH   1   2
BRANCH   1  17
ATOM     17  C   UNL     1      22.398  65.262 -26.171  1.00  0.00     0.224 C 
ATOM     18  C   UNL     1      21.067  64.772 -26.783  1.00  0.00     0.208 C 
ATOM     19  O   UNL     1      23.424  64.860 -27.059  1.00  0.00    -0.337 OA
ATOM     20  C   UNL     1      21.347  64.825 -28.265  1.00  0.00     0.180 C 
ATOM     21  C   UNL     1      22.866  64.633 -28.338  1.00  0.00     0.179 C 
BRANCH  17  22
ATOM     22  C   UNL     1      22.483  66.815 -26.083  1.00  0.00     0.225 C 
BRANCH  22  23
ATOM     23  O   UNL     1      22.857  67.251 -24.804  1.00  0.00    -0.391 OA
ATOM     24  H   UNL     1      23.350  66.498 -24.388  1.00  0.00     0.210 HD
ENDBRANCH  22  23
ENDBRANCH  17  22
BRANCH  18  25
ATOM     25  O   UNL     1      20.809  63.450 -26.379  1.00  0.00    -0.385 OA
ATOM     26  H   UNL     1      20.205  63.499 -25.593  1.00  0.00     0.211 HD
ENDBRANCH  18  25
BRANCH  20  27
ATOM     27  O   UNL     1      20.632  63.850 -28.984  1.00  0.00    -0.387 OA
ATOM     28  H   UNL     1      19.726  64.225 -29.139  1.00  0.00     0.211 HD
ENDBRANCH  20  27
BRANCH  21  29
ATOM     29  C   UNL     1      23.316  63.251 -28.850  1.00  0.00     0.191 C 
BRANCH  29  30
ATOM     30  O   UNL     1      22.964  62.233 -27.952  1.00  0.00    -0.394 OA
ATOM     31  H   UNL     1      22.213  62.580 -27.403  1.00  0.00     0.210 HD
ENDBRANCH  29  30
ENDBRANCH  21  29
ENDBRANCH   1  17
TORSDOF 13
ENDMDL
MODEL 8
REMARK VINA RESULT:    -5.345      1.679      3.852
REMARK INTER + INTRA:         -10.221
REMARK INTER:                  -7.970
REMARK INTRA:                  -2.251
REMARK UNBOUND:                -2.064
REMARK SMILES OC[C@@H]1O[C@](CO)(O[C@@H]2O[C@@H](CO)[C@@H](O)[C@@H](O)[C@@H]2O)[C@H](O)[C@@H]1O
REMARK SMILES IDX 8 1 9 2 11 3 14 4 10 5 16 6 18 7 12 8 13 9 15 11 17 13 19 15
REMARK SMILES IDX 5 17 20 18 4 19 22 20 3 21 6 22 7 23 21 25 23 27 2 29 1 30
REMARK H PARENT 13 10 15 12 17 14 19 16 7 24 21 26 23 28 1 31
REMARK Flexibility Score: inf
ROOT
ATOM      1  O   UNL     1      23.837  65.682 -27.516  1.00  0.00    -0.313 OA
ENDROOT
BRANCH   1   2
ATOM      2  C   UNL     1      25.024  65.240 -26.864  1.00  0.00     0.285 C 
ATOM      3  C   UNL     1      24.693  66.736 -25.075  1.00  0.00     0.178 C 
ATOM      4  C   UNL     1      25.898  67.631 -25.464  1.00  0.00     0.177 C 
ATOM      5  O   UNL     1      24.924  65.386 -25.452  1.00  0.00    -0.341 OA
ATOM      6  C   UNL     1      26.172  67.497 -26.977  1.00  0.00     0.179 C 
ATOM      7  C   UNL     1      26.246  66.017 -27.404  1.00  0.00     0.202 C 
BRANCH   3   8
ATOM      8  C   UNL     1      24.415  66.781 -23.568  1.00  0.00     0.191 C 
BRANCH   8   9
ATOM      9  O   UNL     1      23.172  66.200 -23.287  1.00  0.00    -0.394 OA
ATOM     10  H   UNL     1      22.646  66.257 -24.127  1.00  0.00     0.210 HD
ENDBRANCH   8   9
ENDBRANCH   3   8
BRANCH   4  11
ATOM     11  O   UNL     1      27.043  67.334 -24.700  1.00  0.00    -0.387 OA
ATOM     12  H   UNL     1      27.522  66.585 -25.139  1.00  0.00     0.211 HD
ENDBRANCH   4  11
BRANCH   6  13
ATOM     13  O   UNL     1      27.332  68.200 -27.349  1.00  0.00    -0.387 OA
ATOM     14  H   UNL     1      27.282  69.107 -26.951  1.00  0.00     0.211 HD
ENDBRANCH   6  13
BRANCH   7  15
ATOM     15  O   UNL     1      26.294  65.941 -28.804  1.00  0.00    -0.385 OA
ATOM     16  H   UNL     1      25.410  66.246 -29.139  1.00  0.00     0.211 HD
ENDBRANCH   7  15
ENDBRANCH   1   2
BRANCH   1  17
ATOM     17  C   UNL     1      22.882  64.656 -27.794  1.00  0.00     0.224 C 
ATOM     18  C   UNL     1      21.546  64.888 -27.055  1.00  0.00     0.208 C 
ATOM     19  O   UNL     1      23.426  63.455 -27.279  1.00  0.00    -0.337 OA
ATOM     20  C   UNL     1      21.080  63.482 -26.770  1.00  0.00     0.180 C 
ATOM     21  C   UNL     1      22.390  62.689 -26.699  1.00  0.00     0.179 C 
BRANCH  17  22
ATOM     22  C   UNL     1      22.692  64.427 -29.323  1.00  0.00     0.225 C 
BRANCH  22  23
ATOM     23  O   UNL     1      23.916  64.353 -30.002  1.00  0.00    -0.391 OA
ATOM     24  H   UNL     1      24.544  63.890 -29.391  1.00  0.00     0.210 HD
ENDBRANCH  22  23
ENDBRANCH  17  22
BRANCH  18  25
ATOM     25  O   UNL     1      21.774  65.583 -25.854  1.00  0.00    -0.385 OA
ATOM     26  H   UNL     1      21.198  66.392 -25.872  1.00  0.00     0.211 HD
ENDBRANCH  18  25
BRANCH  20  27
ATOM     27  O   UNL     1      20.318  63.395 -25.591  1.00  0.00    -0.387 OA
ATOM     28  H   UNL     1      19.860  64.270 -25.487  1.00  0.00     0.211 HD
ENDBRANCH  20  27
BRANCH  21  29
ATOM     29  C   UNL     1      22.807  62.262 -25.280  1.00  0.00     0.191 C 
BRANCH  29  30
ATOM     30  O   UNL     1      23.087  63.374 -24.472  1.00  0.00    -0.394 OA
ATOM     31  H   UNL     1      22.664  64.159 -24.907  1.00  0.00     0.210 HD
ENDBRANCH  29  30
ENDBRANCH  21  29
ENDBRANCH   1  17
TORSDOF 13
ENDMDL
MODEL 9
REMARK VINA RESULT:    -5.330      2.318      5.321
REMARK INTER + INTRA:         -10.199
REMARK INTER:                  -8.190
REMARK INTRA:                  -2.009
REMARK UNBOUND:                -2.064
REMARK SMILES OC[C@@H]1O[C@](CO)(O[C@@H]2O[C@@H](CO)[C@@H](O)[C@@H](O)[C@@H]2O)[C@H](O)[C@@H]1O
REMARK SMILES IDX 8 1 9 2 11 3 14 4 10 5 16 6 18 7 12 8 13 9 15 11 17 13 19 15
REMARK SMILES IDX 5 17 20 18 4 19 22 20 3 21 6 22 7 23 21 25 23 27 2 29 1 30
REMARK H PARENT 13 10 15 12 17 14 19 16 7 24 21 26 23 28 1 31
REMARK Flexibility Score: inf
ROOT
ATOM      1  O   UNL     1      23.334  62.444 -25.700  1.00  0.00    -0.313 OA
ENDROOT
BRANCH   1   2
ATOM      2  C   UNL     1      22.331  62.853 -24.775  1.00  0.00     0.285 C 
ATOM      3  C   UNL     1      23.678  64.610 -23.970  1.00  0.00     0.178 C 
ATOM      4  C   UNL     1      23.904  63.943 -22.589  1.00  0.00     0.177 C 
ATOM      5  O   UNL     1      22.413  64.248 -24.506  1.00  0.00    -0.341 OA
ATOM      6  C   UNL     1      23.754  62.413 -22.724  1.00  0.00     0.179 C 
ATOM      7  C   UNL     1      22.456  62.041 -23.466  1.00  0.00     0.202 C 
BRANCH   3   8
ATOM      8  C   UNL     1      23.751  66.139 -23.883  1.00  0.00     0.191 C 
BRANCH   8   9
ATOM      9  O   UNL     1      22.570  66.710 -24.375  1.00  0.00    -0.394 OA
ATOM     10  H   UNL     1      21.938  66.734 -23.610  1.00  0.00     0.210 HD
ENDBRANCH   8   9
ENDBRANCH   3   8
BRANCH   4  11
ATOM     11  O   UNL     1      23.041  64.465 -21.606  1.00  0.00    -0.387 OA
ATOM     12  H   UNL     1      22.108  64.243 -21.862  1.00  0.00     0.211 HD
ENDBRANCH   4  11
BRANCH   6  13
ATOM     13  O   UNL     1      23.832  61.781 -21.470  1.00  0.00    -0.387 OA
ATOM     14  H   UNL     1      24.386  62.349 -20.874  1.00  0.00     0.211 HD
ENDBRANCH   6  13
BRANCH   7  15
ATOM     15  O   UNL     1      22.458  60.665 -23.742  1.00  0.00    -0.385 OA
ATOM     16  H   UNL     1      23.254  60.488 -24.310  1.00  0.00     0.211 HD
ENDBRANCH   7  15
ENDBRANCH   1   2
BRANCH   1  17
ATOM     17  C   UNL     1      22.886  62.288 -27.048  1.00  0.00     0.224 C 
ATOM     18  C   UNL     1      23.792  63.031 -28.053  1.00  0.00     0.208 C 
ATOM     19  O   UNL     1      21.613  62.904 -27.118  1.00  0.00    -0.337 OA
ATOM     20  C   UNL     1      22.816  63.461 -29.121  1.00  0.00     0.180 C 
ATOM     21  C   UNL     1      21.493  63.578 -28.355  1.00  0.00     0.179 C 
BRANCH  17  22
ATOM     22  C   UNL     1      22.666  60.793 -27.427  1.00  0.00     0.225 C 
BRANCH  22  23
ATOM     23  O   UNL     1      21.694  60.182 -26.622  1.00  0.00    -0.391 OA
ATOM     24  H   UNL     1      21.181  59.577 -27.218  1.00  0.00     0.210 HD
ENDBRANCH  22  23
ENDBRANCH  17  22
BRANCH  18  25
ATOM     25  O   UNL     1      24.375  64.154 -27.439  1.00  0.00    -0.385 OA
ATOM     26  H   UNL     1      23.825  64.941 -27.691  1.00  0.00     0.211 HD
ENDBRANCH  18  25
BRANCH  20  27
ATOM     27  O   UNL     1      23.198  64.660 -29.749  1.00  0.00    -0.387 OA
ATOM     28  H   UNL     1      22.890  64.594 -30.691  1.00  0.00     0.211 HD
ENDBRANCH  20  27
BRANCH  21  29
ATOM     29  C   UNL     1      21.023  65.023 -28.101  1.00  0.00     0.191 C 
BRANCH  29  30
ATOM     30  O   UNL     1      21.777  65.638 -27.092  1.00  0.00    -0.394 OA
ATOM     31  H   UNL     1      22.730  65.561 -27.358  1.00  0.00     0.210 HD
ENDBRANCH  29  30
ENDBRANCH  21  29
ENDBRANCH   1  17
TORSDOF 13
ENDMDL
