MODEL 1
REMARK VINA RESULT:    -5.838      0.000      0.000
REMARK INTER + INTRA:          -6.254
REMARK INTER:                  -6.180
REMARK INTRA:                  -0.074
REMARK UNBOUND:                -0.074
REMARK SMILES CC1=C[C@@H]2C(=C(C)CC[C@@H]2C(C)C)CC1
REMARK SMILES IDX 1 1 2 2 3 3 4 4 10 5 9 6 8 7 6 8 5 9 14 10 15 11 7 12 11 13
REMARK SMILES IDX 12 14 13 15
REMARK H PARENT
REMARK Flexibility Score: inf
ROOT
ATOM      1  C   UNL     1     163.575 168.858 203.144  1.00  0.00     0.039 C 
ATOM      2  C   UNL     1     163.947 168.934 201.688  1.00  0.00    -0.076 C 
ATOM      3  C   UNL     1     164.914 169.788 201.299  1.00  0.00    -0.020 C 
ATOM      4  C   UNL     1     165.334 169.965 199.854  1.00  0.00     0.041 C 
ATOM      5  C   UNL     1     166.870 169.859 199.639  1.00  0.00     0.003 C 
ATOM      6  C   UNL     1     167.112 170.345 198.192  1.00  0.00     0.009 C 
ATOM      7  C   UNL     1     166.406 169.447 197.163  1.00  0.00     0.031 C 
ATOM      8  C   UNL     1     165.024 168.960 197.583  1.00  0.00    -0.073 C 
ATOM      9  C   UNL     1     164.569 169.097 198.865  1.00  0.00    -0.064 C 
ATOM     10  C   UNL     1     163.208 168.598 199.308  1.00  0.00     0.036 C 
ATOM     11  C   UNL     1     163.310 167.982 200.702  1.00  0.00     0.035 C 
ATOM     12  C   UNL     1     164.228 168.217 196.537  1.00  0.00     0.039 C 
ENDROOT
BRANCH   5  13
ATOM     13  C   UNL     1     167.489 168.436 199.916  1.00  0.00    -0.013 C 
ATOM     14  C   UNL     1     168.763 168.193 199.080  1.00  0.00     0.007 C 
ATOM     15  C   UNL     1     167.838 168.221 201.401  1.00  0.00     0.007 C 
ENDBRANCH   5  13
TORSDOF 1
ENDMDL
MODEL 2
REMARK VINA RESULT:    -5.834      5.440      7.125
REMARK INTER + INTRA:          -6.249
REMARK INTER:                  -6.174
REMARK INTRA:                  -0.075
REMARK UNBOUND:                -0.074
REMARK SMILES CC1=C[C@@H]2C(=C(C)CC[C@@H]2C(C)C)CC1
REMARK SMILES IDX 1 1 2 2 3 3 4 4 10 5 9 6 8 7 6 8 5 9 14 10 15 11 7 12 11 13
REMARK SMILES IDX 12 14 13 15
REMARK H PARENT
REMARK Flexibility Score: inf
ROOT
ATOM      1  C   UNL     1     168.455 163.149 203.139  1.00  0.00     0.039 C 
ATOM      2  C   UNL     1     168.080 163.067 201.685  1.00  0.00    -0.076 C 
ATOM      3  C   UNL     1     167.103 162.221 201.303  1.00  0.00    -0.020 C 
ATOM      4  C   UNL     1     166.679 162.039 199.860  1.00  0.00     0.041 C 
ATOM      5  C   UNL     1     165.144 162.161 199.646  1.00  0.00     0.003 C 
ATOM      6  C   UNL     1     164.894 161.668 198.203  1.00  0.00     0.009 C 
ATOM      7  C   UNL     1     165.609 162.551 197.167  1.00  0.00     0.031 C 
ATOM      8  C   UNL     1     166.997 163.025 197.582  1.00  0.00    -0.073 C 
ATOM      9  C   UNL     1     167.452 162.891 198.863  1.00  0.00    -0.064 C 
ATOM     10  C   UNL     1     168.819 163.379 199.301  1.00  0.00     0.036 C 
ATOM     11  C   UNL     1     168.726 164.005 200.692  1.00  0.00     0.035 C 
ATOM     12  C   UNL     1     167.799 163.753 196.530  1.00  0.00     0.039 C 
ENDROOT
BRANCH   5  13
ATOM     13  C   UNL     1     164.541 163.593 199.914  1.00  0.00    -0.013 C 
ATOM     14  C   UNL     1     163.265 163.842 199.084  1.00  0.00     0.007 C 
ATOM     15  C   UNL     1     164.203 163.824 201.400  1.00  0.00     0.007 C 
ENDBRANCH   5  13
TORSDOF 1
ENDMDL
MODEL 3
REMARK VINA RESULT:    -5.563      5.270      6.934
REMARK INTER + INTRA:          -5.963
REMARK INTER:                  -5.874
REMARK INTRA:                  -0.089
REMARK UNBOUND:                -0.074
REMARK SMILES CC1=C[C@@H]2C(=C(C)CC[C@@H]2C(C)C)CC1
REMARK SMILES IDX 1 1 2 2 3 3 4 4 10 5 9 6 8 7 6 8 5 9 14 10 15 11 7 12 11 13
REMARK SMILES IDX 12 14 13 15
REMARK H PARENT
REMARK Flexibility Score: inf
ROOT
ATOM      1  C   UNL     1     163.241 162.010 198.946  1.00  0.00     0.039 C 
ATOM      2  C   UNL     1     164.596 162.341 199.510  1.00  0.00    -0.076 C 
ATOM      3  C   UNL     1     165.699 162.004 198.813  1.00  0.00    -0.020 C 
ATOM      4  C   UNL     1     167.107 162.260 199.311  1.00  0.00     0.041 C 
ATOM      5  C   UNL     1     168.010 162.980 198.271  1.00  0.00     0.003 C 
ATOM      6  C   UNL     1     169.442 162.889 198.844  1.00  0.00     0.009 C 
ATOM      7  C   UNL     1     169.565 163.618 200.192  1.00  0.00     0.031 C 
ATOM      8  C   UNL     1     168.363 163.458 201.115  1.00  0.00    -0.073 C 
ATOM      9  C   UNL     1     167.180 162.932 200.675  1.00  0.00    -0.064 C 
ATOM     10  C   UNL     1     165.965 162.788 201.571  1.00  0.00     0.036 C 
ATOM     11  C   UNL     1     164.700 163.138 200.790  1.00  0.00     0.035 C 
ATOM     12  C   UNL     1     168.510 164.015 202.510  1.00  0.00     0.039 C 
ENDROOT
BRANCH   5  13
ATOM     13  C   UNL     1     167.586 164.458 197.923  1.00  0.00    -0.013 C 
ATOM     14  C   UNL     1     168.730 165.238 197.243  1.00  0.00     0.007 C 
ATOM     15  C   UNL     1     166.349 164.519 197.006  1.00  0.00     0.007 C 
ENDBRANCH   5  13
TORSDOF 1
ENDMDL
MODEL 4
REMARK VINA RESULT:    -5.560      1.211      4.387
REMARK INTER + INTRA:          -5.959
REMARK INTER:                  -5.873
REMARK INTRA:                  -0.087
REMARK UNBOUND:                -0.074
REMARK SMILES CC1=C[C@@H]2C(=C(C)CC[C@@H]2C(C)C)CC1
REMARK SMILES IDX 1 1 2 2 3 3 4 4 10 5 9 6 8 7 6 8 5 9 14 10 15 11 7 12 11 13
REMARK SMILES IDX 12 14 13 15
REMARK H PARENT
REMARK Flexibility Score: inf
ROOT
ATOM      1  C   UNL     1     168.749 170.062 198.892  1.00  0.00     0.039 C 
ATOM      2  C   UNL     1     167.392 169.723 199.444  1.00  0.00    -0.076 C 
ATOM      3  C   UNL     1     166.293 170.037 198.731  1.00  0.00    -0.020 C 
ATOM      4  C   UNL     1     164.882 169.771 199.216  1.00  0.00     0.041 C 
ATOM      5  C   UNL     1     164.000 169.026 198.176  1.00  0.00     0.003 C 
ATOM      6  C   UNL     1     162.560 169.108 198.731  1.00  0.00     0.009 C 
ATOM      7  C   UNL     1     162.430 168.396 200.088  1.00  0.00     0.031 C 
ATOM      8  C   UNL     1     163.620 168.583 201.022  1.00  0.00    -0.073 C 
ATOM      9  C   UNL     1     164.801 169.117 200.588  1.00  0.00    -0.064 C 
ATOM     10  C   UNL     1     166.004 169.287 201.496  1.00  0.00     0.036 C 
ATOM     11  C   UNL     1     167.282 168.943 200.734  1.00  0.00     0.035 C 
ATOM     12  C   UNL     1     163.464 168.043 202.423  1.00  0.00     0.039 C 
ENDROOT
BRANCH   5  13
ATOM     13  C   UNL     1     164.446 167.548 197.852  1.00  0.00    -0.013 C 
ATOM     14  C   UNL     1     163.320 166.747 197.167  1.00  0.00     0.007 C 
ATOM     15  C   UNL     1     165.696 167.490 196.954  1.00  0.00     0.007 C 
ENDBRANCH   5  13
TORSDOF 1
ENDMDL
MODEL 5
REMARK VINA RESULT:    -5.406      5.157      6.819
REMARK INTER + INTRA:          -5.796
REMARK INTER:                  -5.709
REMARK INTRA:                  -0.087
REMARK UNBOUND:                -0.074
REMARK SMILES CC1=C[C@@H]2C(=C(C)CC[C@@H]2C(C)C)CC1
REMARK SMILES IDX 1 1 2 2 3 3 4 4 10 5 9 6 8 7 6 8 5 9 14 10 15 11 7 12 11 13
REMARK SMILES IDX 12 14 13 15
REMARK H PARENT
REMARK Flexibility Score: inf
ROOT
ATOM      1  C   UNL     1     165.939 162.478 204.118  1.00  0.00     0.039 C 
ATOM      2  C   UNL     1     166.814 163.067 203.046  1.00  0.00    -0.076 C 
ATOM      3  C   UNL     1     167.315 162.263 202.088  1.00  0.00    -0.020 C 
ATOM      4  C   UNL     1     168.234 162.753 200.988  1.00  0.00     0.041 C 
ATOM      5  C   UNL     1     167.778 162.327 199.564  1.00  0.00     0.003 C 
ATOM      6  C   UNL     1     168.968 162.664 198.638  1.00  0.00     0.009 C 
ATOM      7  C   UNL     1     169.275 164.171 198.628  1.00  0.00     0.031 C 
ATOM      8  C   UNL     1     169.144 164.857 199.983  1.00  0.00    -0.073 C 
ATOM      9  C   UNL     1     168.556 164.240 201.051  1.00  0.00    -0.064 C 
ATOM     10  C   UNL     1     168.394 164.915 202.399  1.00  0.00     0.036 C 
ATOM     11  C   UNL     1     167.033 164.562 202.996  1.00  0.00     0.035 C 
ATOM     12  C   UNL     1     169.597 166.296 200.052  1.00  0.00     0.039 C 
ENDROOT
BRANCH   5  13
ATOM     13  C   UNL     1     166.423 162.969 199.074  1.00  0.00    -0.013 C 
ATOM     14  C   UNL     1     166.331 163.005 197.535  1.00  0.00     0.007 C 
ATOM     15  C   UNL     1     165.187 162.226 199.615  1.00  0.00     0.007 C 
ENDBRANCH   5  13
TORSDOF 1
ENDMDL
MODEL 6
REMARK VINA RESULT:    -5.374      1.460      3.169
REMARK INTER + INTRA:          -5.762
REMARK INTER:                  -5.688
REMARK INTRA:                  -0.074
REMARK UNBOUND:                -0.074
REMARK SMILES CC1=C[C@@H]2C(=C(C)CC[C@@H]2C(C)C)CC1
REMARK SMILES IDX 1 1 2 2 3 3 4 4 10 5 9 6 8 7 6 8 5 9 14 10 15 11 7 12 11 13
REMARK SMILES IDX 12 14 13 15
REMARK H PARENT
REMARK Flexibility Score: inf
ROOT
ATOM      1  C   UNL     1     165.972 169.433 204.184  1.00  0.00     0.039 C 
ATOM      2  C   UNL     1     165.107 168.857 203.096  1.00  0.00    -0.076 C 
ATOM      3  C   UNL     1     164.602 169.675 202.153  1.00  0.00    -0.020 C 
ATOM      4  C   UNL     1     163.691 169.199 201.039  1.00  0.00     0.041 C 
ATOM      5  C   UNL     1     164.148 169.659 199.627  1.00  0.00     0.003 C 
ATOM      6  C   UNL     1     162.965 169.328 198.690  1.00  0.00     0.009 C 
ATOM      7  C   UNL     1     162.675 167.819 198.647  1.00  0.00     0.031 C 
ATOM      8  C   UNL     1     162.808 167.106 199.988  1.00  0.00    -0.073 C 
ATOM      9  C   UNL     1     163.386 167.707 201.071  1.00  0.00    -0.064 C 
ATOM     10  C   UNL     1     163.550 167.006 202.405  1.00  0.00     0.036 C 
ATOM     11  C   UNL     1     164.905 167.361 203.014  1.00  0.00     0.035 C 
ATOM     12  C   UNL     1     162.370 165.662 200.025  1.00  0.00     0.039 C 
ENDROOT
BRANCH   5  13
ATOM     13  C   UNL     1     165.511 169.042 199.129  1.00  0.00    -0.013 C 
ATOM     14  C   UNL     1     165.573 168.956 197.590  1.00  0.00     0.007 C 
ATOM     15  C   UNL     1     166.736 169.840 199.617  1.00  0.00     0.007 C 
ENDBRANCH   5  13
TORSDOF 1
ENDMDL
MODEL 7
REMARK VINA RESULT:    -5.326      5.298      6.875
REMARK INTER + INTRA:          -5.711
REMARK INTER:                  -5.619
REMARK INTRA:                  -0.093
REMARK UNBOUND:                -0.074
REMARK SMILES CC1=C[C@@H]2C(=C(C)CC[C@@H]2C(C)C)CC1
REMARK SMILES IDX 1 1 2 2 3 3 4 4 10 5 9 6 8 7 6 8 5 9 14 10 15 11 7 12 11 13
REMARK SMILES IDX 12 14 13 15
REMARK H PARENT
REMARK Flexibility Score: inf
ROOT
ATOM      1  C   UNL     1     162.161 163.683 197.758  1.00  0.00     0.039 C 
ATOM      2  C   UNL     1     163.154 163.492 198.872  1.00  0.00    -0.076 C 
ATOM      3  C   UNL     1     164.105 162.545 198.751  1.00  0.00    -0.020 C 
ATOM      4  C   UNL     1     165.127 162.250 199.830  1.00  0.00     0.041 C 
ATOM      5  C   UNL     1     166.590 162.224 199.307  1.00  0.00     0.003 C 
ATOM      6  C   UNL     1     167.426 161.636 200.466  1.00  0.00     0.009 C 
ATOM      7  C   UNL     1     167.366 162.524 201.720  1.00  0.00     0.031 C 
ATOM      8  C   UNL     1     166.001 163.140 202.000  1.00  0.00    -0.073 C 
ATOM      9  C   UNL     1     164.994 163.114 201.076  1.00  0.00    -0.064 C 
ATOM     10  C   UNL     1     163.637 163.743 201.327  1.00  0.00     0.036 C 
ATOM     11  C   UNL     1     163.141 164.431 200.056  1.00  0.00     0.035 C 
ATOM     12  C   UNL     1     165.855 163.880 203.308  1.00  0.00     0.039 C 
ENDROOT
BRANCH   5  13
ATOM     13  C   UNL     1     167.145 163.609 198.796  1.00  0.00    -0.013 C 
ATOM     14  C   UNL     1     168.686 163.631 198.760  1.00  0.00     0.007 C 
ATOM     15  C   UNL     1     166.624 163.975 197.393  1.00  0.00     0.007 C 
ENDBRANCH   5  13
TORSDOF 1
ENDMDL
MODEL 8
REMARK VINA RESULT:    -5.313      1.167      4.894
REMARK INTER + INTRA:          -5.698
REMARK INTER:                  -5.607
REMARK INTRA:                  -0.092
REMARK UNBOUND:                -0.074
REMARK SMILES CC1=C[C@@H]2C(=C(C)CC[C@@H]2C(C)C)CC1
REMARK SMILES IDX 1 1 2 2 3 3 4 4 10 5 9 6 8 7 6 8 5 9 14 10 15 11 7 12 11 13
REMARK SMILES IDX 12 14 13 15
REMARK H PARENT
REMARK Flexibility Score: inf
ROOT
ATOM      1  C   UNL     1     169.787 168.281 197.744  1.00  0.00     0.039 C 
ATOM      2  C   UNL     1     168.803 168.485 198.863  1.00  0.00    -0.076 C 
ATOM      3  C   UNL     1     167.854 169.434 198.742  1.00  0.00    -0.020 C 
ATOM      4  C   UNL     1     166.841 169.741 199.826  1.00  0.00     0.041 C 
ATOM      5  C   UNL     1     165.374 169.767 199.313  1.00  0.00     0.003 C 
ATOM      6  C   UNL     1     164.549 170.367 200.473  1.00  0.00     0.009 C 
ATOM      7  C   UNL     1     164.615 169.489 201.734  1.00  0.00     0.031 C 
ATOM      8  C   UNL     1     165.981 168.871 202.009  1.00  0.00    -0.073 C 
ATOM      9  C   UNL     1     166.981 168.886 201.078  1.00  0.00    -0.064 C 
ATOM     10  C   UNL     1     168.338 168.255 201.324  1.00  0.00     0.036 C 
ATOM     11  C   UNL     1     168.822 167.556 200.055  1.00  0.00     0.035 C 
ATOM     12  C   UNL     1     166.134 168.142 203.322  1.00  0.00     0.039 C 
ENDROOT
BRANCH   5  13
ATOM     13  C   UNL     1     164.812 168.380 198.818  1.00  0.00    -0.013 C 
ATOM     14  C   UNL     1     163.270 168.354 198.817  1.00  0.00     0.007 C 
ATOM     15  C   UNL     1     165.302 168.013 197.404  1.00  0.00     0.007 C 
ENDBRANCH   5  13
TORSDOF 1
ENDMDL
MODEL 9
REMARK VINA RESULT:    -5.295      1.446      2.352
REMARK INTER + INTRA:          -5.679
REMARK INTER:                  -5.586
REMARK INTRA:                  -0.093
REMARK UNBOUND:                -0.074
REMARK SMILES CC1=C[C@@H]2C(=C(C)CC[C@@H]2C(C)C)CC1
REMARK SMILES IDX 1 1 2 2 3 3 4 4 10 5 9 6 8 7 6 8 5 9 14 10 15 11 7 12 11 13
REMARK SMILES IDX 12 14 13 15
REMARK H PARENT
REMARK Flexibility Score: inf
ROOT
ATOM      1  C   UNL     1     162.245 168.639 199.665  1.00  0.00     0.039 C 
ATOM      2  C   UNL     1     163.604 168.746 199.030  1.00  0.00    -0.076 C 
ATOM      3  C   UNL     1     164.532 169.545 199.592  1.00  0.00    -0.020 C 
ATOM      4  C   UNL     1     165.916 169.750 199.010  1.00  0.00     0.041 C 
ATOM      5  C   UNL     1     167.059 169.546 200.043  1.00  0.00     0.003 C 
ATOM      6  C   UNL     1     168.335 170.070 199.347  1.00  0.00     0.009 C 
ATOM      7  C   UNL     1     168.666 169.264 198.080  1.00  0.00     0.031 C 
ATOM      8  C   UNL     1     167.454 168.859 197.248  1.00  0.00    -0.073 C 
ATOM      9  C   UNL     1     166.179 168.977 197.725  1.00  0.00    -0.064 C 
ATOM     10  C   UNL     1     164.963 168.556 196.922  1.00  0.00     0.036 C 
ATOM     11  C   UNL     1     163.945 167.880 197.840  1.00  0.00     0.035 C 
ATOM     12  C   UNL     1     167.743 168.215 195.913  1.00  0.00     0.039 C 
ENDROOT
BRANCH   5  13
ATOM     13  C   UNL     1     167.220 168.073 200.583  1.00  0.00    -0.013 C 
ATOM     14  C   UNL     1     168.617 167.836 201.192  1.00  0.00     0.007 C 
ATOM     15  C   UNL     1     166.163 167.712 201.644  1.00  0.00     0.007 C 
ENDBRANCH   5  13
TORSDOF 1
ENDMDL
