MODEL 1
REMARK VINA RESULT:    -3.514      0.000      0.000
REMARK INTER + INTRA:          -8.601
REMARK INTER:                  -6.185
REMARK INTRA:                  -2.416
REMARK UNBOUND:                -2.416
REMARK SMILES COc1cc(-c2[o+]c3cc(O)cc(O[C@H]4O[C@@H](CO)[C@@H](O)[C@@H](O)[C@@H]4O)c3cc2O[C@H]2O[C@H](CO)[C@H](O)[C@H](O)[C@@H]2O)ccc1O
REMARK SMILES IDX 6 1 28 2 27 3 26 4 13 5 12 6 10 7 9 8 8 9 7 10 5 11 3 12
REMARK SMILES IDX 43 13 4 14 42 15 41 16 2 17 1 18 44 19 29 21 30 22 39 23
REMARK SMILES IDX 31 24 37 25 32 26 35 27 40 28 38 30 33 32 34 33 36 35 14 37
REMARK SMILES IDX 15 38 24 39 16 40 22 41 17 42 20 43 25 44 23 46 18 48 19 49
REMARK SMILES IDX 21 51 11 53
REMARK H PARENT 44 20 40 29 38 31 34 34 36 36 25 45 23 47 19 50 21 52 11 54
REMARK Flexibility Score: inf
ROOT
ATOM      1  C   UNL     1      14.218  -0.218   3.602  1.00  0.00     0.402 A 
ATOM      2  C   UNL     1      14.058  -0.117   2.202  1.00  0.00     0.229 A 
ATOM      3  C   UNL     1      12.793  -0.392   1.661  1.00  0.00     0.079 A 
ATOM      4  C   UNL     1      11.712  -0.679   2.502  1.00  0.00     0.126 A 
ATOM      5  C   UNL     1      10.418  -0.895   1.990  1.00  0.00     0.143 A 
ATOM      6  C   UNL     1       9.351  -1.077   2.896  1.00  0.00     0.094 A 
ATOM      7  C   UNL     1       9.575  -1.033   4.276  1.00  0.00     0.128 A 
ATOM      8  C   UNL     1      10.872  -0.862   4.770  1.00  0.00     0.162 A 
ATOM      9  C   UNL     1      11.944  -0.688   3.890  1.00  0.00     0.368 A 
ATOM     10  O   UNL     1      13.162  -0.495   4.368  1.00  0.00    -0.202 OA
ENDROOT
BRANCH   1  11
ATOM     11  C   UNL     1      15.523  -0.046   4.275  1.00  0.00     0.087 A 
ATOM     12  C   UNL     1      17.134   1.427   5.378  1.00  0.00     0.161 A 
ATOM     13  C   UNL     1      17.993   0.330   5.551  1.00  0.00     0.157 A 
ATOM     14  C   UNL     1      15.894   1.225   4.735  1.00  0.00     0.068 A 
ATOM     15  C   UNL     1      17.640  -0.926   5.062  1.00  0.00     0.051 A 
ATOM     16  C   UNL     1      16.418  -1.113   4.418  1.00  0.00     0.022 A 
BRANCH  12  17
ATOM     17  O   UNL     1      17.537   2.686   5.838  1.00  0.00    -0.493 OA
ATOM     18  C   UNL     1      17.703   3.834   5.008  1.00  0.00     0.278 C 
ENDBRANCH  12  17
BRANCH  13  19
ATOM     19  O   UNL     1      19.222   0.477   6.185  1.00  0.00    -0.504 OA
ATOM     20  H   UNL     1      19.986  -0.185   6.052  1.00  0.00     0.293 HD
ENDBRANCH  13  19
ENDBRANCH   1  11
BRANCH   2  21
ATOM     21  O   UNL     1      15.141   0.271   1.388  1.00  0.00    -0.452 OA
BRANCH  21  22
ATOM     22  C   UNL     1      15.597   1.622   1.229  1.00  0.00     0.339 C 
ATOM     23  C   UNL     1      14.418   2.566   0.935  1.00  0.00     0.214 C 
ATOM     24  O   UNL     1      16.597   1.716   0.227  1.00  0.00    -0.332 OA
ATOM     25  C   UNL     1      13.866   2.306  -0.482  1.00  0.00     0.180 C 
ATOM     26  C   UNL     1      16.102   1.313  -1.041  1.00  0.00     0.179 C 
ATOM     27  C   UNL     1      15.000   2.283  -1.524  1.00  0.00     0.177 C 
BRANCH  23  28
ATOM     28  O   UNL     1      14.853   3.900   1.055  1.00  0.00    -0.384 OA
ATOM     29  H   UNL     1      14.560   4.372   0.230  1.00  0.00     0.211 HD
ENDBRANCH  23  28
BRANCH  25  30
ATOM     30  O   UNL     1      12.929   3.301  -0.819  1.00  0.00    -0.387 OA
ATOM     31  H   UNL     1      12.435   2.972  -1.622  1.00  0.00     0.211 HD
ENDBRANCH  25  30
BRANCH  26  32
ATOM     32  C   UNL     1      17.264   1.221  -2.040  1.00  0.00     0.191 C 
BRANCH  32  33
ATOM     33  O   UNL     1      18.363   1.969  -1.590  1.00  0.00    -0.394 OA
ATOM     34  H   UNL     1      18.491   2.713  -2.236  1.00  0.00     0.210 HD
ENDBRANCH  32  33
ENDBRANCH  26  32
BRANCH  27  35
ATOM     35  O   UNL     1      15.516   3.576  -1.703  1.00  0.00    -0.387 OA
ATOM     36  H   UNL     1      14.739   4.187  -1.759  1.00  0.00     0.211 HD
ENDBRANCH  27  35
ENDBRANCH  21  22
ENDBRANCH   2  21
BRANCH   5  37
ATOM     37  O   UNL     1      10.215  -0.879   0.588  1.00  0.00    -0.461 OA
BRANCH  37  38
ATOM     38  C   UNL     1       8.983  -0.540  -0.045  1.00  0.00     0.339 C 
ATOM     39  C   UNL     1       9.143  -0.480  -1.582  1.00  0.00     0.214 C 
ATOM     40  O   UNL     1       8.433   0.652   0.508  1.00  0.00    -0.332 OA
ATOM     41  C   UNL     1       9.983   0.736  -2.009  1.00  0.00     0.180 C 
ATOM     42  C   UNL     1       9.174   1.824   0.194  1.00  0.00     0.179 C 
ATOM     43  C   UNL     1       9.419   1.999  -1.338  1.00  0.00     0.177 C 
BRANCH  39  44
ATOM     44  O   UNL     1       7.875  -0.389  -2.195  1.00  0.00    -0.384 OA
ATOM     45  H   UNL     1       7.764   0.554  -2.488  1.00  0.00     0.211 HD
ENDBRANCH  39  44
BRANCH  41  46
ATOM     46  O   UNL     1      11.329   0.529  -1.681  1.00  0.00    -0.387 OA
ATOM     47  H   UNL     1      11.380  -0.342  -1.202  1.00  0.00     0.211 HD
ENDBRANCH  41  46
BRANCH  42  48
ATOM     48  C   UNL     1      10.377   2.067   1.150  1.00  0.00     0.191 C 
BRANCH  48  49
ATOM     49  O   UNL     1      10.778   3.412   1.202  1.00  0.00    -0.394 OA
ATOM     50  H   UNL     1       9.954   3.960   1.215  1.00  0.00     0.210 HD
ENDBRANCH  48  49
ENDBRANCH  42  48
BRANCH  43  51
ATOM     51  O   UNL     1      10.218   3.125  -1.606  1.00  0.00    -0.387 OA
ATOM     52  H   UNL     1       9.592   3.876  -1.803  1.00  0.00     0.211 HD
ENDBRANCH  43  51
ENDBRANCH  37  38
ENDBRANCH   5  37
BRANCH   7  53
ATOM     53  O   UNL     1       8.493  -1.125   5.146  1.00  0.00    -0.507 OA
ATOM     54  H   UNL     1       7.959  -1.980   5.239  1.00  0.00     0.293 HD
ENDBRANCH   7  53
TORSDOF 18
ENDMDL
MODEL 2
REMARK VINA RESULT:    -3.403      2.469      7.018
REMARK INTER + INTRA:          -8.405
REMARK INTER:                  -6.604
REMARK INTRA:                  -1.802
REMARK UNBOUND:                -2.416
REMARK SMILES COc1cc(-c2[o+]c3cc(O)cc(O[C@H]4O[C@@H](CO)[C@@H](O)[C@@H](O)[C@@H]4O)c3cc2O[C@H]2O[C@H](CO)[C@H](O)[C@H](O)[C@@H]2O)ccc1O
REMARK SMILES IDX 6 1 28 2 27 3 26 4 13 5 12 6 10 7 9 8 8 9 7 10 5 11 3 12
REMARK SMILES IDX 43 13 4 14 42 15 41 16 2 17 1 18 44 19 29 21 30 22 39 23
REMARK SMILES IDX 31 24 37 25 32 26 35 27 40 28 38 30 33 32 34 33 36 35 14 37
REMARK SMILES IDX 15 38 24 39 16 40 22 41 17 42 20 43 25 44 23 46 18 48 19 49
REMARK SMILES IDX 21 51 11 53
REMARK H PARENT 44 20 40 29 38 31 34 34 36 36 25 45 23 47 19 50 21 52 11 54
REMARK Flexibility Score: inf
ROOT
ATOM      1  C   UNL     1      10.783   3.167   0.475  1.00  0.00     0.402 A 
ATOM      2  C   UNL     1      12.135   2.768   0.400  1.00  0.00     0.229 A 
ATOM      3  C   UNL     1      12.576   1.759   1.271  1.00  0.00     0.079 A 
ATOM      4  C   UNL     1      11.671   1.123   2.129  1.00  0.00     0.126 A 
ATOM      5  C   UNL     1      12.071   0.064   2.967  1.00  0.00     0.143 A 
ATOM      6  C   UNL     1      11.092  -0.604   3.732  1.00  0.00     0.094 A 
ATOM      7  C   UNL     1       9.747  -0.228   3.649  1.00  0.00     0.128 A 
ATOM      8  C   UNL     1       9.370   0.853   2.847  1.00  0.00     0.162 A 
ATOM      9  C   UNL     1      10.326   1.534   2.087  1.00  0.00     0.368 A 
ATOM     10  O   UNL     1       9.954   2.536   1.307  1.00  0.00    -0.202 OA
ENDROOT
BRANCH   1  11
ATOM     11  C   UNL     1      10.230   4.282  -0.323  1.00  0.00     0.087 A 
ATOM     12  C   UNL     1       9.498   6.613  -0.439  1.00  0.00     0.161 A 
ATOM     13  C   UNL     1       9.177   6.427  -1.792  1.00  0.00     0.157 A 
ATOM     14  C   UNL     1      10.028   5.526   0.290  1.00  0.00     0.068 A 
ATOM     15  C   UNL     1       9.346   5.180  -2.393  1.00  0.00     0.051 A 
ATOM     16  C   UNL     1       9.858   4.111  -1.661  1.00  0.00     0.022 A 
BRANCH  12  17
ATOM     17  O   UNL     1       9.274   7.863   0.148  1.00  0.00    -0.493 OA
ATOM     18  C   UNL     1       8.183   8.165   1.016  1.00  0.00     0.278 C 
ENDBRANCH  12  17
BRANCH  13  19
ATOM     19  O   UNL     1       8.659   7.469  -2.555  1.00  0.00    -0.504 OA
ATOM     20  H   UNL     1       9.196   7.924  -3.292  1.00  0.00     0.293 HD
ENDBRANCH  13  19
ENDBRANCH   1  11
BRANCH   2  21
ATOM     21  O   UNL     1      13.001   3.357  -0.543  1.00  0.00    -0.452 OA
BRANCH  21  22
ATOM     22  C   UNL     1      13.196   2.876  -1.880  1.00  0.00     0.339 C 
ATOM     23  C   UNL     1      12.544   1.495  -2.066  1.00  0.00     0.214 C 
ATOM     24  O   UNL     1      14.573   2.847  -2.224  1.00  0.00    -0.332 OA
ATOM     25  C   UNL     1      13.330   0.424  -1.283  1.00  0.00     0.180 C 
ATOM     26  C   UNL     1      15.302   1.972  -1.378  1.00  0.00     0.179 C 
ATOM     27  C   UNL     1      14.839   0.512  -1.581  1.00  0.00     0.177 C 
BRANCH  23  28
ATOM     28  O   UNL     1      12.515   1.178  -3.438  1.00  0.00    -0.384 OA
ATOM     29  H   UNL     1      13.454   1.219  -3.762  1.00  0.00     0.211 HD
ENDBRANCH  23  28
BRANCH  25  30
ATOM     30  O   UNL     1      12.852  -0.858  -1.617  1.00  0.00    -0.387 OA
ATOM     31  H   UNL     1      13.057  -1.454  -0.842  1.00  0.00     0.211 HD
ENDBRANCH  25  30
BRANCH  26  32
ATOM     32  C   UNL     1      16.806   2.139  -1.639  1.00  0.00     0.191 C 
BRANCH  32  33
ATOM     33  O   UNL     1      17.436   0.887  -1.712  1.00  0.00    -0.394 OA
ATOM     34  H   UNL     1      18.414   1.057  -1.758  1.00  0.00     0.210 HD
ENDBRANCH  32  33
ENDBRANCH  26  32
BRANCH  27  35
ATOM     35  O   UNL     1      15.096   0.085  -2.893  1.00  0.00    -0.387 OA
ATOM     36  H   UNL     1      14.301  -0.425  -3.188  1.00  0.00     0.211 HD
ENDBRANCH  27  35
ENDBRANCH  21  22
ENDBRANCH   2  21
BRANCH   5  37
ATOM     37  O   UNL     1      13.432  -0.329   2.986  1.00  0.00    -0.461 OA
BRANCH  37  38
ATOM     38  C   UNL     1      14.112  -0.829   4.136  1.00  0.00     0.339 C 
ATOM     39  C   UNL     1      13.945   0.124   5.342  1.00  0.00     0.214 C 
ATOM     40  O   UNL     1      15.473  -1.125   3.839  1.00  0.00    -0.332 OA
ATOM     41  C   UNL     1      14.735   1.427   5.136  1.00  0.00     0.180 C 
ATOM     42  C   UNL     1      16.269   0.027   3.595  1.00  0.00     0.179 C 
ATOM     43  C   UNL     1      16.180   1.085   4.739  1.00  0.00     0.177 C 
BRANCH  39  44
ATOM     44  O   UNL     1      14.409  -0.503   6.518  1.00  0.00    -0.384 OA
ATOM     45  H   UNL     1      15.353  -0.765   6.351  1.00  0.00     0.211 HD
ENDBRANCH  39  44
BRANCH  41  46
ATOM     46  O   UNL     1      14.106   2.224   4.171  1.00  0.00    -0.387 OA
ATOM     47  H   UNL     1      13.835   3.068   4.624  1.00  0.00     0.211 HD
ENDBRANCH  41  46
BRANCH  42  48
ATOM     48  C   UNL     1      16.176   0.542   2.129  1.00  0.00     0.191 C 
BRANCH  48  49
ATOM     49  O   UNL     1      15.732   1.872   2.038  1.00  0.00    -0.394 OA
ATOM     50  H   UNL     1      14.759   1.841   1.856  1.00  0.00     0.210 HD
ENDBRANCH  48  49
ENDBRANCH  42  48
BRANCH  43  51
ATOM     51  O   UNL     1      16.918   2.242   4.431  1.00  0.00    -0.387 OA
ATOM     52  H   UNL     1      17.879   2.008   4.563  1.00  0.00     0.211 HD
ENDBRANCH  43  51
ENDBRANCH  37  38
ENDBRANCH   5  37
BRANCH   7  53
ATOM     53  O   UNL     1       8.789  -0.961   4.344  1.00  0.00    -0.507 OA
ATOM     54  H   UNL     1       8.409  -1.822   3.972  1.00  0.00     0.293 HD
ENDBRANCH   7  53
TORSDOF 18
ENDMDL
MODEL 3
REMARK VINA RESULT:    -2.258      1.995      5.599
REMARK INTER + INTRA:          -6.389
REMARK INTER:                  -6.579
REMARK INTRA:                   0.189
REMARK UNBOUND:                -2.416
REMARK SMILES COc1cc(-c2[o+]c3cc(O)cc(O[C@H]4O[C@@H](CO)[C@@H](O)[C@@H](O)[C@@H]4O)c3cc2O[C@H]2O[C@H](CO)[C@H](O)[C@H](O)[C@@H]2O)ccc1O
REMARK SMILES IDX 6 1 28 2 27 3 26 4 13 5 12 6 10 7 9 8 8 9 7 10 5 11 3 12
REMARK SMILES IDX 43 13 4 14 42 15 41 16 2 17 1 18 44 19 29 21 30 22 39 23
REMARK SMILES IDX 31 24 37 25 32 26 35 27 40 28 38 30 33 32 34 33 36 35 14 37
REMARK SMILES IDX 15 38 24 39 16 40 22 41 17 42 20 43 25 44 23 46 18 48 19 49
REMARK SMILES IDX 21 51 11 53
REMARK H PARENT 44 20 40 29 38 31 34 34 36 36 25 45 23 47 19 50 21 52 11 54
REMARK Flexibility Score: inf
ROOT
ATOM      1  C   UNL     1      11.400  -0.788   3.382  1.00  0.00     0.402 A 
ATOM      2  C   UNL     1      12.766  -0.854   3.029  1.00  0.00     0.229 A 
ATOM      3  C   UNL     1      13.095  -0.858   1.665  1.00  0.00     0.079 A 
ATOM      4  C   UNL     1      12.095  -0.720   0.697  1.00  0.00     0.126 A 
ATOM      5  C   UNL     1      12.403  -0.656  -0.677  1.00  0.00     0.143 A 
ATOM      6  C   UNL     1      11.360  -0.412  -1.596  1.00  0.00     0.094 A 
ATOM      7  C   UNL     1      10.048  -0.227  -1.149  1.00  0.00     0.128 A 
ATOM      8  C   UNL     1       9.749  -0.338   0.213  1.00  0.00     0.162 A 
ATOM      9  C   UNL     1      10.766  -0.587   1.139  1.00  0.00     0.368 A 
ATOM     10  O   UNL     1      10.478  -0.658   2.428  1.00  0.00    -0.202 OA
ENDROOT
BRANCH   1  11
ATOM     11  C   UNL     1      10.928  -0.874   4.781  1.00  0.00     0.087 A 
ATOM     12  C   UNL     1      11.455  -1.035   7.163  1.00  0.00     0.161 A 
ATOM     13  C   UNL     1      10.081  -1.046   7.449  1.00  0.00     0.157 A 
ATOM     14  C   UNL     1      11.868  -0.948   5.817  1.00  0.00     0.068 A 
ATOM     15  C   UNL     1       9.145  -1.009   6.417  1.00  0.00     0.051 A 
ATOM     16  C   UNL     1       9.564  -0.934   5.090  1.00  0.00     0.022 A 
BRANCH  12  17
ATOM     17  O   UNL     1      12.370  -1.122   8.219  1.00  0.00    -0.493 OA
ATOM     18  C   UNL     1      13.788  -1.111   8.062  1.00  0.00     0.278 C 
ENDBRANCH  12  17
BRANCH  13  19
ATOM     19  O   UNL     1       9.623  -1.125   8.761  1.00  0.00    -0.504 OA
ATOM     20  H   UNL     1       9.248  -1.986   9.156  1.00  0.00     0.293 HD
ENDBRANCH  13  19
ENDBRANCH   1  11
BRANCH   2  21
ATOM     21  O   UNL     1      13.759  -0.892   4.028  1.00  0.00    -0.452 OA
BRANCH  21  22
ATOM     22  C   UNL     1      15.141  -0.575   3.814  1.00  0.00     0.339 C 
ATOM     23  C   UNL     1      15.787  -0.045   5.105  1.00  0.00     0.214 C 
ATOM     24  O   UNL     1      15.302   0.341   2.742  1.00  0.00    -0.332 OA
ATOM     25  C   UNL     1      15.242   1.360   5.437  1.00  0.00     0.180 C 
ATOM     26  C   UNL     1      14.649   1.573   3.008  1.00  0.00     0.179 C 
ATOM     27  C   UNL     1      15.310   2.287   4.208  1.00  0.00     0.177 C 
BRANCH  23  28
ATOM     28  O   UNL     1      17.186  -0.002   4.940  1.00  0.00    -0.384 OA
ATOM     29  H   UNL     1      17.583  -0.007   5.851  1.00  0.00     0.211 HD
ENDBRANCH  23  28
BRANCH  25  30
ATOM     30  O   UNL     1      15.980   1.920   6.498  1.00  0.00    -0.387 OA
ATOM     31  H   UNL     1      16.093   1.200   7.182  1.00  0.00     0.211 HD
ENDBRANCH  25  30
BRANCH  26  32
ATOM     32  C   UNL     1      14.661   2.444   1.744  1.00  0.00     0.191 C 
BRANCH  32  33
ATOM     33  O   UNL     1      15.973   2.627   1.283  1.00  0.00    -0.394 OA
ATOM     34  H   UNL     1      16.492   1.825   1.558  1.00  0.00     0.210 HD
ENDBRANCH  32  33
ENDBRANCH  26  32
BRANCH  27  35
ATOM     35  O   UNL     1      16.646   2.611   3.923  1.00  0.00    -0.387 OA
ATOM     36  H   UNL     1      17.125   1.755   3.794  1.00  0.00     0.211 HD
ENDBRANCH  27  35
ENDBRANCH  21  22
ENDBRANCH   2  21
BRANCH   5  37
ATOM     37  O   UNL     1      13.750  -0.792  -1.092  1.00  0.00    -0.461 OA
BRANCH  37  38
ATOM     38  C   UNL     1      14.213  -0.557  -2.420  1.00  0.00     0.339 C 
ATOM     39  C   UNL     1      15.749  -0.716  -2.513  1.00  0.00     0.214 C 
ATOM     40  O   UNL     1      13.748   0.696  -2.912  1.00  0.00    -0.332 OA
ATOM     41  C   UNL     1      16.472   0.434  -1.794  1.00  0.00     0.180 C 
ATOM     42  C   UNL     1      14.340   1.817  -2.271  1.00  0.00     0.179 C 
ATOM     43  C   UNL     1      15.900   1.775  -2.282  1.00  0.00     0.177 C 
BRANCH  39  44
ATOM     44  O   UNL     1      16.150  -0.725  -3.866  1.00  0.00    -0.384 OA
ATOM     45  H   UNL     1      15.752   0.081  -4.290  1.00  0.00     0.211 HD
ENDBRANCH  39  44
BRANCH  41  46
ATOM     46  O   UNL     1      16.346   0.289  -0.407  1.00  0.00    -0.387 OA
ATOM     47  H   UNL     1      15.614  -0.367  -0.250  1.00  0.00     0.211 HD
ENDBRANCH  41  46
BRANCH  42  48
ATOM     48  C   UNL     1      13.638   2.205  -0.937  1.00  0.00     0.191 C 
BRANCH  48  49
ATOM     49  O   UNL     1      12.347   2.726  -1.124  1.00  0.00    -0.394 OA
ATOM     50  H   UNL     1      12.275   2.989  -2.075  1.00  0.00     0.210 HD
ENDBRANCH  48  49
ENDBRANCH  42  48
BRANCH  43  51
ATOM     51  O   UNL     1      16.450   2.858  -1.574  1.00  0.00    -0.387 OA
ATOM     52  H   UNL     1      16.743   3.523  -2.258  1.00  0.00     0.211 HD
ENDBRANCH  43  51
ENDBRANCH  37  38
ENDBRANCH   5  37
BRANCH   7  53
ATOM     53  O   UNL     1       9.054   0.101  -2.067  1.00  0.00    -0.507 OA
ATOM     54  H   UNL     1       9.255   0.193  -3.054  1.00  0.00     0.293 HD
ENDBRANCH   7  53
TORSDOF 18
ENDMDL
MODEL 4
REMARK VINA RESULT:    -1.663      3.208      5.723
REMARK INTER + INTRA:          -5.343
REMARK INTER:                  -8.392
REMARK INTRA:                   3.050
REMARK UNBOUND:                -2.416
REMARK SMILES COc1cc(-c2[o+]c3cc(O)cc(O[C@H]4O[C@@H](CO)[C@@H](O)[C@@H](O)[C@@H]4O)c3cc2O[C@H]2O[C@H](CO)[C@H](O)[C@H](O)[C@@H]2O)ccc1O
REMARK SMILES IDX 6 1 28 2 27 3 26 4 13 5 12 6 10 7 9 8 8 9 7 10 5 11 3 12
REMARK SMILES IDX 43 13 4 14 42 15 41 16 2 17 1 18 44 19 29 21 30 22 39 23
REMARK SMILES IDX 31 24 37 25 32 26 35 27 40 28 38 30 33 32 34 33 36 35 14 37
REMARK SMILES IDX 15 38 24 39 16 40 22 41 17 42 20 43 25 44 23 46 18 48 19 49
REMARK SMILES IDX 21 51 11 53
REMARK H PARENT 44 20 40 29 38 31 34 34 36 36 25 45 23 47 19 50 21 52 11 54
REMARK Flexibility Score: inf
ROOT
ATOM      1  C   UNL     1      14.506   1.344  -1.908  1.00  0.00     0.402 A 
ATOM      2  C   UNL     1      14.163   2.616  -1.401  1.00  0.00     0.229 A 
ATOM      3  C   UNL     1      12.801   2.932  -1.276  1.00  0.00     0.079 A 
ATOM      4  C   UNL     1      11.824   1.976  -1.576  1.00  0.00     0.126 A 
ATOM      5  C   UNL     1      10.453   2.243  -1.398  1.00  0.00     0.143 A 
ATOM      6  C   UNL     1       9.524   1.204  -1.619  1.00  0.00     0.094 A 
ATOM      7  C   UNL     1       9.960  -0.071  -1.996  1.00  0.00     0.128 A 
ATOM      8  C   UNL     1      11.321  -0.310  -2.211  1.00  0.00     0.162 A 
ATOM      9  C   UNL     1      12.257   0.708  -2.006  1.00  0.00     0.368 A 
ATOM     10  O   UNL     1      13.544   0.462  -2.182  1.00  0.00    -0.202 OA
ENDROOT
BRANCH   1  11
ATOM     11  C   UNL     1      15.902   0.936  -2.173  1.00  0.00     0.087 A 
ATOM     12  C   UNL     1      18.286   1.189  -1.691  1.00  0.00     0.161 A 
ATOM     13  C   UNL     1      18.567   0.201  -2.647  1.00  0.00     0.157 A 
ATOM     14  C   UNL     1      16.941   1.550  -1.461  1.00  0.00     0.068 A 
ATOM     15  C   UNL     1      17.537  -0.385  -3.380  1.00  0.00     0.051 A 
ATOM     16  C   UNL     1      16.213  -0.013  -3.154  1.00  0.00     0.022 A 
BRANCH  12  17
ATOM     17  O   UNL     1      19.346   1.792  -1.004  1.00  0.00    -0.493 OA
ATOM     18  C   UNL     1      20.536   2.279  -1.621  1.00  0.00     0.278 C 
ENDBRANCH  12  17
BRANCH  13  19
ATOM     19  O   UNL     1      19.876  -0.194  -2.905  1.00  0.00    -0.504 OA
ATOM     20  H   UNL     1      20.215  -1.131  -2.690  1.00  0.00     0.293 HD
ENDBRANCH  13  19
ENDBRANCH   1  11
BRANCH   2  21
ATOM     21  O   UNL     1      15.169   3.524  -1.013  1.00  0.00    -0.452 OA
BRANCH  21  22
ATOM     22  C   UNL     1      15.625   3.706   0.334  1.00  0.00     0.339 C 
ATOM     23  C   UNL     1      15.765   2.353   1.052  1.00  0.00     0.214 C 
ATOM     24  O   UNL     1      14.777   4.587   1.054  1.00  0.00    -0.332 OA
ATOM     25  C   UNL     1      14.373   1.747   1.324  1.00  0.00     0.180 C 
ATOM     26  C   UNL     1      13.456   4.076   1.148  1.00  0.00     0.179 C 
ATOM     27  C   UNL     1      13.438   2.777   1.985  1.00  0.00     0.177 C 
BRANCH  23  28
ATOM     28  O   UNL     1      16.464   2.540   2.261  1.00  0.00    -0.384 OA
ATOM     29  H   UNL     1      16.726   3.498   2.295  1.00  0.00     0.211 HD
ENDBRANCH  23  28
BRANCH  25  30
ATOM     30  O   UNL     1      14.499   0.616   2.155  1.00  0.00    -0.387 OA
ATOM     31  H   UNL     1      14.731  -0.153   1.561  1.00  0.00     0.211 HD
ENDBRANCH  25  30
BRANCH  26  32
ATOM     32  C   UNL     1      12.530   5.150   1.735  1.00  0.00     0.191 C 
BRANCH  32  33
ATOM     33  O   UNL     1      11.793   4.632   2.810  1.00  0.00    -0.394 OA
ATOM     34  H   UNL     1      10.831   4.741   2.582  1.00  0.00     0.210 HD
ENDBRANCH  32  33
ENDBRANCH  26  32
BRANCH  27  35
ATOM     35  O   UNL     1      13.851   3.027   3.303  1.00  0.00    -0.387 OA
ATOM     36  H   UNL     1      14.585   3.689   3.250  1.00  0.00     0.211 HD
ENDBRANCH  27  35
ENDBRANCH  21  22
ENDBRANCH   2  21
BRANCH   5  37
ATOM     37  O   UNL     1      10.048   3.529  -0.962  1.00  0.00    -0.461 OA
BRANCH  37  38
ATOM     38  C   UNL     1       9.152   4.379  -1.676  1.00  0.00     0.339 C 
ATOM     39  C   UNL     1       9.770   5.779  -1.900  1.00  0.00     0.214 C 
ATOM     40  O   UNL     1       7.875   4.423  -1.047  1.00  0.00    -0.332 OA
ATOM     41  C   UNL     1       9.858   6.566  -0.582  1.00  0.00     0.180 C 
ATOM     42  C   UNL     1       7.876   5.101   0.202  1.00  0.00     0.179 C 
ATOM     43  C   UNL     1       8.489   6.534   0.119  1.00  0.00     0.177 C 
BRANCH  39  44
ATOM     44  O   UNL     1       8.980   6.512  -2.811  1.00  0.00    -0.384 OA
ATOM     45  H   UNL     1       8.725   7.358  -2.355  1.00  0.00     0.211 HD
ENDBRANCH  39  44
BRANCH  41  46
ATOM     46  O   UNL     1      10.869   6.036   0.228  1.00  0.00    -0.387 OA
ATOM     47  H   UNL     1      11.309   5.311  -0.294  1.00  0.00     0.211 HD
ENDBRANCH  41  46
BRANCH  42  48
ATOM     48  C   UNL     1       8.309   4.199   1.393  1.00  0.00     0.191 C 
BRANCH  48  49
ATOM     49  O   UNL     1       7.948   2.851   1.225  1.00  0.00    -0.394 OA
ATOM     50  H   UNL     1       8.281   2.361   2.018  1.00  0.00     0.210 HD
ENDBRANCH  48  49
ENDBRANCH  42  48
BRANCH  43  51
ATOM     51  O   UNL     1       8.544   7.146   1.384  1.00  0.00    -0.387 OA
ATOM     52  H   UNL     1       8.388   8.119   1.233  1.00  0.00     0.211 HD
ENDBRANCH  43  51
ENDBRANCH  37  38
ENDBRANCH   5  37
BRANCH   7  53
ATOM     53  O   UNL     1       9.032  -1.101  -2.119  1.00  0.00    -0.507 OA
ATOM     54  H   UNL     1       8.604  -1.528  -1.307  1.00  0.00     0.293 HD
ENDBRANCH   7  53
TORSDOF 18
ENDMDL
MODEL 5
REMARK VINA RESULT:    -1.511     15.529     18.710
REMARK INTER + INTRA:          -5.076
REMARK INTER:                  -5.101
REMARK INTRA:                   0.025
REMARK UNBOUND:                -2.416
REMARK SMILES COc1cc(-c2[o+]c3cc(O)cc(O[C@H]4O[C@@H](CO)[C@@H](O)[C@@H](O)[C@@H]4O)c3cc2O[C@H]2O[C@H](CO)[C@H](O)[C@H](O)[C@@H]2O)ccc1O
REMARK SMILES IDX 6 1 28 2 27 3 26 4 13 5 12 6 10 7 9 8 8 9 7 10 5 11 3 12
REMARK SMILES IDX 43 13 4 14 42 15 41 16 2 17 1 18 44 19 29 21 30 22 39 23
REMARK SMILES IDX 31 24 37 25 32 26 35 27 40 28 38 30 33 32 34 33 36 35 14 37
REMARK SMILES IDX 15 38 24 39 16 40 22 41 17 42 20 43 25 44 23 46 18 48 19 49
REMARK SMILES IDX 21 51 11 53
REMARK H PARENT 44 20 40 29 38 31 34 34 36 36 25 45 23 47 19 50 21 52 11 54
REMARK Flexibility Score: inf
ROOT
ATOM      1  C   UNL     1      23.900  12.473   6.186  1.00  0.00     0.402 A 
ATOM      2  C   UNL     1      24.494  13.665   5.716  1.00  0.00     0.229 A 
ATOM      3  C   UNL     1      23.684  14.805   5.601  1.00  0.00     0.079 A 
ATOM      4  C   UNL     1      22.348  14.767   6.018  1.00  0.00     0.126 A 
ATOM      5  C   UNL     1      21.530  15.913   5.975  1.00  0.00     0.143 A 
ATOM      6  C   UNL     1      20.225  15.836   6.506  1.00  0.00     0.094 A 
ATOM      7  C   UNL     1      19.758  14.646   7.074  1.00  0.00     0.128 A 
ATOM      8  C   UNL     1      20.565  13.504   7.070  1.00  0.00     0.162 A 
ATOM      9  C   UNL     1      21.858  13.556   6.542  1.00  0.00     0.368 A 
ATOM     10  O   UNL     1      22.624  12.479   6.572  1.00  0.00    -0.202 OA
ENDROOT
BRANCH   1  11
ATOM     11  C   UNL     1      24.629  11.188   6.257  1.00  0.00     0.087 A 
ATOM     12  C   UNL     1      26.325   9.799   7.340  1.00  0.00     0.161 A 
ATOM     13  C   UNL     1      26.042   8.771   6.427  1.00  0.00     0.157 A 
ATOM     14  C   UNL     1      25.607  11.009   7.245  1.00  0.00     0.068 A 
ATOM     15  C   UNL     1      25.095   8.961   5.422  1.00  0.00     0.051 A 
ATOM     16  C   UNL     1      24.400  10.165   5.329  1.00  0.00     0.022 A 
BRANCH  12  17
ATOM     17  O   UNL     1      27.315   9.595   8.308  1.00  0.00    -0.493 OA
ATOM     18  C   UNL     1      27.541  10.452   9.426  1.00  0.00     0.278 C 
ENDBRANCH  12  17
BRANCH  13  19
ATOM     19  O   UNL     1      26.718   7.556   6.484  1.00  0.00    -0.504 OA
ATOM     20  H   UNL     1      27.101   7.107   5.654  1.00  0.00     0.293 HD
ENDBRANCH  13  19
ENDBRANCH   1  11
BRANCH   2  21
ATOM     21  O   UNL     1      25.866  13.700   5.397  1.00  0.00    -0.452 OA
BRANCH  21  22
ATOM     22  C   UNL     1      26.886  14.240   6.249  1.00  0.00     0.339 C 
ATOM     23  C   UNL     1      26.264  15.023   7.418  1.00  0.00     0.214 C 
ATOM     24  O   UNL     1      27.799  15.044   5.518  1.00  0.00    -0.332 OA
ATOM     25  C   UNL     1      25.627  16.331   6.906  1.00  0.00     0.180 C 
ATOM     26  C   UNL     1      27.151  16.156   4.921  1.00  0.00     0.179 C 
ATOM     27  C   UNL     1      26.604  17.111   6.006  1.00  0.00     0.177 C 
BRANCH  23  28
ATOM     28  O   UNL     1      27.263  15.304   8.371  1.00  0.00    -0.384 OA
ATOM     29  H   UNL     1      27.290  14.531   8.995  1.00  0.00     0.211 HD
ENDBRANCH  23  28
BRANCH  25  30
ATOM     30  O   UNL     1      25.242  17.133   7.998  1.00  0.00    -0.387 OA
ATOM     31  H   UNL     1      26.002  17.121   8.646  1.00  0.00     0.211 HD
ENDBRANCH  25  30
BRANCH  26  32
ATOM     32  C   UNL     1      28.123  16.867   3.968  1.00  0.00     0.191 C 
BRANCH  32  33
ATOM     33  O   UNL     1      27.577  16.949   2.678  1.00  0.00    -0.394 OA
ATOM     34  H   UNL     1      28.266  16.605   2.049  1.00  0.00     0.210 HD
ENDBRANCH  32  33
ENDBRANCH  26  32
BRANCH  27  35
ATOM     35  O   UNL     1      27.651  17.641   6.777  1.00  0.00    -0.387 OA
ATOM     36  H   UNL     1      28.286  16.900   6.942  1.00  0.00     0.211 HD
ENDBRANCH  27  35
ENDBRANCH  21  22
ENDBRANCH   2  21
BRANCH   5  37
ATOM     37  O   UNL     1      22.053  17.118   5.444  1.00  0.00    -0.461 OA
BRANCH  37  38
ATOM     38  C   UNL     1      21.563  17.761   4.270  1.00  0.00     0.339 C 
ATOM     39  C   UNL     1      21.811  16.895   3.013  1.00  0.00     0.214 C 
ATOM     40  O   UNL     1      22.084  19.082   4.152  1.00  0.00    -0.332 OA
ATOM     41  C   UNL     1      23.307  16.842   2.659  1.00  0.00     0.180 C 
ATOM     42  C   UNL     1      23.474  19.125   3.864  1.00  0.00     0.179 C 
ATOM     43  C   UNL     1      23.867  18.274   2.616  1.00  0.00     0.177 C 
BRANCH  39  44
ATOM     44  O   UNL     1      21.107  17.429   1.913  1.00  0.00    -0.384 OA
ATOM     45  H   UNL     1      21.042  16.707   1.234  1.00  0.00     0.211 HD
ENDBRANCH  39  44
BRANCH  41  46
ATOM     46  O   UNL     1      23.992  16.044   3.584  1.00  0.00    -0.387 OA
ATOM     47  H   UNL     1      23.346  15.819   4.307  1.00  0.00     0.211 HD
ENDBRANCH  41  46
BRANCH  42  48
ATOM     48  C   UNL     1      24.370  19.002   5.131  1.00  0.00     0.191 C 
BRANCH  48  49
ATOM     49  O   UNL     1      23.649  19.124   6.331  1.00  0.00    -0.394 OA
ATOM     50  H   UNL     1      23.085  18.314   6.413  1.00  0.00     0.210 HD
ENDBRANCH  48  49
ENDBRANCH  42  48
BRANCH  43  51
ATOM     51  O   UNL     1      25.257  18.277   2.405  1.00  0.00    -0.387 OA
ATOM     52  H   UNL     1      25.665  17.846   3.207  1.00  0.00     0.211 HD
ENDBRANCH  43  51
ENDBRANCH  37  38
ENDBRANCH   5  37
BRANCH   7  53
ATOM     53  O   UNL     1      18.501  14.622   7.671  1.00  0.00    -0.507 OA
ATOM     54  H   UNL     1      18.388  14.721   8.672  1.00  0.00     0.293 HD
ENDBRANCH   7  53
TORSDOF 18
ENDMDL
MODEL 6
REMARK VINA RESULT:    -1.195      2.350      5.848
REMARK INTER + INTRA:          -4.519
REMARK INTER:                  -3.663
REMARK INTRA:                  -0.856
REMARK UNBOUND:                -2.416
REMARK SMILES COc1cc(-c2[o+]c3cc(O)cc(O[C@H]4O[C@@H](CO)[C@@H](O)[C@@H](O)[C@@H]4O)c3cc2O[C@H]2O[C@H](CO)[C@H](O)[C@H](O)[C@@H]2O)ccc1O
REMARK SMILES IDX 6 1 28 2 27 3 26 4 13 5 12 6 10 7 9 8 8 9 7 10 5 11 3 12
REMARK SMILES IDX 43 13 4 14 42 15 41 16 2 17 1 18 44 19 29 21 30 22 39 23
REMARK SMILES IDX 31 24 37 25 32 26 35 27 40 28 38 30 33 32 34 33 36 35 14 37
REMARK SMILES IDX 15 38 24 39 16 40 22 41 17 42 20 43 25 44 23 46 18 48 19 49
REMARK SMILES IDX 21 51 11 53
REMARK H PARENT 44 20 40 29 38 31 34 34 36 36 25 45 23 47 19 50 21 52 11 54
REMARK Flexibility Score: inf
ROOT
ATOM      1  C   UNL     1      14.190   1.767   1.502  1.00  0.00     0.402 A 
ATOM      2  C   UNL     1      12.804   2.029   1.573  1.00  0.00     0.229 A 
ATOM      3  C   UNL     1      12.233   2.842   0.582  1.00  0.00     0.079 A 
ATOM      4  C   UNL     1      13.012   3.307  -0.483  1.00  0.00     0.126 A 
ATOM      5  C   UNL     1      12.452   4.070  -1.527  1.00  0.00     0.143 A 
ATOM      6  C   UNL     1      13.267   4.422  -2.624  1.00  0.00     0.094 A 
ATOM      7  C   UNL     1      14.603   4.010  -2.679  1.00  0.00     0.128 A 
ATOM      8  C   UNL     1      15.157   3.290  -1.616  1.00  0.00     0.162 A 
ATOM      9  C   UNL     1      14.370   2.939  -0.515  1.00  0.00     0.368 A 
ATOM     10  O   UNL     1      14.896   2.231   0.470  1.00  0.00    -0.202 OA
ENDROOT
BRANCH   1  11
ATOM     11  C   UNL     1      14.917   1.006   2.540  1.00  0.00     0.087 A 
ATOM     12  C   UNL     1      16.202   1.004   4.621  1.00  0.00     0.161 A 
ATOM     13  C   UNL     1      16.314  -0.392   4.531  1.00  0.00     0.157 A 
ATOM     14  C   UNL     1      15.497   1.696   3.613  1.00  0.00     0.068 A 
ATOM     15  C   UNL     1      15.768  -1.075   3.445  1.00  0.00     0.051 A 
ATOM     16  C   UNL     1      15.084  -0.380   2.449  1.00  0.00     0.022 A 
BRANCH  12  17
ATOM     17  O   UNL     1      16.802   1.667   5.698  1.00  0.00    -0.493 OA
ATOM     18  C   UNL     1      17.751   2.724   5.571  1.00  0.00     0.278 C 
ENDBRANCH  12  17
BRANCH  13  19
ATOM     19  O   UNL     1      16.994  -1.120   5.502  1.00  0.00    -0.504 OA
ATOM     20  H   UNL     1      16.513  -1.729   6.162  1.00  0.00     0.293 HD
ENDBRANCH  13  19
ENDBRANCH   1  11
BRANCH   2  21
ATOM     21  O   UNL     1      12.024   1.464   2.603  1.00  0.00    -0.452 OA
BRANCH  21  22
ATOM     22  C   UNL     1      10.602   1.603   2.715  1.00  0.00     0.339 C 
ATOM     23  C   UNL     1      10.094   0.981   4.028  1.00  0.00     0.214 C 
ATOM     24  O   UNL     1       9.937   1.048   1.591  1.00  0.00    -0.332 OA
ATOM     25  C   UNL     1      10.206  -0.556   3.969  1.00  0.00     0.180 C 
ATOM     26  C   UNL     1      10.192  -0.342   1.469  1.00  0.00     0.179 C 
ATOM     27  C   UNL     1       9.591  -1.109   2.669  1.00  0.00     0.177 C 
BRANCH  23  28
ATOM     28  O   UNL     1       8.755   1.368   4.236  1.00  0.00    -0.384 OA
ATOM     29  H   UNL     1       8.278   0.571   4.589  1.00  0.00     0.211 HD
ENDBRANCH  23  28
BRANCH  25  30
ATOM     30  O   UNL     1       9.557  -1.125   5.082  1.00  0.00    -0.387 OA
ATOM     31  H   UNL     1       9.733  -0.520   5.858  1.00  0.00     0.211 HD
ENDBRANCH  25  30
BRANCH  26  32
ATOM     32  C   UNL     1       9.640  -0.851   0.130  1.00  0.00     0.191 C 
BRANCH  32  33
ATOM     33  O   UNL     1       9.501   0.208  -0.781  1.00  0.00    -0.394 OA
ATOM     34  H   UNL     1       9.240   1.010  -0.255  1.00  0.00     0.210 HD
ENDBRANCH  32  33
ENDBRANCH  26  32
BRANCH  27  35
ATOM     35  O   UNL     1       8.195  -0.973   2.700  1.00  0.00    -0.387 OA
ATOM     36  H   UNL     1       7.917  -1.102   3.641  1.00  0.00     0.211 HD
ENDBRANCH  27  35
ENDBRANCH  21  22
ENDBRANCH   2  21
BRANCH   5  37
ATOM     37  O   UNL     1      11.082   4.425  -1.468  1.00  0.00    -0.461 OA
BRANCH  37  38
ATOM     38  C   UNL     1      10.150   3.893  -0.528  1.00  0.00     0.339 C 
ATOM     39  C   UNL     1       8.723   3.848  -1.121  1.00  0.00     0.214 C 
ATOM     40  O   UNL     1      10.220   4.588   0.713  1.00  0.00    -0.332 OA
ATOM     41  C   UNL     1       8.138   5.262  -1.274  1.00  0.00     0.180 C 
ATOM     42  C   UNL     1       9.734   5.921   0.651  1.00  0.00     0.179 C 
ATOM     43  C   UNL     1       8.296   6.021   0.054  1.00  0.00     0.177 C 
BRANCH  39  44
ATOM     44  O   UNL     1       7.875   3.099  -0.277  1.00  0.00    -0.384 OA
ATOM     45  H   UNL     1       7.035   2.936  -0.784  1.00  0.00     0.211 HD
ENDBRANCH  39  44
BRANCH  41  46
ATOM     46  O   UNL     1       8.766   5.930  -2.332  1.00  0.00    -0.387 OA
ATOM     47  H   UNL     1       9.625   5.456  -2.505  1.00  0.00     0.211 HD
ENDBRANCH  41  46
BRANCH  42  48
ATOM     48  C   UNL     1      10.796   6.941   0.146  1.00  0.00     0.191 C 
BRANCH  48  49
ATOM     49  O   UNL     1      10.384   7.647  -0.997  1.00  0.00    -0.394 OA
ATOM     50  H   UNL     1      11.197   7.837  -1.529  1.00  0.00     0.210 HD
ENDBRANCH  48  49
ENDBRANCH  42  48
BRANCH  43  51
ATOM     51  O   UNL     1       7.877   7.358  -0.064  1.00  0.00    -0.387 OA
ATOM     52  H   UNL     1       6.888   7.356   0.063  1.00  0.00     0.211 HD
ENDBRANCH  43  51
ENDBRANCH  37  38
ENDBRANCH   5  37
BRANCH   7  53
ATOM     53  O   UNL     1      15.358   4.292  -3.813  1.00  0.00    -0.507 OA
ATOM     54  H   UNL     1      15.342   5.207  -4.245  1.00  0.00     0.293 HD
ENDBRANCH   7  53
TORSDOF 18
ENDMDL
MODEL 7
REMARK VINA RESULT:    -0.724     14.416     19.425
REMARK INTER + INTRA:          -3.690
REMARK INTER:                  -2.356
REMARK INTRA:                  -1.334
REMARK UNBOUND:                -2.416
REMARK SMILES COc1cc(-c2[o+]c3cc(O)cc(O[C@H]4O[C@@H](CO)[C@@H](O)[C@@H](O)[C@@H]4O)c3cc2O[C@H]2O[C@H](CO)[C@H](O)[C@H](O)[C@@H]2O)ccc1O
REMARK SMILES IDX 6 1 28 2 27 3 26 4 13 5 12 6 10 7 9 8 8 9 7 10 5 11 3 12
REMARK SMILES IDX 43 13 4 14 42 15 41 16 2 17 1 18 44 19 29 21 30 22 39 23
REMARK SMILES IDX 31 24 37 25 32 26 35 27 40 28 38 30 33 32 34 33 36 35 14 37
REMARK SMILES IDX 15 38 24 39 16 40 22 41 17 42 20 43 25 44 23 46 18 48 19 49
REMARK SMILES IDX 21 51 11 53
REMARK H PARENT 44 20 40 29 38 31 34 34 36 36 25 45 23 47 19 50 21 52 11 54
REMARK Flexibility Score: inf
ROOT
ATOM      1  C   UNL     1      27.040  12.636   8.617  1.00  0.00     0.402 A 
ATOM      2  C   UNL     1      26.497  13.064   7.386  1.00  0.00     0.229 A 
ATOM      3  C   UNL     1      26.255  14.436   7.213  1.00  0.00     0.079 A 
ATOM      4  C   UNL     1      26.618  15.348   8.210  1.00  0.00     0.126 A 
ATOM      5  C   UNL     1      26.447  16.735   8.036  1.00  0.00     0.143 A 
ATOM      6  C   UNL     1      26.928  17.609   9.035  1.00  0.00     0.094 A 
ATOM      7  C   UNL     1      27.573  17.106  10.169  1.00  0.00     0.128 A 
ATOM      8  C   UNL     1      27.697  15.725  10.349  1.00  0.00     0.162 A 
ATOM      9  C   UNL     1      27.220  14.841   9.377  1.00  0.00     0.368 A 
ATOM     10  O   UNL     1      27.371  13.537   9.542  1.00  0.00    -0.202 OA
ENDROOT
BRANCH   1  11
ATOM     11  C   UNL     1      27.247  11.210   8.950  1.00  0.00     0.087 A 
ATOM     12  C   UNL     1      26.872   8.856   8.404  1.00  0.00     0.161 A 
ATOM     13  C   UNL     1      27.607   8.492   9.543  1.00  0.00     0.157 A 
ATOM     14  C   UNL     1      26.698  10.226   8.116  1.00  0.00     0.068 A 
ATOM     15  C   UNL     1      28.122   9.470  10.392  1.00  0.00     0.051 A 
ATOM     16  C   UNL     1      27.935  10.820  10.105  1.00  0.00     0.022 A 
BRANCH  12  17
ATOM     17  O   UNL     1      26.326   7.851   7.596  1.00  0.00    -0.493 OA
ATOM     18  C   UNL     1      27.093   6.898   6.863  1.00  0.00     0.278 C 
ENDBRANCH  12  17
BRANCH  13  19
ATOM     19  O   UNL     1      27.811   7.154   9.866  1.00  0.00    -0.504 OA
ATOM     20  H   UNL     1      28.661   6.656   9.607  1.00  0.00     0.293 HD
ENDBRANCH  13  19
ENDBRANCH   1  11
BRANCH   2  21
ATOM     21  O   UNL     1      26.233  12.134   6.361  1.00  0.00    -0.452 OA
BRANCH  21  22
ATOM     22  C   UNL     1      25.375  12.380   5.239  1.00  0.00     0.339 C 
ATOM     23  C   UNL     1      24.181  13.260   5.646  1.00  0.00     0.214 C 
ATOM     24  O   UNL     1      24.943  11.168   4.641  1.00  0.00    -0.332 OA
ATOM     25  C   UNL     1      23.214  12.464   6.548  1.00  0.00     0.180 C 
ATOM     26  C   UNL     1      24.191  10.379   5.549  1.00  0.00     0.179 C 
ATOM     27  C   UNL     1      22.874  11.096   5.926  1.00  0.00     0.177 C 
BRANCH  23  28
ATOM     28  O   UNL     1      23.516  13.705   4.486  1.00  0.00    -0.384 OA
ATOM     29  H   UNL     1      22.608  13.301   4.504  1.00  0.00     0.211 HD
ENDBRANCH  23  28
BRANCH  25  30
ATOM     30  O   UNL     1      22.033  13.203   6.749  1.00  0.00    -0.387 OA
ATOM     31  H   UNL     1      21.272  12.565   6.639  1.00  0.00     0.211 HD
ENDBRANCH  25  30
BRANCH  26  32
ATOM     32  C   UNL     1      23.935   8.995   4.938  1.00  0.00     0.191 C 
BRANCH  32  33
ATOM     33  O   UNL     1      24.079   7.992   5.909  1.00  0.00    -0.394 OA
ATOM     34  H   UNL     1      25.020   7.674   5.860  1.00  0.00     0.210 HD
ENDBRANCH  32  33
ENDBRANCH  26  32
BRANCH  27  35
ATOM     35  O   UNL     1      22.059  11.269   4.797  1.00  0.00    -0.387 OA
ATOM     36  H   UNL     1      21.981  10.383   4.364  1.00  0.00     0.211 HD
ENDBRANCH  27  35
ENDBRANCH  21  22
ENDBRANCH   2  21
BRANCH   5  37
ATOM     37  O   UNL     1      25.839  17.216   6.850  1.00  0.00    -0.461 OA
BRANCH  37  38
ATOM     38  C   UNL     1      24.544  17.810   6.791  1.00  0.00     0.339 C 
ATOM     39  C   UNL     1      23.536  16.881   6.075  1.00  0.00     0.214 C 
ATOM     40  O   UNL     1      24.604  19.116   6.224  1.00  0.00    -0.332 OA
ATOM     41  C   UNL     1      23.835  16.790   4.569  1.00  0.00     0.180 C 
ATOM     42  C   UNL     1      24.915  19.124   4.838  1.00  0.00     0.179 C 
ATOM     43  C   UNL     1      23.973  18.209   3.994  1.00  0.00     0.177 C 
BRANCH  39  44
ATOM     44  O   UNL     1      22.224  17.373   6.245  1.00  0.00    -0.384 OA
ATOM     45  H   UNL     1      22.305  18.261   6.684  1.00  0.00     0.211 HD
ENDBRANCH  39  44
BRANCH  41  46
ATOM     46  O   UNL     1      24.988  16.026   4.353  1.00  0.00    -0.387 OA
ATOM     47  H   UNL     1      25.656  16.312   5.034  1.00  0.00     0.211 HD
ENDBRANCH  41  46
BRANCH  42  48
ATOM     48  C   UNL     1      26.443  19.048   4.549  1.00  0.00     0.191 C 
BRANCH  48  49
ATOM     49  O   UNL     1      26.818  17.877   3.869  1.00  0.00    -0.394 OA
ATOM     50  H   UNL     1      27.625  17.525   4.323  1.00  0.00     0.210 HD
ENDBRANCH  48  49
ENDBRANCH  42  48
BRANCH  43  51
ATOM     51  O   UNL     1      24.357  18.182   2.641  1.00  0.00    -0.387 OA
ATOM     52  H   UNL     1      25.189  17.633   2.595  1.00  0.00     0.211 HD
ENDBRANCH  43  51
ENDBRANCH  37  38
ENDBRANCH   5  37
BRANCH   7  53
ATOM     53  O   UNL     1      28.118  17.992  11.094  1.00  0.00    -0.507 OA
ATOM     54  H   UNL     1      27.743  18.923  11.218  1.00  0.00     0.293 HD
ENDBRANCH   7  53
TORSDOF 18
ENDMDL
