MODEL 1
REMARK VINA RESULT:    -4.931      0.000      0.000
REMARK INTER + INTRA:          -6.783
REMARK INTER:                  -6.372
REMARK INTRA:                  -0.410
REMARK UNBOUND:                -0.410
REMARK SMILES CCO[C@H]1O[C@@H](CO)[C@@H](O)[C@H](O)[C@@H]1O
REMARK SMILES IDX 4 1 13 2 11 3 9 4 6 5 5 6 3 7 2 8 1 9 14 10 12 12 7 14 8 15
REMARK SMILES IDX 10 17
REMARK H PARENT 14 11 12 13 8 16 10 18
REMARK Flexibility Score: inf
ROOT
ATOM      1  C   UNL     1     -14.508  41.878  40.821  1.00  0.00     0.281 C 
ATOM      2  C   UNL     1     -13.565  43.086  41.088  1.00  0.00     0.202 C 
ATOM      3  C   UNL     1     -13.445  43.972  39.827  1.00  0.00     0.179 C 
ATOM      4  C   UNL     1     -13.427  43.092  38.564  1.00  0.00     0.177 C 
ATOM      5  C   UNL     1     -14.718  42.202  38.506  1.00  0.00     0.178 C 
ATOM      6  O   UNL     1     -15.403  42.142  39.751  1.00  0.00    -0.341 OA
ENDROOT
BRANCH   1   7
ATOM      7  O   UNL     1     -15.206  41.505  42.000  1.00  0.00    -0.350 OA
BRANCH   7   8
ATOM      8  C   UNL     1     -16.602  41.353  41.791  1.00  0.00     0.160 C 
ATOM      9  C   UNL     1     -17.021  39.925  42.116  1.00  0.00     0.035 C 
ENDBRANCH   7   8
ENDBRANCH   1   7
BRANCH   2  10
ATOM     10  O   UNL     1     -12.303  42.597  41.471  1.00  0.00    -0.385 OA
ATOM     11  H   UNL     1     -12.331  42.446  42.452  1.00  0.00     0.211 HD
ENDBRANCH   2  10
BRANCH   3  12
ATOM     12  O   UNL     1     -12.280  44.757  39.902  1.00  0.00    -0.387 OA
ATOM     13  H   UNL     1     -12.260  45.162  40.808  1.00  0.00     0.211 HD
ENDBRANCH   3  12
BRANCH   5  14
ATOM     14  C   UNL     1     -15.726  42.658  37.436  1.00  0.00     0.191 C 
BRANCH  14  15
ATOM     15  O   UNL     1     -16.276  43.908  37.760  1.00  0.00    -0.394 OA
ATOM     16  H   UNL     1     -16.733  43.802  38.636  1.00  0.00     0.210 HD
ENDBRANCH  14  15
ENDBRANCH   5  14
BRANCH   4  17
ATOM     17  O   UNL     1     -13.296  43.891  37.413  1.00  0.00    -0.387 OA
ATOM     18  H   UNL     1     -13.595  44.806  37.655  1.00  0.00     0.211 HD
ENDBRANCH   4  17
TORSDOF 7
ENDMDL
MODEL 2
REMARK VINA RESULT:    -4.879      1.955      3.957
REMARK INTER + INTRA:          -6.716
REMARK INTER:                  -6.577
REMARK INTRA:                  -0.139
REMARK UNBOUND:                -0.410
REMARK SMILES CCO[C@H]1O[C@@H](CO)[C@@H](O)[C@H](O)[C@@H]1O
REMARK SMILES IDX 4 1 13 2 11 3 9 4 6 5 5 6 3 7 2 8 1 9 14 10 12 12 7 14 8 15
REMARK SMILES IDX 10 17
REMARK H PARENT 14 11 12 13 8 16 10 18
REMARK Flexibility Score: inf
ROOT
ATOM      1  C   UNL     1     -14.242  43.288  38.654  1.00  0.00     0.281 C 
ATOM      2  C   UNL     1     -15.188  43.493  37.438  1.00  0.00     0.202 C 
ATOM      3  C   UNL     1     -14.388  43.950  36.197  1.00  0.00     0.179 C 
ATOM      4  C   UNL     1     -13.261  44.910  36.620  1.00  0.00     0.177 C 
ATOM      5  C   UNL     1     -12.325  44.216  37.671  1.00  0.00     0.178 C 
ATOM      6  O   UNL     1     -12.904  43.050  38.241  1.00  0.00    -0.341 OA
ENDROOT
BRANCH   1   7
ATOM      7  O   UNL     1     -14.715  42.248  39.499  1.00  0.00    -0.350 OA
BRANCH   7   8
ATOM      8  C   UNL     1     -14.095  42.247  40.775  1.00  0.00     0.160 C 
ATOM      9  C   UNL     1     -14.972  41.505  41.776  1.00  0.00     0.035 C 
ENDBRANCH   7   8
ENDBRANCH   1   7
BRANCH   2  10
ATOM     10  O   UNL     1     -16.160  44.451  37.778  1.00  0.00    -0.385 OA
ATOM     11  H   UNL     1     -15.980  45.260  37.230  1.00  0.00     0.211 HD
ENDBRANCH   2  10
BRANCH   3  12
ATOM     12  O   UNL     1     -15.247  44.571  35.273  1.00  0.00    -0.387 OA
ATOM     13  H   UNL     1     -14.741  44.669  34.425  1.00  0.00     0.211 HD
ENDBRANCH   3  12
BRANCH   5  14
ATOM     14  C   UNL     1     -10.950  43.826  37.099  1.00  0.00     0.191 C 
BRANCH  14  15
ATOM     15  O   UNL     1      -9.922  44.124  38.007  1.00  0.00    -0.394 OA
ATOM     16  H   UNL     1      -9.142  44.423  37.470  1.00  0.00     0.210 HD
ENDBRANCH  14  15
ENDBRANCH   5  14
BRANCH   4  17
ATOM     17  O   UNL     1     -12.541  45.347  35.493  1.00  0.00    -0.387 OA
ATOM     18  H   UNL     1     -13.033  46.120  35.111  1.00  0.00     0.211 HD
ENDBRANCH   4  17
TORSDOF 7
ENDMDL
MODEL 3
REMARK VINA RESULT:    -4.745      1.800      4.048
REMARK INTER + INTRA:          -6.542
REMARK INTER:                  -6.385
REMARK INTRA:                  -0.157
REMARK UNBOUND:                -0.410
REMARK SMILES CCO[C@H]1O[C@@H](CO)[C@@H](O)[C@H](O)[C@@H]1O
REMARK SMILES IDX 4 1 13 2 11 3 9 4 6 5 5 6 3 7 2 8 1 9 14 10 12 12 7 14 8 15
REMARK SMILES IDX 10 17
REMARK H PARENT 14 11 12 13 8 16 10 18
REMARK Flexibility Score: inf
ROOT
ATOM      1  C   UNL     1     -14.295  43.376  37.511  1.00  0.00     0.281 C 
ATOM      2  C   UNL     1     -12.800  43.649  37.184  1.00  0.00     0.202 C 
ATOM      3  C   UNL     1     -11.929  43.502  38.453  1.00  0.00     0.179 C 
ATOM      4  C   UNL     1     -12.686  44.048  39.678  1.00  0.00     0.177 C 
ATOM      5  C   UNL     1     -14.055  43.301  39.844  1.00  0.00     0.178 C 
ATOM      6  O   UNL     1     -14.437  42.580  38.679  1.00  0.00    -0.341 OA
ENDROOT
BRANCH   1   7
ATOM      7  O   UNL     1     -14.962  42.789  36.402  1.00  0.00    -0.350 OA
BRANCH   7   8
ATOM      8  C   UNL     1     -15.693  41.624  36.750  1.00  0.00     0.160 C 
ATOM      9  C   UNL     1     -16.159  40.910  35.487  1.00  0.00     0.035 C 
ENDBRANCH   7   8
ENDBRANCH   1   7
BRANCH   2  10
ATOM     10  O   UNL     1     -12.684  44.945  36.653  1.00  0.00    -0.385 OA
ATOM     11  H   UNL     1     -11.900  44.944  36.042  1.00  0.00     0.211 HD
ENDBRANCH   2  10
BRANCH   3  12
ATOM     12  O   UNL     1     -10.710  44.182  38.279  1.00  0.00    -0.387 OA
ATOM     13  H   UNL     1     -10.052  43.759  38.890  1.00  0.00     0.211 HD
ENDBRANCH   3  12
BRANCH   5  14
ATOM     14  C   UNL     1     -14.075  42.321  41.030  1.00  0.00     0.191 C 
BRANCH  14  15
ATOM     15  O   UNL     1     -15.351  42.255  41.611  1.00  0.00    -0.394 OA
ATOM     16  H   UNL     1     -15.810  41.471  41.208  1.00  0.00     0.210 HD
ENDBRANCH  14  15
ENDBRANCH   5  14
BRANCH   4  17
ATOM     17  O   UNL     1     -11.891  43.937  40.833  1.00  0.00    -0.387 OA
ATOM     18  H   UNL     1     -12.250  43.181  41.366  1.00  0.00     0.211 HD
ENDBRANCH   4  17
TORSDOF 7
ENDMDL
MODEL 4
REMARK VINA RESULT:    -4.744      2.002      5.254
REMARK INTER + INTRA:          -6.541
REMARK INTER:                  -6.133
REMARK INTRA:                  -0.408
REMARK UNBOUND:                -0.410
REMARK SMILES CCO[C@H]1O[C@@H](CO)[C@@H](O)[C@H](O)[C@@H]1O
REMARK SMILES IDX 4 1 13 2 11 3 9 4 6 5 5 6 3 7 2 8 1 9 14 10 12 12 7 14 8 15
REMARK SMILES IDX 10 17
REMARK H PARENT 14 11 12 13 8 16 10 18
REMARK Flexibility Score: inf
ROOT
ATOM      1  C   UNL     1     -14.113  42.529  36.617  1.00  0.00     0.281 C 
ATOM      2  C   UNL     1     -15.553  42.188  37.093  1.00  0.00     0.202 C 
ATOM      3  C   UNL     1     -15.756  42.617  38.564  1.00  0.00     0.179 C 
ATOM      4  C   UNL     1     -14.469  42.362  39.370  1.00  0.00     0.177 C 
ATOM      5  C   UNL     1     -13.264  43.127  38.720  1.00  0.00     0.178 C 
ATOM      6  O   UNL     1     -13.538  43.567  37.397  1.00  0.00    -0.341 OA
ENDROOT
BRANCH   1   7
ATOM      7  O   UNL     1     -14.095  42.850  35.233  1.00  0.00    -0.350 OA
BRANCH   7   8
ATOM      8  C   UNL     1     -13.678  44.183  34.980  1.00  0.00     0.160 C 
ATOM      9  C   UNL     1     -14.851  45.000  34.453  1.00  0.00     0.035 C 
ENDBRANCH   7   8
ENDBRANCH   1   7
BRANCH   2  10
ATOM     10  O   UNL     1     -15.761  40.805  36.948  1.00  0.00    -0.385 OA
ATOM     11  H   UNL     1     -14.911  40.352  37.191  1.00  0.00     0.211 HD
ENDBRANCH   2  10
BRANCH   3  12
ATOM     12  O   UNL     1     -16.839  41.915  39.123  1.00  0.00    -0.387 OA
ATOM     13  H   UNL     1     -17.567  42.573  39.272  1.00  0.00     0.211 HD
ENDBRANCH   3  12
BRANCH   5  14
ATOM     14  C   UNL     1     -12.808  44.350  39.536  1.00  0.00     0.191 C 
BRANCH  14  15
ATOM     15  O   UNL     1     -11.998  43.963  40.616  1.00  0.00    -0.394 OA
ATOM     16  H   UNL     1     -11.357  43.290  40.267  1.00  0.00     0.210 HD
ENDBRANCH  14  15
ENDBRANCH   5  14
BRANCH   4  17
ATOM     17  O   UNL     1     -14.653  42.729  40.715  1.00  0.00    -0.387 OA
ATOM     18  H   UNL     1     -14.051  43.498  40.895  1.00  0.00     0.211 HD
ENDBRANCH   4  17
TORSDOF 7
ENDMDL
MODEL 5
REMARK VINA RESULT:    -4.715     12.466     14.483
REMARK INTER + INTRA:          -6.503
REMARK INTER:                  -6.370
REMARK INTRA:                  -0.133
REMARK UNBOUND:                -0.410
REMARK SMILES CCO[C@H]1O[C@@H](CO)[C@@H](O)[C@H](O)[C@@H]1O
REMARK SMILES IDX 4 1 13 2 11 3 9 4 6 5 5 6 3 7 2 8 1 9 14 10 12 12 7 14 8 15
REMARK SMILES IDX 10 17
REMARK H PARENT 14 11 12 13 8 16 10 18
REMARK Flexibility Score: inf
ROOT
ATOM      1  C   UNL     1      -5.464  40.120  28.280  1.00  0.00     0.281 C 
ATOM      2  C   UNL     1      -4.507  40.987  29.146  1.00  0.00     0.202 C 
ATOM      3  C   UNL     1      -5.301  42.060  29.925  1.00  0.00     0.179 C 
ATOM      4  C   UNL     1      -6.451  42.601  29.055  1.00  0.00     0.177 C 
ATOM      5  C   UNL     1      -7.386  41.426  28.602  1.00  0.00     0.178 C 
ATOM      6  O   UNL     1      -6.792  40.147  28.782  1.00  0.00    -0.341 OA
ENDROOT
BRANCH   1   7
ATOM      7  O   UNL     1      -4.982  38.788  28.164  1.00  0.00    -0.350 OA
BRANCH   7   8
ATOM      8  C   UNL     1      -5.523  38.099  27.048  1.00  0.00     0.160 C 
ATOM      9  C   UNL     1      -4.717  36.834  26.781  1.00  0.00     0.035 C 
ENDBRANCH   7   8
ENDBRANCH   1   7
BRANCH   2  10
ATOM     10  O   UNL     1      -3.558  41.590  28.303  1.00  0.00    -0.385 OA
ATOM     11  H   UNL     1      -2.857  41.987  28.885  1.00  0.00     0.211 HD
ENDBRANCH   2  10
BRANCH   3  12
ATOM     12  O   UNL     1      -4.442  43.102  30.316  1.00  0.00    -0.387 OA
ATOM     13  H   UNL     1      -4.977  43.728  30.871  1.00  0.00     0.211 HD
ENDBRANCH   3  12
BRANCH   5  14
ATOM     14  C   UNL     1      -8.746  41.418  29.322  1.00  0.00     0.191 C 
BRANCH  14  15
ATOM     15  O   UNL     1      -9.743  40.850  28.513  1.00  0.00    -0.394 OA
ATOM     16  H   UNL     1      -9.517  41.082  27.574  1.00  0.00     0.210 HD
ENDBRANCH  14  15
ENDBRANCH   5  14
BRANCH   4  17
ATOM     17  O   UNL     1      -7.165  43.595  29.750  1.00  0.00    -0.387 OA
ATOM     18  H   UNL     1      -7.112  43.373  30.716  1.00  0.00     0.211 HD
ENDBRANCH   4  17
TORSDOF 7
ENDMDL
MODEL 6
REMARK VINA RESULT:    -4.694      2.662      5.101
REMARK INTER + INTRA:          -6.477
REMARK INTER:                  -6.132
REMARK INTRA:                  -0.344
REMARK UNBOUND:                -0.410
REMARK SMILES CCO[C@H]1O[C@@H](CO)[C@@H](O)[C@H](O)[C@@H]1O
REMARK SMILES IDX 4 1 13 2 11 3 9 4 6 5 5 6 3 7 2 8 1 9 14 10 12 12 7 14 8 15
REMARK SMILES IDX 10 17
REMARK H PARENT 14 11 12 13 8 16 10 18
REMARK Flexibility Score: inf
ROOT
ATOM      1  C   UNL     1     -11.743  44.202  37.654  1.00  0.00     0.281 C 
ATOM      2  C   UNL     1     -12.395  43.585  38.923  1.00  0.00     0.202 C 
ATOM      3  C   UNL     1     -13.901  43.325  38.690  1.00  0.00     0.179 C 
ATOM      4  C   UNL     1     -14.506  44.456  37.840  1.00  0.00     0.177 C 
ATOM      5  C   UNL     1     -13.738  44.579  36.477  1.00  0.00     0.178 C 
ATOM      6  O   UNL     1     -12.490  43.899  36.484  1.00  0.00    -0.341 OA
ENDROOT
BRANCH   1   7
ATOM      7  O   UNL     1     -10.389  43.791  37.524  1.00  0.00    -0.350 OA
BRANCH   7   8
ATOM      8  C   UNL     1      -9.624  44.661  36.704  1.00  0.00     0.160 C 
ATOM      9  C   UNL     1      -8.344  45.061  37.428  1.00  0.00     0.035 C 
ENDBRANCH   7   8
ENDBRANCH   1   7
BRANCH   2  10
ATOM     10  O   UNL     1     -12.207  44.468  40.001  1.00  0.00    -0.385 OA
ATOM     11  H   UNL     1     -12.339  45.390  39.653  1.00  0.00     0.211 HD
ENDBRANCH   2  10
BRANCH   3  12
ATOM     12  O   UNL     1     -14.566  43.222  39.925  1.00  0.00    -0.387 OA
ATOM     13  H   UNL     1     -14.951  44.115  40.124  1.00  0.00     0.211 HD
ENDBRANCH   3  12
BRANCH   5  14
ATOM     14  C   UNL     1     -14.546  44.065  35.273  1.00  0.00     0.191 C 
BRANCH  14  15
ATOM     15  O   UNL     1     -15.447  45.040  34.816  1.00  0.00    -0.394 OA
ATOM     16  H   UNL     1     -15.855  44.685  33.983  1.00  0.00     0.210 HD
ENDBRANCH  14  15
ENDBRANCH   5  14
BRANCH   4  17
ATOM     17  O   UNL     1     -15.882  44.237  37.641  1.00  0.00    -0.387 OA
ATOM     18  H   UNL     1     -16.318  45.128  37.601  1.00  0.00     0.211 HD
ENDBRANCH   4  17
TORSDOF 7
ENDMDL
MODEL 7
REMARK VINA RESULT:    -4.691      1.603      4.384
REMARK INTER + INTRA:          -6.473
REMARK INTER:                  -6.130
REMARK INTRA:                  -0.342
REMARK UNBOUND:                -0.410
REMARK SMILES CCO[C@H]1O[C@@H](CO)[C@@H](O)[C@H](O)[C@@H]1O
REMARK SMILES IDX 4 1 13 2 11 3 9 4 6 5 5 6 3 7 2 8 1 9 14 10 12 12 7 14 8 15
REMARK SMILES IDX 10 17
REMARK H PARENT 14 11 12 13 8 16 10 18
REMARK Flexibility Score: inf
ROOT
ATOM      1  C   UNL     1     -14.529  43.510  38.418  1.00  0.00     0.281 C 
ATOM      2  C   UNL     1     -13.205  43.980  39.083  1.00  0.00     0.202 C 
ATOM      3  C   UNL     1     -12.834  43.060  40.269  1.00  0.00     0.179 C 
ATOM      4  C   UNL     1     -14.107  42.633  41.023  1.00  0.00     0.177 C 
ATOM      5  C   UNL     1     -15.103  41.919  40.044  1.00  0.00     0.178 C 
ATOM      6  O   UNL     1     -14.784  42.137  38.676  1.00  0.00    -0.341 OA
ENDROOT
BRANCH   1   7
ATOM      7  O   UNL     1     -14.525  43.782  37.024  1.00  0.00    -0.350 OA
BRANCH   7   8
ATOM      8  C   UNL     1     -13.229  43.707  36.450  1.00  0.00     0.160 C 
ATOM      9  C   UNL     1     -12.952  44.963  35.633  1.00  0.00     0.035 C 
ENDBRANCH   7   8
ENDBRANCH   1   7
BRANCH   2  10
ATOM     10  O   UNL     1     -13.366  45.307  39.520  1.00  0.00    -0.385 OA
ATOM     11  H   UNL     1     -14.320  45.420  39.775  1.00  0.00     0.211 HD
ENDBRANCH   2  10
BRANCH   3  12
ATOM     12  O   UNL     1     -11.945  43.724  41.132  1.00  0.00    -0.387 OA
ATOM     13  H   UNL     1     -12.413  44.534  41.465  1.00  0.00     0.211 HD
ENDBRANCH   3  12
BRANCH   5  14
ATOM     14  C   UNL     1     -15.193  40.399  40.269  1.00  0.00     0.191 C 
BRANCH  14  15
ATOM     15  O   UNL     1     -15.815  40.105  41.492  1.00  0.00    -0.394 OA
ATOM     16  H   UNL     1     -15.139  39.643  42.054  1.00  0.00     0.210 HD
ENDBRANCH  14  15
ENDBRANCH   5  14
BRANCH   4  17
ATOM     17  O   UNL     1     -13.776  41.813  42.117  1.00  0.00    -0.387 OA
ATOM     18  H   UNL     1     -14.568  41.785  42.715  1.00  0.00     0.211 HD
ENDBRANCH   4  17
TORSDOF 7
ENDMDL
MODEL 8
REMARK VINA RESULT:    -4.629      1.534      3.264
REMARK INTER + INTRA:          -6.392
REMARK INTER:                  -6.219
REMARK INTRA:                  -0.173
REMARK UNBOUND:                -0.410
REMARK SMILES CCO[C@H]1O[C@@H](CO)[C@@H](O)[C@H](O)[C@@H]1O
REMARK SMILES IDX 4 1 13 2 11 3 9 4 6 5 5 6 3 7 2 8 1 9 14 10 12 12 7 14 8 15
REMARK SMILES IDX 10 17
REMARK H PARENT 14 11 12 13 8 16 10 18
REMARK Flexibility Score: inf
ROOT
ATOM      1  C   UNL     1     -14.626  42.410  39.804  1.00  0.00     0.281 C 
ATOM      2  C   UNL     1     -15.469  41.744  38.680  1.00  0.00     0.202 C 
ATOM      3  C   UNL     1     -15.017  42.248  37.290  1.00  0.00     0.179 C 
ATOM      4  C   UNL     1     -14.654  43.742  37.363  1.00  0.00     0.177 C 
ATOM      5  C   UNL     1     -13.536  43.975  38.438  1.00  0.00     0.178 C 
ATOM      6  O   UNL     1     -13.374  42.868  39.316  1.00  0.00    -0.341 OA
ENDROOT
BRANCH   1   7
ATOM      7  O   UNL     1     -14.461  41.530  40.907  1.00  0.00    -0.350 OA
BRANCH   7   8
ATOM      8  C   UNL     1     -15.348  41.813  41.978  1.00  0.00     0.160 C 
ATOM      9  C   UNL     1     -16.359  40.684  42.124  1.00  0.00     0.035 C 
ENDBRANCH   7   8
ENDBRANCH   1   7
BRANCH   2  10
ATOM     10  O   UNL     1     -16.826  42.042  38.896  1.00  0.00    -0.385 OA
ATOM     11  H   UNL     1     -17.044  41.767  39.826  1.00  0.00     0.211 HD
ENDBRANCH   2  10
BRANCH   3  12
ATOM     12  O   UNL     1     -16.037  42.031  36.346  1.00  0.00    -0.387 OA
ATOM     13  H   UNL     1     -15.691  42.338  35.468  1.00  0.00     0.211 HD
ENDBRANCH   3  12
BRANCH   5  14
ATOM     14  C   UNL     1     -12.160  44.295  37.827  1.00  0.00     0.191 C 
BRANCH  14  15
ATOM     15  O   UNL     1     -11.123  43.944  38.705  1.00  0.00    -0.394 OA
ATOM     16  H   UNL     1     -10.367  43.626  38.145  1.00  0.00     0.210 HD
ENDBRANCH  14  15
ENDBRANCH   5  14
BRANCH   4  17
ATOM     17  O   UNL     1     -14.262  44.213  36.096  1.00  0.00    -0.387 OA
ATOM     18  H   UNL     1     -15.071  44.218  35.521  1.00  0.00     0.211 HD
ENDBRANCH   4  17
TORSDOF 7
ENDMDL
MODEL 9
REMARK VINA RESULT:    -4.545     12.163     14.151
REMARK INTER + INTRA:          -6.284
REMARK INTER:                  -5.942
REMARK INTRA:                  -0.342
REMARK UNBOUND:                -0.410
REMARK SMILES CCO[C@H]1O[C@@H](CO)[C@@H](O)[C@H](O)[C@@H]1O
REMARK SMILES IDX 4 1 13 2 11 3 9 4 6 5 5 6 3 7 2 8 1 9 14 10 12 12 7 14 8 15
REMARK SMILES IDX 10 17
REMARK H PARENT 14 11 12 13 8 16 10 18
REMARK Flexibility Score: inf
ROOT
ATOM      1  C   UNL     1      -7.937  41.276  28.468  1.00  0.00     0.281 C 
ATOM      2  C   UNL     1      -7.273  40.028  27.820  1.00  0.00     0.202 C 
ATOM      3  C   UNL     1      -5.778  39.946  28.205  1.00  0.00     0.179 C 
ATOM      4  C   UNL     1      -5.166  41.358  28.248  1.00  0.00     0.177 C 
ATOM      5  C   UNL     1      -5.959  42.260  29.257  1.00  0.00     0.178 C 
ATOM      6  O   UNL     1      -7.221  41.712  29.614  1.00  0.00    -0.341 OA
ENDROOT
BRANCH   1   7
ATOM      7  O   UNL     1      -9.302  41.027  28.774  1.00  0.00    -0.350 OA
BRANCH   7   8
ATOM      8  C   UNL     1     -10.051  42.216  28.968  1.00  0.00     0.160 C 
ATOM      9  C   UNL     1     -11.529  41.943  28.719  1.00  0.00     0.035 C 
ENDBRANCH   7   8
ENDBRANCH   1   7
BRANCH   2  10
ATOM     10  O   UNL     1      -7.419  40.112  26.424  1.00  0.00    -0.385 OA
ATOM     11  H   UNL     1      -6.514  40.257  26.041  1.00  0.00     0.211 HD
ENDBRANCH   2  10
BRANCH   3  12
ATOM     12  O   UNL     1      -5.090  39.134  27.285  1.00  0.00    -0.387 OA
ATOM     13  H   UNL     1      -4.146  39.441  27.276  1.00  0.00     0.211 HD
ENDBRANCH   3  12
BRANCH   5  14
ATOM     14  C   UNL     1      -5.187  42.546  30.557  1.00  0.00     0.191 C 
BRANCH  14  15
ATOM     15  O   UNL     1      -4.278  43.601  30.383  1.00  0.00    -0.394 OA
ATOM     16  H   UNL     1      -4.335  43.876  29.431  1.00  0.00     0.210 HD
ENDBRANCH  14  15
ENDBRANCH   5  14
BRANCH   4  17
ATOM     17  O   UNL     1      -3.800  41.289  28.577  1.00  0.00    -0.387 OA
ATOM     18  H   UNL     1      -3.500  42.213  28.781  1.00  0.00     0.211 HD
ENDBRANCH   4  17
TORSDOF 7
ENDMDL
