MODEL 1
REMARK VINA RESULT:    -6.008      0.000      0.000
REMARK INTER + INTRA:         -12.979
REMARK INTER:                 -10.574
REMARK INTRA:                  -2.405
REMARK UNBOUND:                -2.405
REMARK SMILES CCCCCCC=CCCCCCCCC(=O)[O-]
REMARK SMILES IDX 10 1 11 2 12 3 13 4 14 5 15 6 16 7 17 8 18 9 9 10 8 11 7 12
REMARK SMILES IDX 6 13 5 14 4 15 3 16 2 17 1 18
REMARK H PARENT
REMARK Flexibility Score: inf
ROOT
ATOM      1  C   UNL     1     -64.723  -2.351   0.818  1.00  0.00     0.004 C 
ENDROOT
BRANCH   1   2
ATOM      2  C   UNL     1     -64.363  -0.880   1.086  1.00  0.00     0.000 C 
BRANCH   2   3
ATOM      3  C   UNL     1     -65.018   0.080   0.078  1.00  0.00     0.000 C 
BRANCH   3   4
ATOM      4  C   UNL     1     -64.336   1.457   0.045  1.00  0.00     0.000 C 
BRANCH   4   5
ATOM      5  C   UNL     1     -62.813   1.371   0.225  1.00  0.00     0.006 C 
BRANCH   5   6
ATOM      6  C   UNL     1     -62.172   2.760   0.132  1.00  0.00     0.053 C 
BRANCH   6   7
ATOM      7  C   UNL     1     -61.568   3.147   1.445  1.00  0.00     0.041 C 
ATOM      8  O   UNL     1     -61.254   2.263   2.285  1.00  0.00    -0.550 OA
ATOM      9  O   UNL     1     -61.316   4.484   1.726  1.00  0.00    -0.550 OA
ENDBRANCH   6   7
ENDBRANCH   5   6
ENDBRANCH   4   5
ENDBRANCH   3   4
ENDBRANCH   2   3
ENDBRANCH   1   2
BRANCH   1  10
ATOM     10  C   UNL     1     -63.490  -3.224   0.546  1.00  0.00     0.027 C 
BRANCH  10  11
ATOM     11  C   UNL     1     -62.294  -2.378   0.184  1.00  0.00    -0.031 C 
ATOM     12  C   UNL     1     -61.937  -2.102  -1.083  1.00  0.00    -0.031 C 
BRANCH  12  13
ATOM     13  C   UNL     1     -62.641  -2.647  -2.300  1.00  0.00     0.027 C 
BRANCH  13  14
ATOM     14  C   UNL     1     -63.618  -1.607  -2.870  1.00  0.00     0.004 C 
BRANCH  14  15
ATOM     15  C   UNL     1     -62.940  -0.259  -3.163  1.00  0.00     0.000 C 
BRANCH  15  16
ATOM     16  C   UNL     1     -63.913   0.772  -3.763  1.00  0.00    -0.000 C 
BRANCH  16  17
ATOM     17  C   UNL     1     -63.475   2.219  -3.492  1.00  0.00    -0.003 C 
ATOM     18  C   UNL     1     -64.652   3.140  -3.173  1.00  0.00     0.004 C 
ENDBRANCH  16  17
ENDBRANCH  15  16
ENDBRANCH  14  15
ENDBRANCH  13  14
ENDBRANCH  12  13
ENDBRANCH  10  11
ENDBRANCH   1  10
TORSDOF 13
ENDMDL
MODEL 2
REMARK VINA RESULT:    -5.844      0.933      3.625
REMARK INTER + INTRA:         -12.690
REMARK INTER:                 -10.466
REMARK INTRA:                  -2.224
REMARK UNBOUND:                -2.405
REMARK SMILES CCCCCCC=CCCCCCCCC(=O)[O-]
REMARK SMILES IDX 10 1 11 2 12 3 13 4 14 5 15 6 16 7 17 8 18 9 9 10 8 11 7 12
REMARK SMILES IDX 6 13 5 14 4 15 3 16 2 17 1 18
REMARK H PARENT
REMARK Flexibility Score: inf
ROOT
ATOM      1  C   UNL     1     -64.768   0.597  -3.602  1.00  0.00     0.004 C 
ENDROOT
BRANCH   1   2
ATOM      2  C   UNL     1     -63.873   1.845  -3.539  1.00  0.00     0.000 C 
BRANCH   2   3
ATOM      3  C   UNL     1     -64.510   2.986  -2.727  1.00  0.00     0.000 C 
BRANCH   3   4
ATOM      4  C   UNL     1     -64.143   2.925  -1.235  1.00  0.00     0.000 C 
BRANCH   4   5
ATOM      5  C   UNL     1     -62.649   2.664  -1.000  1.00  0.00     0.006 C 
BRANCH   5   6
ATOM      6  C   UNL     1     -62.418   1.989   0.356  1.00  0.00     0.053 C 
BRANCH   6   7
ATOM      7  C   UNL     1     -61.517   2.823   1.211  1.00  0.00     0.041 C 
ATOM      8  O   UNL     1     -60.270   2.649   1.178  1.00  0.00    -0.550 OA
ATOM      9  O   UNL     1     -62.051   3.820   2.017  1.00  0.00    -0.550 OA
ENDBRANCH   6   7
ENDBRANCH   5   6
ENDBRANCH   4   5
ENDBRANCH   3   4
ENDBRANCH   2   3
ENDBRANCH   1   2
BRANCH   1  10
ATOM     10  C   UNL     1     -64.165  -0.606  -2.863  1.00  0.00     0.027 C 
BRANCH  10  11
ATOM     11  C   UNL     1     -62.661  -0.502  -2.794  1.00  0.00    -0.031 C 
ATOM     12  C   UNL     1     -61.874  -1.466  -2.281  1.00  0.00    -0.031 C 
BRANCH  12  13
ATOM     13  C   UNL     1     -62.388  -2.739  -1.658  1.00  0.00     0.027 C 
BRANCH  13  14
ATOM     14  C   UNL     1     -62.522  -2.581  -0.136  1.00  0.00     0.004 C 
BRANCH  14  15
ATOM     15  C   UNL     1     -63.739  -3.329   0.431  1.00  0.00     0.000 C 
BRANCH  15  16
ATOM     16  C   UNL     1     -64.873  -2.377   0.853  1.00  0.00    -0.000 C 
BRANCH  16  17
ATOM     17  C   UNL     1     -64.460  -0.900   0.769  1.00  0.00    -0.003 C 
ATOM     18  C   UNL     1     -65.640   0.025   0.477  1.00  0.00     0.004 C 
ENDBRANCH  16  17
ENDBRANCH  15  16
ENDBRANCH  14  15
ENDBRANCH  13  14
ENDBRANCH  12  13
ENDBRANCH  10  11
ENDBRANCH   1  10
TORSDOF 13
ENDMDL
MODEL 3
REMARK VINA RESULT:    -5.764      2.611      5.736
REMARK INTER + INTRA:         -12.550
REMARK INTER:                 -10.070
REMARK INTRA:                  -2.480
REMARK UNBOUND:                -2.405
REMARK SMILES CCCCCCC=CCCCCCCCC(=O)[O-]
REMARK SMILES IDX 10 1 11 2 12 3 13 4 14 5 15 6 16 7 17 8 18 9 9 10 8 11 7 12
REMARK SMILES IDX 6 13 5 14 4 15 3 16 2 17 1 18
REMARK H PARENT
REMARK Flexibility Score: inf
ROOT
ATOM      1  C   UNL     1     -64.640   2.653  -3.497  1.00  0.00     0.004 C 
ENDROOT
BRANCH   1   2
ATOM      2  C   UNL     1     -64.473   1.177  -3.890  1.00  0.00     0.000 C 
BRANCH   2   3
ATOM      3  C   UNL     1     -65.301   0.233  -3.001  1.00  0.00     0.000 C 
BRANCH   3   4
ATOM      4  C   UNL     1     -64.634  -1.140  -2.815  1.00  0.00     0.000 C 
BRANCH   4   5
ATOM      5  C   UNL     1     -63.102  -1.054  -2.756  1.00  0.00     0.006 C 
BRANCH   5   6
ATOM      6  C   UNL     1     -62.462  -2.352  -3.260  1.00  0.00     0.053 C 
BRANCH   6   7
ATOM      7  C   UNL     1     -60.970  -2.267  -3.179  1.00  0.00     0.041 C 
ATOM      8  O   UNL     1     -60.253  -2.843  -4.039  1.00  0.00    -0.550 OA
ATOM      9  O   UNL     1     -60.371  -1.519  -2.173  1.00  0.00    -0.550 OA
ENDBRANCH   6   7
ENDBRANCH   5   6
ENDBRANCH   4   5
ENDBRANCH   3   4
ENDBRANCH   2   3
ENDBRANCH   1   2
BRANCH   1  10
ATOM     10  C   UNL     1     -63.940   3.000  -2.175  1.00  0.00     0.027 C 
BRANCH  10  11
ATOM     11  C   UNL     1     -62.478   2.630  -2.221  1.00  0.00    -0.031 C 
ATOM     12  C   UNL     1     -61.797   2.164  -1.158  1.00  0.00    -0.031 C 
BRANCH  12  13
ATOM     13  C   UNL     1     -62.383   2.010   0.223  1.00  0.00     0.027 C 
BRANCH  13  14
ATOM     14  C   UNL     1     -62.844   0.564   0.456  1.00  0.00     0.004 C 
BRANCH  14  15
ATOM     15  C   UNL     1     -64.375   0.433   0.506  1.00  0.00     0.000 C 
BRANCH  15  16
ATOM     16  C   UNL     1     -64.834  -0.990   0.871  1.00  0.00    -0.000 C 
BRANCH  16  17
ATOM     17  C   UNL     1     -63.678  -2.000   0.860  1.00  0.00    -0.003 C 
ATOM     18  C   UNL     1     -64.073  -3.340   0.241  1.00  0.00     0.004 C 
ENDBRANCH  16  17
ENDBRANCH  15  16
ENDBRANCH  14  15
ENDBRANCH  13  14
ENDBRANCH  12  13
ENDBRANCH  10  11
ENDBRANCH   1  10
TORSDOF 13
ENDMDL
MODEL 4
REMARK VINA RESULT:    -5.710      2.393      4.127
REMARK INTER + INTRA:         -12.455
REMARK INTER:                  -9.909
REMARK INTRA:                  -2.547
REMARK UNBOUND:                -2.405
REMARK SMILES CCCCCCC=CCCCCCCCC(=O)[O-]
REMARK SMILES IDX 10 1 11 2 12 3 13 4 14 5 15 6 16 7 17 8 18 9 9 10 8 11 7 12
REMARK SMILES IDX 6 13 5 14 4 15 3 16 2 17 1 18
REMARK H PARENT
REMARK Flexibility Score: inf
ROOT
ATOM      1  C   UNL     1     -65.534  -0.969  -0.031  1.00  0.00     0.004 C 
ENDROOT
BRANCH   1   2
ATOM      2  C   UNL     1     -64.657  -2.142   0.434  1.00  0.00     0.000 C 
BRANCH   2   3
ATOM      3  C   UNL     1     -64.456  -3.200  -0.664  1.00  0.00     0.000 C 
BRANCH   3   4
ATOM      4  C   UNL     1     -64.244  -2.576  -2.053  1.00  0.00     0.000 C 
BRANCH   4   5
ATOM      5  C   UNL     1     -62.806  -2.741  -2.566  1.00  0.00     0.006 C 
BRANCH   5   6
ATOM      6  C   UNL     1     -61.990  -1.467  -2.326  1.00  0.00     0.053 C 
BRANCH   6   7
ATOM      7  C   UNL     1     -60.829  -1.749  -1.425  1.00  0.00     0.041 C 
ATOM      8  O   UNL     1     -61.015  -2.268  -0.293  1.00  0.00    -0.550 OA
ATOM      9  O   UNL     1     -59.537  -1.472  -1.850  1.00  0.00    -0.550 OA
ENDBRANCH   6   7
ENDBRANCH   5   6
ENDBRANCH   4   5
ENDBRANCH   3   4
ENDBRANCH   2   3
ENDBRANCH   1   2
BRANCH   1  10
ATOM     10  C   UNL     1     -64.842   0.392   0.131  1.00  0.00     0.027 C 
BRANCH  10  11
ATOM     11  C   UNL     1     -63.403   0.223   0.549  1.00  0.00    -0.031 C 
ATOM     12  C   UNL     1     -62.459   1.162   0.356  1.00  0.00    -0.031 C 
BRANCH  12  13
ATOM     13  C   UNL     1     -62.697   2.472  -0.353  1.00  0.00     0.027 C 
BRANCH  13  14
ATOM     14  C   UNL     1     -61.758   2.613  -1.559  1.00  0.00     0.004 C 
BRANCH  14  15
ATOM     15  C   UNL     1     -62.405   2.139  -2.871  1.00  0.00     0.000 C 
BRANCH  15  16
ATOM     16  C   UNL     1     -63.620   2.994  -3.272  1.00  0.00    -0.000 C 
BRANCH  16  17
ATOM     17  C   UNL     1     -64.933   2.199  -3.240  1.00  0.00    -0.003 C 
ATOM     18  C   UNL     1     -64.743   0.734  -3.629  1.00  0.00     0.004 C 
ENDBRANCH  16  17
ENDBRANCH  15  16
ENDBRANCH  14  15
ENDBRANCH  13  14
ENDBRANCH  12  13
ENDBRANCH  10  11
ENDBRANCH   1  10
TORSDOF 13
ENDMDL
MODEL 5
REMARK VINA RESULT:    -5.643      1.048      4.273
REMARK INTER + INTRA:         -12.336
REMARK INTER:                 -10.481
REMARK INTRA:                  -1.855
REMARK UNBOUND:                -2.405
REMARK SMILES CCCCCCC=CCCCCCCCC(=O)[O-]
REMARK SMILES IDX 10 1 11 2 12 3 13 4 14 5 15 6 16 7 17 8 18 9 9 10 8 11 7 12
REMARK SMILES IDX 6 13 5 14 4 15 3 16 2 17 1 18
REMARK H PARENT
REMARK Flexibility Score: inf
ROOT
ATOM      1  C   UNL     1     -64.805   2.591  -3.612  1.00  0.00     0.004 C 
ENDROOT
BRANCH   1   2
ATOM      2  C   UNL     1     -63.824   3.300  -2.663  1.00  0.00     0.000 C 
BRANCH   2   3
ATOM      3  C   UNL     1     -62.383   2.784  -2.812  1.00  0.00     0.000 C 
BRANCH   3   4
ATOM      4  C   UNL     1     -61.886   2.052  -1.555  1.00  0.00     0.000 C 
BRANCH   4   5
ATOM      5  C   UNL     1     -62.846   2.191  -0.366  1.00  0.00     0.006 C 
BRANCH   5   6
ATOM      6  C   UNL     1     -62.165   1.769   0.940  1.00  0.00     0.053 C 
BRANCH   6   7
ATOM      7  C   UNL     1     -61.331   2.887   1.481  1.00  0.00     0.041 C 
ATOM      8  O   UNL     1     -61.874   3.852   2.082  1.00  0.00    -0.550 OA
ATOM      9  O   UNL     1     -59.949   2.845   1.357  1.00  0.00    -0.550 OA
ENDBRANCH   6   7
ENDBRANCH   5   6
ENDBRANCH   4   5
ENDBRANCH   3   4
ENDBRANCH   2   3
ENDBRANCH   1   2
BRANCH   1  10
ATOM     10  C   UNL     1     -64.382   1.152  -3.936  1.00  0.00     0.027 C 
BRANCH  10  11
ATOM     11  C   UNL     1     -65.280   0.153  -3.248  1.00  0.00    -0.031 C 
ATOM     12  C   UNL     1     -64.820  -0.852  -2.481  1.00  0.00    -0.031 C 
BRANCH  12  13
ATOM     13  C   UNL     1     -63.359  -1.150  -2.259  1.00  0.00     0.027 C 
BRANCH  13  14
ATOM     14  C   UNL     1     -63.171  -2.586  -1.748  1.00  0.00     0.004 C 
BRANCH  14  15
ATOM     15  C   UNL     1     -62.479  -2.639  -0.376  1.00  0.00     0.000 C 
BRANCH  15  16
ATOM     16  C   UNL     1     -63.414  -3.144   0.737  1.00  0.00    -0.000 C 
BRANCH  16  17
ATOM     17  C   UNL     1     -64.768  -2.421   0.739  1.00  0.00    -0.003 C 
ATOM     18  C   UNL     1     -64.662  -0.973   1.216  1.00  0.00     0.004 C 
ENDBRANCH  16  17
ENDBRANCH  15  16
ENDBRANCH  14  15
ENDBRANCH  13  14
ENDBRANCH  12  13
ENDBRANCH  10  11
ENDBRANCH   1  10
TORSDOF 13
ENDMDL
MODEL 6
REMARK VINA RESULT:    -5.613      2.485      5.325
REMARK INTER + INTRA:         -12.283
REMARK INTER:                  -9.726
REMARK INTRA:                  -2.557
REMARK UNBOUND:                -2.405
REMARK SMILES CCCCCCC=CCCCCCCCC(=O)[O-]
REMARK SMILES IDX 10 1 11 2 12 3 13 4 14 5 15 6 16 7 17 8 18 9 9 10 8 11 7 12
REMARK SMILES IDX 6 13 5 14 4 15 3 16 2 17 1 18
REMARK H PARENT
REMARK Flexibility Score: inf
ROOT
ATOM      1  C   UNL     1     -65.074  -0.155  -2.938  1.00  0.00     0.004 C 
ENDROOT
BRANCH   1   2
ATOM      2  C   UNL     1     -64.385  -1.517  -2.753  1.00  0.00     0.000 C 
BRANCH   2   3
ATOM      3  C   UNL     1     -62.853  -1.419  -2.840  1.00  0.00     0.000 C 
BRANCH   3   4
ATOM      4  C   UNL     1     -62.144  -2.559  -2.091  1.00  0.00     0.000 C 
BRANCH   4   5
ATOM      5  C   UNL     1     -61.282  -2.059  -0.923  1.00  0.00     0.006 C 
BRANCH   5   6
ATOM      6  C   UNL     1     -60.321  -0.959  -1.385  1.00  0.00     0.053 C 
BRANCH   6   7
ATOM      7  C   UNL     1     -58.965  -1.528  -1.660  1.00  0.00     0.041 C 
ATOM      8  O   UNL     1     -58.694  -2.005  -2.794  1.00  0.00    -0.550 OA
ATOM      9  O   UNL     1     -57.986  -1.498  -0.675  1.00  0.00    -0.550 OA
ENDBRANCH   6   7
ENDBRANCH   5   6
ENDBRANCH   4   5
ENDBRANCH   3   4
ENDBRANCH   2   3
ENDBRANCH   1   2
BRANCH   1  10
ATOM     10  C   UNL     1     -64.316   0.769  -3.902  1.00  0.00     0.027 C 
BRANCH  10  11
ATOM     11  C   UNL     1     -64.532   2.219  -3.548  1.00  0.00    -0.031 C 
ATOM     12  C   UNL     1     -63.703   2.920  -2.752  1.00  0.00    -0.031 C 
BRANCH  12  13
ATOM     13  C   UNL     1     -62.493   2.338  -2.066  1.00  0.00     0.027 C 
BRANCH  13  14
ATOM     14  C   UNL     1     -62.606   2.498  -0.543  1.00  0.00     0.004 C 
BRANCH  14  15
ATOM     15  C   UNL     1     -63.835   1.779   0.037  1.00  0.00     0.000 C 
BRANCH  15  16
ATOM     16  C   UNL     1     -63.533   0.323   0.436  1.00  0.00    -0.000 C 
BRANCH  16  17
ATOM     17  C   UNL     1     -64.802  -0.462   0.794  1.00  0.00    -0.003 C 
ATOM     18  C   UNL     1     -64.558  -1.968   0.882  1.00  0.00     0.004 C 
ENDBRANCH  16  17
ENDBRANCH  15  16
ENDBRANCH  14  15
ENDBRANCH  13  14
ENDBRANCH  12  13
ENDBRANCH  10  11
ENDBRANCH   1  10
TORSDOF 13
ENDMDL
MODEL 7
REMARK VINA RESULT:    -5.591      1.911      4.275
REMARK INTER + INTRA:         -12.245
REMARK INTER:                 -10.121
REMARK INTRA:                  -2.124
REMARK UNBOUND:                -2.405
REMARK SMILES CCCCCCC=CCCCCCCCC(=O)[O-]
REMARK SMILES IDX 10 1 11 2 12 3 13 4 14 5 15 6 16 7 17 8 18 9 9 10 8 11 7 12
REMARK SMILES IDX 6 13 5 14 4 15 3 16 2 17 1 18
REMARK H PARENT
REMARK Flexibility Score: inf
ROOT
ATOM      1  C   UNL     1     -61.900  -2.231  -0.915  1.00  0.00     0.004 C 
ENDROOT
BRANCH   1   2
ATOM      2  C   UNL     1     -62.109  -2.874  -2.296  1.00  0.00     0.000 C 
BRANCH   2   3
ATOM      3  C   UNL     1     -62.508  -1.847  -3.370  1.00  0.00     0.000 C 
BRANCH   3   4
ATOM      4  C   UNL     1     -62.806  -0.459  -2.779  1.00  0.00     0.000 C 
BRANCH   4   5
ATOM      5  C   UNL     1     -64.210   0.050  -3.135  1.00  0.00     0.006 C 
BRANCH   5   6
ATOM      6  C   UNL     1     -64.131   1.311  -4.001  1.00  0.00     0.053 C 
BRANCH   6   7
ATOM      7  C   UNL     1     -63.689   2.483  -3.182  1.00  0.00     0.041 C 
ATOM      8  O   UNL     1     -62.463   2.725  -3.029  1.00  0.00    -0.550 OA
ATOM      9  O   UNL     1     -64.633   3.332  -2.619  1.00  0.00    -0.550 OA
ENDBRANCH   6   7
ENDBRANCH   5   6
ENDBRANCH   4   5
ENDBRANCH   3   4
ENDBRANCH   2   3
ENDBRANCH   1   2
BRANCH   1  10
ATOM     10  C   UNL     1     -62.620  -2.989   0.209  1.00  0.00     0.027 C 
BRANCH  10  11
ATOM     11  C   UNL     1     -64.104  -3.061  -0.048  1.00  0.00    -0.031 C 
ATOM     12  C   UNL     1     -64.968  -2.095   0.314  1.00  0.00    -0.031 C 
BRANCH  12  13
ATOM     13  C   UNL     1     -64.579  -0.851   1.072  1.00  0.00     0.027 C 
BRANCH  13  14
ATOM     14  C   UNL     1     -65.055   0.406   0.328  1.00  0.00     0.004 C 
BRANCH  14  15
ATOM     15  C   UNL     1     -63.984   1.509   0.286  1.00  0.00     0.000 C 
BRANCH  15  16
ATOM     16  C   UNL     1     -62.578   0.980   0.622  1.00  0.00    -0.000 C 
BRANCH  16  17
ATOM     17  C   UNL     1     -61.524   2.095   0.653  1.00  0.00    -0.003 C 
ATOM     18  C   UNL     1     -62.023   3.357   1.356  1.00  0.00     0.004 C 
ENDBRANCH  16  17
ENDBRANCH  15  16
ENDBRANCH  14  15
ENDBRANCH  13  14
ENDBRANCH  12  13
ENDBRANCH  10  11
ENDBRANCH   1  10
TORSDOF 13
ENDMDL
MODEL 8
REMARK VINA RESULT:    -5.565      2.135      5.023
REMARK INTER + INTRA:         -12.200
REMARK INTER:                 -10.054
REMARK INTRA:                  -2.145
REMARK UNBOUND:                -2.405
REMARK SMILES CCCCCCC=CCCCCCCCC(=O)[O-]
REMARK SMILES IDX 10 1 11 2 12 3 13 4 14 5 15 6 16 7 17 8 18 9 9 10 8 11 7 12
REMARK SMILES IDX 6 13 5 14 4 15 3 16 2 17 1 18
REMARK H PARENT
REMARK Flexibility Score: inf
ROOT
ATOM      1  C   UNL     1     -64.105  -1.102  -2.916  1.00  0.00     0.004 C 
ENDROOT
BRANCH   1   2
ATOM      2  C   UNL     1     -62.610  -0.985  -3.256  1.00  0.00     0.000 C 
BRANCH   2   3
ATOM      3  C   UNL     1     -61.709  -1.599  -2.171  1.00  0.00     0.000 C 
BRANCH   3   4
ATOM      4  C   UNL     1     -62.393  -2.752  -1.418  1.00  0.00     0.000 C 
BRANCH   4   5
ATOM      5  C   UNL     1     -62.331  -2.586   0.107  1.00  0.00     0.006 C 
BRANCH   5   6
ATOM      6  C   UNL     1     -62.969  -1.262   0.540  1.00  0.00     0.053 C 
BRANCH   6   7
ATOM      7  C   UNL     1     -64.422  -1.453   0.840  1.00  0.00     0.041 C 
ATOM      8  O   UNL     1     -64.891  -2.612   0.997  1.00  0.00    -0.550 OA
ATOM      9  O   UNL     1     -65.252  -0.350   0.984  1.00  0.00    -0.550 OA
ENDBRANCH   6   7
ENDBRANCH   5   6
ENDBRANCH   4   5
ENDBRANCH   3   4
ENDBRANCH   2   3
ENDBRANCH   1   2
BRANCH   1  10
ATOM     10  C   UNL     1     -64.721   0.234  -2.477  1.00  0.00     0.027 C 
BRANCH  10  11
ATOM     11  C   UNL     1     -64.841   1.186  -3.642  1.00  0.00    -0.031 C 
ATOM     12  C   UNL     1     -64.300   2.418  -3.652  1.00  0.00    -0.031 C 
BRANCH  12  13
ATOM     13  C   UNL     1     -63.562   3.030  -2.488  1.00  0.00     0.027 C 
BRANCH  13  14
ATOM     14  C   UNL     1     -62.080   2.629  -2.517  1.00  0.00     0.004 C 
BRANCH  14  15
ATOM     15  C   UNL     1     -61.608   2.011  -1.191  1.00  0.00     0.000 C 
BRANCH  15  16
ATOM     16  C   UNL     1     -62.507   2.403  -0.004  1.00  0.00    -0.000 C 
BRANCH  16  17
ATOM     17  C   UNL     1     -61.728   2.499   1.315  1.00  0.00    -0.003 C 
ATOM     18  C   UNL     1     -61.703   3.918   1.882  1.00  0.00     0.004 C 
ENDBRANCH  16  17
ENDBRANCH  15  16
ENDBRANCH  14  15
ENDBRANCH  13  14
ENDBRANCH  12  13
ENDBRANCH  10  11
ENDBRANCH   1  10
TORSDOF 13
ENDMDL
MODEL 9
REMARK VINA RESULT:    -5.445      1.207      3.695
REMARK INTER + INTRA:         -11.988
REMARK INTER:                  -9.434
REMARK INTRA:                  -2.554
REMARK UNBOUND:                -2.405
REMARK SMILES CCCCCCC=CCCCCCCCC(=O)[O-]
REMARK SMILES IDX 10 1 11 2 12 3 13 4 14 5 15 6 16 7 17 8 18 9 9 10 8 11 7 12
REMARK SMILES IDX 6 13 5 14 4 15 3 16 2 17 1 18
REMARK H PARENT
REMARK Flexibility Score: inf
ROOT
ATOM      1  C   UNL     1     -64.647   0.746  -3.448  1.00  0.00     0.004 C 
ENDROOT
BRANCH   1   2
ATOM      2  C   UNL     1     -64.082   1.937  -2.656  1.00  0.00     0.000 C 
BRANCH   2   3
ATOM      3  C   UNL     1     -62.571   2.125  -2.872  1.00  0.00     0.000 C 
BRANCH   3   4
ATOM      4  C   UNL     1     -61.801   2.288  -1.552  1.00  0.00     0.000 C 
BRANCH   4   5
ATOM      5  C   UNL     1     -62.725   2.544  -0.352  1.00  0.00     0.006 C 
BRANCH   5   6
ATOM      6  C   UNL     1     -62.072   2.074   0.951  1.00  0.00     0.053 C 
BRANCH   6   7
ATOM      7  C   UNL     1     -61.026   3.048   1.395  1.00  0.00     0.041 C 
ATOM      8  O   UNL     1     -59.804   2.767   1.275  1.00  0.00    -0.550 OA
ATOM      9  O   UNL     1     -61.400   4.284   1.906  1.00  0.00    -0.550 OA
ENDBRANCH   6   7
ENDBRANCH   5   6
ENDBRANCH   4   5
ENDBRANCH   3   4
ENDBRANCH   2   3
ENDBRANCH   1   2
BRANCH   1  10
ATOM     10  C   UNL     1     -65.209  -0.358  -2.541  1.00  0.00     0.027 C 
BRANCH  10  11
ATOM     11  C   UNL     1     -65.234   0.083  -1.099  1.00  0.00    -0.031 C 
ATOM     12  C   UNL     1     -65.017  -0.749  -0.064  1.00  0.00    -0.031 C 
BRANCH  12  13
ATOM     13  C   UNL     1     -64.784  -2.233  -0.204  1.00  0.00     0.027 C 
BRANCH  13  14
ATOM     14  C   UNL     1     -63.391  -2.612   0.321  1.00  0.00     0.004 C 
BRANCH  14  15
ATOM     15  C   UNL     1     -62.348  -1.509   0.081  1.00  0.00     0.000 C 
BRANCH  15  16
ATOM     16  C   UNL     1     -61.282  -1.919  -0.950  1.00  0.00    -0.000 C 
BRANCH  16  17
ATOM     17  C   UNL     1     -61.649  -1.487  -2.377  1.00  0.00    -0.003 C 
ATOM     18  C   UNL     1     -62.346  -2.595  -3.165  1.00  0.00     0.004 C 
ENDBRANCH  16  17
ENDBRANCH  15  16
ENDBRANCH  14  15
ENDBRANCH  13  14
ENDBRANCH  12  13
ENDBRANCH  10  11
ENDBRANCH   1  10
TORSDOF 13
ENDMDL
