MODEL 1
REMARK VINA RESULT:    -3.714      0.000      0.000
REMARK INTER + INTRA:          -4.068
REMARK INTER:                  -4.040
REMARK INTRA:                  -0.028
REMARK UNBOUND:                -0.028
REMARK SMILES O=C([O-])c1ccc(O)cc1
REMARK SMILES IDX 7 1 6 2 9 3 5 4 10 5 4 6 8 7 2 9 1 10 3 11
REMARK H PARENT 8 8
REMARK Flexibility Score: inf
ROOT
ATOM      1  C   UNL     1      32.918 166.611 157.821  1.00  0.00     0.115 A 
ATOM      2  C   UNL     1      33.252 167.001 156.521  1.00  0.00     0.047 A 
ATOM      3  C   UNL     1      31.623 166.836 158.303  1.00  0.00     0.047 A 
ATOM      4  C   UNL     1      32.298 167.614 155.702  1.00  0.00     0.014 A 
ATOM      5  C   UNL     1      30.666 167.448 157.487  1.00  0.00     0.014 A 
ATOM      6  C   UNL     1      30.995 167.843 156.177  1.00  0.00    -0.003 A 
ENDROOT
BRANCH   1   7
ATOM      7  O   UNL     1      33.879 166.001 158.625  1.00  0.00    -0.508 OA
ATOM      8  H   UNL     1      33.799 165.030 158.903  1.00  0.00     0.293 HD
ENDBRANCH   1   7
BRANCH   6   9
ATOM      9  C   UNL     1      29.987 168.491 155.309  1.00  0.00     0.071 C 
ATOM     10  O   UNL     1      29.000 167.839 154.875  1.00  0.00    -0.545 OA
ATOM     11  O   UNL     1      30.115 169.831 154.959  1.00  0.00    -0.545 OA
ENDBRANCH   6   9
TORSDOF 2
ENDMDL
MODEL 2
REMARK VINA RESULT:    -3.682     22.226     22.958
REMARK INTER + INTRA:          -4.033
REMARK INTER:                  -4.005
REMARK INTRA:                  -0.027
REMARK UNBOUND:                -0.028
REMARK SMILES O=C([O-])c1ccc(O)cc1
REMARK SMILES IDX 7 1 6 2 9 3 5 4 10 5 4 6 8 7 2 9 1 10 3 11
REMARK H PARENT 8 8
REMARK Flexibility Score: inf
ROOT
ATOM      1  C   UNL     1      39.865 182.632 173.940  1.00  0.00     0.115 A 
ATOM      2  C   UNL     1      38.737 183.444 174.094  1.00  0.00     0.047 A 
ATOM      3  C   UNL     1      39.848 181.592 173.003  1.00  0.00     0.047 A 
ATOM      4  C   UNL     1      37.596 183.221 173.318  1.00  0.00     0.014 A 
ATOM      5  C   UNL     1      38.708 181.366 172.224  1.00  0.00     0.014 A 
ATOM      6  C   UNL     1      37.570 182.179 172.375  1.00  0.00    -0.003 A 
ENDROOT
BRANCH   1   7
ATOM      7  O   UNL     1      40.995 182.867 174.720  1.00  0.00    -0.508 OA
ATOM      8  H   UNL     1      41.912 182.542 174.437  1.00  0.00     0.293 HD
ENDBRANCH   1   7
BRANCH   6   9
ATOM      9  C   UNL     1      36.361 181.945 171.554  1.00  0.00     0.071 C 
ATOM     10  O   UNL     1      35.370 181.331 172.033  1.00  0.00    -0.545 OA
ATOM     11  O   UNL     1      36.301 182.400 170.242  1.00  0.00    -0.545 OA
ENDBRANCH   6   9
TORSDOF 2
ENDMDL
MODEL 3
REMARK VINA RESULT:    -3.675     22.249     22.945
REMARK INTER + INTRA:          -4.026
REMARK INTER:                  -3.998
REMARK INTRA:                  -0.027
REMARK UNBOUND:                -0.028
REMARK SMILES O=C([O-])c1ccc(O)cc1
REMARK SMILES IDX 7 1 6 2 9 3 5 4 10 5 4 6 8 7 2 9 1 10 3 11
REMARK H PARENT 8 8
REMARK Flexibility Score: inf
ROOT
ATOM      1  C   UNL     1      39.851 182.667 173.961  1.00  0.00     0.115 A 
ATOM      2  C   UNL     1      39.850 181.638 173.015  1.00  0.00     0.047 A 
ATOM      3  C   UNL     1      38.723 183.485 174.098  1.00  0.00     0.047 A 
ATOM      4  C   UNL     1      38.728 181.424 172.207  1.00  0.00     0.014 A 
ATOM      5  C   UNL     1      37.599 183.274 173.293  1.00  0.00     0.014 A 
ATOM      6  C   UNL     1      37.591 182.240 172.338  1.00  0.00    -0.003 A 
ENDROOT
BRANCH   1   7
ATOM      7  O   UNL     1      40.975 182.868 174.759  1.00  0.00    -0.508 OA
ATOM      8  H   UNL     1      41.725 182.188 174.798  1.00  0.00     0.293 HD
ENDBRANCH   1   7
BRANCH   6   9
ATOM      9  C   UNL     1      36.406 182.012 171.483  1.00  0.00     0.071 C 
ATOM     10  O   UNL     1      35.388 181.427 171.941  1.00  0.00    -0.545 OA
ATOM     11  O   UNL     1      36.398 182.439 170.160  1.00  0.00    -0.545 OA
ENDBRANCH   6   9
TORSDOF 2
ENDMDL
MODEL 4
REMARK VINA RESULT:    -3.620     22.671     23.882
REMARK INTER + INTRA:          -3.965
REMARK INTER:                  -3.937
REMARK INTRA:                  -0.028
REMARK UNBOUND:                -0.028
REMARK SMILES O=C([O-])c1ccc(O)cc1
REMARK SMILES IDX 7 1 6 2 9 3 5 4 10 5 4 6 8 7 2 9 1 10 3 11
REMARK H PARENT 8 8
REMARK Flexibility Score: inf
ROOT
ATOM      1  C   UNL     1      38.931 182.825 173.566  1.00  0.00     0.115 A 
ATOM      2  C   UNL     1      40.091 182.889 174.343  1.00  0.00     0.047 A 
ATOM      3  C   UNL     1      38.651 181.666 172.831  1.00  0.00     0.047 A 
ATOM      4  C   UNL     1      40.970 181.802 174.389  1.00  0.00     0.014 A 
ATOM      5  C   UNL     1      39.528 180.577 172.874  1.00  0.00     0.014 A 
ATOM      6  C   UNL     1      40.697 180.635 173.654  1.00  0.00    -0.003 A 
ENDROOT
BRANCH   1   7
ATOM      7  O   UNL     1      38.065 183.915 173.531  1.00  0.00    -0.508 OA
ATOM      8  H   UNL     1      38.405 184.858 173.384  1.00  0.00     0.293 HD
ENDBRANCH   1   7
BRANCH   6   9
ATOM      9  C   UNL     1      41.629 179.486 173.705  1.00  0.00     0.071 C 
ATOM     10  O   UNL     1      41.273 178.396 174.226  1.00  0.00    -0.545 OA
ATOM     11  O   UNL     1      42.910 179.594 173.176  1.00  0.00    -0.545 OA
ENDBRANCH   6   9
TORSDOF 2
ENDMDL
MODEL 5
REMARK VINA RESULT:    -3.471     22.621     23.412
REMARK INTER + INTRA:          -3.803
REMARK INTER:                  -3.767
REMARK INTRA:                  -0.036
REMARK UNBOUND:                -0.028
REMARK SMILES O=C([O-])c1ccc(O)cc1
REMARK SMILES IDX 7 1 6 2 9 3 5 4 10 5 4 6 8 7 2 9 1 10 3 11
REMARK H PARENT 8 8
REMARK Flexibility Score: inf
ROOT
ATOM      1  C   UNL     1      40.939 181.104 174.324  1.00  0.00     0.115 A 
ATOM      2  C   UNL     1      40.184 180.274 173.491  1.00  0.00     0.047 A 
ATOM      3  C   UNL     1      40.522 182.421 174.556  1.00  0.00     0.047 A 
ATOM      4  C   UNL     1      39.016 180.753 172.889  1.00  0.00     0.014 A 
ATOM      5  C   UNL     1      39.354 182.903 173.955  1.00  0.00     0.014 A 
ATOM      6  C   UNL     1      38.590 182.073 173.115  1.00  0.00    -0.003 A 
ENDROOT
BRANCH   1   7
ATOM      7  O   UNL     1      42.100 180.613 174.918  1.00  0.00    -0.508 OA
ATOM      8  H   UNL     1      42.854 180.223 174.365  1.00  0.00     0.293 HD
ENDBRANCH   1   7
BRANCH   6   9
ATOM      9  C   UNL     1      37.354 182.578 172.477  1.00  0.00     0.071 C 
ATOM     10  O   UNL     1      36.898 183.715 172.772  1.00  0.00    -0.545 OA
ATOM     11  O   UNL     1      36.677 181.803 171.541  1.00  0.00    -0.545 OA
ENDBRANCH   6   9
TORSDOF 2
ENDMDL
MODEL 6
REMARK VINA RESULT:    -3.363     21.263     21.974
REMARK INTER + INTRA:          -3.686
REMARK INTER:                  -3.653
REMARK INTRA:                  -0.033
REMARK UNBOUND:                -0.028
REMARK SMILES O=C([O-])c1ccc(O)cc1
REMARK SMILES IDX 7 1 6 2 9 3 5 4 10 5 4 6 8 7 2 9 1 10 3 11
REMARK H PARENT 8 8
REMARK Flexibility Score: inf
ROOT
ATOM      1  C   UNL     1      39.163 180.253 173.947  1.00  0.00     0.115 A 
ATOM      2  C   UNL     1      39.492 180.789 172.699  1.00  0.00     0.047 A 
ATOM      3  C   UNL     1      37.833 180.283 174.387  1.00  0.00     0.047 A 
ATOM      4  C   UNL     1      38.501 181.354 171.890  1.00  0.00     0.014 A 
ATOM      5  C   UNL     1      36.839 180.847 173.581  1.00  0.00     0.014 A 
ATOM      6  C   UNL     1      37.164 181.389 172.324  1.00  0.00    -0.003 A 
ENDROOT
BRANCH   1   7
ATOM      7  O   UNL     1      40.161 179.692 174.741  1.00  0.00    -0.508 OA
ATOM      8  H   UNL     1      40.746 178.938 174.402  1.00  0.00     0.293 HD
ENDBRANCH   1   7
BRANCH   6   9
ATOM      9  C   UNL     1      36.117 181.987 171.466  1.00  0.00     0.071 C 
ATOM     10  O   UNL     1      34.958 181.493 171.431  1.00  0.00    -0.545 OA
ATOM     11  O   UNL     1      36.396 183.104 170.687  1.00  0.00    -0.545 OA
ENDBRANCH   6   9
TORSDOF 2
ENDMDL
MODEL 7
REMARK VINA RESULT:    -3.297      1.558      1.946
REMARK INTER + INTRA:          -3.614
REMARK INTER:                  -3.578
REMARK INTRA:                  -0.036
REMARK UNBOUND:                -0.028
REMARK SMILES O=C([O-])c1ccc(O)cc1
REMARK SMILES IDX 7 1 6 2 9 3 5 4 10 5 4 6 8 7 2 9 1 10 3 11
REMARK H PARENT 8 8
REMARK Flexibility Score: inf
ROOT
ATOM      1  C   UNL     1      32.100 165.817 159.485  1.00  0.00     0.115 A 
ATOM      2  C   UNL     1      33.087 165.933 158.502  1.00  0.00     0.047 A 
ATOM      3  C   UNL     1      30.838 166.385 159.272  1.00  0.00     0.047 A 
ATOM      4  C   UNL     1      32.818 166.612 157.309  1.00  0.00     0.014 A 
ATOM      5  C   UNL     1      30.565 167.064 158.080  1.00  0.00     0.014 A 
ATOM      6  C   UNL     1      31.554 167.185 157.087  1.00  0.00    -0.003 A 
ENDROOT
BRANCH   1   7
ATOM      7  O   UNL     1      32.383 165.137 160.668  1.00  0.00    -0.508 OA
ATOM      8  H   UNL     1      32.485 165.626 161.549  1.00  0.00     0.293 HD
ENDBRANCH   1   7
BRANCH   6   9
ATOM      9  C   UNL     1      31.271 167.903 155.824  1.00  0.00     0.071 C 
ATOM     10  O   UNL     1      32.100 167.880 154.875  1.00  0.00    -0.545 OA
ATOM     11  O   UNL     1      30.086 168.612 155.666  1.00  0.00    -0.545 OA
ENDBRANCH   6   9
TORSDOF 2
ENDMDL
MODEL 8
REMARK VINA RESULT:    -3.284     19.060     19.995
REMARK INTER + INTRA:          -3.600
REMARK INTER:                  -3.569
REMARK INTRA:                  -0.030
REMARK UNBOUND:                -0.028
REMARK SMILES O=C([O-])c1ccc(O)cc1
REMARK SMILES IDX 7 1 6 2 9 3 5 4 10 5 4 6 8 7 2 9 1 10 3 11
REMARK H PARENT 8 8
REMARK Flexibility Score: inf
ROOT
ATOM      1  C   UNL     1      32.470 177.998 171.639  1.00  0.00     0.115 A 
ATOM      2  C   UNL     1      32.362 179.141 170.841  1.00  0.00     0.047 A 
ATOM      3  C   UNL     1      33.422 177.956 172.665  1.00  0.00     0.047 A 
ATOM      4  C   UNL     1      33.199 180.239 171.063  1.00  0.00     0.014 A 
ATOM      5  C   UNL     1      34.261 179.052 172.891  1.00  0.00     0.014 A 
ATOM      6  C   UNL     1      34.158 180.205 172.091  1.00  0.00    -0.003 A 
ENDROOT
BRANCH   1   7
ATOM      7  O   UNL     1      31.629 176.913 171.406  1.00  0.00    -0.508 OA
ATOM      8  H   UNL     1      31.879 176.178 170.754  1.00  0.00     0.293 HD
ENDBRANCH   1   7
BRANCH   6   9
ATOM      9  C   UNL     1      35.043 181.368 172.325  1.00  0.00     0.071 C 
ATOM     10  O   UNL     1      35.148 181.871 173.475  1.00  0.00    -0.545 OA
ATOM     11  O   UNL     1      35.771 181.921 171.278  1.00  0.00    -0.545 OA
ENDBRANCH   6   9
TORSDOF 2
ENDMDL
MODEL 9
REMARK VINA RESULT:    -3.270     21.602     22.667
REMARK INTER + INTRA:          -3.584
REMARK INTER:                  -3.557
REMARK INTRA:                  -0.027
REMARK UNBOUND:                -0.028
REMARK SMILES O=C([O-])c1ccc(O)cc1
REMARK SMILES IDX 7 1 6 2 9 3 5 4 10 5 4 6 8 7 2 9 1 10 3 11
REMARK H PARENT 8 8
REMARK Flexibility Score: inf
ROOT
ATOM      1  C   UNL     1      36.390 181.349 172.547  1.00  0.00     0.115 A 
ATOM      2  C   UNL     1      37.465 181.678 171.717  1.00  0.00     0.047 A 
ATOM      3  C   UNL     1      36.623 180.675 173.752  1.00  0.00     0.047 A 
ATOM      4  C   UNL     1      38.770 181.335 172.084  1.00  0.00     0.014 A 
ATOM      5  C   UNL     1      37.927 180.331 174.123  1.00  0.00     0.014 A 
ATOM      6  C   UNL     1      39.014 180.657 173.292  1.00  0.00    -0.003 A 
ENDROOT
BRANCH   1   7
ATOM      7  O   UNL     1      35.095 181.698 172.168  1.00  0.00    -0.508 OA
ATOM      8  H   UNL     1      34.620 181.226 171.407  1.00  0.00     0.293 HD
ENDBRANCH   1   7
BRANCH   6   9
ATOM      9  C   UNL     1      40.396 180.296 173.679  1.00  0.00     0.071 C 
ATOM     10  O   UNL     1      40.865 179.161 173.397  1.00  0.00    -0.545 OA
ATOM     11  O   UNL     1      41.198 181.205 174.360  1.00  0.00    -0.545 OA
ENDBRANCH   6   9
TORSDOF 2
ENDMDL
