MODEL 1
REMARK VINA RESULT:    -4.813      0.000      0.000
REMARK INTER + INTRA:          -5.567
REMARK INTER:                  -5.938
REMARK INTRA:                   0.372
REMARK UNBOUND:                 0.372
REMARK SMILES COc1cc(-c2oc3cc(O)cc(O)c3c(=O)c2O)ccc1O
REMARK SMILES IDX 6 1 18 2 16 3 17 4 15 5 13 6 12 7 10 8 9 9 8 10 7 11 5 12
REMARK SMILES IDX 3 13 22 14 4 15 21 16 20 17 2 18 1 19 23 20 19 22 14 24
REMARK SMILES IDX 11 26
REMARK H PARENT 23 21 19 23 14 25 11 27
REMARK Flexibility Score: inf
ROOT
ATOM      1  C   UNL     1     -12.782  -3.893  23.548  1.00  0.00     0.180 A 
ATOM      2  C   UNL     1     -12.403  -2.568  23.824  1.00  0.00     0.208 A 
ATOM      3  C   UNL     1     -13.391  -1.571  23.862  1.00  0.00     0.238 A 
ATOM      4  O   UNL     1     -13.039  -0.378  24.057  1.00  0.00    -0.285 OA
ATOM      5  C   UNL     1     -14.747  -1.914  23.640  1.00  0.00     0.111 A 
ATOM      6  C   UNL     1     -15.835  -0.992  23.695  1.00  0.00     0.134 A 
ATOM      7  C   UNL     1     -17.119  -1.417  23.330  1.00  0.00     0.093 A 
ATOM      8  C   UNL     1     -17.364  -2.746  22.975  1.00  0.00     0.123 A 
ATOM      9  C   UNL     1     -16.319  -3.667  22.976  1.00  0.00     0.094 A 
ATOM     10  C   UNL     1     -15.021  -3.265  23.301  1.00  0.00     0.146 A 
ATOM     11  O   UNL     1     -14.052  -4.172  23.279  1.00  0.00    -0.452 OA
ENDROOT
BRANCH   1  12
ATOM     12  C   UNL     1     -11.801  -5.002  23.516  1.00  0.00     0.025 A 
ATOM     13  C   UNL     1     -11.124  -7.241  22.799  1.00  0.00     0.161 A 
ATOM     14  C   UNL     1      -9.882  -7.059  23.436  1.00  0.00     0.157 A 
ATOM     15  C   UNL     1     -12.076  -6.203  22.837  1.00  0.00     0.062 A 
ATOM     16  C   UNL     1      -9.602  -5.857  24.090  1.00  0.00     0.051 A 
ATOM     17  C   UNL     1     -10.548  -4.833  24.125  1.00  0.00     0.016 A 
BRANCH  13  18
ATOM     18  O   UNL     1     -11.374  -8.455  22.138  1.00  0.00    -0.493 OA
ATOM     19  C   UNL     1     -11.216  -8.661  20.739  1.00  0.00     0.278 C 
ENDBRANCH  13  18
BRANCH  14  20
ATOM     20  O   UNL     1      -8.913  -8.063  23.424  1.00  0.00    -0.504 OA
ATOM     21  H   UNL     1      -8.934  -8.841  24.071  1.00  0.00     0.293 HD
ENDBRANCH  14  20
ENDBRANCH   1  12
BRANCH   2  22
ATOM     22  O   UNL     1     -11.057  -2.248  24.019  1.00  0.00    -0.502 OA
ATOM     23  H   UNL     1     -10.708  -1.872  24.892  1.00  0.00     0.293 HD
ENDBRANCH   2  22
BRANCH   6  24
ATOM     24  O   UNL     1     -15.715   0.332  24.125  1.00  0.00    -0.507 OA
ATOM     25  H   UNL     1     -16.488   0.919  24.397  1.00  0.00     0.293 HD
ENDBRANCH   6  24
BRANCH   8  26
ATOM     26  O   UNL     1     -18.647  -3.163  22.628  1.00  0.00    -0.508 OA
ATOM     27  H   UNL     1     -19.390  -3.220  23.314  1.00  0.00     0.293 HD
ENDBRANCH   8  26
TORSDOF 6
ENDMDL
MODEL 2
REMARK VINA RESULT:    -4.694      1.057      1.238
REMARK INTER + INTRA:          -5.420
REMARK INTER:                  -5.953
REMARK INTRA:                   0.533
REMARK UNBOUND:                 0.372
REMARK SMILES COc1cc(-c2oc3cc(O)cc(O)c3c(=O)c2O)ccc1O
REMARK SMILES IDX 6 1 18 2 16 3 17 4 15 5 13 6 12 7 10 8 9 9 8 10 7 11 5 12
REMARK SMILES IDX 3 13 22 14 4 15 21 16 20 17 2 18 1 19 23 20 19 22 14 24
REMARK SMILES IDX 11 26
REMARK H PARENT 23 21 19 23 14 25 11 27
REMARK Flexibility Score: inf
ROOT
ATOM      1  C   UNL     1     -13.817  -3.482  23.310  1.00  0.00     0.180 A 
ATOM      2  C   UNL     1     -13.567  -2.116  23.519  1.00  0.00     0.208 A 
ATOM      3  C   UNL     1     -14.654  -1.236  23.646  1.00  0.00     0.238 A 
ATOM      4  O   UNL     1     -14.422  -0.006  23.780  1.00  0.00    -0.285 OA
ATOM      5  C   UNL     1     -15.976  -1.736  23.578  1.00  0.00     0.111 A 
ATOM      6  C   UNL     1     -17.151  -0.942  23.735  1.00  0.00     0.134 A 
ATOM      7  C   UNL     1     -18.409  -1.520  23.518  1.00  0.00     0.093 A 
ATOM      8  C   UNL     1     -18.536  -2.878  23.216  1.00  0.00     0.123 A 
ATOM      9  C   UNL     1     -17.397  -3.674  23.120  1.00  0.00     0.094 A 
ATOM     10  C   UNL     1     -16.127  -3.119  23.295  1.00  0.00     0.146 A 
ATOM     11  O   UNL     1     -15.067  -3.911  23.185  1.00  0.00    -0.452 OA
ENDROOT
BRANCH   1  12
ATOM     12  C   UNL     1     -12.724  -4.474  23.191  1.00  0.00     0.025 A 
ATOM     13  C   UNL     1     -11.624  -6.319  22.019  1.00  0.00     0.161 A 
ATOM     14  C   UNL     1     -10.595  -6.303  22.979  1.00  0.00     0.157 A 
ATOM     15  C   UNL     1     -12.682  -5.394  22.128  1.00  0.00     0.062 A 
ATOM     16  C   UNL     1     -10.626  -5.373  24.021  1.00  0.00     0.051 A 
ATOM     17  C   UNL     1     -11.676  -4.461  24.125  1.00  0.00     0.016 A 
BRANCH  13  18
ATOM     18  O   UNL     1     -11.561  -7.256  20.974  1.00  0.00    -0.493 OA
ATOM     19  C   UNL     1     -11.194  -8.622  21.135  1.00  0.00     0.278 C 
ENDBRANCH  13  18
BRANCH  14  20
ATOM     20  O   UNL     1      -9.531  -7.203  22.908  1.00  0.00    -0.504 OA
ATOM     21  H   UNL     1      -8.597  -6.915  22.646  1.00  0.00     0.293 HD
ENDBRANCH  14  20
ENDBRANCH   1  12
BRANCH   2  22
ATOM     22  O   UNL     1     -12.253  -1.640  23.561  1.00  0.00    -0.502 OA
ATOM     23  H   UNL     1     -11.489  -2.109  23.091  1.00  0.00     0.293 HD
ENDBRANCH   2  22
BRANCH   6  24
ATOM     24  O   UNL     1     -17.141   0.400  24.125  1.00  0.00    -0.507 OA
ATOM     25  H   UNL     1     -16.417   1.061  23.889  1.00  0.00     0.293 HD
ENDBRANCH   6  24
BRANCH   8  26
ATOM     26  O   UNL     1     -19.791  -3.447  23.017  1.00  0.00    -0.508 OA
ATOM     27  H   UNL     1     -19.900  -4.344  22.557  1.00  0.00     0.293 HD
ENDBRANCH   8  26
TORSDOF 6
ENDMDL
MODEL 3
REMARK VINA RESULT:    -4.519      1.683      7.230
REMARK INTER + INTRA:          -5.205
REMARK INTER:                  -5.615
REMARK INTRA:                   0.411
REMARK UNBOUND:                 0.372
REMARK SMILES COc1cc(-c2oc3cc(O)cc(O)c3c(=O)c2O)ccc1O
REMARK SMILES IDX 6 1 18 2 16 3 17 4 15 5 13 6 12 7 10 8 9 9 8 10 7 11 5 12
REMARK SMILES IDX 3 13 22 14 4 15 21 16 20 17 2 18 1 19 23 20 19 22 14 24
REMARK SMILES IDX 11 26
REMARK H PARENT 23 21 19 23 14 25 11 27
REMARK Flexibility Score: inf
ROOT
ATOM      1  C   UNL     1     -15.175  -2.562  23.639  1.00  0.00     0.180 A 
ATOM      2  C   UNL     1     -14.396  -1.402  23.791  1.00  0.00     0.208 A 
ATOM      3  C   UNL     1     -13.006  -1.530  23.936  1.00  0.00     0.238 A 
ATOM      4  O   UNL     1     -12.320  -0.491  24.125  1.00  0.00    -0.285 OA
ATOM      5  C   UNL     1     -12.410  -2.814  23.912  1.00  0.00     0.111 A 
ATOM      6  C   UNL     1     -11.008  -3.058  24.010  1.00  0.00     0.134 A 
ATOM      7  C   UNL     1     -10.541  -4.375  24.107  1.00  0.00     0.093 A 
ATOM      8  C   UNL     1     -11.421  -5.458  24.044  1.00  0.00     0.123 A 
ATOM      9  C   UNL     1     -12.787  -5.231  23.888  1.00  0.00     0.094 A 
ATOM     10  C   UNL     1     -13.286  -3.927  23.824  1.00  0.00     0.146 A 
ATOM     11  O   UNL     1     -14.595  -3.755  23.687  1.00  0.00    -0.452 OA
ENDROOT
BRANCH   1  12
ATOM     12  C   UNL     1     -16.643  -2.506  23.455  1.00  0.00     0.025 A 
ATOM     13  C   UNL     1     -18.738  -1.248  23.321  1.00  0.00     0.161 A 
ATOM     14  C   UNL     1     -19.427  -2.443  23.045  1.00  0.00     0.157 A 
ATOM     15  C   UNL     1     -17.343  -1.287  23.517  1.00  0.00     0.062 A 
ATOM     16  C   UNL     1     -18.728  -3.650  22.961  1.00  0.00     0.051 A 
ATOM     17  C   UNL     1     -17.347  -3.682  23.157  1.00  0.00     0.016 A 
BRANCH  13  18
ATOM     18  O   UNL     1     -19.464  -0.047  23.387  1.00  0.00    -0.493 OA
ATOM     19  C   UNL     1     -19.031   1.122  24.074  1.00  0.00     0.278 C 
ENDBRANCH  13  18
BRANCH  14  20
ATOM     20  O   UNL     1     -20.808  -2.449  22.847  1.00  0.00    -0.504 OA
ATOM     21  H   UNL     1     -21.376  -3.269  23.021  1.00  0.00     0.293 HD
ENDBRANCH  14  20
ENDBRANCH   1  12
BRANCH   2  22
ATOM     22  O   UNL     1     -15.007  -0.146  23.833  1.00  0.00    -0.502 OA
ATOM     23  H   UNL     1     -15.966  -0.017  24.132  1.00  0.00     0.293 HD
ENDBRANCH   2  22
BRANCH   6  24
ATOM     24  O   UNL     1     -10.037  -2.053  23.988  1.00  0.00    -0.507 OA
ATOM     25  H   UNL     1      -9.461  -1.793  24.775  1.00  0.00     0.293 HD
ENDBRANCH   6  24
BRANCH   8  26
ATOM     26  O   UNL     1     -10.948  -6.765  24.125  1.00  0.00    -0.508 OA
ATOM     27  H   UNL     1     -10.072  -7.040  23.694  1.00  0.00     0.293 HD
ENDBRANCH   8  26
TORSDOF 6
ENDMDL
MODEL 4
REMARK VINA RESULT:    -4.246      3.934      7.050
REMARK INTER + INTRA:          -4.867
REMARK INTER:                  -5.021
REMARK INTRA:                   0.153
REMARK UNBOUND:                 0.372
REMARK SMILES COc1cc(-c2oc3cc(O)cc(O)c3c(=O)c2O)ccc1O
REMARK SMILES IDX 6 1 18 2 16 3 17 4 15 5 13 6 12 7 10 8 9 9 8 10 7 11 5 12
REMARK SMILES IDX 3 13 22 14 4 15 21 16 20 17 2 18 1 19 23 20 19 22 14 24
REMARK SMILES IDX 11 26
REMARK H PARENT 23 21 19 23 14 25 11 27
REMARK Flexibility Score: inf
ROOT
ATOM      1  C   UNL     1      -8.333  -4.184  23.612  1.00  0.00     0.180 A 
ATOM      2  C   UNL     1      -9.580  -3.604  23.898  1.00  0.00     0.208 A 
ATOM      3  C   UNL     1     -10.723  -4.420  23.914  1.00  0.00     0.238 A 
ATOM      4  O   UNL     1     -11.844  -3.884  24.118  1.00  0.00    -0.285 OA
ATOM      5  C   UNL     1     -10.602  -5.807  23.659  1.00  0.00     0.111 A 
ATOM      6  C   UNL     1     -11.686  -6.733  23.690  1.00  0.00     0.134 A 
ATOM      7  C   UNL     1     -11.472  -8.060  23.294  1.00  0.00     0.093 A 
ATOM      8  C   UNL     1     -10.200  -8.508  22.932  1.00  0.00     0.123 A 
ATOM      9  C   UNL     1      -9.122  -7.624  22.957  1.00  0.00     0.094 A 
ATOM     10  C   UNL     1      -9.312  -6.286  23.313  1.00  0.00     0.146 A 
ATOM     11  O   UNL     1      -8.260  -5.476  23.312  1.00  0.00    -0.452 OA
ENDROOT
BRANCH   1  12
ATOM     12  C   UNL     1      -7.081  -3.393  23.601  1.00  0.00     0.025 A 
ATOM     13  C   UNL     1      -5.863  -1.317  23.161  1.00  0.00     0.161 A 
ATOM     14  C   UNL     1      -4.687  -1.914  23.652  1.00  0.00     0.157 A 
ATOM     15  C   UNL     1      -7.059  -2.062  23.147  1.00  0.00     0.062 A 
ATOM     16  C   UNL     1      -4.715  -3.228  24.125  1.00  0.00     0.051 A 
ATOM     17  C   UNL     1      -5.902  -3.961  24.107  1.00  0.00     0.016 A 
BRANCH  13  18
ATOM     18  O   UNL     1      -5.809   0.010  22.704  1.00  0.00    -0.493 OA
ATOM     19  C   UNL     1      -6.421   0.478  21.506  1.00  0.00     0.278 C 
ENDBRANCH  13  18
BRANCH  14  20
ATOM     20  O   UNL     1      -3.482  -1.212  23.682  1.00  0.00    -0.504 OA
ATOM     21  H   UNL     1      -2.706  -1.495  24.267  1.00  0.00     0.293 HD
ENDBRANCH  14  20
ENDBRANCH   1  12
BRANCH   2  22
ATOM     22  O   UNL     1      -9.680  -2.228  24.125  1.00  0.00    -0.502 OA
ATOM     23  H   UNL     1     -10.421  -1.821  24.683  1.00  0.00     0.293 HD
ENDBRANCH   2  22
BRANCH   6  24
ATOM     24  O   UNL     1     -12.976  -6.413  24.124  1.00  0.00    -0.507 OA
ATOM     25  H   UNL     1     -13.776  -7.020  24.044  1.00  0.00     0.293 HD
ENDBRANCH   6  24
BRANCH   8  26
ATOM     26  O   UNL     1      -9.993  -9.832  22.554  1.00  0.00    -0.508 OA
ATOM     27  H   UNL     1     -10.679 -10.552  22.748  1.00  0.00     0.293 HD
ENDBRANCH   8  26
TORSDOF 6
ENDMDL
MODEL 5
REMARK VINA RESULT:    -4.187      1.385      7.031
REMARK INTER + INTRA:          -4.795
REMARK INTER:                  -5.078
REMARK INTRA:                   0.283
REMARK UNBOUND:                 0.372
REMARK SMILES COc1cc(-c2oc3cc(O)cc(O)c3c(=O)c2O)ccc1O
REMARK SMILES IDX 6 1 18 2 16 3 17 4 15 5 13 6 12 7 10 8 9 9 8 10 7 11 5 12
REMARK SMILES IDX 3 13 22 14 4 15 21 16 20 17 2 18 1 19 23 20 19 22 14 24
REMARK SMILES IDX 11 26
REMARK H PARENT 23 21 19 23 14 25 11 27
REMARK Flexibility Score: inf
ROOT
ATOM      1  C   UNL     1     -13.683  -3.382  23.762  1.00  0.00     0.180 A 
ATOM      2  C   UNL     1     -12.546  -2.565  23.875  1.00  0.00     0.208 A 
ATOM      3  C   UNL     1     -11.281  -3.168  23.969  1.00  0.00     0.238 A 
ATOM      4  O   UNL     1     -10.271  -2.432  24.124  1.00  0.00    -0.285 OA
ATOM      5  C   UNL     1     -11.169  -4.579  23.933  1.00  0.00     0.111 A 
ATOM      6  C   UNL     1      -9.935  -5.295  23.980  1.00  0.00     0.134 A 
ATOM      7  C   UNL     1      -9.951  -6.692  24.070  1.00  0.00     0.093 A 
ATOM      8  C   UNL     1     -11.154  -7.402  24.048  1.00  0.00     0.123 A 
ATOM      9  C   UNL     1     -12.361  -6.715  23.942  1.00  0.00     0.094 A 
ATOM     10  C   UNL     1     -12.379  -5.319  23.887  1.00  0.00     0.146 A 
ATOM     11  O   UNL     1     -13.552  -4.703  23.797  1.00  0.00    -0.452 OA
ENDROOT
BRANCH   1  12
ATOM     12  C   UNL     1     -15.047  -2.820  23.633  1.00  0.00     0.025 A 
ATOM     13  C   UNL     1     -16.561  -0.986  23.053  1.00  0.00     0.161 A 
ATOM     14  C   UNL     1     -17.660  -1.813  23.352  1.00  0.00     0.157 A 
ATOM     15  C   UNL     1     -15.256  -1.501  23.189  1.00  0.00     0.062 A 
ATOM     16  C   UNL     1     -17.452  -3.129  23.770  1.00  0.00     0.051 A 
ATOM     17  C   UNL     1     -16.158  -3.633  23.904  1.00  0.00     0.016 A 
BRANCH  13  18
ATOM     18  O   UNL     1     -16.800   0.329  22.622  1.00  0.00    -0.493 OA
ATOM     19  C   UNL     1     -16.348   1.496  23.300  1.00  0.00     0.278 C 
ENDBRANCH  13  18
BRANCH  14  20
ATOM     20  O   UNL     1     -18.968  -1.342  23.233  1.00  0.00    -0.504 OA
ATOM     21  H   UNL     1     -19.762  -1.965  23.150  1.00  0.00     0.293 HD
ENDBRANCH  14  20
ENDBRANCH   1  12
BRANCH   2  22
ATOM     22  O   UNL     1     -12.681  -1.175  23.930  1.00  0.00    -0.502 OA
ATOM     23  H   UNL     1     -12.013  -0.546  23.502  1.00  0.00     0.293 HD
ENDBRANCH   2  22
BRANCH   6  24
ATOM     24  O   UNL     1      -8.678  -4.689  23.914  1.00  0.00    -0.507 OA
ATOM     25  H   UNL     1      -8.382  -4.057  23.186  1.00  0.00     0.293 HD
ENDBRANCH   6  24
BRANCH   8  26
ATOM     26  O   UNL     1     -11.160  -8.793  24.122  1.00  0.00    -0.508 OA
ATOM     27  H   UNL     1     -10.312  -9.318  24.304  1.00  0.00     0.293 HD
ENDBRANCH   8  26
TORSDOF 6
ENDMDL
MODEL 6
REMARK VINA RESULT:    -4.157      1.928      4.270
REMARK INTER + INTRA:          -4.757
REMARK INTER:                  -5.167
REMARK INTRA:                   0.410
REMARK UNBOUND:                 0.372
REMARK SMILES COc1cc(-c2oc3cc(O)cc(O)c3c(=O)c2O)ccc1O
REMARK SMILES IDX 6 1 18 2 16 3 17 4 15 5 13 6 12 7 10 8 9 9 8 10 7 11 5 12
REMARK SMILES IDX 3 13 22 14 4 15 21 16 20 17 2 18 1 19 23 20 19 22 14 24
REMARK SMILES IDX 11 26
REMARK H PARENT 23 21 19 23 14 25 11 27
REMARK Flexibility Score: inf
ROOT
ATOM      1  C   UNL     1     -15.071  -1.777  23.875  1.00  0.00     0.180 A 
ATOM      2  C   UNL     1     -16.116  -2.705  23.733  1.00  0.00     0.208 A 
ATOM      3  C   UNL     1     -17.436  -2.235  23.638  1.00  0.00     0.238 A 
ATOM      4  O   UNL     1     -18.372  -3.073  23.565  1.00  0.00    -0.285 OA
ATOM      5  C   UNL     1     -17.692  -0.842  23.671  1.00  0.00     0.111 A 
ATOM      6  C   UNL     1     -18.985  -0.254  23.543  1.00  0.00     0.134 A 
ATOM      7  C   UNL     1     -19.135   1.127  23.720  1.00  0.00     0.093 A 
ATOM      8  C   UNL     1     -18.030   1.948  23.957  1.00  0.00     0.123 A 
ATOM      9  C   UNL     1     -16.755   1.390  24.025  1.00  0.00     0.094 A 
ATOM     10  C   UNL     1     -16.578   0.011  23.887  1.00  0.00     0.146 A 
ATOM     11  O   UNL     1     -15.348  -0.482  23.969  1.00  0.00    -0.452 OA
ENDROOT
BRANCH   1  12
ATOM     12  C   UNL     1     -13.653  -2.195  23.956  1.00  0.00     0.025 A 
ATOM     13  C   UNL     1     -11.927  -3.930  23.926  1.00  0.00     0.161 A 
ATOM     14  C   UNL     1     -10.939  -2.936  24.060  1.00  0.00     0.157 A 
ATOM     15  C   UNL     1     -13.282  -3.549  23.867  1.00  0.00     0.062 A 
ATOM     16  C   UNL     1     -11.307  -1.589  24.125  1.00  0.00     0.051 A 
ATOM     17  C   UNL     1     -12.650  -1.219  24.067  1.00  0.00     0.016 A 
BRANCH  13  18
ATOM     18  O   UNL     1     -11.528  -5.274  23.851  1.00  0.00    -0.493 OA
ATOM     19  C   UNL     1     -12.053  -6.222  22.927  1.00  0.00     0.278 C 
ENDBRANCH  13  18
BRANCH  14  20
ATOM     20  O   UNL     1      -9.586  -3.269  24.125  1.00  0.00    -0.504 OA
ATOM     21  H   UNL     1      -9.217  -3.895  24.830  1.00  0.00     0.293 HD
ENDBRANCH  14  20
ENDBRANCH   1  12
BRANCH   2  22
ATOM     22  O   UNL     1     -15.843  -4.076  23.725  1.00  0.00    -0.502 OA
ATOM     23  H   UNL     1     -15.713  -4.610  24.575  1.00  0.00     0.293 HD
ENDBRANCH   2  22
BRANCH   6  24
ATOM     24  O   UNL     1     -20.140  -0.970  23.216  1.00  0.00    -0.507 OA
ATOM     25  H   UNL     1     -20.151  -1.918  22.873  1.00  0.00     0.293 HD
ENDBRANCH   6  24
BRANCH   8  26
ATOM     26  O   UNL     1     -18.187   3.323  24.117  1.00  0.00    -0.508 OA
ATOM     27  H   UNL     1     -19.042   3.720  24.489  1.00  0.00     0.293 HD
ENDBRANCH   8  26
TORSDOF 6
ENDMDL
MODEL 7
REMARK VINA RESULT:    -3.684      4.676      8.049
REMARK INTER + INTRA:          -4.174
REMARK INTER:                  -4.181
REMARK INTRA:                   0.006
REMARK UNBOUND:                 0.372
REMARK SMILES COc1cc(-c2oc3cc(O)cc(O)c3c(=O)c2O)ccc1O
REMARK SMILES IDX 6 1 18 2 16 3 17 4 15 5 13 6 12 7 10 8 9 9 8 10 7 11 5 12
REMARK SMILES IDX 3 13 22 14 4 15 21 16 20 17 2 18 1 19 23 20 19 22 14 24
REMARK SMILES IDX 11 26
REMARK H PARENT 23 21 19 23 14 25 11 27
REMARK Flexibility Score: inf
ROOT
ATOM      1  C   UNL     1      -7.499  -4.019  23.475  1.00  0.00     0.180 A 
ATOM      2  C   UNL     1      -6.309  -4.675  23.830  1.00  0.00     0.208 A 
ATOM      3  C   UNL     1      -5.109  -3.946  23.847  1.00  0.00     0.238 A 
ATOM      4  O   UNL     1      -4.038  -4.552  24.115  1.00  0.00    -0.285 OA
ATOM      5  C   UNL     1      -5.117  -2.568  23.524  1.00  0.00     0.111 A 
ATOM      6  C   UNL     1      -3.967  -1.724  23.549  1.00  0.00     0.134 A 
ATOM      7  C   UNL     1      -4.068  -0.406  23.084  1.00  0.00     0.093 A 
ATOM      8  C   UNL     1      -5.291   0.116  22.657  1.00  0.00     0.123 A 
ATOM      9  C   UNL     1      -6.432  -0.683  22.687  1.00  0.00     0.094 A 
ATOM     10  C   UNL     1      -6.356  -2.012  23.111  1.00  0.00     0.146 A 
ATOM     11  O   UNL     1      -7.465  -2.742  23.113  1.00  0.00    -0.452 OA
ENDROOT
BRANCH   1  12
ATOM     12  C   UNL     1      -8.806  -4.714  23.458  1.00  0.00     0.025 A 
ATOM     13  C   UNL     1     -10.204  -6.632  22.860  1.00  0.00     0.161 A 
ATOM     14  C   UNL     1     -11.299  -6.021  23.501  1.00  0.00     0.157 A 
ATOM     15  C   UNL     1      -8.958  -5.974  22.851  1.00  0.00     0.062 A 
ATOM     16  C   UNL     1     -11.141  -4.781  24.123  1.00  0.00     0.051 A 
ATOM     17  C   UNL     1      -9.905  -4.134  24.110  1.00  0.00     0.016 A 
BRANCH  13  18
ATOM     18  O   UNL     1     -10.388  -7.885  22.253  1.00  0.00    -0.493 OA
ATOM     19  C   UNL     1     -10.173  -9.135  22.899  1.00  0.00     0.278 C 
ENDBRANCH  13  18
BRANCH  14  20
ATOM     20  O   UNL     1     -12.550  -6.637  23.531  1.00  0.00    -0.504 OA
ATOM     21  H   UNL     1     -13.222  -6.460  24.267  1.00  0.00     0.293 HD
ENDBRANCH  14  20
ENDBRANCH   1  12
BRANCH   2  22
ATOM     22  O   UNL     1      -6.320  -6.041  24.125  1.00  0.00    -0.502 OA
ATOM     23  H   UNL     1      -5.672  -6.695  23.702  1.00  0.00     0.293 HD
ENDBRANCH   2  22
BRANCH   6  24
ATOM     24  O   UNL     1      -2.719  -2.117  24.041  1.00  0.00    -0.507 OA
ATOM     25  H   UNL     1      -1.845  -1.666  23.818  1.00  0.00     0.293 HD
ENDBRANCH   6  24
BRANCH   8  26
ATOM     26  O   UNL     1      -5.386   1.432  22.211  1.00  0.00    -0.508 OA
ATOM     27  H   UNL     1      -5.999   2.102  22.662  1.00  0.00     0.293 HD
ENDBRANCH   8  26
TORSDOF 6
ENDMDL
