MODEL 1
REMARK VINA RESULT:    -4.938      0.000      0.000
REMARK INTER + INTRA:          -7.233
REMARK INTER:                  -6.671
REMARK INTRA:                  -0.562
REMARK UNBOUND:                -0.562
REMARK SMILES [NH3+]CCCC[C@@H]([NH3+])C(=O)[O-]
REMARK SMILES IDX 4 1 3 2 2 3 1 4 5 8 6 9 7 10 8 14 9 15 10 16
REMARK H PARENT 1 5 1 6 1 7 7 11 7 12 7 13
REMARK Flexibility Score: inf
ROOT
ATOM      1  C   UNL     1      21.435  68.616   0.517  1.00  0.00     0.012 C 
ENDROOT
BRANCH   1   2
ATOM      2  C   UNL     1      20.282  68.938   1.478  1.00  0.00     0.061 C 
BRANCH   2   3
ATOM      3  C   UNL     1      18.964  69.229   0.742  1.00  0.00     0.258 C 
BRANCH   3   4
ATOM      4  N   UNL     1      18.472  70.582   1.005  1.00  0.00    -0.358 N 
ATOM      5  H   UNL     1      18.855  71.230   0.278  1.00  0.00     0.344 HD
ATOM      6  H   UNL     1      17.428  70.608   0.949  1.00  0.00     0.344 HD
ATOM      7  H   UNL     1      18.789  70.910   1.947  1.00  0.00     0.344 HD
ENDBRANCH   3   4
ENDBRANCH   2   3
ENDBRANCH   1   2
BRANCH   1   8
ATOM      8  C   UNL     1      22.391  69.811   0.382  1.00  0.00     0.072 C 
BRANCH   8   9
ATOM      9  C   UNL     1      22.304  70.478  -1.007  1.00  0.00     0.227 C 
BRANCH   9  10
ATOM     10  N   UNL     1      21.508  69.654  -1.922  1.00  0.00    -0.350 N 
ATOM     11  H   UNL     1      21.136  68.809  -1.431  1.00  0.00     0.345 HD
ATOM     12  H   UNL     1      20.708  70.213  -2.299  1.00  0.00     0.345 HD
ATOM     13  H   UNL     1      22.100  69.347  -2.729  1.00  0.00     0.345 HD
ENDBRANCH   9  10
BRANCH   9  14
ATOM     14  C   UNL     1      21.707  71.859  -0.908  1.00  0.00     0.099 C 
ATOM     15  O   UNL     1      20.975  72.163   0.070  1.00  0.00    -0.544 OA
ATOM     16  O   UNL     1      21.957  72.803  -1.897  1.00  0.00    -0.544 OA
ENDBRANCH   9  14
ENDBRANCH   8   9
ENDBRANCH   1   8
TORSDOF 7
ENDMDL
MODEL 2
REMARK VINA RESULT:    -4.867      3.214      4.695
REMARK INTER + INTRA:          -7.137
REMARK INTER:                  -6.580
REMARK INTRA:                  -0.557
REMARK UNBOUND:                -0.562
REMARK SMILES [NH3+]CCCC[C@@H]([NH3+])C(=O)[O-]
REMARK SMILES IDX 4 1 3 2 2 3 1 4 5 8 6 9 7 10 8 14 9 15 10 16
REMARK H PARENT 1 5 1 6 1 7 7 11 7 12 7 13
REMARK Flexibility Score: inf
ROOT
ATOM      1  C   UNL     1      20.208  70.277   0.143  1.00  0.00     0.012 C 
ENDROOT
BRANCH   1   2
ATOM      2  C   UNL     1      21.710  70.484   0.381  1.00  0.00     0.061 C 
BRANCH   2   3
ATOM      3  C   UNL     1      22.574  69.460  -0.375  1.00  0.00     0.258 C 
BRANCH   3   4
ATOM      4  N   UNL     1      23.454  68.710   0.524  1.00  0.00    -0.358 N 
ATOM      5  H   UNL     1      23.034  67.769   0.702  1.00  0.00     0.344 HD
ATOM      6  H   UNL     1      24.392  68.573   0.084  1.00  0.00     0.344 HD
ATOM      7  H   UNL     1      23.556  69.210   1.437  1.00  0.00     0.344 HD
ENDBRANCH   3   4
ENDBRANCH   2   3
ENDBRANCH   1   2
BRANCH   1   8
ATOM      8  C   UNL     1      19.552  69.568   1.338  1.00  0.00     0.072 C 
BRANCH   8   9
ATOM      9  C   UNL     1      19.169  68.108   1.015  1.00  0.00     0.227 C 
BRANCH   9  10
ATOM     10  N   UNL     1      19.305  67.848  -0.422  1.00  0.00    -0.350 N 
ATOM     11  H   UNL     1      20.311  67.870  -0.709  1.00  0.00     0.345 HD
ATOM     12  H   UNL     1      18.901  66.911  -0.654  1.00  0.00     0.345 HD
ATOM     13  H   UNL     1      18.780  68.573  -0.965  1.00  0.00     0.345 HD
ENDBRANCH   9  10
BRANCH   9  14
ATOM     14  C   UNL     1      20.021  67.139   1.795  1.00  0.00     0.099 C 
ATOM     15  O   UNL     1      21.157  67.488   2.209  1.00  0.00    -0.544 OA
ATOM     16  O   UNL     1      19.560  65.854   2.056  1.00  0.00    -0.544 OA
ENDBRANCH   9  14
ENDBRANCH   8   9
ENDBRANCH   1   8
TORSDOF 7
ENDMDL
MODEL 3
REMARK VINA RESULT:    -4.783      1.695      1.842
REMARK INTER + INTRA:          -7.023
REMARK INTER:                  -6.912
REMARK INTRA:                  -0.111
REMARK UNBOUND:                -0.562
REMARK SMILES [NH3+]CCCC[C@@H]([NH3+])C(=O)[O-]
REMARK SMILES IDX 4 1 3 2 2 3 1 4 5 8 6 9 7 10 8 14 9 15 10 16
REMARK H PARENT 1 5 1 6 1 7 7 11 7 12 7 13
REMARK Flexibility Score: inf
ROOT
ATOM      1  C   UNL     1      20.674  68.669   0.150  1.00  0.00     0.012 C 
ENDROOT
BRANCH   1   2
ATOM      2  C   UNL     1      19.997  68.429   1.507  1.00  0.00     0.061 C 
BRANCH   2   3
ATOM      3  C   UNL     1      20.547  67.188   2.230  1.00  0.00     0.258 C 
BRANCH   3   4
ATOM      4  N   UNL     1      19.734  65.997   1.979  1.00  0.00    -0.358 N 
ATOM      5  H   UNL     1      19.888  65.682   0.993  1.00  0.00     0.344 HD
ATOM      6  H   UNL     1      20.018  65.221   2.619  1.00  0.00     0.344 HD
ATOM      7  H   UNL     1      18.718  66.214   2.106  1.00  0.00     0.344 HD
ENDBRANCH   3   4
ENDBRANCH   2   3
ENDBRANCH   1   2
BRANCH   1   8
ATOM      8  C   UNL     1      21.888  69.599   0.295  1.00  0.00     0.072 C 
BRANCH   8   9
ATOM      9  C   UNL     1      22.172  70.398  -0.994  1.00  0.00     0.227 C 
BRANCH   9  10
ATOM     10  N   UNL     1      21.555  69.741  -2.151  1.00  0.00    -0.350 N 
ATOM     11  H   UNL     1      22.143  68.941  -2.480  1.00  0.00     0.345 HD
ATOM     12  H   UNL     1      20.605  69.385  -1.893  1.00  0.00     0.345 HD
ATOM     13  H   UNL     1      21.444  70.428  -2.932  1.00  0.00     0.345 HD
ENDBRANCH   9  10
BRANCH   9  14
ATOM     14  C   UNL     1      21.667  71.813  -0.877  1.00  0.00     0.099 C 
ATOM     15  O   UNL     1      20.992  72.163   0.126  1.00  0.00    -0.544 OA
ATOM     16  O   UNL     1      21.937  72.739  -1.878  1.00  0.00    -0.544 OA
ENDBRANCH   9  14
ENDBRANCH   8   9
ENDBRANCH   1   8
TORSDOF 7
ENDMDL
MODEL 4
REMARK VINA RESULT:    -4.766      2.516      4.330
REMARK INTER + INTRA:          -6.999
REMARK INTER:                  -6.492
REMARK INTRA:                  -0.507
REMARK UNBOUND:                -0.562
REMARK SMILES [NH3+]CCCC[C@@H]([NH3+])C(=O)[O-]
REMARK SMILES IDX 4 1 3 2 2 3 1 4 5 8 6 9 7 10 8 14 9 15 10 16
REMARK H PARENT 1 5 1 6 1 7 7 11 7 12 7 13
REMARK Flexibility Score: inf
ROOT
ATOM      1  C   UNL     1      20.845  71.216   0.156  1.00  0.00     0.012 C 
ENDROOT
BRANCH   1   2
ATOM      2  C   UNL     1      21.965  71.196  -0.893  1.00  0.00     0.061 C 
BRANCH   2   3
ATOM      3  C   UNL     1      22.250  69.782  -1.426  1.00  0.00     0.258 C 
BRANCH   3   4
ATOM      4  N   UNL     1      21.240  69.342  -2.390  1.00  0.00    -0.358 N 
ATOM      5  H   UNL     1      20.407  68.982  -1.869  1.00  0.00     0.344 HD
ATOM      6  H   UNL     1      20.932  70.142  -2.987  1.00  0.00     0.344 HD
ATOM      7  H   UNL     1      21.617  68.572  -2.990  1.00  0.00     0.344 HD
ENDBRANCH   3   4
ENDBRANCH   2   3
ENDBRANCH   1   2
BRANCH   1   8
ATOM      8  C   UNL     1      20.951  70.007   1.100  1.00  0.00     0.072 C 
BRANCH   8   9
ATOM      9  C   UNL     1      19.585  69.330   1.340  1.00  0.00     0.227 C 
BRANCH   9  10
ATOM     10  N   UNL     1      18.500  70.158   0.803  1.00  0.00    -0.350 N 
ATOM     11  H   UNL     1      17.974  69.643   0.060  1.00  0.00     0.345 HD
ATOM     12  H   UNL     1      17.841  70.422   1.571  1.00  0.00     0.345 HD
ATOM     13  H   UNL     1      18.894  71.038   0.395  1.00  0.00     0.345 HD
ENDBRANCH   9  10
BRANCH   9  14
ATOM     14  C   UNL     1      19.543  67.959   0.713  1.00  0.00     0.099 C 
ATOM     15  O   UNL     1      19.360  67.836  -0.526  1.00  0.00    -0.544 OA
ATOM     16  O   UNL     1      19.701  66.824   1.499  1.00  0.00    -0.544 OA
ENDBRANCH   9  14
ENDBRANCH   8   9
ENDBRANCH   1   8
TORSDOF 7
ENDMDL
MODEL 5
REMARK VINA RESULT:    -4.749      1.732      1.894
REMARK INTER + INTRA:          -6.977
REMARK INTER:                  -6.765
REMARK INTRA:                  -0.212
REMARK UNBOUND:                -0.562
REMARK SMILES [NH3+]CCCC[C@@H]([NH3+])C(=O)[O-]
REMARK SMILES IDX 4 1 3 2 2 3 1 4 5 8 6 9 7 10 8 14 9 15 10 16
REMARK H PARENT 1 5 1 6 1 7 7 11 7 12 7 13
REMARK Flexibility Score: inf
ROOT
ATOM      1  C   UNL     1      21.046  68.242   1.556  1.00  0.00     0.012 C 
ENDROOT
BRANCH   1   2
ATOM      2  C   UNL     1      19.711  67.568   1.205  1.00  0.00     0.061 C 
BRANCH   2   3
ATOM      3  C   UNL     1      19.113  68.091  -0.111  1.00  0.00     0.258 C 
BRANCH   3   4
ATOM      4  N   UNL     1      17.848  68.797   0.100  1.00  0.00    -0.358 N 
ATOM      5  H   UNL     1      17.707  69.482  -0.678  1.00  0.00     0.344 HD
ATOM      6  H   UNL     1      17.049  68.123   0.092  1.00  0.00     0.344 HD
ATOM      7  H   UNL     1      17.866  69.319   1.007  1.00  0.00     0.344 HD
ENDBRANCH   3   4
ENDBRANCH   2   3
ENDBRANCH   1   2
BRANCH   1   8
ATOM      8  C   UNL     1      21.067  69.703   1.080  1.00  0.00     0.072 C 
BRANCH   8   9
ATOM      9  C   UNL     1      22.307  70.021   0.218  1.00  0.00     0.227 C 
BRANCH   9  10
ATOM     10  N   UNL     1      23.168  68.839   0.103  1.00  0.00    -0.350 N 
ATOM     11  H   UNL     1      22.656  67.978   0.401  1.00  0.00     0.345 HD
ATOM     12  H   UNL     1      23.486  68.726  -0.888  1.00  0.00     0.345 HD
ATOM     13  H   UNL     1      24.016  68.958   0.705  1.00  0.00     0.345 HD
ENDBRANCH   9  10
BRANCH   9  14
ATOM     14  C   UNL     1      21.904  70.499  -1.154  1.00  0.00     0.099 C 
ATOM     15  O   UNL     1      21.643  69.667  -2.062  1.00  0.00    -0.544 OA
ATOM     16  O   UNL     1      21.825  71.859  -1.427  1.00  0.00    -0.544 OA
ENDBRANCH   9  14
ENDBRANCH   8   9
ENDBRANCH   1   8
TORSDOF 7
ENDMDL
MODEL 6
REMARK VINA RESULT:    -4.600      2.390      3.897
REMARK INTER + INTRA:          -6.776
REMARK INTER:                  -6.578
REMARK INTRA:                  -0.198
REMARK UNBOUND:                -0.562
REMARK SMILES [NH3+]CCCC[C@@H]([NH3+])C(=O)[O-]
REMARK SMILES IDX 4 1 3 2 2 3 1 4 5 8 6 9 7 10 8 14 9 15 10 16
REMARK H PARENT 1 5 1 6 1 7 7 11 7 12 7 13
REMARK Flexibility Score: inf
ROOT
ATOM      1  C   UNL     1      22.512  69.661  -0.340  1.00  0.00     0.012 C 
ENDROOT
BRANCH   1   2
ATOM      2  C   UNL     1      21.884  70.555  -1.420  1.00  0.00     0.061 C 
BRANCH   2   3
ATOM      3  C   UNL     1      21.685  72.003  -0.945  1.00  0.00     0.258 C 
BRANCH   3   4
ATOM      4  N   UNL     1      21.918  72.973  -2.017  1.00  0.00    -0.358 N 
ATOM      5  H   UNL     1      21.001  73.224  -2.453  1.00  0.00     0.344 HD
ATOM      6  H   UNL     1      22.349  73.844  -1.633  1.00  0.00     0.344 HD
ATOM      7  H   UNL     1      22.538  72.562  -2.754  1.00  0.00     0.344 HD
ENDBRANCH   3   4
ENDBRANCH   2   3
ENDBRANCH   1   2
BRANCH   1   8
ATOM      8  C   UNL     1      21.595  69.553   0.888  1.00  0.00     0.072 C 
BRANCH   8   9
ATOM      9  C   UNL     1      20.509  68.471   0.715  1.00  0.00     0.227 C 
BRANCH   9  10
ATOM     10  N   UNL     1      20.450  67.610   1.901  1.00  0.00    -0.350 N 
ATOM     11  H   UNL     1      21.408  67.447   2.289  1.00  0.00     0.345 HD
ATOM     12  H   UNL     1      19.853  68.056   2.635  1.00  0.00     0.345 HD
ATOM     13  H   UNL     1      20.023  66.688   1.649  1.00  0.00     0.345 HD
ENDBRANCH   9  10
BRANCH   9  14
ATOM     14  C   UNL     1      19.159  69.093   0.464  1.00  0.00     0.099 C 
ATOM     15  O   UNL     1      18.227  68.406  -0.029  1.00  0.00    -0.544 OA
ATOM     16  O   UNL     1      18.937  70.431   0.771  1.00  0.00    -0.544 OA
ENDBRANCH   9  14
ENDBRANCH   8   9
ENDBRANCH   1   8
TORSDOF 7
ENDMDL
MODEL 7
REMARK VINA RESULT:    -4.587      2.882      4.287
REMARK INTER + INTRA:          -6.758
REMARK INTER:                  -6.683
REMARK INTRA:                  -0.075
REMARK UNBOUND:                -0.562
REMARK SMILES [NH3+]CCCC[C@@H]([NH3+])C(=O)[O-]
REMARK SMILES IDX 4 1 3 2 2 3 1 4 5 8 6 9 7 10 8 14 9 15 10 16
REMARK H PARENT 1 5 1 6 1 7 7 11 7 12 7 13
REMARK Flexibility Score: inf
ROOT
ATOM      1  C   UNL     1      21.615  69.540  -0.351  1.00  0.00     0.012 C 
ENDROOT
BRANCH   1   2
ATOM      2  C   UNL     1      22.131  70.598  -1.337  1.00  0.00     0.061 C 
BRANCH   2   3
ATOM      3  C   UNL     1      21.697  72.022  -0.955  1.00  0.00     0.258 C 
BRANCH   3   4
ATOM      4  N   UNL     1      21.866  72.966  -2.062  1.00  0.00    -0.358 N 
ATOM      5  H   UNL     1      22.887  73.149  -2.199  1.00  0.00     0.344 HD
ATOM      6  H   UNL     1      21.483  72.562  -2.947  1.00  0.00     0.344 HD
ATOM      7  H   UNL     1      21.390  73.872  -1.846  1.00  0.00     0.344 HD
ENDBRANCH   3   4
ENDBRANCH   2   3
ENDBRANCH   1   2
BRANCH   1   8
ATOM      8  C   UNL     1      21.171  70.187   0.970  1.00  0.00     0.072 C 
BRANCH   8   9
ATOM      9  C   UNL     1      19.896  69.533   1.544  1.00  0.00     0.227 C 
BRANCH   9  10
ATOM     10  N   UNL     1      18.702  70.071   0.884  1.00  0.00    -0.350 N 
ATOM     11  H   UNL     1      17.877  69.449   1.047  1.00  0.00     0.345 HD
ATOM     12  H   UNL     1      18.490  71.027   1.255  1.00  0.00     0.345 HD
ATOM     13  H   UNL     1      18.871  70.151  -0.146  1.00  0.00     0.345 HD
ENDBRANCH   9  10
BRANCH   9  14
ATOM     14  C   UNL     1      19.939  68.035   1.387  1.00  0.00     0.099 C 
ATOM     15  O   UNL     1      20.576  67.330   2.212  1.00  0.00    -0.544 OA
ATOM     16  O   UNL     1      19.280  67.422   0.327  1.00  0.00    -0.544 OA
ENDBRANCH   9  14
ENDBRANCH   8   9
ENDBRANCH   1   8
TORSDOF 7
ENDMDL
MODEL 8
REMARK VINA RESULT:    -4.454      2.600      3.043
REMARK INTER + INTRA:          -6.579
REMARK INTER:                  -6.429
REMARK INTRA:                  -0.150
REMARK UNBOUND:                -0.562
REMARK SMILES [NH3+]CCCC[C@@H]([NH3+])C(=O)[O-]
REMARK SMILES IDX 4 1 3 2 2 3 1 4 5 8 6 9 7 10 8 14 9 15 10 16
REMARK H PARENT 1 5 1 6 1 7 7 11 7 12 7 13
REMARK Flexibility Score: inf
ROOT
ATOM      1  C   UNL     1      19.165  69.322   0.540  1.00  0.00     0.012 C 
ENDROOT
BRANCH   1   2
ATOM      2  C   UNL     1      19.568  67.845   0.431  1.00  0.00     0.061 C 
BRANCH   2   3
ATOM      3  C   UNL     1      20.117  67.283   1.752  1.00  0.00     0.258 C 
BRANCH   3   4
ATOM      4  N   UNL     1      19.716  65.892   1.971  1.00  0.00    -0.358 N 
ATOM      5  H   UNL     1      19.903  65.638   2.968  1.00  0.00     0.344 HD
ATOM      6  H   UNL     1      18.694  65.775   1.788  1.00  0.00     0.344 HD
ATOM      7  H   UNL     1      20.267  65.251   1.353  1.00  0.00     0.344 HD
ENDBRANCH   3   4
ENDBRANCH   2   3
ENDBRANCH   1   2
BRANCH   1   8
ATOM      8  C   UNL     1      20.392  70.212   0.791  1.00  0.00     0.072 C 
BRANCH   8   9
ATOM      9  C   UNL     1      21.162  70.528  -0.509  1.00  0.00     0.227 C 
BRANCH   9  10
ATOM     10  N   UNL     1      21.576  71.935  -0.530  1.00  0.00    -0.350 N 
ATOM     11  H   UNL     1      22.053  72.166  -1.431  1.00  0.00     0.345 HD
ATOM     12  H   UNL     1      20.740  72.553  -0.415  1.00  0.00     0.345 HD
ATOM     13  H   UNL     1      22.233  72.124   0.263  1.00  0.00     0.345 HD
ENDBRANCH   9  10
BRANCH   9  14
ATOM     14  C   UNL     1      22.369  69.636  -0.654  1.00  0.00     0.099 C 
ATOM     15  O   UNL     1      22.809  69.348  -1.797  1.00  0.00    -0.544 OA
ATOM     16  O   UNL     1      22.999  69.121   0.473  1.00  0.00    -0.544 OA
ENDBRANCH   9  14
ENDBRANCH   8   9
ENDBRANCH   1   8
TORSDOF 7
ENDMDL
MODEL 9
REMARK VINA RESULT:    -4.099     12.165     12.595
REMARK INTER + INTRA:          -6.098
REMARK INTER:                  -6.021
REMARK INTRA:                  -0.077
REMARK UNBOUND:                -0.562
REMARK SMILES [NH3+]CCCC[C@@H]([NH3+])C(=O)[O-]
REMARK SMILES IDX 4 1 3 2 2 3 1 4 5 8 6 9 7 10 8 14 9 15 10 16
REMARK H PARENT 1 5 1 6 1 7 7 11 7 12 7 13
REMARK Flexibility Score: inf
ROOT
ATOM      1  C   UNL     1      18.207  62.881  -7.998  1.00  0.00     0.012 C 
ENDROOT
BRANCH   1   2
ATOM      2  C   UNL     1      18.105  61.576  -7.196  1.00  0.00     0.061 C 
BRANCH   2   3
ATOM      3  C   UNL     1      16.928  61.581  -6.207  1.00  0.00     0.258 C 
BRANCH   3   4
ATOM      4  N   UNL     1      16.987  60.455  -5.273  1.00  0.00    -0.358 N 
ATOM      5  H   UNL     1      16.914  59.562  -5.812  1.00  0.00     0.344 HD
ATOM      6  H   UNL     1      17.898  60.455  -4.759  1.00  0.00     0.344 HD
ATOM      7  H   UNL     1      16.193  60.501  -4.593  1.00  0.00     0.344 HD
ENDBRANCH   3   4
ENDBRANCH   2   3
ENDBRANCH   1   2
BRANCH   1   8
ATOM      8  C   UNL     1      17.587  62.719  -9.395  1.00  0.00     0.072 C 
BRANCH   8   9
ATOM      9  C   UNL     1      18.412  63.433 -10.488  1.00  0.00     0.227 C 
BRANCH   9  10
ATOM     10  N   UNL     1      19.388  62.510 -11.078  1.00  0.00    -0.350 N 
ATOM     11  H   UNL     1      19.361  62.561 -12.122  1.00  0.00     0.345 HD
ATOM     12  H   UNL     1      20.350  62.751 -10.746  1.00  0.00     0.345 HD
ATOM     13  H   UNL     1      19.175  61.530 -10.779  1.00  0.00     0.345 HD
ENDBRANCH   9  10
BRANCH   9  14
ATOM     14  C   UNL     1      17.516  63.990 -11.564  1.00  0.00     0.099 C 
ATOM     15  O   UNL     1      17.259  63.307 -12.590  1.00  0.00    -0.544 OA
ATOM     16  O   UNL     1      16.972  65.263 -11.434  1.00  0.00    -0.544 OA
ENDBRANCH   9  14
ENDBRANCH   8   9
ENDBRANCH   1   8
TORSDOF 7
ENDMDL
