MODEL 1
REMARK VINA RESULT:    -5.447      0.000      0.000
REMARK INTER + INTRA:          -6.464
REMARK INTER:                  -6.243
REMARK INTRA:                  -0.221
REMARK UNBOUND:                -0.221
REMARK SMILES COC(=O)c1ccccc1O
REMARK SMILES IDX 5 1 6 2 7 3 8 4 9 5 10 6 3 7 4 8 2 9 1 10 11 11
REMARK H PARENT 11 12
REMARK Flexibility Score: inf
ROOT
ATOM      1  C   UNL     1     -40.334  38.076  48.172  1.00  0.00     0.101 A 
ATOM      2  C   UNL     1     -40.970  38.386  46.955  1.00  0.00     0.019 A 
ATOM      3  C   UNL     1     -40.244  38.909  45.883  1.00  0.00     0.001 A 
ATOM      4  C   UNL     1     -38.873  39.133  46.008  1.00  0.00     0.004 A 
ATOM      5  C   UNL     1     -38.224  38.833  47.206  1.00  0.00     0.047 A 
ATOM      6  C   UNL     1     -38.941  38.306  48.291  1.00  0.00     0.130 A 
ENDROOT
BRANCH   1   7
ATOM      7  C   UNL     1     -41.138  37.521  49.290  1.00  0.00     0.341 C 
ATOM      8  O   UNL     1     -41.500  38.256  50.250  1.00  0.00    -0.246 OA
BRANCH   7   9
ATOM      9  O   UNL     1     -41.500  36.169  49.279  1.00  0.00    -0.465 OA
ATOM     10  C   UNL     1     -40.645  35.140  49.765  1.00  0.00     0.282 C 
ENDBRANCH   7   9
ENDBRANCH   1   7
BRANCH   6  11
ATOM     11  O   UNL     1     -38.268  38.016  49.478  1.00  0.00    -0.507 OA
ATOM     12  H   UNL     1     -37.577  38.647  49.867  1.00  0.00     0.293 HD
ENDBRANCH   6  11
TORSDOF 3
ENDMDL
MODEL 2
REMARK VINA RESULT:    -5.226     10.706     12.880
REMARK INTER + INTRA:          -6.211
REMARK INTER:                  -5.917
REMARK INTRA:                  -0.294
REMARK UNBOUND:                -0.221
REMARK SMILES COC(=O)c1ccccc1O
REMARK SMILES IDX 5 1 6 2 7 3 8 4 9 5 10 6 3 7 4 8 2 9 1 10 11 11
REMARK H PARENT 11 12
REMARK Flexibility Score: inf
ROOT
ATOM      1  C   UNL     1     -34.661  44.337  39.462  1.00  0.00     0.101 A 
ATOM      2  C   UNL     1     -35.078  45.052  40.601  1.00  0.00     0.019 A 
ATOM      3  C   UNL     1     -35.361  44.387  41.797  1.00  0.00     0.001 A 
ATOM      4  C   UNL     1     -35.233  43.000  41.874  1.00  0.00     0.004 A 
ATOM      5  C   UNL     1     -34.822  42.274  40.757  1.00  0.00     0.047 A 
ATOM      6  C   UNL     1     -34.534  42.929  39.549  1.00  0.00     0.130 A 
ENDROOT
BRANCH   1   7
ATOM      7  C   UNL     1     -34.368  45.077  38.208  1.00  0.00     0.341 C 
ATOM      8  O   UNL     1     -35.166  45.955  37.778  1.00  0.00    -0.246 OA
BRANCH   7   9
ATOM      9  O   UNL     1     -33.195  44.799  37.497  1.00  0.00    -0.465 OA
ATOM     10  C   UNL     1     -32.183  45.774  37.272  1.00  0.00     0.282 C 
ENDBRANCH   7   9
ENDBRANCH   1   7
BRANCH   6  11
ATOM     11  O   UNL     1     -34.124  42.179  38.446  1.00  0.00    -0.507 OA
ATOM     12  H   UNL     1     -33.501  41.385  38.544  1.00  0.00     0.293 HD
ENDBRANCH   6  11
TORSDOF 3
ENDMDL
MODEL 3
REMARK VINA RESULT:    -5.036      1.643      2.478
REMARK INTER + INTRA:          -5.993
REMARK INTER:                  -5.722
REMARK INTRA:                  -0.270
REMARK UNBOUND:                -0.221
REMARK SMILES COC(=O)c1ccccc1O
REMARK SMILES IDX 5 1 6 2 7 3 8 4 9 5 10 6 3 7 4 8 2 9 1 10 11 11
REMARK H PARENT 11 12
REMARK Flexibility Score: inf
ROOT
ATOM      1  C   UNL     1     -39.637  37.347  47.380  1.00  0.00     0.101 A 
ATOM      2  C   UNL     1     -38.327  36.930  47.076  1.00  0.00     0.019 A 
ATOM      3  C   UNL     1     -37.567  37.605  46.117  1.00  0.00     0.001 A 
ATOM      4  C   UNL     1     -38.103  38.705  45.447  1.00  0.00     0.004 A 
ATOM      5  C   UNL     1     -39.399  39.134  45.734  1.00  0.00     0.047 A 
ATOM      6  C   UNL     1     -40.173  38.465  46.695  1.00  0.00     0.130 A 
ENDROOT
BRANCH   1   7
ATOM      7  C   UNL     1     -40.415  36.605  48.405  1.00  0.00     0.341 C 
ATOM      8  O   UNL     1     -40.157  35.395  48.657  1.00  0.00    -0.246 OA
BRANCH   7   9
ATOM      9  O   UNL     1     -41.442  37.254  49.099  1.00  0.00    -0.465 OA
ATOM     10  C   UNL     1     -41.535  37.245  50.519  1.00  0.00     0.282 C 
ENDBRANCH   7   9
ENDBRANCH   1   7
BRANCH   6  11
ATOM     11  O   UNL     1     -41.466  38.913  46.962  1.00  0.00    -0.507 OA
ATOM     12  H   UNL     1     -41.965  38.633  47.800  1.00  0.00     0.293 HD
ENDBRANCH   6  11
TORSDOF 3
ENDMDL
MODEL 4
REMARK VINA RESULT:    -5.034      2.571      4.037
REMARK INTER + INTRA:          -5.990
REMARK INTER:                  -5.688
REMARK INTRA:                  -0.303
REMARK UNBOUND:                -0.221
REMARK SMILES COC(=O)c1ccccc1O
REMARK SMILES IDX 5 1 6 2 7 3 8 4 9 5 10 6 3 7 4 8 2 9 1 10 11 11
REMARK H PARENT 11 12
REMARK Flexibility Score: inf
ROOT
ATOM      1  C   UNL     1     -38.968  37.017  47.389  1.00  0.00     0.101 A 
ATOM      2  C   UNL     1     -39.743  35.883  47.699  1.00  0.00     0.019 A 
ATOM      3  C   UNL     1     -40.803  35.968  48.605  1.00  0.00     0.001 A 
ATOM      4  C   UNL     1     -41.106  37.185  49.215  1.00  0.00     0.004 A 
ATOM      5  C   UNL     1     -40.350  38.321  48.922  1.00  0.00     0.047 A 
ATOM      6  C   UNL     1     -39.282  38.249  48.013  1.00  0.00     0.130 A 
ENDROOT
BRANCH   1   7
ATOM      7  C   UNL     1     -37.849  36.887  46.421  1.00  0.00     0.341 C 
ATOM      8  O   UNL     1     -37.677  37.752  45.518  1.00  0.00    -0.246 OA
BRANCH   7   9
ATOM      9  O   UNL     1     -36.975  35.798  46.513  1.00  0.00    -0.465 OA
ATOM     10  C   UNL     1     -36.753  34.898  45.434  1.00  0.00     0.282 C 
ENDBRANCH   7   9
ENDBRANCH   1   7
BRANCH   6  11
ATOM     11  O   UNL     1     -38.542  39.398  47.738  1.00  0.00    -0.507 OA
ATOM     12  H   UNL     1     -38.389  40.115  48.439  1.00  0.00     0.293 HD
ENDBRANCH   6  11
TORSDOF 3
ENDMDL
MODEL 5
REMARK VINA RESULT:    -5.004     10.687     12.864
REMARK INTER + INTRA:          -5.956
REMARK INTER:                  -5.674
REMARK INTRA:                  -0.282
REMARK UNBOUND:                -0.221
REMARK SMILES COC(=O)c1ccccc1O
REMARK SMILES IDX 5 1 6 2 7 3 8 4 9 5 10 6 3 7 4 8 2 9 1 10 11 11
REMARK H PARENT 11 12
REMARK Flexibility Score: inf
ROOT
ATOM      1  C   UNL     1     -34.621  44.263  39.454  1.00  0.00     0.101 A 
ATOM      2  C   UNL     1     -34.310  42.892  39.522  1.00  0.00     0.019 A 
ATOM      3  C   UNL     1     -34.544  42.164  40.691  1.00  0.00     0.001 A 
ATOM      4  C   UNL     1     -35.092  42.792  41.809  1.00  0.00     0.004 A 
ATOM      5  C   UNL     1     -35.407  44.150  41.763  1.00  0.00     0.047 A 
ATOM      6  C   UNL     1     -35.176  44.894  40.594  1.00  0.00     0.130 A 
ENDROOT
BRANCH   1   7
ATOM      7  C   UNL     1     -34.359  45.005  38.194  1.00  0.00     0.341 C 
ATOM      8  O   UNL     1     -35.173  45.875  37.778  1.00  0.00    -0.246 OA
BRANCH   7   9
ATOM      9  O   UNL     1     -33.196  44.738  37.462  1.00  0.00    -0.465 OA
ATOM     10  C   UNL     1     -32.179  45.710  37.252  1.00  0.00     0.282 C 
ENDBRANCH   7   9
ENDBRANCH   1   7
BRANCH   6  11
ATOM     11  O   UNL     1     -35.500  46.250  40.574  1.00  0.00    -0.507 OA
ATOM     12  H   UNL     1     -35.144  46.894  41.273  1.00  0.00     0.293 HD
ENDBRANCH   6  11
TORSDOF 3
ENDMDL
MODEL 6
REMARK VINA RESULT:    -4.998     11.348     13.213
REMARK INTER + INTRA:          -5.949
REMARK INTER:                  -5.616
REMARK INTRA:                  -0.333
REMARK UNBOUND:                -0.221
REMARK SMILES COC(=O)c1ccccc1O
REMARK SMILES IDX 5 1 6 2 7 3 8 4 9 5 10 6 3 7 4 8 2 9 1 10 11 11
REMARK H PARENT 11 12
REMARK Flexibility Score: inf
ROOT
ATOM      1  C   UNL     1     -33.821  44.741  38.957  1.00  0.00     0.101 A 
ATOM      2  C   UNL     1     -34.805  45.425  38.217  1.00  0.00     0.019 A 
ATOM      3  C   UNL     1     -34.464  46.141  37.067  1.00  0.00     0.001 A 
ATOM      4  C   UNL     1     -33.138  46.186  36.638  1.00  0.00     0.004 A 
ATOM      5  C   UNL     1     -32.148  45.515  37.357  1.00  0.00     0.047 A 
ATOM      6  C   UNL     1     -32.477  44.792  38.514  1.00  0.00     0.130 A 
ENDROOT
BRANCH   1   7
ATOM      7  C   UNL     1     -34.221  43.989  40.174  1.00  0.00     0.341 C 
ATOM      8  O   UNL     1     -35.143  44.419  40.921  1.00  0.00    -0.246 OA
BRANCH   7   9
ATOM      9  O   UNL     1     -33.571  42.792  40.495  1.00  0.00    -0.465 OA
ATOM     10  C   UNL     1     -33.966  41.535  39.959  1.00  0.00     0.282 C 
ENDBRANCH   7   9
ENDBRANCH   1   7
BRANCH   6  11
ATOM     11  O   UNL     1     -31.469  44.130  39.215  1.00  0.00    -0.507 OA
ATOM     12  H   UNL     1     -31.396  43.119  39.216  1.00  0.00     0.293 HD
ENDBRANCH   6  11
TORSDOF 3
ENDMDL
MODEL 7
REMARK VINA RESULT:    -4.975      1.938      3.927
REMARK INTER + INTRA:          -5.922
REMARK INTER:                  -5.575
REMARK INTRA:                  -0.347
REMARK UNBOUND:                -0.221
REMARK SMILES COC(=O)c1ccccc1O
REMARK SMILES IDX 5 1 6 2 7 3 8 4 9 5 10 6 3 7 4 8 2 9 1 10 11 11
REMARK H PARENT 11 12
REMARK Flexibility Score: inf
ROOT
ATOM      1  C   UNL     1     -38.081  38.696  47.004  1.00  0.00     0.101 A 
ATOM      2  C   UNL     1     -38.747  39.009  45.803  1.00  0.00     0.019 A 
ATOM      3  C   UNL     1     -40.139  38.920  45.715  1.00  0.00     0.001 A 
ATOM      4  C   UNL     1     -40.886  38.518  46.821  1.00  0.00     0.004 A 
ATOM      5  C   UNL     1     -40.246  38.204  48.020  1.00  0.00     0.047 A 
ATOM      6  C   UNL     1     -38.848  38.289  48.123  1.00  0.00     0.130 A 
ENDROOT
BRANCH   1   7
ATOM      7  C   UNL     1     -36.601  38.802  47.061  1.00  0.00     0.341 C 
ATOM      8  O   UNL     1     -36.018  39.864  46.707  1.00  0.00    -0.246 OA
BRANCH   7   9
ATOM      9  O   UNL     1     -35.845  37.715  47.513  1.00  0.00    -0.465 OA
ATOM     10  C   UNL     1     -35.662  36.533  46.742  1.00  0.00     0.282 C 
ENDBRANCH   7   9
ENDBRANCH   1   7
BRANCH   6  11
ATOM     11  O   UNL     1     -38.232  37.968  49.332  1.00  0.00    -0.507 OA
ATOM     12  H   UNL     1     -37.370  38.415  49.626  1.00  0.00     0.293 HD
ENDBRANCH   6  11
TORSDOF 3
ENDMDL
MODEL 8
REMARK VINA RESULT:    -4.956      9.261     11.157
REMARK INTER + INTRA:          -5.901
REMARK INTER:                  -5.543
REMARK INTRA:                  -0.358
REMARK UNBOUND:                -0.221
REMARK SMILES COC(=O)c1ccccc1O
REMARK SMILES IDX 5 1 6 2 7 3 8 4 9 5 10 6 3 7 4 8 2 9 1 10 11 11
REMARK H PARENT 11 12
REMARK Flexibility Score: inf
ROOT
ATOM      1  C   UNL     1     -34.763  43.270  40.379  1.00  0.00     0.101 A 
ATOM      2  C   UNL     1     -35.108  44.539  40.882  1.00  0.00     0.019 A 
ATOM      3  C   UNL     1     -35.078  45.666  40.057  1.00  0.00     0.001 A 
ATOM      4  C   UNL     1     -34.705  45.545  38.719  1.00  0.00     0.004 A 
ATOM      5  C   UNL     1     -34.359  44.296  38.201  1.00  0.00     0.047 A 
ATOM      6  C   UNL     1     -34.384  43.155  39.019  1.00  0.00     0.130 A 
ENDROOT
BRANCH   1   7
ATOM      7  C   UNL     1     -34.806  42.095  41.286  1.00  0.00     0.341 C 
ATOM      8  O   UNL     1     -34.286  42.149  42.434  1.00  0.00    -0.246 OA
BRANCH   7   9
ATOM      9  O   UNL     1     -35.430  40.915  40.862  1.00  0.00    -0.465 OA
ATOM     10  C   UNL     1     -36.835  40.818  40.665  1.00  0.00     0.282 C 
ENDBRANCH   7   9
ENDBRANCH   1   7
BRANCH   6  11
ATOM     11  O   UNL     1     -34.034  41.919  38.477  1.00  0.00    -0.507 OA
ATOM     12  H   UNL     1     -34.153  41.056  38.996  1.00  0.00     0.293 HD
ENDBRANCH   6  11
TORSDOF 3
ENDMDL
MODEL 9
REMARK VINA RESULT:    -4.815     10.344     12.196
REMARK INTER + INTRA:          -5.739
REMARK INTER:                  -5.436
REMARK INTRA:                  -0.303
REMARK UNBOUND:                -0.221
REMARK SMILES COC(=O)c1ccccc1O
REMARK SMILES IDX 5 1 6 2 7 3 8 4 9 5 10 6 3 7 4 8 2 9 1 10 11 11
REMARK H PARENT 11 12
REMARK Flexibility Score: inf
ROOT
ATOM      1  C   UNL     1     -33.774  43.326  40.240  1.00  0.00     0.101 A 
ATOM      2  C   UNL     1     -35.058  43.420  40.811  1.00  0.00     0.019 A 
ATOM      3  C   UNL     1     -35.444  42.563  41.845  1.00  0.00     0.001 A 
ATOM      4  C   UNL     1     -34.556  41.601  42.324  1.00  0.00     0.004 A 
ATOM      5  C   UNL     1     -33.279  41.491  41.772  1.00  0.00     0.047 A 
ATOM      6  C   UNL     1     -32.879  42.345  40.733  1.00  0.00     0.130 A 
ENDROOT
BRANCH   1   7
ATOM      7  C   UNL     1     -33.399  44.254  39.142  1.00  0.00     0.341 C 
ATOM      8  O   UNL     1     -32.280  44.836  39.147  1.00  0.00    -0.246 OA
BRANCH   7   9
ATOM      9  O   UNL     1     -34.296  44.484  38.092  1.00  0.00    -0.465 OA
ATOM     10  C   UNL     1     -34.878  45.758  37.844  1.00  0.00     0.282 C 
ENDBRANCH   7   9
ENDBRANCH   1   7
BRANCH   6  11
ATOM     11  O   UNL     1     -31.597  42.215  40.198  1.00  0.00    -0.507 OA
ATOM     12  H   UNL     1     -30.788  42.627  40.648  1.00  0.00     0.293 HD
ENDBRANCH   6  11
TORSDOF 3
ENDMDL
