MODEL 1
REMARK VINA RESULT:    -3.813      0.000      0.000
REMARK INTER + INTRA:          -8.206
REMARK INTER:                  -6.934
REMARK INTRA:                  -1.272
REMARK UNBOUND:                -1.272
REMARK SMILES CCCCCCCCCCCCCCCC(=O)[O-]
REMARK SMILES IDX 9 1 10 2 11 3 12 4 13 5 14 6 15 7 16 8 17 9 18 10 8 11 7 12
REMARK SMILES IDX 6 13 5 14 4 15 3 16 2 17 1 18
REMARK H PARENT
REMARK Flexibility Score: inf
ROOT
ATOM      1  C   UNL     1      29.694 -11.986  30.760  1.00  0.00     0.000 C 
ENDROOT
BRANCH   1   2
ATOM      2  C   UNL     1      28.923 -10.780  31.328  1.00  0.00     0.000 C 
BRANCH   2   3
ATOM      3  C   UNL     1      28.347  -9.809  30.277  1.00  0.00     0.000 C 
BRANCH   3   4
ATOM      4  C   UNL     1      27.974 -10.451  28.929  1.00  0.00     0.000 C 
BRANCH   4   5
ATOM      5  C   UNL     1      26.636  -9.942  28.375  1.00  0.00     0.000 C 
BRANCH   5   6
ATOM      6  C   UNL     1      25.903  -9.083  29.413  1.00  0.00     0.006 C 
BRANCH   6   7
ATOM      7  C   UNL     1      24.385  -9.228  29.273  1.00  0.00     0.053 C 
BRANCH   7   8
ATOM      8  C   UNL     1      23.681  -8.241  30.149  1.00  0.00     0.041 C 
ATOM      9  O   UNL     1      22.748  -8.618  30.906  1.00  0.00    -0.550 OA
ATOM     10  O   UNL     1      24.021  -6.895  30.094  1.00  0.00    -0.550 OA
ENDBRANCH   7   8
ENDBRANCH   6   7
ENDBRANCH   5   6
ENDBRANCH   4   5
ENDBRANCH   3   4
ENDBRANCH   2   3
ENDBRANCH   1   2
BRANCH   1  11
ATOM     11  C   UNL     1      31.198 -11.712  30.601  1.00  0.00     0.000 C 
BRANCH  11  12
ATOM     12  C   UNL     1      31.656 -10.443  31.340  1.00  0.00    -0.000 C 
BRANCH  12  13
ATOM     13  C   UNL     1      32.541  -9.512  30.485  1.00  0.00    -0.000 C 
BRANCH  13  14
ATOM     14  C   UNL     1      32.513  -8.059  30.994  1.00  0.00    -0.000 C 
BRANCH  14  15
ATOM     15  C   UNL     1      31.136  -7.644  31.534  1.00  0.00    -0.000 C 
BRANCH  15  16
ATOM     16  C   UNL     1      31.201  -7.117  32.978  1.00  0.00    -0.000 C 
BRANCH  16  17
ATOM     17  C   UNL     1      31.907  -8.096  33.929  1.00  0.00    -0.003 C 
ATOM     18  C   UNL     1      32.857  -7.397  34.901  1.00  0.00     0.004 C 
ENDBRANCH  16  17
ENDBRANCH  15  16
ENDBRANCH  14  15
ENDBRANCH  13  14
ENDBRANCH  12  13
ENDBRANCH  11  12
ENDBRANCH   1  11
TORSDOF 14
ENDMDL
MODEL 2
REMARK VINA RESULT:    -3.739      1.908      2.438
REMARK INTER + INTRA:          -8.072
REMARK INTER:                  -6.546
REMARK INTRA:                  -1.526
REMARK UNBOUND:                -1.272
REMARK SMILES CCCCCCCCCCCCCCCC(=O)[O-]
REMARK SMILES IDX 9 1 10 2 11 3 12 4 13 5 14 6 15 7 16 8 17 9 18 10 8 11 7 12
REMARK SMILES IDX 6 13 5 14 4 15 3 16 2 17 1 18
REMARK H PARENT
REMARK Flexibility Score: inf
ROOT
ATOM      1  C   UNL     1      28.377 -11.193  31.256  1.00  0.00     0.000 C 
ENDROOT
BRANCH   1   2
ATOM      2  C   UNL     1      28.306  -9.831  30.542  1.00  0.00     0.000 C 
BRANCH   2   3
ATOM      3  C   UNL     1      27.394  -9.783  29.299  1.00  0.00     0.000 C 
BRANCH   3   4
ATOM      4  C   UNL     1      26.021  -9.125  29.521  1.00  0.00     0.000 C 
BRANCH   4   5
ATOM      5  C   UNL     1      24.942 -10.127  29.959  1.00  0.00     0.000 C 
BRANCH   5   6
ATOM      6  C   UNL     1      24.085  -9.550  31.093  1.00  0.00     0.006 C 
BRANCH   6   7
ATOM      7  C   UNL     1      24.962  -8.935  32.186  1.00  0.00     0.053 C 
BRANCH   7   8
ATOM      8  C   UNL     1      24.821  -9.700  33.464  1.00  0.00     0.041 C 
ATOM      9  O   UNL     1      24.310  -9.153  34.477  1.00  0.00    -0.550 OA
ATOM     10  O   UNL     1      25.299 -11.001  33.552  1.00  0.00    -0.550 OA
ENDBRANCH   7   8
ENDBRANCH   6   7
ENDBRANCH   5   6
ENDBRANCH   4   5
ENDBRANCH   3   4
ENDBRANCH   2   3
ENDBRANCH   1   2
BRANCH   1  11
ATOM     11  C   UNL     1      29.815 -11.622  31.588  1.00  0.00     0.000 C 
BRANCH  11  12
ATOM     12  C   UNL     1      30.731 -11.645  30.351  1.00  0.00    -0.000 C 
BRANCH  12  13
ATOM     13  C   UNL     1      32.009 -10.795  30.510  1.00  0.00    -0.000 C 
BRANCH  13  14
ATOM     14  C   UNL     1      31.898  -9.794  31.675  1.00  0.00    -0.000 C 
BRANCH  14  15
ATOM     15  C   UNL     1      31.661  -8.352  31.199  1.00  0.00    -0.000 C 
BRANCH  15  16
ATOM     16  C   UNL     1      31.443  -7.373  32.365  1.00  0.00    -0.000 C 
BRANCH  16  17
ATOM     17  C   UNL     1      31.514  -8.066  33.735  1.00  0.00    -0.003 C 
ATOM     18  C   UNL     1      32.636  -7.519  34.618  1.00  0.00     0.004 C 
ENDBRANCH  16  17
ENDBRANCH  15  16
ENDBRANCH  14  15
ENDBRANCH  13  14
ENDBRANCH  12  13
ENDBRANCH  11  12
ENDBRANCH   1  11
TORSDOF 14
ENDMDL
MODEL 3
REMARK VINA RESULT:    -3.732      2.987      6.738
REMARK INTER + INTRA:          -8.058
REMARK INTER:                  -6.142
REMARK INTRA:                  -1.916
REMARK UNBOUND:                -1.272
REMARK SMILES CCCCCCCCCCCCCCCC(=O)[O-]
REMARK SMILES IDX 9 1 10 2 11 3 12 4 13 5 14 6 15 7 16 8 17 9 18 10 8 11 7 12
REMARK SMILES IDX 6 13 5 14 4 15 3 16 2 17 1 18
REMARK H PARENT
REMARK Flexibility Score: inf
ROOT
ATOM      1  C   UNL     1      27.037  -9.504  29.595  1.00  0.00     0.000 C 
ENDROOT
BRANCH   1   2
ATOM      2  C   UNL     1      27.736 -10.059  30.849  1.00  0.00     0.000 C 
BRANCH   2   3
ATOM      3  C   UNL     1      28.736 -11.206  30.595  1.00  0.00     0.000 C 
BRANCH   3   4
ATOM      4  C   UNL     1      29.961 -11.225  31.526  1.00  0.00     0.000 C 
BRANCH   4   5
ATOM      5  C   UNL     1      31.262 -10.835  30.809  1.00  0.00     0.000 C 
BRANCH   5   6
ATOM      6  C   UNL     1      31.967  -9.685  31.538  1.00  0.00     0.006 C 
BRANCH   6   7
ATOM      7  C   UNL     1      31.233  -8.360  31.314  1.00  0.00     0.053 C 
BRANCH   7   8
ATOM      8  C   UNL     1      30.891  -7.722  32.623  1.00  0.00     0.041 C 
ATOM      9  O   UNL     1      31.378  -8.173  33.693  1.00  0.00    -0.550 OA
ATOM     10  O   UNL     1      29.994  -6.663  32.667  1.00  0.00    -0.550 OA
ENDBRANCH   7   8
ENDBRANCH   6   7
ENDBRANCH   5   6
ENDBRANCH   4   5
ENDBRANCH   3   4
ENDBRANCH   2   3
ENDBRANCH   1   2
BRANCH   1  11
ATOM     11  C   UNL     1      25.949 -10.443  29.051  1.00  0.00     0.000 C 
BRANCH  11  12
ATOM     12  C   UNL     1      24.578  -9.757  28.925  1.00  0.00    -0.000 C 
BRANCH  12  13
ATOM     13  C   UNL     1      24.596  -8.261  29.300  1.00  0.00    -0.000 C 
BRANCH  13  14
ATOM     14  C   UNL     1      23.623  -7.941  30.449  1.00  0.00    -0.000 C 
BRANCH  14  15
ATOM     15  C   UNL     1      23.565  -9.054  31.507  1.00  0.00    -0.000 C 
BRANCH  15  16
ATOM     16  C   UNL     1      24.658  -8.909  32.580  1.00  0.00    -0.000 C 
BRANCH  16  17
ATOM     17  C   UNL     1      24.996 -10.245  33.259  1.00  0.00    -0.003 C 
ATOM     18  C   UNL     1      24.617 -11.457  32.407  1.00  0.00     0.004 C 
ENDBRANCH  16  17
ENDBRANCH  15  16
ENDBRANCH  14  15
ENDBRANCH  13  14
ENDBRANCH  12  13
ENDBRANCH  11  12
ENDBRANCH   1  11
TORSDOF 14
ENDMDL
MODEL 4
REMARK VINA RESULT:    -3.660      2.726      4.133
REMARK INTER + INTRA:          -7.928
REMARK INTER:                  -6.469
REMARK INTRA:                  -1.459
REMARK UNBOUND:                -1.272
REMARK SMILES CCCCCCCCCCCCCCCC(=O)[O-]
REMARK SMILES IDX 9 1 10 2 11 3 12 4 13 5 14 6 15 7 16 8 17 9 18 10 8 11 7 12
REMARK SMILES IDX 6 13 5 14 4 15 3 16 2 17 1 18
REMARK H PARENT
REMARK Flexibility Score: inf
ROOT
ATOM      1  C   UNL     1      27.090  -9.552  29.430  1.00  0.00     0.000 C 
ENDROOT
BRANCH   1   2
ATOM      2  C   UNL     1      25.558  -9.710  29.424  1.00  0.00     0.000 C 
BRANCH   2   3
ATOM      3  C   UNL     1      24.758  -8.393  29.490  1.00  0.00     0.000 C 
BRANCH   3   4
ATOM      4  C   UNL     1      24.205  -8.034  30.880  1.00  0.00     0.000 C 
BRANCH   4   5
ATOM      5  C   UNL     1      24.066  -9.254  31.802  1.00  0.00     0.000 C 
BRANCH   5   6
ATOM      6  C   UNL     1      24.682  -8.977  33.178  1.00  0.00     0.006 C 
BRANCH   6   7
ATOM      7  C   UNL     1      24.667 -10.234  34.051  1.00  0.00     0.053 C 
BRANCH   7   8
ATOM      8  C   UNL     1      24.078  -9.933  35.393  1.00  0.00     0.041 C 
ATOM      9  O   UNL     1      24.128 -10.791  36.314  1.00  0.00    -0.550 OA
ATOM     10  O   UNL     1      23.429  -8.725  35.613  1.00  0.00    -0.550 OA
ENDBRANCH   7   8
ENDBRANCH   6   7
ENDBRANCH   5   6
ENDBRANCH   4   5
ENDBRANCH   3   4
ENDBRANCH   2   3
ENDBRANCH   1   2
BRANCH   1  11
ATOM     11  C   UNL     1      27.681  -9.509  30.848  1.00  0.00     0.000 C 
BRANCH  11  12
ATOM     12  C   UNL     1      28.497 -10.766  31.193  1.00  0.00    -0.000 C 
BRANCH  12  13
ATOM     13  C   UNL     1      29.628 -11.067  30.186  1.00  0.00    -0.000 C 
BRANCH  13  14
ATOM     14  C   UNL     1      31.019 -10.996  30.841  1.00  0.00    -0.000 C 
BRANCH  14  15
ATOM     15  C   UNL     1      31.171  -9.796  31.788  1.00  0.00    -0.000 C 
BRANCH  15  16
ATOM     16  C   UNL     1      31.828  -8.583  31.107  1.00  0.00    -0.000 C 
BRANCH  16  17
ATOM     17  C   UNL     1      31.528  -7.264  31.838  1.00  0.00    -0.003 C 
ATOM     18  C   UNL     1      30.141  -7.244  32.479  1.00  0.00     0.004 C 
ENDBRANCH  16  17
ENDBRANCH  15  16
ENDBRANCH  14  15
ENDBRANCH  13  14
ENDBRANCH  12  13
ENDBRANCH  11  12
ENDBRANCH   1  11
TORSDOF 14
ENDMDL
MODEL 5
REMARK VINA RESULT:    -3.636      2.835      6.606
REMARK INTER + INTRA:          -7.885
REMARK INTER:                  -5.743
REMARK INTRA:                  -2.142
REMARK UNBOUND:                -1.272
REMARK SMILES CCCCCCCCCCCCCCCC(=O)[O-]
REMARK SMILES IDX 9 1 10 2 11 3 12 4 13 5 14 6 15 7 16 8 17 9 18 10 8 11 7 12
REMARK SMILES IDX 6 13 5 14 4 15 3 16 2 17 1 18
REMARK H PARENT
REMARK Flexibility Score: inf
ROOT
ATOM      1  C   UNL     1      27.866  -9.705  30.811  1.00  0.00     0.000 C 
ENDROOT
BRANCH   1   2
ATOM      2  C   UNL     1      27.989 -11.175  31.251  1.00  0.00     0.000 C 
BRANCH   2   3
ATOM      3  C   UNL     1      29.426 -11.664  31.529  1.00  0.00     0.000 C 
BRANCH   3   4
ATOM      4  C   UNL     1      30.406 -11.515  30.353  1.00  0.00     0.000 C 
BRANCH   4   5
ATOM      5  C   UNL     1      31.663 -10.714  30.720  1.00  0.00     0.000 C 
BRANCH   5   6
ATOM      6  C   UNL     1      31.424  -9.860  31.972  1.00  0.00     0.006 C 
BRANCH   6   7
ATOM      7  C   UNL     1      31.301  -8.378  31.611  1.00  0.00     0.053 C 
BRANCH   7   8
ATOM      8  C   UNL     1      30.983  -7.567  32.827  1.00  0.00     0.041 C 
ATOM      9  O   UNL     1      31.552  -7.817  33.922  1.00  0.00    -0.550 OA
ATOM     10  O   UNL     1      30.019  -6.568  32.764  1.00  0.00    -0.550 OA
ENDBRANCH   7   8
ENDBRANCH   6   7
ENDBRANCH   5   6
ENDBRANCH   4   5
ENDBRANCH   3   4
ENDBRANCH   2   3
ENDBRANCH   1   2
BRANCH   1  11
ATOM     11  C   UNL     1      27.358  -9.553  29.368  1.00  0.00     0.000 C 
BRANCH  11  12
ATOM     12  C   UNL     1      26.601 -10.796  28.868  1.00  0.00    -0.000 C 
BRANCH  12  13
ATOM     13  C   UNL     1      25.213 -10.479  28.273  1.00  0.00    -0.000 C 
BRANCH  13  14
ATOM     14  C   UNL     1      24.700  -9.093  28.705  1.00  0.00    -0.000 C 
BRANCH  14  15
ATOM     15  C   UNL     1      23.734  -9.162  29.898  1.00  0.00    -0.000 C 
BRANCH  15  16
ATOM     16  C   UNL     1      24.286  -8.457  31.148  1.00  0.00    -0.000 C 
BRANCH  16  17
ATOM     17  C   UNL     1      24.380  -9.398  32.361  1.00  0.00    -0.003 C 
ATOM     18  C   UNL     1      24.342 -10.875  31.970  1.00  0.00     0.004 C 
ENDBRANCH  16  17
ENDBRANCH  15  16
ENDBRANCH  14  15
ENDBRANCH  13  14
ENDBRANCH  12  13
ENDBRANCH  11  12
ENDBRANCH   1  11
TORSDOF 14
ENDMDL
MODEL 6
REMARK VINA RESULT:    -3.545      2.867      6.933
REMARK INTER + INTRA:          -7.718
REMARK INTER:                  -6.102
REMARK INTRA:                  -1.616
REMARK UNBOUND:                -1.272
REMARK SMILES CCCCCCCCCCCCCCCC(=O)[O-]
REMARK SMILES IDX 9 1 10 2 11 3 12 4 13 5 14 6 15 7 16 8 17 9 18 10 8 11 7 12
REMARK SMILES IDX 6 13 5 14 4 15 3 16 2 17 1 18
REMARK H PARENT
REMARK Flexibility Score: inf
ROOT
ATOM      1  C   UNL     1      28.153  -9.923  29.298  1.00  0.00     0.000 C 
ENDROOT
BRANCH   1   2
ATOM      2  C   UNL     1      28.428 -11.409  29.004  1.00  0.00     0.000 C 
BRANCH   2   3
ATOM      3  C   UNL     1      29.620 -12.023  29.767  1.00  0.00     0.000 C 
BRANCH   3   4
ATOM      4  C   UNL     1      30.125 -11.199  30.964  1.00  0.00     0.000 C 
BRANCH   4   5
ATOM      5  C   UNL     1      31.601 -10.797  30.833  1.00  0.00     0.000 C 
BRANCH   5   6
ATOM      6  C   UNL     1      31.818  -9.346  31.281  1.00  0.00     0.006 C 
BRANCH   6   7
ATOM      7  C   UNL     1      30.517  -8.733  31.806  1.00  0.00     0.053 C 
BRANCH   7   8
ATOM      8  C   UNL     1      30.809  -7.664  32.810  1.00  0.00     0.041 C 
ATOM      9  O   UNL     1      31.690  -7.846  33.691  1.00  0.00    -0.550 OA
ATOM     10  O   UNL     1      30.072  -6.487  32.807  1.00  0.00    -0.550 OA
ENDBRANCH   7   8
ENDBRANCH   6   7
ENDBRANCH   5   6
ENDBRANCH   4   5
ENDBRANCH   3   4
ENDBRANCH   2   3
ENDBRANCH   1   2
BRANCH   1  11
ATOM     11  C   UNL     1      26.750  -9.677  29.877  1.00  0.00     0.000 C 
BRANCH  11  12
ATOM     12  C   UNL     1      26.677  -9.930  31.393  1.00  0.00    -0.000 C 
BRANCH  12  13
ATOM     13  C   UNL     1      25.248 -10.197  31.909  1.00  0.00    -0.000 C 
BRANCH  13  14
ATOM     14  C   UNL     1      24.453  -8.894  32.111  1.00  0.00    -0.000 C 
BRANCH  14  15
ATOM     15  C   UNL     1      23.365  -8.689  31.045  1.00  0.00    -0.000 C 
BRANCH  15  16
ATOM     16  C   UNL     1      23.618  -7.448  30.173  1.00  0.00    -0.000 C 
BRANCH  16  17
ATOM     17  C   UNL     1      23.728  -7.793  28.678  1.00  0.00    -0.003 C 
ATOM     18  C   UNL     1      23.392  -9.254  28.381  1.00  0.00     0.004 C 
ENDBRANCH  16  17
ENDBRANCH  15  16
ENDBRANCH  14  15
ENDBRANCH  13  14
ENDBRANCH  12  13
ENDBRANCH  11  12
ENDBRANCH   1  11
TORSDOF 14
ENDMDL
MODEL 7
REMARK VINA RESULT:    -3.522      2.843      7.034
REMARK INTER + INTRA:          -7.678
REMARK INTER:                  -5.712
REMARK INTRA:                  -1.966
REMARK UNBOUND:                -1.272
REMARK SMILES CCCCCCCCCCCCCCCC(=O)[O-]
REMARK SMILES IDX 9 1 10 2 11 3 12 4 13 5 14 6 15 7 16 8 17 9 18 10 8 11 7 12
REMARK SMILES IDX 6 13 5 14 4 15 3 16 2 17 1 18
REMARK H PARENT
REMARK Flexibility Score: inf
ROOT
ATOM      1  C   UNL     1      27.337  -9.719  29.107  1.00  0.00     0.000 C 
ENDROOT
BRANCH   1   2
ATOM      2  C   UNL     1      27.776  -9.745  30.582  1.00  0.00     0.000 C 
BRANCH   2   3
ATOM      3  C   UNL     1      28.162 -11.134  31.132  1.00  0.00     0.000 C 
BRANCH   3   4
ATOM      4  C   UNL     1      29.607 -11.255  31.646  1.00  0.00     0.000 C 
BRANCH   4   5
ATOM      5  C   UNL     1      30.632 -10.608  30.704  1.00  0.00     0.000 C 
BRANCH   5   6
ATOM      6  C   UNL     1      31.778  -9.967  31.496  1.00  0.00     0.006 C 
BRANCH   6   7
ATOM      7  C   UNL     1      31.668  -8.440  31.485  1.00  0.00     0.053 C 
BRANCH   7   8
ATOM      8  C   UNL     1      31.074  -7.947  32.767  1.00  0.00     0.041 C 
ATOM      9  O   UNL     1      31.528  -8.350  33.870  1.00  0.00    -0.550 OA
ATOM     10  O   UNL     1      29.987  -7.084  32.743  1.00  0.00    -0.550 OA
ENDBRANCH   7   8
ENDBRANCH   6   7
ENDBRANCH   5   6
ENDBRANCH   4   5
ENDBRANCH   3   4
ENDBRANCH   2   3
ENDBRANCH   1   2
BRANCH   1  11
ATOM     11  C   UNL     1      26.830 -11.082  28.609  1.00  0.00     0.000 C 
BRANCH  11  12
ATOM     12  C   UNL     1      25.360 -11.043  28.158  1.00  0.00    -0.000 C 
BRANCH  12  13
ATOM     13  C   UNL     1      24.408 -11.836  29.079  1.00  0.00    -0.000 C 
BRANCH  13  14
ATOM     14  C   UNL     1      24.306 -11.210  30.482  1.00  0.00    -0.000 C 
BRANCH  14  15
ATOM     15  C   UNL     1      23.428  -9.948  30.509  1.00  0.00    -0.000 C 
BRANCH  15  16
ATOM     16  C   UNL     1      24.201  -8.700  30.966  1.00  0.00    -0.000 C 
BRANCH  16  17
ATOM     17  C   UNL     1      23.986  -7.499  30.031  1.00  0.00    -0.003 C 
ATOM     18  C   UNL     1      23.523  -7.912  28.633  1.00  0.00     0.004 C 
ENDBRANCH  16  17
ENDBRANCH  15  16
ENDBRANCH  14  15
ENDBRANCH  13  14
ENDBRANCH  12  13
ENDBRANCH  11  12
ENDBRANCH   1  11
TORSDOF 14
ENDMDL
MODEL 8
REMARK VINA RESULT:    -3.482      1.322      2.632
REMARK INTER + INTRA:          -7.604
REMARK INTER:                  -6.442
REMARK INTRA:                  -1.162
REMARK UNBOUND:                -1.272
REMARK SMILES CCCCCCCCCCCCCCCC(=O)[O-]
REMARK SMILES IDX 9 1 10 2 11 3 12 4 13 5 14 6 15 7 16 8 17 9 18 10 8 11 7 12
REMARK SMILES IDX 6 13 5 14 4 15 3 16 2 17 1 18
REMARK H PARENT
REMARK Flexibility Score: inf
ROOT
ATOM      1  C   UNL     1      27.946 -10.132  29.552  1.00  0.00     0.000 C 
ENDROOT
BRANCH   1   2
ATOM      2  C   UNL     1      26.528  -9.532  29.558  1.00  0.00     0.000 C 
BRANCH   2   3
ATOM      3  C   UNL     1      25.518 -10.234  30.489  1.00  0.00     0.000 C 
BRANCH   3   4
ATOM      4  C   UNL     1      25.174  -9.466  31.778  1.00  0.00     0.000 C 
BRANCH   4   5
ATOM      5  C   UNL     1      23.664  -9.404  32.051  1.00  0.00     0.000 C 
BRANCH   5   6
ATOM      6  C   UNL     1      22.863  -9.569  30.754  1.00  0.00     0.006 C 
BRANCH   6   7
ATOM      7  C   UNL     1      22.342  -8.220  30.253  1.00  0.00     0.053 C 
BRANCH   7   8
ATOM      8  C   UNL     1      23.267  -7.648  29.227  1.00  0.00     0.041 C 
ATOM      9  O   UNL     1      24.125  -6.787  29.557  1.00  0.00    -0.550 OA
ATOM     10  O   UNL     1      23.149  -8.027  27.896  1.00  0.00    -0.550 OA
ENDBRANCH   7   8
ENDBRANCH   6   7
ENDBRANCH   5   6
ENDBRANCH   4   5
ENDBRANCH   3   4
ENDBRANCH   2   3
ENDBRANCH   1   2
BRANCH   1  11
ATOM     11  C   UNL     1      28.701  -9.896  30.869  1.00  0.00     0.000 C 
BRANCH  11  12
ATOM     12  C   UNL     1      29.934 -10.804  31.021  1.00  0.00    -0.000 C 
BRANCH  12  13
ATOM     13  C   UNL     1      31.103 -10.141  31.780  1.00  0.00    -0.000 C 
BRANCH  13  14
ATOM     14  C   UNL     1      32.106  -9.470  30.825  1.00  0.00    -0.000 C 
BRANCH  14  15
ATOM     15  C   UNL     1      32.271  -7.966  31.095  1.00  0.00    -0.000 C 
BRANCH  15  16
ATOM     16  C   UNL     1      31.081  -7.370  31.865  1.00  0.00    -0.000 C 
BRANCH  16  17
ATOM     17  C   UNL     1      31.506  -6.713  33.188  1.00  0.00    -0.003 C 
ATOM     18  C   UNL     1      32.148  -7.701  34.161  1.00  0.00     0.004 C 
ENDBRANCH  16  17
ENDBRANCH  15  16
ENDBRANCH  14  15
ENDBRANCH  13  14
ENDBRANCH  12  13
ENDBRANCH  11  12
ENDBRANCH   1  11
TORSDOF 14
ENDMDL
MODEL 9
REMARK VINA RESULT:    -3.349      3.923      6.792
REMARK INTER + INTRA:          -7.363
REMARK INTER:                  -5.795
REMARK INTRA:                  -1.568
REMARK UNBOUND:                -1.272
REMARK SMILES CCCCCCCCCCCCCCCC(=O)[O-]
REMARK SMILES IDX 9 1 10 2 11 3 12 4 13 5 14 6 15 7 16 8 17 9 18 10 8 11 7 12
REMARK SMILES IDX 6 13 5 14 4 15 3 16 2 17 1 18
REMARK H PARENT
REMARK Flexibility Score: inf
ROOT
ATOM      1  C   UNL     1      25.353  -9.124  29.958  1.00  0.00     0.000 C 
ENDROOT
BRANCH   1   2
ATOM      2  C   UNL     1      26.187  -9.495  28.718  1.00  0.00     0.000 C 
BRANCH   2   3
ATOM      3  C   UNL     1      27.643  -9.918  29.003  1.00  0.00     0.000 C 
BRANCH   3   4
ATOM      4  C   UNL     1      28.070  -9.838  30.479  1.00  0.00     0.000 C 
BRANCH   4   5
ATOM      5  C   UNL     1      28.987 -10.995  30.899  1.00  0.00     0.000 C 
BRANCH   5   6
ATOM      6  C   UNL     1      30.212 -10.476  31.662  1.00  0.00     0.006 C 
BRANCH   6   7
ATOM      7  C   UNL     1      30.543  -9.037  31.257  1.00  0.00     0.053 C 
BRANCH   7   8
ATOM      8  C   UNL     1      30.798  -8.196  32.467  1.00  0.00     0.041 C 
ATOM      9  O   UNL     1      31.633  -8.569  33.333  1.00  0.00    -0.550 OA
ATOM     10  O   UNL     1      30.076  -7.026  32.666  1.00  0.00    -0.550 OA
ENDBRANCH   7   8
ENDBRANCH   6   7
ENDBRANCH   5   6
ENDBRANCH   4   5
ENDBRANCH   3   4
ENDBRANCH   2   3
ENDBRANCH   1   2
BRANCH   1  11
ATOM     11  C   UNL     1      24.002  -9.854  30.011  1.00  0.00     0.000 C 
BRANCH  11  12
ATOM     12  C   UNL     1      23.825 -10.689  31.292  1.00  0.00    -0.000 C 
BRANCH  12  13
ATOM     13  C   UNL     1      24.879 -11.804  31.456  1.00  0.00    -0.000 C 
BRANCH  13  14
ATOM     14  C   UNL     1      25.692 -11.645  32.754  1.00  0.00    -0.000 C 
BRANCH  14  15
ATOM     15  C   UNL     1      25.052 -10.655  33.740  1.00  0.00    -0.000 C 
BRANCH  15  16
ATOM     16  C   UNL     1      24.470 -11.350  34.982  1.00  0.00    -0.000 C 
BRANCH  16  17
ATOM     17  C   UNL     1      23.798 -10.361  35.948  1.00  0.00    -0.003 C 
ATOM     18  C   UNL     1      24.091  -8.902  35.602  1.00  0.00     0.004 C 
ENDBRANCH  16  17
ENDBRANCH  15  16
ENDBRANCH  14  15
ENDBRANCH  13  14
ENDBRANCH  12  13
ENDBRANCH  11  12
ENDBRANCH   1  11
TORSDOF 14
ENDMDL
