MODEL 1
REMARK VINA RESULT:    -6.326      0.000      0.000
REMARK INTER + INTRA:         -10.023
REMARK INTER:                  -9.100
REMARK INTRA:                  -0.924
REMARK UNBOUND:                -0.924
REMARK SMILES O=c1cc(-c2ccc(O)c(O)c2)oc2cc(O[C@H]3O[C@H](CO)[C@H](O)[C@H](O)[C@@H]3O)cc(O)c12
REMARK SMILES IDX 17 1 16 2 4 3 3 4 13 5 2 6 14 7 1 8 32 9 15 10 30 11 29 12
REMARK SMILES IDX 5 13 6 14 7 15 8 16 12 17 10 18 9 19 11 21 31 23 18 25 27 26
REMARK SMILES IDX 19 27 25 28 20 29 23 30 28 31 26 33 21 35 22 36 24 38
REMARK H PARENT 9 20 11 22 31 24 28 32 26 34 22 37 24 39
REMARK Flexibility Score: inf
ROOT
ATOM      1  O   UNL     1      -6.948  84.618  -7.442  1.00  0.00    -0.462 OA
ENDROOT
BRANCH   1   2
ATOM      2  C   UNL     1      -8.217  84.213  -7.881  1.00  0.00     0.130 A 
ATOM      3  C   UNL     1     -12.483  85.616  -9.466  1.00  0.00     0.138 A 
ATOM      4  C   UNL     1     -12.951  84.305  -9.593  1.00  0.00     0.100 A 
ATOM      5  O   UNL     1     -11.244  85.841  -9.044  1.00  0.00    -0.456 OA
ATOM      6  C   UNL     1     -12.095  83.237  -9.308  1.00  0.00     0.197 A 
ATOM      7  C   UNL     1     -10.401  84.865  -8.719  1.00  0.00     0.146 A 
ATOM      8  O   UNL     1     -12.545  82.067  -9.425  1.00  0.00    -0.289 OA
ATOM      9  C   UNL     1     -10.772  83.500  -8.872  1.00  0.00     0.107 A 
ATOM     10  C   UNL     1      -9.138  85.198  -8.224  1.00  0.00     0.094 A 
ATOM     11  C   UNL     1      -9.806  82.496  -8.563  1.00  0.00     0.134 A 
ATOM     12  C   UNL     1      -8.568  82.866  -8.021  1.00  0.00     0.093 A 
BRANCH   3  13
ATOM     13  C   UNL     1     -13.354  86.754  -9.792  1.00  0.00     0.021 A 
ATOM     14  C   UNL     1     -12.812  87.950 -10.297  1.00  0.00     0.016 A 
ATOM     15  C   UNL     1     -13.657  89.013 -10.627  1.00  0.00     0.051 A 
ATOM     16  C   UNL     1     -15.041  88.910 -10.423  1.00  0.00     0.157 A 
ATOM     17  C   UNL     1     -14.742  86.651  -9.589  1.00  0.00     0.062 A 
ATOM     18  C   UNL     1     -15.583  87.726  -9.892  1.00  0.00     0.158 A 
BRANCH  16  19
ATOM     19  O   UNL     1     -15.883  89.977 -10.738  1.00  0.00    -0.504 OA
ATOM     20  H   UNL     1     -16.147  90.178 -11.690  1.00  0.00     0.293 HD
ENDBRANCH  16  19
BRANCH  18  21
ATOM     21  O   UNL     1     -16.952  87.607  -9.654  1.00  0.00    -0.504 OA
ATOM     22  H   UNL     1     -17.370  87.863  -8.776  1.00  0.00     0.293 HD
ENDBRANCH  18  21
ENDBRANCH   3  13
BRANCH  11  23
ATOM     23  O   UNL     1      -9.994  81.137  -8.823  1.00  0.00    -0.507 OA
ATOM     24  H   UNL     1     -10.268  80.759  -9.715  1.00  0.00     0.293 HD
ENDBRANCH  11  23
ENDBRANCH   1   2
BRANCH   1  25
ATOM     25  C   UNL     1      -5.941  85.189  -8.280  1.00  0.00     0.339 C 
ATOM     26  C   UNL     1      -5.842  84.399  -9.608  1.00  0.00     0.214 C 
ATOM     27  O   UNL     1      -4.685  85.245  -7.617  1.00  0.00    -0.332 OA
ATOM     28  C   UNL     1      -5.144  83.028  -9.418  1.00  0.00     0.180 C 
ATOM     29  C   UNL     1      -4.237  83.946  -7.270  1.00  0.00     0.179 C 
ATOM     30  C   UNL     1      -3.881  83.146  -8.543  1.00  0.00     0.177 C 
BRANCH  26  31
ATOM     31  O   UNL     1      -5.209  85.165 -10.611  1.00  0.00    -0.384 OA
ATOM     32  H   UNL     1      -5.245  86.118 -10.344  1.00  0.00     0.211 HD
ENDBRANCH  26  31
BRANCH  28  33
ATOM     33  O   UNL     1      -4.802  82.463 -10.661  1.00  0.00    -0.387 OA
ATOM     34  H   UNL     1      -5.206  83.046 -11.362  1.00  0.00     0.211 HD
ENDBRANCH  28  33
BRANCH  29  35
ATOM     35  C   UNL     1      -3.045  84.058  -6.295  1.00  0.00     0.191 C 
BRANCH  35  36
ATOM     36  O   UNL     1      -1.969  84.721  -6.898  1.00  0.00    -0.394 OA
ATOM     37  H   UNL     1      -1.153  84.187  -6.715  1.00  0.00     0.210 HD
ENDBRANCH  35  36
ENDBRANCH  29  35
BRANCH  30  38
ATOM     38  O   UNL     1      -2.851  83.777  -9.265  1.00  0.00    -0.387 OA
ATOM     39  H   UNL     1      -2.627  84.625  -8.779  1.00  0.00     0.211 HD
ENDBRANCH  30  38
ENDBRANCH   1  25
TORSDOF 11
ENDMDL
MODEL 2
REMARK VINA RESULT:    -6.319      6.138      9.881
REMARK INTER + INTRA:         -10.013
REMARK INTER:                  -9.230
REMARK INTRA:                  -0.783
REMARK UNBOUND:                -0.924
REMARK SMILES O=c1cc(-c2ccc(O)c(O)c2)oc2cc(O[C@H]3O[C@H](CO)[C@H](O)[C@H](O)[C@@H]3O)cc(O)c12
REMARK SMILES IDX 17 1 16 2 4 3 3 4 13 5 2 6 14 7 1 8 32 9 15 10 30 11 29 12
REMARK SMILES IDX 5 13 6 14 7 15 8 16 12 17 10 18 9 19 11 21 31 23 18 25 27 26
REMARK SMILES IDX 19 27 25 28 20 29 23 30 28 31 26 33 21 35 22 36 24 38
REMARK H PARENT 9 20 11 22 31 24 28 32 26 34 22 37 24 39
REMARK Flexibility Score: inf
ROOT
ATOM      1  O   UNL     1      -6.607  91.125 -13.486  1.00  0.00    -0.462 OA
ENDROOT
BRANCH   1   2
ATOM      2  C   UNL     1      -7.134  90.210 -12.564  1.00  0.00     0.130 A 
ATOM      3  C   UNL     1      -6.309  86.311  -9.957  1.00  0.00     0.138 A 
ATOM      4  C   UNL     1      -7.591  86.320  -9.401  1.00  0.00     0.100 A 
ATOM      5  O   UNL     1      -5.950  87.259 -10.815  1.00  0.00    -0.456 OA
ATOM      6  C   UNL     1      -8.475  87.352  -9.724  1.00  0.00     0.197 A 
ATOM      7  C   UNL     1      -6.765  88.241 -11.191  1.00  0.00     0.146 A 
ATOM      8  O   UNL     1      -9.626  87.333  -9.213  1.00  0.00    -0.289 OA
ATOM      9  C   UNL     1      -8.068  88.362 -10.632  1.00  0.00     0.107 A 
ATOM     10  C   UNL     1      -6.322  89.159 -12.147  1.00  0.00     0.094 A 
ATOM     11  C   UNL     1      -8.876  89.469 -11.029  1.00  0.00     0.134 A 
ATOM     12  C   UNL     1      -8.419  90.340 -12.027  1.00  0.00     0.093 A 
BRANCH   3  13
ATOM     13  C   UNL     1      -5.351  85.254  -9.605  1.00  0.00     0.021 A 
ATOM     14  C   UNL     1      -5.544  83.933 -10.052  1.00  0.00     0.016 A 
ATOM     15  C   UNL     1      -4.610  82.945  -9.732  1.00  0.00     0.051 A 
ATOM     16  C   UNL     1      -3.497  83.251  -8.934  1.00  0.00     0.157 A 
ATOM     17  C   UNL     1      -4.234  85.560  -8.806  1.00  0.00     0.062 A 
ATOM     18  C   UNL     1      -3.317  84.563  -8.461  1.00  0.00     0.158 A 
BRANCH  16  19
ATOM     19  O   UNL     1      -2.574  82.261  -8.600  1.00  0.00    -0.504 OA
ATOM     20  H   UNL     1      -2.781  81.281  -8.724  1.00  0.00     0.293 HD
ENDBRANCH  16  19
BRANCH  18  21
ATOM     21  O   UNL     1      -2.234  84.889  -7.643  1.00  0.00    -0.504 OA
ATOM     22  H   UNL     1      -1.722  85.748  -7.745  1.00  0.00     0.293 HD
ENDBRANCH  18  21
ENDBRANCH   3  13
BRANCH  11  23
ATOM     23  O   UNL     1     -10.100  89.785 -10.436  1.00  0.00    -0.507 OA
ATOM     24  H   UNL     1     -10.820  89.115 -10.223  1.00  0.00     0.293 HD
ENDBRANCH  11  23
ENDBRANCH   1   2
BRANCH   1  25
ATOM     25  C   UNL     1      -6.375  90.846 -14.869  1.00  0.00     0.339 C 
ATOM     26  C   UNL     1      -4.971  90.223 -15.057  1.00  0.00     0.214 C 
ATOM     27  O   UNL     1      -6.537  92.010 -15.668  1.00  0.00    -0.332 OA
ATOM     28  C   UNL     1      -3.843  91.277 -14.909  1.00  0.00     0.180 C 
ATOM     29  C   UNL     1      -5.608  93.013 -15.294  1.00  0.00     0.179 C 
ATOM     30  C   UNL     1      -4.172  92.577 -15.666  1.00  0.00     0.177 C 
BRANCH  26  31
ATOM     31  O   UNL     1      -4.877  89.539 -16.289  1.00  0.00    -0.384 OA
ATOM     32  H   UNL     1      -3.943  89.607 -16.612  1.00  0.00     0.211 HD
ENDBRANCH  26  31
BRANCH  28  33
ATOM     33  O   UNL     1      -2.615  90.765 -15.369  1.00  0.00    -0.387 OA
ATOM     34  H   UNL     1      -1.961  91.516 -15.339  1.00  0.00     0.211 HD
ENDBRANCH  28  33
BRANCH  29  35
ATOM     35  C   UNL     1      -6.004  94.351 -15.956  1.00  0.00     0.191 C 
BRANCH  35  36
ATOM     36  O   UNL     1      -4.890  94.970 -16.535  1.00  0.00    -0.394 OA
ATOM     37  H   UNL     1      -4.317  94.252 -16.912  1.00  0.00     0.210 HD
ENDBRANCH  35  36
ENDBRANCH  29  35
BRANCH  30  38
ATOM     38  O   UNL     1      -4.050  92.373 -17.054  1.00  0.00    -0.387 OA
ATOM     39  H   UNL     1      -4.179  93.263 -17.495  1.00  0.00     0.211 HD
ENDBRANCH  30  38
ENDBRANCH   1  25
TORSDOF 11
ENDMDL
MODEL 3
REMARK VINA RESULT:    -6.238      6.242      9.993
REMARK INTER + INTRA:          -9.896
REMARK INTER:                  -8.953
REMARK INTRA:                  -0.943
REMARK UNBOUND:                -0.924
REMARK SMILES O=c1cc(-c2ccc(O)c(O)c2)oc2cc(O[C@H]3O[C@H](CO)[C@H](O)[C@H](O)[C@@H]3O)cc(O)c12
REMARK SMILES IDX 17 1 16 2 4 3 3 4 13 5 2 6 14 7 1 8 32 9 15 10 30 11 29 12
REMARK SMILES IDX 5 13 6 14 7 15 8 16 12 17 10 18 9 19 11 21 31 23 18 25 27 26
REMARK SMILES IDX 19 27 25 28 20 29 23 30 28 31 26 33 21 35 22 36 24 38
REMARK H PARENT 9 20 11 22 31 24 28 32 26 34 22 37 24 39
REMARK Flexibility Score: inf
ROOT
ATOM      1  O   UNL     1      -6.903  90.963 -13.681  1.00  0.00    -0.462 OA
ENDROOT
BRANCH   1   2
ATOM      2  C   UNL     1      -7.369  90.100 -12.679  1.00  0.00     0.130 A 
ATOM      3  C   UNL     1      -6.390  86.319  -9.954  1.00  0.00     0.138 A 
ATOM      4  C   UNL     1      -7.628  86.371  -9.306  1.00  0.00     0.100 A 
ATOM      5  O   UNL     1      -6.087  87.221 -10.880  1.00  0.00    -0.456 OA
ATOM      6  C   UNL     1      -8.524  87.398  -9.614  1.00  0.00     0.197 A 
ATOM      7  C   UNL     1      -6.918  88.194 -11.243  1.00  0.00     0.146 A 
ATOM      8  O   UNL     1      -9.634  87.418  -9.020  1.00  0.00    -0.289 OA
ATOM      9  C   UNL     1      -8.175  88.358 -10.597  1.00  0.00     0.107 A 
ATOM     10  C   UNL     1      -6.539  89.059 -12.272  1.00  0.00     0.094 A 
ATOM     11  C   UNL     1      -9.000  89.456 -10.987  1.00  0.00     0.134 A 
ATOM     12  C   UNL     1      -8.610  90.272 -12.057  1.00  0.00     0.093 A 
BRANCH   3  13
ATOM     13  C   UNL     1      -5.419  85.268  -9.622  1.00  0.00     0.021 A 
ATOM     14  C   UNL     1      -5.619  83.944 -10.055  1.00  0.00     0.016 A 
ATOM     15  C   UNL     1      -4.673  82.961  -9.754  1.00  0.00     0.051 A 
ATOM     16  C   UNL     1      -3.540  83.276  -8.989  1.00  0.00     0.157 A 
ATOM     17  C   UNL     1      -4.282  85.583  -8.856  1.00  0.00     0.062 A 
ATOM     18  C   UNL     1      -3.351  84.592  -8.530  1.00  0.00     0.158 A 
BRANCH  16  19
ATOM     19  O   UNL     1      -2.603  82.292  -8.675  1.00  0.00    -0.504 OA
ATOM     20  H   UNL     1      -2.605  81.828  -7.779  1.00  0.00     0.293 HD
ENDBRANCH  16  19
BRANCH  18  21
ATOM     21  O   UNL     1      -2.248  84.927  -7.745  1.00  0.00    -0.504 OA
ATOM     22  H   UNL     1      -1.317  84.615  -7.963  1.00  0.00     0.293 HD
ENDBRANCH  18  21
ENDBRANCH   3  13
BRANCH  11  23
ATOM     23  O   UNL     1     -10.174  89.815 -10.322  1.00  0.00    -0.507 OA
ATOM     24  H   UNL     1     -11.098  89.737 -10.714  1.00  0.00     0.293 HD
ENDBRANCH  11  23
ENDBRANCH   1   2
BRANCH   1  25
ATOM     25  C   UNL     1      -5.541  91.368 -13.838  1.00  0.00     0.339 C 
ATOM     26  C   UNL     1      -5.391  92.873 -13.507  1.00  0.00     0.214 C 
ATOM     27  O   UNL     1      -5.058  91.074 -15.142  1.00  0.00    -0.332 OA
ATOM     28  C   UNL     1      -5.964  93.775 -14.631  1.00  0.00     0.180 C 
ATOM     29  C   UNL     1      -5.805  91.770 -16.126  1.00  0.00     0.179 C 
ATOM     30  C   UNL     1      -5.534  93.288 -16.028  1.00  0.00     0.177 C 
BRANCH  26  31
ATOM     31  O   UNL     1      -4.049  93.201 -13.218  1.00  0.00    -0.384 OA
ATOM     32  H   UNL     1      -3.714  92.567 -12.535  1.00  0.00     0.211 HD
ENDBRANCH  26  31
BRANCH  28  33
ATOM     33  O   UNL     1      -5.560  95.111 -14.455  1.00  0.00    -0.387 OA
ATOM     34  H   UNL     1      -5.156  95.172 -13.546  1.00  0.00     0.211 HD
ENDBRANCH  28  33
BRANCH  29  35
ATOM     35  C   UNL     1      -5.468  91.202 -17.522  1.00  0.00     0.191 C 
BRANCH  35  36
ATOM     36  O   UNL     1      -4.129  90.794 -17.582  1.00  0.00    -0.394 OA
ATOM     37  H   UNL     1      -4.121  89.856 -17.907  1.00  0.00     0.210 HD
ENDBRANCH  35  36
ENDBRANCH  29  35
BRANCH  30  38
ATOM     38  O   UNL     1      -4.172  93.572 -16.241  1.00  0.00    -0.387 OA
ATOM     39  H   UNL     1      -3.690  93.364 -15.388  1.00  0.00     0.211 HD
ENDBRANCH  30  38
ENDBRANCH   1  25
TORSDOF 11
ENDMDL
MODEL 4
REMARK VINA RESULT:    -6.164      6.724      9.669
REMARK INTER + INTRA:          -9.790
REMARK INTER:                  -8.820
REMARK INTRA:                  -0.971
REMARK UNBOUND:                -0.924
REMARK SMILES O=c1cc(-c2ccc(O)c(O)c2)oc2cc(O[C@H]3O[C@H](CO)[C@H](O)[C@H](O)[C@@H]3O)cc(O)c12
REMARK SMILES IDX 17 1 16 2 4 3 3 4 13 5 2 6 14 7 1 8 32 9 15 10 30 11 29 12
REMARK SMILES IDX 5 13 6 14 7 15 8 16 12 17 10 18 9 19 11 21 31 23 18 25 27 26
REMARK SMILES IDX 19 27 25 28 20 29 23 30 28 31 26 33 21 35 22 36 24 38
REMARK H PARENT 9 20 11 22 31 24 28 32 26 34 22 37 24 39
REMARK Flexibility Score: inf
ROOT
ATOM      1  O   UNL     1      -5.994  92.850  -9.596  1.00  0.00    -0.462 OA
ENDROOT
BRANCH   1   2
ATOM      2  C   UNL     1      -5.579  91.692  -8.922  1.00  0.00     0.130 A 
ATOM      3  C   UNL     1      -6.166  86.993  -8.414  1.00  0.00     0.138 A 
ATOM      4  C   UNL     1      -5.175  86.899  -7.432  1.00  0.00     0.100 A 
ATOM      5  O   UNL     1      -6.440  88.167  -8.971  1.00  0.00    -0.456 OA
ATOM      6  C   UNL     1      -4.452  88.040  -7.072  1.00  0.00     0.197 A 
ATOM      7  C   UNL     1      -5.813  89.291  -8.636  1.00  0.00     0.146 A 
ATOM      8  O   UNL     1      -3.569  87.928  -6.181  1.00  0.00    -0.289 OA
ATOM      9  C   UNL     1      -4.751  89.281  -7.689  1.00  0.00     0.107 A 
ATOM     10  C   UNL     1      -6.212  90.491  -9.231  1.00  0.00     0.094 A 
ATOM     11  C   UNL     1      -4.077  90.507  -7.413  1.00  0.00     0.134 A 
ATOM     12  C   UNL     1      -4.537  91.699  -7.989  1.00  0.00     0.093 A 
BRANCH   3  13
ATOM     13  C   UNL     1      -6.915  85.801  -8.832  1.00  0.00     0.021 A 
ATOM     14  C   UNL     1      -6.239  84.627  -9.217  1.00  0.00     0.016 A 
ATOM     15  C   UNL     1      -6.966  83.494  -9.586  1.00  0.00     0.051 A 
ATOM     16  C   UNL     1      -8.369  83.526  -9.614  1.00  0.00     0.157 A 
ATOM     17  C   UNL     1      -8.321  85.832  -8.859  1.00  0.00     0.062 A 
ATOM     18  C   UNL     1      -9.047  84.706  -9.258  1.00  0.00     0.158 A 
BRANCH  16  19
ATOM     19  O   UNL     1      -9.094  82.399  -9.998  1.00  0.00    -0.504 OA
ATOM     20  H   UNL     1      -9.297  82.207 -10.967  1.00  0.00     0.293 HD
ENDBRANCH  16  19
BRANCH  18  21
ATOM     21  O   UNL     1     -10.439  84.775  -9.303  1.00  0.00    -0.504 OA
ATOM     22  H   UNL     1     -10.965  84.513 -10.119  1.00  0.00     0.293 HD
ENDBRANCH  18  21
ENDBRANCH   3  13
BRANCH  11  23
ATOM     23  O   UNL     1      -2.924  90.596  -6.630  1.00  0.00    -0.507 OA
ATOM     24  H   UNL     1      -2.850  91.134  -5.782  1.00  0.00     0.293 HD
ENDBRANCH  11  23
ENDBRANCH   1   2
BRANCH   1  25
ATOM     25  C   UNL     1      -5.657  93.169 -10.948  1.00  0.00     0.339 C 
ATOM     26  C   UNL     1      -4.130  93.379 -11.081  1.00  0.00     0.214 C 
ATOM     27  O   UNL     1      -6.378  94.304 -11.408  1.00  0.00    -0.332 OA
ATOM     28  C   UNL     1      -3.674  94.730 -10.473  1.00  0.00     0.180 C 
ATOM     29  C   UNL     1      -6.069  95.449 -10.631  1.00  0.00     0.179 C 
ATOM     30  C   UNL     1      -4.607  95.885 -10.881  1.00  0.00     0.177 C 
BRANCH  26  31
ATOM     31  O   UNL     1      -3.712  93.253 -12.424  1.00  0.00    -0.384 OA
ATOM     32  H   UNL     1      -4.241  92.530 -12.847  1.00  0.00     0.211 HD
ENDBRANCH  26  31
BRANCH  28  33
ATOM     33  O   UNL     1      -2.355  95.034 -10.859  1.00  0.00    -0.387 OA
ATOM     34  H   UNL     1      -2.415  95.510 -11.734  1.00  0.00     0.211 HD
ENDBRANCH  28  33
BRANCH  29  35
ATOM     35  C   UNL     1      -7.079  96.572 -10.948  1.00  0.00     0.191 C 
BRANCH  35  36
ATOM     36  O   UNL     1      -6.467  97.829 -10.871  1.00  0.00    -0.394 OA
ATOM     37  H   UNL     1      -5.673  97.807 -11.466  1.00  0.00     0.210 HD
ENDBRANCH  35  36
ENDBRANCH  29  35
BRANCH  30  38
ATOM     38  O   UNL     1      -4.404  96.216 -12.234  1.00  0.00    -0.387 OA
ATOM     39  H   UNL     1      -4.266  95.357 -12.730  1.00  0.00     0.211 HD
ENDBRANCH  30  38
ENDBRANCH   1  25
TORSDOF 11
ENDMDL
MODEL 5
REMARK VINA RESULT:    -6.102      6.709      9.203
REMARK INTER + INTRA:          -9.701
REMARK INTER:                  -8.870
REMARK INTRA:                  -0.831
REMARK UNBOUND:                -0.924
REMARK SMILES O=c1cc(-c2ccc(O)c(O)c2)oc2cc(O[C@H]3O[C@H](CO)[C@H](O)[C@H](O)[C@@H]3O)cc(O)c12
REMARK SMILES IDX 17 1 16 2 4 3 3 4 13 5 2 6 14 7 1 8 32 9 15 10 30 11 29 12
REMARK SMILES IDX 5 13 6 14 7 15 8 16 12 17 10 18 9 19 11 21 31 23 18 25 27 26
REMARK SMILES IDX 19 27 25 28 20 29 23 30 28 31 26 33 21 35 22 36 24 38
REMARK H PARENT 9 20 11 22 31 24 28 32 26 34 22 37 24 39
REMARK Flexibility Score: inf
ROOT
ATOM      1  O   UNL     1      -6.975  87.409 -10.052  1.00  0.00    -0.462 OA
ENDROOT
BRANCH   1   2
ATOM      2  C   UNL     1      -6.386  88.605 -10.486  1.00  0.00     0.130 A 
ATOM      3  C   UNL     1      -5.290  91.338 -14.229  1.00  0.00     0.138 A 
ATOM      4  C   UNL     1      -4.707  92.328 -13.432  1.00  0.00     0.100 A 
ATOM      5  O   UNL     1      -5.821  90.259 -13.666  1.00  0.00    -0.456 OA
ATOM      6  C   UNL     1      -4.722  92.189 -12.041  1.00  0.00     0.197 A 
ATOM      7  C   UNL     1      -5.825  90.055 -12.352  1.00  0.00     0.146 A 
ATOM      8  O   UNL     1      -4.185  93.092 -11.347  1.00  0.00    -0.289 OA
ATOM      9  C   UNL     1      -5.306  91.035 -11.460  1.00  0.00     0.107 A 
ATOM     10  C   UNL     1      -6.349  88.859 -11.854  1.00  0.00     0.094 A 
ATOM     11  C   UNL     1      -5.390  90.788 -10.057  1.00  0.00     0.134 A 
ATOM     12  C   UNL     1      -5.875  89.557  -9.597  1.00  0.00     0.093 A 
BRANCH   3  13
ATOM     13  C   UNL     1      -5.316  91.479 -15.691  1.00  0.00     0.021 A 
ATOM     14  C   UNL     1      -6.444  92.018 -16.340  1.00  0.00     0.016 A 
ATOM     15  C   UNL     1      -6.442  92.170 -17.728  1.00  0.00     0.051 A 
ATOM     16  C   UNL     1      -5.338  91.755 -18.488  1.00  0.00     0.157 A 
ATOM     17  C   UNL     1      -4.209  91.064 -16.453  1.00  0.00     0.062 A 
ATOM     18  C   UNL     1      -4.222  91.190 -17.846  1.00  0.00     0.158 A 
BRANCH  16  19
ATOM     19  O   UNL     1      -5.343  91.892 -19.875  1.00  0.00    -0.504 OA
ATOM     20  H   UNL     1      -5.465  91.097 -20.484  1.00  0.00     0.293 HD
ENDBRANCH  16  19
BRANCH  18  21
ATOM     21  O   UNL     1      -3.122  90.744 -18.579  1.00  0.00    -0.504 OA
ATOM     22  H   UNL     1      -3.216  90.147 -19.383  1.00  0.00     0.293 HD
ENDBRANCH  18  21
ENDBRANCH   3  13
BRANCH  11  23
ATOM     23  O   UNL     1      -5.065  91.735  -9.084  1.00  0.00    -0.507 OA
ATOM     24  H   UNL     1      -5.591  91.891  -8.241  1.00  0.00     0.293 HD
ENDBRANCH  11  23
ENDBRANCH   1   2
BRANCH   1  25
ATOM     25  C   UNL     1      -6.654  86.740  -8.830  1.00  0.00     0.339 C 
ATOM     26  C   UNL     1      -5.240  86.115  -8.922  1.00  0.00     0.214 C 
ATOM     27  O   UNL     1      -7.632  85.763  -8.501  1.00  0.00    -0.332 OA
ATOM     28  C   UNL     1      -5.222  84.848  -9.816  1.00  0.00     0.180 C 
ATOM     29  C   UNL     1      -7.707  84.764  -9.504  1.00  0.00     0.179 C 
ATOM     30  C   UNL     1      -6.413  83.919  -9.515  1.00  0.00     0.177 C 
BRANCH  26  31
ATOM     31  O   UNL     1      -4.717  85.846  -7.638  1.00  0.00    -0.384 OA
ATOM     32  H   UNL     1      -3.806  85.472  -7.746  1.00  0.00     0.211 HD
ENDBRANCH  26  31
BRANCH  28  33
ATOM     33  O   UNL     1      -4.019  84.137  -9.652  1.00  0.00    -0.387 OA
ATOM     34  H   UNL     1      -3.416  84.417 -10.394  1.00  0.00     0.211 HD
ENDBRANCH  28  33
BRANCH  29  35
ATOM     35  C   UNL     1      -8.969  83.903  -9.277  1.00  0.00     0.191 C 
BRANCH  35  36
ATOM     36  O   UNL     1      -8.911  82.726 -10.033  1.00  0.00    -0.394 OA
ATOM     37  H   UNL     1      -8.372  82.071  -9.519  1.00  0.00     0.210 HD
ENDBRANCH  35  36
ENDBRANCH  29  35
BRANCH  30  38
ATOM     38  O   UNL     1      -6.222  83.273  -8.279  1.00  0.00    -0.387 OA
ATOM     39  H   UNL     1      -7.025  83.474  -7.714  1.00  0.00     0.211 HD
ENDBRANCH  30  38
ENDBRANCH   1  25
TORSDOF 11
ENDMDL
MODEL 6
REMARK VINA RESULT:    -6.066      5.071      7.327
REMARK INTER + INTRA:          -9.649
REMARK INTER:                  -8.827
REMARK INTRA:                  -0.821
REMARK UNBOUND:                -0.924
REMARK SMILES O=c1cc(-c2ccc(O)c(O)c2)oc2cc(O[C@H]3O[C@H](CO)[C@H](O)[C@H](O)[C@@H]3O)cc(O)c12
REMARK SMILES IDX 17 1 16 2 4 3 3 4 13 5 2 6 14 7 1 8 32 9 15 10 30 11 29 12
REMARK SMILES IDX 5 13 6 14 7 15 8 16 12 17 10 18 9 19 11 21 31 23 18 25 27 26
REMARK SMILES IDX 19 27 25 28 20 29 23 30 28 31 26 33 21 35 22 36 24 38
REMARK H PARENT 9 20 11 22 31 24 28 32 26 34 22 37 24 39
REMARK Flexibility Score: inf
ROOT
ATOM      1  O   UNL     1      -5.856  85.258  -8.851  1.00  0.00    -0.462 OA
ENDROOT
BRANCH   1   2
ATOM      2  C   UNL     1      -6.550  86.332  -9.425  1.00  0.00     0.130 A 
ATOM      3  C   UNL     1      -6.592  89.620 -12.870  1.00  0.00     0.138 A 
ATOM      4  C   UNL     1      -7.817  90.150 -12.453  1.00  0.00     0.100 A 
ATOM      5  O   UNL     1      -6.062  88.586 -12.226  1.00  0.00    -0.456 OA
ATOM      6  C   UNL     1      -8.494  89.561 -11.382  1.00  0.00     0.197 A 
ATOM      7  C   UNL     1      -6.642  88.014 -11.175  1.00  0.00     0.146 A 
ATOM      8  O   UNL     1      -9.592  90.062 -11.024  1.00  0.00    -0.289 OA
ATOM      9  C   UNL     1      -7.917  88.450 -10.717  1.00  0.00     0.107 A 
ATOM     10  C   UNL     1      -5.979  86.971 -10.522  1.00  0.00     0.094 A 
ATOM     11  C   UNL     1      -8.516  87.759  -9.622  1.00  0.00     0.134 A 
ATOM     12  C   UNL     1      -7.801  86.752  -8.960  1.00  0.00     0.093 A 
BRANCH   3  13
ATOM     13  C   UNL     1      -5.879  90.203 -14.015  1.00  0.00     0.021 A 
ATOM     14  C   UNL     1      -6.586  90.852 -15.045  1.00  0.00     0.016 A 
ATOM     15  C   UNL     1      -5.892  91.424 -16.113  1.00  0.00     0.051 A 
ATOM     16  C   UNL     1      -4.494  91.324 -16.188  1.00  0.00     0.157 A 
ATOM     17  C   UNL     1      -4.478  90.104 -14.090  1.00  0.00     0.062 A 
ATOM     18  C   UNL     1      -3.787  90.651 -15.175  1.00  0.00     0.158 A 
BRANCH  16  19
ATOM     19  O   UNL     1      -3.802  91.881 -17.263  1.00  0.00    -0.504 OA
ATOM     20  H   UNL     1      -3.138  92.629 -17.133  1.00  0.00     0.293 HD
ENDBRANCH  16  19
BRANCH  18  21
ATOM     21  O   UNL     1      -2.400  90.514 -15.238  1.00  0.00    -0.504 OA
ATOM     22  H   UNL     1      -1.933  89.657 -14.994  1.00  0.00     0.293 HD
ENDBRANCH  18  21
ENDBRANCH   3  13
BRANCH  11  23
ATOM     23  O   UNL     1      -9.823  87.986  -9.187  1.00  0.00    -0.507 OA
ATOM     24  H   UNL     1     -10.125  88.808  -8.690  1.00  0.00     0.293 HD
ENDBRANCH  11  23
ENDBRANCH   1   2
BRANCH   1  25
ATOM     25  C   UNL     1      -4.596  84.763  -9.313  1.00  0.00     0.339 C 
ATOM     26  C   UNL     1      -4.479  83.248  -9.017  1.00  0.00     0.214 C 
ATOM     27  O   UNL     1      -3.514  85.487  -8.744  1.00  0.00    -0.332 OA
ATOM     28  C   UNL     1      -4.227  82.968  -7.513  1.00  0.00     0.180 C 
ATOM     29  C   UNL     1      -3.508  85.361  -7.332  1.00  0.00     0.179 C 
ATOM     30  C   UNL     1      -3.160  83.910  -6.927  1.00  0.00     0.177 C 
BRANCH  26  31
ATOM     31  O   UNL     1      -3.491  82.645  -9.825  1.00  0.00    -0.384 OA
ATOM     32  H   UNL     1      -3.178  81.823  -9.371  1.00  0.00     0.211 HD
ENDBRANCH  26  31
BRANCH  28  33
ATOM     33  O   UNL     1      -3.834  81.631  -7.312  1.00  0.00    -0.387 OA
ATOM     34  H   UNL     1      -3.399  81.592  -6.416  1.00  0.00     0.211 HD
ENDBRANCH  28  33
BRANCH  29  35
ATOM     35  C   UNL     1      -2.526  86.390  -6.730  1.00  0.00     0.191 C 
BRANCH  35  36
ATOM     36  O   UNL     1      -1.875  87.107  -7.741  1.00  0.00    -0.394 OA
ATOM     37  H   UNL     1      -0.910  86.881  -7.689  1.00  0.00     0.210 HD
ENDBRANCH  35  36
ENDBRANCH  29  35
BRANCH  30  38
ATOM     38  O   UNL     1      -1.883  83.547  -7.397  1.00  0.00    -0.387 OA
ATOM     39  H   UNL     1      -1.425  83.056  -6.654  1.00  0.00     0.211 HD
ENDBRANCH  30  38
ENDBRANCH   1  25
TORSDOF 11
ENDMDL
MODEL 7
REMARK VINA RESULT:    -6.039      9.740     11.553
REMARK INTER + INTRA:          -9.611
REMARK INTER:                  -8.909
REMARK INTRA:                  -0.702
REMARK UNBOUND:                -0.924
REMARK SMILES O=c1cc(-c2ccc(O)c(O)c2)oc2cc(O[C@H]3O[C@H](CO)[C@H](O)[C@H](O)[C@@H]3O)cc(O)c12
REMARK SMILES IDX 17 1 16 2 4 3 3 4 13 5 2 6 14 7 1 8 32 9 15 10 30 11 29 12
REMARK SMILES IDX 5 13 6 14 7 15 8 16 12 17 10 18 9 19 11 21 31 23 18 25 27 26
REMARK SMILES IDX 19 27 25 28 20 29 23 30 28 31 26 33 21 35 22 36 24 38
REMARK H PARENT 9 20 11 22 31 24 28 32 26 34 22 37 24 39
REMARK Flexibility Score: inf
ROOT
ATOM      1  O   UNL     1      -4.327  91.844 -18.327  1.00  0.00    -0.462 OA
ENDROOT
BRANCH   1   2
ATOM      2  C   UNL     1      -4.692  91.439 -17.035  1.00  0.00     0.130 A 
ATOM      3  C   UNL     1      -8.268  90.836 -13.948  1.00  0.00     0.138 A 
ATOM      4  C   UNL     1      -7.420  90.358 -12.943  1.00  0.00     0.100 A 
ATOM      5  O   UNL     1      -7.770  91.172 -15.132  1.00  0.00    -0.456 OA
ATOM      6  C   UNL     1      -6.057  90.203 -13.209  1.00  0.00     0.197 A 
ATOM      7  C   UNL     1      -6.476  91.085 -15.425  1.00  0.00     0.146 A 
ATOM      8  O   UNL     1      -5.316  89.776 -12.285  1.00  0.00    -0.289 OA
ATOM      9  C   UNL     1      -5.549  90.555 -14.485  1.00  0.00     0.107 A 
ATOM     10  C   UNL     1      -6.035  91.521 -16.677  1.00  0.00     0.094 A 
ATOM     11  C   UNL     1      -4.182  90.430 -14.876  1.00  0.00     0.134 A 
ATOM     12  C   UNL     1      -3.768  90.925 -16.119  1.00  0.00     0.093 A 
BRANCH   3  13
ATOM     13  C   UNL     1      -9.709  90.976 -13.702  1.00  0.00     0.021 A 
ATOM     14  C   UNL     1     -10.245  92.197 -13.253  1.00  0.00     0.016 A 
ATOM     15  C   UNL     1     -11.621  92.322 -13.049  1.00  0.00     0.051 A 
ATOM     16  C   UNL     1     -12.472  91.226 -13.254  1.00  0.00     0.157 A 
ATOM     17  C   UNL     1     -10.563  89.877 -13.907  1.00  0.00     0.062 A 
ATOM     18  C   UNL     1     -11.937  89.995 -13.675  1.00  0.00     0.158 A 
BRANCH  16  19
ATOM     19  O   UNL     1     -13.844  91.346 -13.035  1.00  0.00    -0.504 OA
ATOM     20  H   UNL     1     -14.493  90.641 -13.350  1.00  0.00     0.293 HD
ENDBRANCH  16  19
BRANCH  18  21
ATOM     21  O   UNL     1     -12.756  88.881 -13.859  1.00  0.00    -0.504 OA
ATOM     22  H   UNL     1     -13.739  88.962 -14.057  1.00  0.00     0.293 HD
ENDBRANCH  18  21
ENDBRANCH   3  13
BRANCH  11  23
ATOM     23  O   UNL     1      -3.214  89.782 -14.106  1.00  0.00    -0.507 OA
ATOM     24  H   UNL     1      -3.344  88.889 -13.660  1.00  0.00     0.293 HD
ENDBRANCH  11  23
ENDBRANCH   1   2
BRANCH   1  25
ATOM     25  C   UNL     1      -3.155  92.600 -18.641  1.00  0.00     0.339 C 
ATOM     26  C   UNL     1      -3.550  93.946 -19.295  1.00  0.00     0.214 C 
ATOM     27  O   UNL     1      -2.268  91.862 -19.471  1.00  0.00    -0.332 OA
ATOM     28  C   UNL     1      -4.029  93.763 -20.759  1.00  0.00     0.180 C 
ATOM     29  C   UNL     1      -2.885  91.534 -20.705  1.00  0.00     0.179 C 
ATOM     30  C   UNL     1      -3.108  92.812 -21.546  1.00  0.00     0.177 C 
BRANCH  26  31
ATOM     31  O   UNL     1      -2.497  94.883 -19.212  1.00  0.00    -0.384 OA
ATOM     32  H   UNL     1      -2.017  94.735 -18.359  1.00  0.00     0.211 HD
ENDBRANCH  26  31
BRANCH  28  33
ATOM     33  O   UNL     1      -4.099  95.002 -21.422  1.00  0.00    -0.387 OA
ATOM     34  H   UNL     1      -5.067  95.214 -21.533  1.00  0.00     0.211 HD
ENDBRANCH  28  33
BRANCH  29  35
ATOM     35  C   UNL     1      -2.024  90.487 -21.445  1.00  0.00     0.191 C 
BRANCH  35  36
ATOM     36  O   UNL     1      -2.296  89.197 -20.974  1.00  0.00    -0.394 OA
ATOM     37  H   UNL     1      -1.658  89.012 -20.237  1.00  0.00     0.210 HD
ENDBRANCH  35  36
ENDBRANCH  29  35
BRANCH  30  38
ATOM     38  O   UNL     1      -1.885  93.448 -21.832  1.00  0.00    -0.387 OA
ATOM     39  H   UNL     1      -1.448  93.654 -20.954  1.00  0.00     0.211 HD
ENDBRANCH  30  38
ENDBRANCH   1  25
TORSDOF 11
ENDMDL
MODEL 8
REMARK VINA RESULT:    -5.989      6.149      9.180
REMARK INTER + INTRA:          -9.538
REMARK INTER:                  -8.548
REMARK INTRA:                  -0.990
REMARK UNBOUND:                -0.924
REMARK SMILES O=c1cc(-c2ccc(O)c(O)c2)oc2cc(O[C@H]3O[C@H](CO)[C@H](O)[C@H](O)[C@@H]3O)cc(O)c12
REMARK SMILES IDX 17 1 16 2 4 3 3 4 13 5 2 6 14 7 1 8 32 9 15 10 30 11 29 12
REMARK SMILES IDX 5 13 6 14 7 15 8 16 12 17 10 18 9 19 11 21 31 23 18 25 27 26
REMARK SMILES IDX 19 27 25 28 20 29 23 30 28 31 26 33 21 35 22 36 24 38
REMARK H PARENT 9 20 11 22 31 24 28 32 26 34 22 37 24 39
REMARK Flexibility Score: inf
ROOT
ATOM      1  O   UNL     1      -5.683  92.704 -10.053  1.00  0.00    -0.462 OA
ENDROOT
BRANCH   1   2
ATOM      2  C   UNL     1      -5.382  91.596  -9.249  1.00  0.00     0.130 A 
ATOM      3  C   UNL     1      -6.169  86.969  -8.445  1.00  0.00     0.138 A 
ATOM      4  C   UNL     1      -5.296  86.932  -7.354  1.00  0.00     0.100 A 
ATOM      5  O   UNL     1      -6.342  88.100  -9.119  1.00  0.00    -0.456 OA
ATOM      6  C   UNL     1      -4.581  88.082  -7.005  1.00  0.00     0.197 A 
ATOM      7  C   UNL     1      -5.722  89.233  -8.805  1.00  0.00     0.146 A 
ATOM      8  O   UNL     1      -3.806  88.023  -6.014  1.00  0.00    -0.289 OA
ATOM      9  C   UNL     1      -4.771  89.275  -7.746  1.00  0.00     0.107 A 
ATOM     10  C   UNL     1      -6.014  90.389  -9.532  1.00  0.00     0.094 A 
ATOM     11  C   UNL     1      -4.093  90.504  -7.493  1.00  0.00     0.134 A 
ATOM     12  C   UNL     1      -4.449  91.655  -8.208  1.00  0.00     0.093 A 
BRANCH   3  13
ATOM     13  C   UNL     1      -6.905  85.763  -8.851  1.00  0.00     0.021 A 
ATOM     14  C   UNL     1      -6.215  84.592  -9.218  1.00  0.00     0.016 A 
ATOM     15  C   UNL     1      -6.930  83.446  -9.576  1.00  0.00     0.051 A 
ATOM     16  C   UNL     1      -8.332  83.464  -9.608  1.00  0.00     0.157 A 
ATOM     17  C   UNL     1      -8.311  85.780  -8.883  1.00  0.00     0.062 A 
ATOM     18  C   UNL     1      -9.023  84.641  -9.269  1.00  0.00     0.158 A 
BRANCH  16  19
ATOM     19  O   UNL     1      -9.045  82.325  -9.981  1.00  0.00    -0.504 OA
ATOM     20  H   UNL     1      -8.577  81.465 -10.221  1.00  0.00     0.293 HD
ENDBRANCH  16  19
BRANCH  18  21
ATOM     21  O   UNL     1     -10.417  84.695  -9.319  1.00  0.00    -0.504 OA
ATOM     22  H   UNL     1     -10.994  83.896  -9.121  1.00  0.00     0.293 HD
ENDBRANCH  18  21
ENDBRANCH   3  13
BRANCH  11  23
ATOM     23  O   UNL     1      -3.031  90.630  -6.594  1.00  0.00    -0.507 OA
ATOM     24  H   UNL     1      -2.872  91.433  -6.008  1.00  0.00     0.293 HD
ENDBRANCH  11  23
ENDBRANCH   1   2
BRANCH   1  25
ATOM     25  C   UNL     1      -4.753  93.358 -10.920  1.00  0.00     0.339 C 
ATOM     26  C   UNL     1      -5.421  94.583 -11.591  1.00  0.00     0.214 C 
ATOM     27  O   UNL     1      -4.227  92.460 -11.888  1.00  0.00    -0.332 OA
ATOM     28  C   UNL     1      -6.419  94.165 -12.702  1.00  0.00     0.180 C 
ATOM     29  C   UNL     1      -5.258  91.944 -12.713  1.00  0.00     0.179 C 
ATOM     30  C   UNL     1      -5.837  93.063 -13.608  1.00  0.00     0.177 C 
BRANCH  26  31
ATOM     31  O   UNL     1      -4.453  95.486 -12.082  1.00  0.00    -0.384 OA
ATOM     32  H   UNL     1      -3.559  95.170 -11.796  1.00  0.00     0.211 HD
ENDBRANCH  26  31
BRANCH  28  33
ATOM     33  O   UNL     1      -6.786  95.273 -13.488  1.00  0.00    -0.387 OA
ATOM     34  H   UNL     1      -6.025  95.916 -13.451  1.00  0.00     0.211 HD
ENDBRANCH  28  33
BRANCH  29  35
ATOM     35  C   UNL     1      -4.711  90.758 -13.537  1.00  0.00     0.191 C 
BRANCH  35  36
ATOM     36  O   UNL     1      -3.403  91.012 -13.966  1.00  0.00    -0.394 OA
ATOM     37  H   UNL     1      -3.401  90.955 -14.957  1.00  0.00     0.210 HD
ENDBRANCH  35  36
ENDBRANCH  29  35
BRANCH  30  38
ATOM     38  O   UNL     1      -4.844  93.602 -14.448  1.00  0.00    -0.387 OA
ATOM     39  H   UNL     1      -4.720  92.959 -15.206  1.00  0.00     0.211 HD
ENDBRANCH  30  38
ENDBRANCH   1  25
TORSDOF 11
ENDMDL
MODEL 9
REMARK VINA RESULT:    -5.927      8.163     11.609
REMARK INTER + INTRA:          -9.450
REMARK INTER:                  -8.468
REMARK INTRA:                  -0.981
REMARK UNBOUND:                -0.924
REMARK SMILES O=c1cc(-c2ccc(O)c(O)c2)oc2cc(O[C@H]3O[C@H](CO)[C@H](O)[C@H](O)[C@@H]3O)cc(O)c12
REMARK SMILES IDX 17 1 16 2 4 3 3 4 13 5 2 6 14 7 1 8 32 9 15 10 30 11 29 12
REMARK SMILES IDX 5 13 6 14 7 15 8 16 12 17 10 18 9 19 11 21 31 23 18 25 27 26
REMARK SMILES IDX 19 27 25 28 20 29 23 30 28 31 26 33 21 35 22 36 24 38
REMARK H PARENT 9 20 11 22 31 24 28 32 26 34 22 37 24 39
REMARK Flexibility Score: inf
ROOT
ATOM      1  O   UNL     1      -5.102  92.777 -14.558  1.00  0.00    -0.462 OA
ENDROOT
BRANCH   1   2
ATOM      2  C   UNL     1      -5.090  92.987 -13.172  1.00  0.00     0.130 A 
ATOM      3  C   UNL     1      -4.745  90.965  -8.874  1.00  0.00     0.138 A 
ATOM      4  C   UNL     1      -4.859  92.188  -8.206  1.00  0.00     0.100 A 
ATOM      5  O   UNL     1      -4.763  90.929 -10.201  1.00  0.00    -0.456 OA
ATOM      6  C   UNL     1      -4.954  93.371  -8.945  1.00  0.00     0.197 A 
ATOM      7  C   UNL     1      -4.893  92.018 -10.953  1.00  0.00     0.146 A 
ATOM      8  O   UNL     1      -5.061  94.457  -8.319  1.00  0.00    -0.289 OA
ATOM      9  C   UNL     1      -4.957  93.310 -10.362  1.00  0.00     0.107 A 
ATOM     10  C   UNL     1      -4.966  91.877 -12.342  1.00  0.00     0.094 A 
ATOM     11  C   UNL     1      -5.037  94.447 -11.221  1.00  0.00     0.134 A 
ATOM     12  C   UNL     1      -5.159  94.264 -12.605  1.00  0.00     0.093 A 
BRANCH   3  13
ATOM     13  C   UNL     1      -4.611  89.713  -8.117  1.00  0.00     0.021 A 
ATOM     14  C   UNL     1      -3.812  89.657  -6.960  1.00  0.00     0.016 A 
ATOM     15  C   UNL     1      -3.716  88.466  -6.236  1.00  0.00     0.051 A 
ATOM     16  C   UNL     1      -4.382  87.311  -6.675  1.00  0.00     0.157 A 
ATOM     17  C   UNL     1      -5.279  88.556  -8.556  1.00  0.00     0.062 A 
ATOM     18  C   UNL     1      -5.159  87.357  -7.847  1.00  0.00     0.158 A 
BRANCH  16  19
ATOM     19  O   UNL     1      -4.274  86.118  -5.962  1.00  0.00    -0.504 OA
ATOM     20  H   UNL     1      -4.768  85.975  -5.094  1.00  0.00     0.293 HD
ENDBRANCH  16  19
BRANCH  18  21
ATOM     21  O   UNL     1      -5.809  86.218  -8.322  1.00  0.00    -0.504 OA
ATOM     22  H   UNL     1      -6.761  86.237  -8.646  1.00  0.00     0.293 HD
ENDBRANCH  18  21
ENDBRANCH   3  13
BRANCH  11  23
ATOM     23  O   UNL     1      -4.944  95.765 -10.770  1.00  0.00    -0.507 OA
ATOM     24  H   UNL     1      -4.595  96.533 -11.320  1.00  0.00     0.293 HD
ENDBRANCH  11  23
ENDBRANCH   1   2
BRANCH   1  25
ATOM     25  C   UNL     1      -5.681  91.641 -15.204  1.00  0.00     0.339 C 
ATOM     26  C   UNL     1      -4.590  90.843 -15.958  1.00  0.00     0.214 C 
ATOM     27  O   UNL     1      -6.738  92.022 -16.075  1.00  0.00    -0.332 OA
ATOM     28  C   UNL     1      -4.137  91.560 -17.256  1.00  0.00     0.180 C 
ATOM     29  C   UNL     1      -6.264  92.876 -17.102  1.00  0.00     0.179 C 
ATOM     30  C   UNL     1      -5.337  92.096 -18.060  1.00  0.00     0.177 C 
BRANCH  26  31
ATOM     31  O   UNL     1      -5.013  89.522 -16.221  1.00  0.00    -0.384 OA
ATOM     32  H   UNL     1      -4.845  89.327 -17.177  1.00  0.00     0.211 HD
ENDBRANCH  26  31
BRANCH  28  33
ATOM     33  O   UNL     1      -3.377  90.697 -18.066  1.00  0.00    -0.387 OA
ATOM     34  H   UNL     1      -2.427  90.989 -17.985  1.00  0.00     0.211 HD
ENDBRANCH  28  33
BRANCH  29  35
ATOM     35  C   UNL     1      -7.466  93.511 -17.835  1.00  0.00     0.191 C 
BRANCH  35  36
ATOM     36  O   UNL     1      -7.212  93.615 -19.208  1.00  0.00    -0.394 OA
ATOM     37  H   UNL     1      -7.575  94.489 -19.509  1.00  0.00     0.210 HD
ENDBRANCH  35  36
ENDBRANCH  29  35
BRANCH  30  38
ATOM     38  O   UNL     1      -6.024  91.029 -18.671  1.00  0.00    -0.387 OA
ATOM     39  H   UNL     1      -7.003  91.198 -18.544  1.00  0.00     0.211 HD
ENDBRANCH  30  38
ENDBRANCH   1  25
TORSDOF 11
ENDMDL
