MODEL 1
REMARK VINA RESULT:    -3.075      0.000      0.000
REMARK INTER + INTRA:          -8.533
REMARK INTER:                  -7.029
REMARK INTRA:                  -1.504
REMARK UNBOUND:                -1.504
REMARK SMILES CCCCCCCCCCCCCCCCCCCCCCCC(=O)[O-]
REMARK SMILES IDX 13 1 14 2 15 3 16 4 17 5 18 6 19 7 20 8 21 9 22 10 23 11
REMARK SMILES IDX 24 12 25 13 26 14 12 15 11 16 10 17 9 18 8 19 7 20 6 21 5 22
REMARK SMILES IDX 4 23 3 24 2 25 1 26
REMARK H PARENT
REMARK Flexibility Score: inf
ROOT
ATOM      1  C   UNL     1      -2.882   4.337  -2.519  1.00  0.00     0.000 C 
ENDROOT
BRANCH   1   2
ATOM      2  C   UNL     1      -3.042   5.363  -1.382  1.00  0.00     0.000 C 
BRANCH   2   3
ATOM      3  C   UNL     1      -2.915   4.734   0.016  1.00  0.00     0.000 C 
BRANCH   3   4
ATOM      4  C   UNL     1      -2.988   3.196  -0.010  1.00  0.00     0.000 C 
BRANCH   4   5
ATOM      5  C   UNL     1      -4.116   2.578   0.839  1.00  0.00     0.000 C 
BRANCH   5   6
ATOM      6  C   UNL     1      -4.322   1.079   0.558  1.00  0.00     0.000 C 
BRANCH   6   7
ATOM      7  C   UNL     1      -3.657   0.626  -0.752  1.00  0.00     0.000 C 
BRANCH   7   8
ATOM      8  C   UNL     1      -3.466  -0.899  -0.821  1.00  0.00     0.000 C 
BRANCH   8   9
ATOM      9  C   UNL     1      -4.140  -1.531  -2.052  1.00  0.00     0.000 C 
BRANCH   9  10
ATOM     10  C   UNL     1      -4.001  -3.064  -2.162  1.00  0.00     0.006 C 
BRANCH  10  11
ATOM     11  C   UNL     1      -3.388  -3.739  -0.926  1.00  0.00     0.053 C 
BRANCH  11  12
ATOM     12  C   UNL     1      -4.437  -4.316  -0.026  1.00  0.00     0.041 C 
ATOM     13  O   UNL     1      -4.923  -3.624   0.907  1.00  0.00    -0.550 OA
ATOM     14  O   UNL     1      -4.912  -5.602  -0.247  1.00  0.00    -0.550 OA
ENDBRANCH  11  12
ENDBRANCH  10  11
ENDBRANCH   9  10
ENDBRANCH   8   9
ENDBRANCH   7   8
ENDBRANCH   6   7
ENDBRANCH   5   6
ENDBRANCH   4   5
ENDBRANCH   3   4
ENDBRANCH   2   3
ENDBRANCH   1   2
BRANCH   1  15
ATOM     15  C   UNL     1      -3.525   4.741  -3.858  1.00  0.00     0.000 C 
BRANCH  15  16
ATOM     16  C   UNL     1      -4.889   5.430  -3.683  1.00  0.00     0.000 C 
BRANCH  16  17
ATOM     17  C   UNL     1      -5.404   6.063  -4.986  1.00  0.00     0.000 C 
BRANCH  17  18
ATOM     18  C   UNL     1      -6.935   6.231  -4.995  1.00  0.00    -0.000 C 
BRANCH  18  19
ATOM     19  C   UNL     1      -7.557   5.905  -6.364  1.00  0.00    -0.000 C 
BRANCH  19  20
ATOM     20  C   UNL     1      -6.551   6.047  -7.520  1.00  0.00    -0.000 C 
BRANCH  20  21
ATOM     21  C   UNL     1      -6.868   7.243  -8.433  1.00  0.00    -0.000 C 
BRANCH  21  22
ATOM     22  C   UNL     1      -7.320   8.485  -7.651  1.00  0.00    -0.000 C 
BRANCH  22  23
ATOM     23  C   UNL     1      -6.832   9.771  -8.336  1.00  0.00    -0.000 C 
BRANCH  23  24
ATOM     24  C   UNL     1      -5.299   9.864  -8.398  1.00  0.00    -0.000 C 
BRANCH  24  25
ATOM     25  C   UNL     1      -4.763   9.842  -9.837  1.00  0.00    -0.003 C 
ATOM     26  C   UNL     1      -3.695   8.766 -10.010  1.00  0.00     0.004 C 
ENDBRANCH  24  25
ENDBRANCH  23  24
ENDBRANCH  22  23
ENDBRANCH  21  22
ENDBRANCH  20  21
ENDBRANCH  19  20
ENDBRANCH  18  19
ENDBRANCH  17  18
ENDBRANCH  16  17
ENDBRANCH  15  16
ENDBRANCH   1  15
TORSDOF 22
ENDMDL
MODEL 2
REMARK VINA RESULT:    -3.050      4.669     11.447
REMARK INTER + INTRA:          -8.476
REMARK INTER:                  -7.093
REMARK INTRA:                  -1.383
REMARK UNBOUND:                -1.504
REMARK SMILES CCCCCCCCCCCCCCCCCCCCCCCC(=O)[O-]
REMARK SMILES IDX 13 1 14 2 15 3 16 4 17 5 18 6 19 7 20 8 21 9 22 10 23 11
REMARK SMILES IDX 24 12 25 13 26 14 12 15 11 16 10 17 9 18 8 19 7 20 6 21 5 22
REMARK SMILES IDX 4 23 3 24 2 25 1 26
REMARK H PARENT
REMARK Flexibility Score: inf
ROOT
ATOM      1  C   UNL     1      -3.578   5.259  -1.313  1.00  0.00     0.000 C 
ENDROOT
BRANCH   1   2
ATOM      2  C   UNL     1      -2.971   4.606  -2.569  1.00  0.00     0.000 C 
BRANCH   2   3
ATOM      3  C   UNL     1      -3.811   4.847  -3.836  1.00  0.00     0.000 C 
BRANCH   3   4
ATOM      4  C   UNL     1      -5.105   5.633  -3.556  1.00  0.00     0.000 C 
BRANCH   4   5
ATOM      5  C   UNL     1      -5.621   6.487  -4.731  1.00  0.00     0.000 C 
BRANCH   5   6
ATOM      6  C   UNL     1      -6.468   5.680  -5.730  1.00  0.00     0.000 C 
BRANCH   6   7
ATOM      7  C   UNL     1      -7.526   6.541  -6.439  1.00  0.00     0.000 C 
BRANCH   7   8
ATOM      8  C   UNL     1      -7.708   6.155  -7.916  1.00  0.00     0.000 C 
BRANCH   8   9
ATOM      9  C   UNL     1      -8.757   7.023  -8.636  1.00  0.00     0.000 C 
BRANCH   9  10
ATOM     10  C   UNL     1      -8.469   8.539  -8.631  1.00  0.00     0.006 C 
BRANCH  10  11
ATOM     11  C   UNL     1      -7.552   9.019  -9.765  1.00  0.00     0.053 C 
BRANCH  11  12
ATOM     12  C   UNL     1      -6.175   9.344  -9.272  1.00  0.00     0.041 C 
ATOM     13  O   UNL     1      -5.246   9.575 -10.090  1.00  0.00    -0.550 OA
ATOM     14  O   UNL     1      -5.929   9.438  -7.909  1.00  0.00    -0.550 OA
ENDBRANCH  11  12
ENDBRANCH  10  11
ENDBRANCH   9  10
ENDBRANCH   8   9
ENDBRANCH   7   8
ENDBRANCH   6   7
ENDBRANCH   5   6
ENDBRANCH   4   5
ENDBRANCH   3   4
ENDBRANCH   2   3
ENDBRANCH   1   2
BRANCH   1  15
ATOM     15  C   UNL     1      -2.720   5.148  -0.040  1.00  0.00     0.000 C 
BRANCH  15  16
ATOM     16  C   UNL     1      -2.725   3.734   0.565  1.00  0.00     0.000 C 
BRANCH  16  17
ATOM     17  C   UNL     1      -4.092   3.347   1.154  1.00  0.00     0.000 C 
BRANCH  17  18
ATOM     18  C   UNL     1      -4.468   1.883   0.858  1.00  0.00    -0.000 C 
BRANCH  18  19
ATOM     19  C   UNL     1      -3.578   1.253  -0.227  1.00  0.00    -0.000 C 
BRANCH  19  20
ATOM     20  C   UNL     1      -4.230   0.024  -0.885  1.00  0.00    -0.000 C 
BRANCH  20  21
ATOM     21  C   UNL     1      -3.206  -0.872  -1.603  1.00  0.00    -0.000 C 
BRANCH  21  22
ATOM     22  C   UNL     1      -3.829  -1.686  -2.748  1.00  0.00    -0.000 C 
BRANCH  22  23
ATOM     23  C   UNL     1      -3.361  -3.149  -2.696  1.00  0.00    -0.000 C 
BRANCH  23  24
ATOM     24  C   UNL     1      -4.209  -4.008  -1.744  1.00  0.00    -0.000 C 
BRANCH  24  25
ATOM     25  C   UNL     1      -3.624  -4.072  -0.325  1.00  0.00    -0.003 C 
ATOM     26  C   UNL     1      -4.668  -4.555   0.678  1.00  0.00     0.004 C 
ENDBRANCH  24  25
ENDBRANCH  23  24
ENDBRANCH  22  23
ENDBRANCH  21  22
ENDBRANCH  20  21
ENDBRANCH  19  20
ENDBRANCH  18  19
ENDBRANCH  17  18
ENDBRANCH  16  17
ENDBRANCH  15  16
ENDBRANCH   1  15
TORSDOF 22
ENDMDL
MODEL 3
REMARK VINA RESULT:    -2.994      4.679     11.736
REMARK INTER + INTRA:          -8.348
REMARK INTER:                  -7.391
REMARK INTRA:                  -0.958
REMARK UNBOUND:                -1.504
REMARK SMILES CCCCCCCCCCCCCCCCCCCCCCCC(=O)[O-]
REMARK SMILES IDX 13 1 14 2 15 3 16 4 17 5 18 6 19 7 20 8 21 9 22 10 23 11
REMARK SMILES IDX 24 12 25 13 26 14 12 15 11 16 10 17 9 18 8 19 7 20 6 21 5 22
REMARK SMILES IDX 4 23 3 24 2 25 1 26
REMARK H PARENT
REMARK Flexibility Score: inf
ROOT
ATOM      1  C   UNL     1      -3.298   4.652  -3.404  1.00  0.00     0.000 C 
ENDROOT
BRANCH   1   2
ATOM      2  C   UNL     1      -4.704   5.276  -3.320  1.00  0.00     0.000 C 
BRANCH   2   3
ATOM      3  C   UNL     1      -5.114   6.007  -4.610  1.00  0.00     0.000 C 
BRANCH   3   4
ATOM      4  C   UNL     1      -6.635   5.989  -4.852  1.00  0.00     0.000 C 
BRANCH   4   5
ATOM      5  C   UNL     1      -7.111   6.765  -6.095  1.00  0.00     0.000 C 
BRANCH   5   6
ATOM      6  C   UNL     1      -7.825   5.869  -7.121  1.00  0.00     0.000 C 
BRANCH   6   7
ATOM      7  C   UNL     1      -7.879   6.502  -8.522  1.00  0.00     0.000 C 
BRANCH   7   8
ATOM      8  C   UNL     1      -9.250   7.127  -8.834  1.00  0.00     0.000 C 
BRANCH   8   9
ATOM      9  C   UNL     1      -9.141   8.426  -9.654  1.00  0.00     0.000 C 
BRANCH   9  10
ATOM     10  C   UNL     1      -8.278   9.534  -9.015  1.00  0.00     0.006 C 
BRANCH  10  11
ATOM     11  C   UNL     1      -7.090   9.993  -9.873  1.00  0.00     0.053 C 
BRANCH  11  12
ATOM     12  C   UNL     1      -5.778   9.577  -9.280  1.00  0.00     0.041 C 
ATOM     13  O   UNL     1      -5.652   9.471  -8.031  1.00  0.00    -0.550 OA
ATOM     14  O   UNL     1      -4.710   9.261 -10.108  1.00  0.00    -0.550 OA
ENDBRANCH  11  12
ENDBRANCH  10  11
ENDBRANCH   9  10
ENDBRANCH   8   9
ENDBRANCH   7   8
ENDBRANCH   6   7
ENDBRANCH   5   6
ENDBRANCH   4   5
ENDBRANCH   3   4
ENDBRANCH   2   3
ENDBRANCH   1   2
BRANCH   1  15
ATOM     15  C   UNL     1      -2.597   4.438  -2.050  1.00  0.00     0.000 C 
BRANCH  15  16
ATOM     16  C   UNL     1      -3.247   5.235  -0.906  1.00  0.00     0.000 C 
BRANCH  16  17
ATOM     17  C   UNL     1      -3.067   4.559   0.463  1.00  0.00     0.000 C 
BRANCH  17  18
ATOM     18  C   UNL     1      -3.754   3.183   0.536  1.00  0.00    -0.000 C 
BRANCH  18  19
ATOM     19  C   UNL     1      -2.911   2.068  -0.107  1.00  0.00    -0.000 C 
BRANCH  19  20
ATOM     20  C   UNL     1      -3.657   0.722  -0.166  1.00  0.00    -0.000 C 
BRANCH  20  21
ATOM     21  C   UNL     1      -3.121  -0.200  -1.274  1.00  0.00    -0.000 C 
BRANCH  21  22
ATOM     22  C   UNL     1      -4.167  -1.217  -1.757  1.00  0.00    -0.000 C 
BRANCH  22  23
ATOM     23  C   UNL     1      -3.493  -2.389  -2.488  1.00  0.00    -0.000 C 
BRANCH  23  24
ATOM     24  C   UNL     1      -3.783  -3.745  -1.826  1.00  0.00    -0.000 C 
BRANCH  24  25
ATOM     25  C   UNL     1      -3.840  -3.655  -0.293  1.00  0.00    -0.003 C 
ATOM     26  C   UNL     1      -4.538  -4.874   0.304  1.00  0.00     0.004 C 
ENDBRANCH  24  25
ENDBRANCH  23  24
ENDBRANCH  22  23
ENDBRANCH  21  22
ENDBRANCH  20  21
ENDBRANCH  19  20
ENDBRANCH  18  19
ENDBRANCH  17  18
ENDBRANCH  16  17
ENDBRANCH  15  16
ENDBRANCH   1  15
TORSDOF 22
ENDMDL
MODEL 4
REMARK VINA RESULT:    -2.743      1.415      2.039
REMARK INTER + INTRA:          -7.775
REMARK INTER:                  -5.910
REMARK INTRA:                  -1.865
REMARK UNBOUND:                -1.504
REMARK SMILES CCCCCCCCCCCCCCCCCCCCCCCC(=O)[O-]
REMARK SMILES IDX 13 1 14 2 15 3 16 4 17 5 18 6 19 7 20 8 21 9 22 10 23 11
REMARK SMILES IDX 24 12 25 13 26 14 12 15 11 16 10 17 9 18 8 19 7 20 6 21 5 22
REMARK SMILES IDX 4 23 3 24 2 25 1 26
REMARK H PARENT
REMARK Flexibility Score: inf
ROOT
ATOM      1  C   UNL     1      -3.675   4.623  -3.446  1.00  0.00     0.000 C 
ENDROOT
BRANCH   1   2
ATOM      2  C   UNL     1      -2.651   4.597  -2.296  1.00  0.00     0.000 C 
BRANCH   2   3
ATOM      3  C   UNL     1      -3.215   5.149  -0.976  1.00  0.00     0.000 C 
BRANCH   3   4
ATOM      4  C   UNL     1      -2.894   4.254   0.234  1.00  0.00     0.000 C 
BRANCH   4   5
ATOM      5  C   UNL     1      -4.117   3.623   0.927  1.00  0.00     0.000 C 
BRANCH   5   6
ATOM      6  C   UNL     1      -4.046   2.087   0.983  1.00  0.00     0.000 C 
BRANCH   6   7
ATOM      7  C   UNL     1      -3.743   1.459  -0.387  1.00  0.00     0.000 C 
BRANCH   7   8
ATOM      8  C   UNL     1      -2.401   0.708  -0.408  1.00  0.00     0.000 C 
BRANCH   8   9
ATOM      9  C   UNL     1      -2.520  -0.714  -0.987  1.00  0.00     0.000 C 
BRANCH   9  10
ATOM     10  C   UNL     1      -3.964  -1.228  -1.171  1.00  0.00     0.006 C 
BRANCH  10  11
ATOM     11  C   UNL     1      -4.249  -1.855  -2.544  1.00  0.00     0.053 C 
BRANCH  11  12
ATOM     12  C   UNL     1      -3.866  -3.302  -2.589  1.00  0.00     0.041 C 
ATOM     13  O   UNL     1      -3.505  -3.829  -3.674  1.00  0.00    -0.550 OA
ATOM     14  O   UNL     1      -3.860  -4.056  -1.423  1.00  0.00    -0.550 OA
ENDBRANCH  11  12
ENDBRANCH  10  11
ENDBRANCH   9  10
ENDBRANCH   8   9
ENDBRANCH   7   8
ENDBRANCH   6   7
ENDBRANCH   5   6
ENDBRANCH   4   5
ENDBRANCH   3   4
ENDBRANCH   2   3
ENDBRANCH   1   2
BRANCH   1  15
ATOM     15  C   UNL     1      -4.900   5.526  -3.209  1.00  0.00     0.000 C 
BRANCH  15  16
ATOM     16  C   UNL     1      -5.285   6.350  -4.449  1.00  0.00     0.000 C 
BRANCH  16  17
ATOM     17  C   UNL     1      -6.588   5.864  -5.103  1.00  0.00     0.000 C 
BRANCH  17  18
ATOM     18  C   UNL     1      -6.794   6.447  -6.513  1.00  0.00    -0.000 C 
BRANCH  18  19
ATOM     19  C   UNL     1      -8.221   6.225  -7.042  1.00  0.00    -0.000 C 
BRANCH  19  20
ATOM     20  C   UNL     1      -8.336   6.477  -8.556  1.00  0.00    -0.000 C 
BRANCH  20  21
ATOM     21  C   UNL     1      -9.614   7.248  -8.929  1.00  0.00    -0.000 C 
BRANCH  21  22
ATOM     22  C   UNL     1      -9.448   8.770  -8.804  1.00  0.00    -0.000 C 
BRANCH  22  23
ATOM     23  C   UNL     1      -7.992   9.185  -9.069  1.00  0.00    -0.000 C 
BRANCH  23  24
ATOM     24  C   UNL     1      -7.407  10.045  -7.939  1.00  0.00    -0.000 C 
BRANCH  24  25
ATOM     25  C   UNL     1      -5.901   9.815  -7.740  1.00  0.00    -0.003 C 
ATOM     26  C   UNL     1      -5.216   9.483  -9.062  1.00  0.00     0.004 C 
ENDBRANCH  24  25
ENDBRANCH  23  24
ENDBRANCH  22  23
ENDBRANCH  21  22
ENDBRANCH  20  21
ENDBRANCH  19  20
ENDBRANCH  18  19
ENDBRANCH  17  18
ENDBRANCH  16  17
ENDBRANCH  15  16
ENDBRANCH   1  15
TORSDOF 22
ENDMDL
MODEL 5
REMARK VINA RESULT:    -2.739      0.976      1.308
REMARK INTER + INTRA:          -7.766
REMARK INTER:                  -6.354
REMARK INTRA:                  -1.411
REMARK UNBOUND:                -1.504
REMARK SMILES CCCCCCCCCCCCCCCCCCCCCCCC(=O)[O-]
REMARK SMILES IDX 13 1 14 2 15 3 16 4 17 5 18 6 19 7 20 8 21 9 22 10 23 11
REMARK SMILES IDX 24 12 25 13 26 14 12 15 11 16 10 17 9 18 8 19 7 20 6 21 5 22
REMARK SMILES IDX 4 23 3 24 2 25 1 26
REMARK H PARENT
REMARK Flexibility Score: inf
ROOT
ATOM      1  C   UNL     1      -2.847   5.216  -2.170  1.00  0.00     0.000 C 
ENDROOT
BRANCH   1   2
ATOM      2  C   UNL     1      -3.386   5.334  -0.732  1.00  0.00     0.000 C 
BRANCH   2   3
ATOM      3  C   UNL     1      -3.424   3.985   0.007  1.00  0.00     0.000 C 
BRANCH   3   4
ATOM      4  C   UNL     1      -2.259   3.056  -0.382  1.00  0.00     0.000 C 
BRANCH   4   5
ATOM      5  C   UNL     1      -2.546   1.549  -0.241  1.00  0.00     0.000 C 
BRANCH   5   6
ATOM      6  C   UNL     1      -4.030   1.246   0.031  1.00  0.00     0.000 C 
BRANCH   6   7
ATOM      7  C   UNL     1      -4.424  -0.186  -0.367  1.00  0.00     0.000 C 
BRANCH   7   8
ATOM      8  C   UNL     1      -3.427  -0.821  -1.352  1.00  0.00     0.000 C 
BRANCH   8   9
ATOM      9  C   UNL     1      -4.096  -1.809  -2.325  1.00  0.00     0.000 C 
BRANCH   9  10
ATOM     10  C   UNL     1      -3.849  -3.300  -2.018  1.00  0.00     0.006 C 
BRANCH  10  11
ATOM     11  C   UNL     1      -3.488  -3.600  -0.555  1.00  0.00     0.053 C 
BRANCH  11  12
ATOM     12  C   UNL     1      -4.532  -4.437   0.119  1.00  0.00     0.041 C 
ATOM     13  O   UNL     1      -4.945  -5.495  -0.425  1.00  0.00    -0.550 OA
ATOM     14  O   UNL     1      -5.013  -4.073   1.369  1.00  0.00    -0.550 OA
ENDBRANCH  11  12
ENDBRANCH  10  11
ENDBRANCH   9  10
ENDBRANCH   8   9
ENDBRANCH   7   8
ENDBRANCH   6   7
ENDBRANCH   5   6
ENDBRANCH   4   5
ENDBRANCH   3   4
ENDBRANCH   2   3
ENDBRANCH   1   2
BRANCH   1  15
ATOM     15  C   UNL     1      -3.857   4.690  -3.205  1.00  0.00     0.000 C 
BRANCH  15  16
ATOM     16  C   UNL     1      -4.840   5.771  -3.685  1.00  0.00     0.000 C 
BRANCH  16  17
ATOM     17  C   UNL     1      -5.373   5.500  -5.102  1.00  0.00     0.000 C 
BRANCH  17  18
ATOM     18  C   UNL     1      -6.449   6.515  -5.531  1.00  0.00    -0.000 C 
BRANCH  18  19
ATOM     19  C   UNL     1      -7.457   5.920  -6.529  1.00  0.00    -0.000 C 
BRANCH  19  20
ATOM     20  C   UNL     1      -7.383   6.589  -7.913  1.00  0.00    -0.000 C 
BRANCH  20  21
ATOM     21  C   UNL     1      -8.774   6.865  -8.509  1.00  0.00    -0.000 C 
BRANCH  21  22
ATOM     22  C   UNL     1      -8.977   8.341  -8.886  1.00  0.00    -0.000 C 
BRANCH  22  23
ATOM     23  C   UNL     1      -7.832   8.839  -9.781  1.00  0.00    -0.000 C 
BRANCH  23  24
ATOM     24  C   UNL     1      -7.168  10.114  -9.240  1.00  0.00    -0.000 C 
BRANCH  24  25
ATOM     25  C   UNL     1      -5.872   9.825  -8.466  1.00  0.00    -0.003 C 
ATOM     26  C   UNL     1      -4.827   9.176  -9.368  1.00  0.00     0.004 C 
ENDBRANCH  24  25
ENDBRANCH  23  24
ENDBRANCH  22  23
ENDBRANCH  21  22
ENDBRANCH  20  21
ENDBRANCH  19  20
ENDBRANCH  18  19
ENDBRANCH  17  18
ENDBRANCH  16  17
ENDBRANCH  15  16
ENDBRANCH   1  15
TORSDOF 22
ENDMDL
MODEL 6
REMARK VINA RESULT:    -2.582      1.459      3.231
REMARK INTER + INTRA:          -7.407
REMARK INTER:                  -6.038
REMARK INTRA:                  -1.368
REMARK UNBOUND:                -1.504
REMARK SMILES CCCCCCCCCCCCCCCCCCCCCCCC(=O)[O-]
REMARK SMILES IDX 13 1 14 2 15 3 16 4 17 5 18 6 19 7 20 8 21 9 22 10 23 11
REMARK SMILES IDX 24 12 25 13 26 14 12 15 11 16 10 17 9 18 8 19 7 20 6 21 5 22
REMARK SMILES IDX 4 23 3 24 2 25 1 26
REMARK H PARENT
REMARK Flexibility Score: inf
ROOT
ATOM      1  C   UNL     1      -5.230   6.141  -4.499  1.00  0.00     0.000 C 
ENDROOT
BRANCH   1   2
ATOM      2  C   UNL     1      -4.892   5.292  -3.259  1.00  0.00     0.000 C 
BRANCH   2   3
ATOM      3  C   UNL     1      -3.525   4.594  -3.365  1.00  0.00     0.000 C 
BRANCH   3   4
ATOM      4  C   UNL     1      -2.599   4.908  -2.175  1.00  0.00     0.000 C 
BRANCH   4   5
ATOM      5  C   UNL     1      -3.317   5.212  -0.846  1.00  0.00     0.000 C 
BRANCH   5   6
ATOM      6  C   UNL     1      -3.051   4.148   0.234  1.00  0.00     0.000 C 
BRANCH   6   7
ATOM      7  C   UNL     1      -2.522   2.829  -0.353  1.00  0.00     0.000 C 
BRANCH   7   8
ATOM      8  C   UNL     1      -3.302   1.604   0.152  1.00  0.00     0.000 C 
BRANCH   8   9
ATOM      9  C   UNL     1      -3.939   0.788  -0.988  1.00  0.00     0.000 C 
BRANCH   9  10
ATOM     10  C   UNL     1      -3.696  -0.734  -0.921  1.00  0.00     0.006 C 
BRANCH  10  11
ATOM     11  C   UNL     1      -3.890  -1.472  -2.253  1.00  0.00     0.053 C 
BRANCH  11  12
ATOM     12  C   UNL     1      -3.796  -2.958  -2.089  1.00  0.00     0.041 C 
ATOM     13  O   UNL     1      -3.752  -3.467  -0.938  1.00  0.00    -0.550 OA
ATOM     14  O   UNL     1      -3.806  -3.783  -3.206  1.00  0.00    -0.550 OA
ENDBRANCH  11  12
ENDBRANCH  10  11
ENDBRANCH   9  10
ENDBRANCH   8   9
ENDBRANCH   7   8
ENDBRANCH   6   7
ENDBRANCH   5   6
ENDBRANCH   4   5
ENDBRANCH   3   4
ENDBRANCH   2   3
ENDBRANCH   1   2
BRANCH   1  15
ATOM     15  C   UNL     1      -6.424   5.637  -5.329  1.00  0.00     0.000 C 
BRANCH  15  16
ATOM     16  C   UNL     1      -7.003   6.716  -6.261  1.00  0.00     0.000 C 
BRANCH  16  17
ATOM     17  C   UNL     1      -7.273   6.190  -7.680  1.00  0.00     0.000 C 
BRANCH  17  18
ATOM     18  C   UNL     1      -8.320   7.033  -8.431  1.00  0.00    -0.000 C 
BRANCH  18  19
ATOM     19  C   UNL     1      -8.004   8.538  -8.396  1.00  0.00    -0.000 C 
BRANCH  19  20
ATOM     20  C   UNL     1      -6.952   8.946  -9.443  1.00  0.00    -0.000 C 
BRANCH  20  21
ATOM     21  C   UNL     1      -5.609   9.340  -8.806  1.00  0.00    -0.000 C 
BRANCH  21  22
ATOM     22  C   UNL     1      -4.558   9.756  -9.846  1.00  0.00    -0.000 C 
BRANCH  22  23
ATOM     23  C   UNL     1      -3.397   8.749  -9.884  1.00  0.00    -0.000 C 
BRANCH  23  24
ATOM     24  C   UNL     1      -3.875   7.301 -10.074  1.00  0.00    -0.000 C 
BRANCH  24  25
ATOM     25  C   UNL     1      -2.779   6.270  -9.763  1.00  0.00    -0.003 C 
ATOM     26  C   UNL     1      -3.362   4.864  -9.659  1.00  0.00     0.004 C 
ENDBRANCH  24  25
ENDBRANCH  23  24
ENDBRANCH  22  23
ENDBRANCH  21  22
ENDBRANCH  20  21
ENDBRANCH  19  20
ENDBRANCH  18  19
ENDBRANCH  17  18
ENDBRANCH  16  17
ENDBRANCH  15  16
ENDBRANCH   1  15
TORSDOF 22
ENDMDL
MODEL 7
REMARK VINA RESULT:    -2.409      0.805      1.801
REMARK INTER + INTRA:          -7.011
REMARK INTER:                  -6.649
REMARK INTRA:                  -0.362
REMARK UNBOUND:                -1.504
REMARK SMILES CCCCCCCCCCCCCCCCCCCCCCCC(=O)[O-]
REMARK SMILES IDX 13 1 14 2 15 3 16 4 17 5 18 6 19 7 20 8 21 9 22 10 23 11
REMARK SMILES IDX 24 12 25 13 26 14 12 15 11 16 10 17 9 18 8 19 7 20 6 21 5 22
REMARK SMILES IDX 4 23 3 24 2 25 1 26
REMARK H PARENT
REMARK Flexibility Score: inf
ROOT
ATOM      1  C   UNL     1      -2.894   5.286  -0.335  1.00  0.00     0.000 C 
ENDROOT
BRANCH   1   2
ATOM      2  C   UNL     1      -2.741   3.957   0.429  1.00  0.00     0.000 C 
BRANCH   2   3
ATOM      3  C   UNL     1      -4.077   3.418   0.968  1.00  0.00     0.000 C 
BRANCH   3   4
ATOM      4  C   UNL     1      -4.166   1.881   0.919  1.00  0.00     0.000 C 
BRANCH   4   5
ATOM      5  C   UNL     1      -3.550   1.228  -0.333  1.00  0.00     0.000 C 
BRANCH   5   6
ATOM      6  C   UNL     1      -4.305  -0.036  -0.780  1.00  0.00     0.000 C 
BRANCH   6   7
ATOM      7  C   UNL     1      -3.368  -1.116  -1.345  1.00  0.00     0.000 C 
BRANCH   7   8
ATOM      8  C   UNL     1      -3.780  -1.578  -2.753  1.00  0.00     0.000 C 
BRANCH   8   9
ATOM      9  C   UNL     1      -3.453  -3.059  -3.017  1.00  0.00     0.000 C 
BRANCH   9  10
ATOM     10  C   UNL     1      -4.069  -4.055  -2.011  1.00  0.00     0.006 C 
BRANCH  10  11
ATOM     11  C   UNL     1      -3.814  -3.712  -0.535  1.00  0.00     0.053 C 
BRANCH  11  12
ATOM     12  C   UNL     1      -4.693  -4.505   0.383  1.00  0.00     0.041 C 
ATOM     13  O   UNL     1      -5.141  -3.985   1.439  1.00  0.00    -0.550 OA
ATOM     14  O   UNL     1      -5.055  -5.803   0.049  1.00  0.00    -0.550 OA
ENDBRANCH  11  12
ENDBRANCH  10  11
ENDBRANCH   9  10
ENDBRANCH   8   9
ENDBRANCH   7   8
ENDBRANCH   6   7
ENDBRANCH   5   6
ENDBRANCH   4   5
ENDBRANCH   3   4
ENDBRANCH   2   3
ENDBRANCH   1   2
BRANCH   1  15
ATOM     15  C   UNL     1      -3.821   5.230  -1.562  1.00  0.00     0.000 C 
BRANCH  15  16
ATOM     16  C   UNL     1      -3.084   4.834  -2.853  1.00  0.00     0.000 C 
BRANCH  16  17
ATOM     17  C   UNL     1      -3.997   4.861  -4.089  1.00  0.00     0.000 C 
BRANCH  17  18
ATOM     18  C   UNL     1      -5.059   5.973  -4.013  1.00  0.00    -0.000 C 
BRANCH  18  19
ATOM     19  C   UNL     1      -6.363   5.596  -4.737  1.00  0.00    -0.000 C 
BRANCH  19  20
ATOM     20  C   UNL     1      -6.690   6.548  -5.902  1.00  0.00    -0.000 C 
BRANCH  20  21
ATOM     21  C   UNL     1      -7.710   5.949  -6.884  1.00  0.00    -0.000 C 
BRANCH  21  22
ATOM     22  C   UNL     1      -7.721   6.668  -8.241  1.00  0.00    -0.000 C 
BRANCH  22  23
ATOM     23  C   UNL     1      -7.597   8.189  -8.056  1.00  0.00    -0.000 C 
BRANCH  23  24
ATOM     24  C   UNL     1      -6.827   8.865  -9.201  1.00  0.00    -0.000 C 
BRANCH  24  25
ATOM     25  C   UNL     1      -5.657   9.726  -8.700  1.00  0.00    -0.003 C 
ATOM     26  C   UNL     1      -4.474   9.658  -9.662  1.00  0.00     0.004 C 
ENDBRANCH  24  25
ENDBRANCH  23  24
ENDBRANCH  22  23
ENDBRANCH  21  22
ENDBRANCH  20  21
ENDBRANCH  19  20
ENDBRANCH  18  19
ENDBRANCH  17  18
ENDBRANCH  16  17
ENDBRANCH  15  16
ENDBRANCH   1  15
TORSDOF 22
ENDMDL
MODEL 8
REMARK VINA RESULT:    -2.279      4.705     11.123
REMARK INTER + INTRA:          -6.714
REMARK INTER:                  -5.598
REMARK INTRA:                  -1.117
REMARK UNBOUND:                -1.504
REMARK SMILES CCCCCCCCCCCCCCCCCCCCCCCC(=O)[O-]
REMARK SMILES IDX 13 1 14 2 15 3 16 4 17 5 18 6 19 7 20 8 21 9 22 10 23 11
REMARK SMILES IDX 24 12 25 13 26 14 12 15 11 16 10 17 9 18 8 19 7 20 6 21 5 22
REMARK SMILES IDX 4 23 3 24 2 25 1 26
REMARK H PARENT
REMARK Flexibility Score: inf
ROOT
ATOM      1  C   UNL     1      -2.681   4.061   0.568  1.00  0.00     0.000 C 
ENDROOT
BRANCH   1   2
ATOM      2  C   UNL     1      -2.771   5.490   0.002  1.00  0.00     0.000 C 
BRANCH   2   3
ATOM      3  C   UNL     1      -3.638   5.581  -1.266  1.00  0.00     0.000 C 
BRANCH   3   4
ATOM      4  C   UNL     1      -3.109   4.705  -2.417  1.00  0.00     0.000 C 
BRANCH   4   5
ATOM      5  C   UNL     1      -3.886   4.825  -3.743  1.00  0.00     0.000 C 
BRANCH   5   6
ATOM      6  C   UNL     1      -4.920   5.964  -3.729  1.00  0.00     0.000 C 
BRANCH   6   7
ATOM      7  C   UNL     1      -6.198   5.611  -4.508  1.00  0.00     0.000 C 
BRANCH   7   8
ATOM      8  C   UNL     1      -6.173   6.137  -5.953  1.00  0.00     0.000 C 
BRANCH   8   9
ATOM      9  C   UNL     1      -7.582   6.347  -6.538  1.00  0.00     0.000 C 
BRANCH   9  10
ATOM     10  C   UNL     1      -7.631   6.570  -8.064  1.00  0.00     0.006 C 
BRANCH  10  11
ATOM     11  C   UNL     1      -6.938   7.853  -8.545  1.00  0.00     0.053 C 
BRANCH  11  12
ATOM     12  C   UNL     1      -7.322   9.041  -7.717  1.00  0.00     0.041 C 
ATOM     13  O   UNL     1      -6.433   9.740  -7.162  1.00  0.00    -0.550 OA
ATOM     14  O   UNL     1      -8.656   9.403  -7.597  1.00  0.00    -0.550 OA
ENDBRANCH  11  12
ENDBRANCH  10  11
ENDBRANCH   9  10
ENDBRANCH   8   9
ENDBRANCH   7   8
ENDBRANCH   6   7
ENDBRANCH   5   6
ENDBRANCH   4   5
ENDBRANCH   3   4
ENDBRANCH   2   3
ENDBRANCH   1   2
BRANCH   1  15
ATOM     15  C   UNL     1      -4.034   3.363   0.798  1.00  0.00     0.000 C 
BRANCH  15  16
ATOM     16  C   UNL     1      -3.999   1.862   0.462  1.00  0.00     0.000 C 
BRANCH  16  17
ATOM     17  C   UNL     1      -2.724   1.454  -0.294  1.00  0.00     0.000 C 
BRANCH  17  18
ATOM     18  C   UNL     1      -2.716  -0.038  -0.675  1.00  0.00    -0.000 C 
BRANCH  18  19
ATOM     19  C   UNL     1      -4.083  -0.522  -1.189  1.00  0.00    -0.000 C 
BRANCH  19  20
ATOM     20  C   UNL     1      -4.022  -1.029  -2.642  1.00  0.00    -0.000 C 
BRANCH  20  21
ATOM     21  C   UNL     1      -3.037  -2.197  -2.817  1.00  0.00    -0.000 C 
BRANCH  21  22
ATOM     22  C   UNL     1      -3.731  -3.501  -3.237  1.00  0.00    -0.000 C 
BRANCH  22  23
ATOM     23  C   UNL     1      -4.105  -4.342  -2.006  1.00  0.00    -0.000 C 
BRANCH  23  24
ATOM     24  C   UNL     1      -3.752  -3.645  -0.683  1.00  0.00    -0.000 C 
BRANCH  24  25
ATOM     25  C   UNL     1      -4.069  -4.512   0.545  1.00  0.00    -0.003 C 
ATOM     26  C   UNL     1      -4.973  -5.683   0.173  1.00  0.00     0.004 C 
ENDBRANCH  24  25
ENDBRANCH  23  24
ENDBRANCH  22  23
ENDBRANCH  21  22
ENDBRANCH  20  21
ENDBRANCH  19  20
ENDBRANCH  18  19
ENDBRANCH  17  18
ENDBRANCH  16  17
ENDBRANCH  15  16
ENDBRANCH   1  15
TORSDOF 22
ENDMDL
MODEL 9
REMARK VINA RESULT:    -1.780      4.016     11.273
REMARK INTER + INTRA:          -5.572
REMARK INTER:                  -4.370
REMARK INTRA:                  -1.203
REMARK UNBOUND:                -1.504
REMARK SMILES CCCCCCCCCCCCCCCCCCCCCCCC(=O)[O-]
REMARK SMILES IDX 13 1 14 2 15 3 16 4 17 5 18 6 19 7 20 8 21 9 22 10 23 11
REMARK SMILES IDX 24 12 25 13 26 14 12 15 11 16 10 17 9 18 8 19 7 20 6 21 5 22
REMARK SMILES IDX 4 23 3 24 2 25 1 26
REMARK H PARENT
REMARK Flexibility Score: inf
ROOT
ATOM      1  C   UNL     1      -5.165   5.393  -3.766  1.00  0.00     0.000 C 
ENDROOT
BRANCH   1   2
ATOM      2  C   UNL     1      -5.411   6.126  -5.098  1.00  0.00     0.000 C 
BRANCH   2   3
ATOM      3  C   UNL     1      -6.862   6.002  -5.592  1.00  0.00     0.000 C 
BRANCH   3   4
ATOM      4  C   UNL     1      -7.004   6.251  -7.105  1.00  0.00     0.000 C 
BRANCH   4   5
ATOM      5  C   UNL     1      -7.899   7.444  -7.493  1.00  0.00     0.000 C 
BRANCH   5   6
ATOM      6  C   UNL     1      -7.239   8.804  -7.206  1.00  0.00     0.000 C 
BRANCH   6   7
ATOM      7  C   UNL     1      -6.981   9.618  -8.486  1.00  0.00     0.000 C 
BRANCH   7   8
ATOM      8  C   UNL     1      -6.053   8.887  -9.472  1.00  0.00     0.000 C 
BRANCH   8   9
ATOM      9  C   UNL     1      -4.564   9.023  -9.104  1.00  0.00     0.000 C 
BRANCH   9  10
ATOM     10  C   UNL     1      -3.579   8.415 -10.125  1.00  0.00     0.006 C 
BRANCH  10  11
ATOM     11  C   UNL     1      -2.673   7.312  -9.559  1.00  0.00     0.053 C 
BRANCH  11  12
ATOM     12  C   UNL     1      -3.288   5.954  -9.703  1.00  0.00     0.041 C 
ATOM     13  O   UNL     1      -4.540   5.819  -9.677  1.00  0.00    -0.550 OA
ATOM     14  O   UNL     1      -2.482   4.843  -9.913  1.00  0.00    -0.550 OA
ENDBRANCH  11  12
ENDBRANCH  10  11
ENDBRANCH   9  10
ENDBRANCH   8   9
ENDBRANCH   7   8
ENDBRANCH   6   7
ENDBRANCH   5   6
ENDBRANCH   4   5
ENDBRANCH   3   4
ENDBRANCH   2   3
ENDBRANCH   1   2
BRANCH   1  15
ATOM     15  C   UNL     1      -3.901   4.515  -3.727  1.00  0.00     0.000 C 
BRANCH  15  16
ATOM     16  C   UNL     1      -2.863   5.004  -2.702  1.00  0.00     0.000 C 
BRANCH  16  17
ATOM     17  C   UNL     1      -3.376   4.920  -1.255  1.00  0.00     0.000 C 
BRANCH  17  18
ATOM     18  C   UNL     1      -2.677   3.812  -0.446  1.00  0.00    -0.000 C 
BRANCH  18  19
ATOM     19  C   UNL     1      -3.638   2.682  -0.039  1.00  0.00    -0.000 C 
BRANCH  19  20
ATOM     20  C   UNL     1      -2.948   1.307   0.012  1.00  0.00    -0.000 C 
BRANCH  20  21
ATOM     21  C   UNL     1      -3.866   0.169  -0.462  1.00  0.00    -0.000 C 
BRANCH  21  22
ATOM     22  C   UNL     1      -3.143  -0.840  -1.368  1.00  0.00    -0.000 C 
BRANCH  22  23
ATOM     23  C   UNL     1      -4.150  -1.647  -2.202  1.00  0.00    -0.000 C 
BRANCH  23  24
ATOM     24  C   UNL     1      -3.944  -3.164  -2.073  1.00  0.00    -0.000 C 
BRANCH  24  25
ATOM     25  C   UNL     1      -3.437  -3.577  -0.683  1.00  0.00    -0.003 C 
ATOM     26  C   UNL     1      -4.453  -4.464   0.032  1.00  0.00     0.004 C 
ENDBRANCH  24  25
ENDBRANCH  23  24
ENDBRANCH  22  23
ENDBRANCH  21  22
ENDBRANCH  20  21
ENDBRANCH  19  20
ENDBRANCH  18  19
ENDBRANCH  17  18
ENDBRANCH  16  17
ENDBRANCH  15  16
ENDBRANCH   1  15
TORSDOF 22
ENDMDL
