MODEL 1
REMARK VINA RESULT:    -5.212      0.000      0.000
REMARK INTER + INTRA:          -6.019
REMARK INTER:                  -5.973
REMARK INTRA:                  -0.045
REMARK UNBOUND:                -0.045
REMARK SMILES O=C([O-])c1cc(O)c(O)c(O)c1
REMARK SMILES IDX 4 1 5 2 12 3 6 4 10 5 8 6 2 7 1 8 3 9 7 10 11 12 9 14
REMARK H PARENT 7 11 11 13 9 15
REMARK Flexibility Score: inf
ROOT
ATOM      1  C   UNL     1       7.489  25.352  26.063  1.00  0.00     0.005 A 
ATOM      2  C   UNL     1       6.907  24.543  25.071  1.00  0.00     0.060 A 
ATOM      3  C   UNL     1       6.656  26.147  26.868  1.00  0.00     0.060 A 
ATOM      4  C   UNL     1       5.521  24.525  24.886  1.00  0.00     0.162 A 
ATOM      5  C   UNL     1       5.265  26.135  26.688  1.00  0.00     0.162 A 
ATOM      6  C   UNL     1       4.694  25.322  25.695  1.00  0.00     0.200 A 
ENDROOT
BRANCH   1   7
ATOM      7  C   UNL     1       8.955  25.370  26.259  1.00  0.00     0.072 C 
ATOM      8  O   UNL     1       9.475  24.810  27.260  1.00  0.00    -0.545 OA
ATOM      9  O   UNL     1       9.781  26.007  25.339  1.00  0.00    -0.545 OA
ENDBRANCH   1   7
BRANCH   4  10
ATOM     10  O   UNL     1       4.984  23.708  23.891  1.00  0.00    -0.504 OA
ATOM     11  H   UNL     1       5.140  22.707  23.874  1.00  0.00     0.293 HD
ENDBRANCH   4  10
BRANCH   5  12
ATOM     12  O   UNL     1       4.451  26.929  27.494  1.00  0.00    -0.504 OA
ATOM     13  H   UNL     1       4.535  26.926  28.504  1.00  0.00     0.293 HD
ENDBRANCH   5  12
BRANCH   6  14
ATOM     14  O   UNL     1       3.311  25.299  25.502  1.00  0.00    -0.502 OA
ATOM     15  H   UNL     1       2.869  25.749  24.710  1.00  0.00     0.293 HD
ENDBRANCH   6  14
TORSDOF 4
ENDMDL
MODEL 2
REMARK VINA RESULT:    -5.203      0.058      2.430
REMARK INTER + INTRA:          -6.008
REMARK INTER:                  -5.963
REMARK INTRA:                  -0.045
REMARK UNBOUND:                -0.045
REMARK SMILES O=C([O-])c1cc(O)c(O)c(O)c1
REMARK SMILES IDX 4 1 5 2 12 3 6 4 10 5 8 6 2 7 1 8 3 9 7 10 11 12 9 14
REMARK H PARENT 7 11 11 13 9 15
REMARK Flexibility Score: inf
ROOT
ATOM      1  C   UNL     1       7.479  25.336  26.049  1.00  0.00     0.005 A 
ATOM      2  C   UNL     1       6.628  26.109  26.859  1.00  0.00     0.060 A 
ATOM      3  C   UNL     1       6.916  24.519  25.056  1.00  0.00     0.060 A 
ATOM      4  C   UNL     1       5.241  26.068  26.681  1.00  0.00     0.162 A 
ATOM      5  C   UNL     1       5.527  24.472  24.871  1.00  0.00     0.162 A 
ATOM      6  C   UNL     1       4.685  25.248  25.685  1.00  0.00     0.200 A 
ENDROOT
BRANCH   1   7
ATOM      7  C   UNL     1       8.946  25.381  26.238  1.00  0.00     0.072 C 
ATOM      8  O   UNL     1       9.483  24.813  27.226  1.00  0.00    -0.545 OA
ATOM      9  O   UNL     1       9.754  26.050  25.326  1.00  0.00    -0.545 OA
ENDBRANCH   1   7
BRANCH   4  10
ATOM     10  O   UNL     1       4.433  26.850  27.505  1.00  0.00    -0.504 OA
ATOM     11  H   UNL     1       4.159  27.792  27.254  1.00  0.00     0.293 HD
ENDBRANCH   4  10
BRANCH   5  12
ATOM     12  O   UNL     1       4.982  23.655  23.881  1.00  0.00    -0.504 OA
ATOM     13  H   UNL     1       5.426  23.544  22.978  1.00  0.00     0.293 HD
ENDBRANCH   5  12
BRANCH   6  14
ATOM     14  O   UNL     1       3.300  25.212  25.515  1.00  0.00    -0.502 OA
ATOM     15  H   UNL     1       2.866  25.276  24.602  1.00  0.00     0.293 HD
ENDBRANCH   6  14
TORSDOF 4
ENDMDL
MODEL 3
REMARK VINA RESULT:    -5.156     11.792     13.957
REMARK INTER + INTRA:          -5.954
REMARK INTER:                  -5.910
REMARK INTRA:                  -0.045
REMARK UNBOUND:                -0.045
REMARK SMILES O=C([O-])c1cc(O)c(O)c(O)c1
REMARK SMILES IDX 4 1 5 2 12 3 6 4 10 5 8 6 2 7 1 8 3 9 7 10 11 12 9 14
REMARK H PARENT 7 11 11 13 9 15
REMARK Flexibility Score: inf
ROOT
ATOM      1  C   UNL     1      15.203  23.792  16.807  1.00  0.00     0.005 A 
ATOM      2  C   UNL     1      15.648  24.405  15.622  1.00  0.00     0.060 A 
ATOM      3  C   UNL     1      16.003  23.875  17.958  1.00  0.00     0.060 A 
ATOM      4  C   UNL     1      16.867  25.090  15.586  1.00  0.00     0.162 A 
ATOM      5  C   UNL     1      17.226  24.560  17.931  1.00  0.00     0.162 A 
ATOM      6  C   UNL     1      17.662  25.170  16.742  1.00  0.00     0.200 A 
ENDROOT
BRANCH   1   7
ATOM      7  C   UNL     1      13.913  23.068  16.843  1.00  0.00     0.072 C 
ATOM      8  O   UNL     1      13.869  21.827  16.632  1.00  0.00    -0.545 OA
ATOM      9  O   UNL     1      12.731  23.748  17.112  1.00  0.00    -0.545 OA
ENDBRANCH   1   7
BRANCH   4  10
ATOM     10  O   UNL     1      17.271  25.686  14.392  1.00  0.00    -0.504 OA
ATOM     11  H   UNL     1      16.613  25.934  13.664  1.00  0.00     0.293 HD
ENDBRANCH   4  10
BRANCH   5  12
ATOM     12  O   UNL     1      18.010  24.634  19.081  1.00  0.00    -0.504 OA
ATOM     13  H   UNL     1      17.765  24.132  19.926  1.00  0.00     0.293 HD
ENDBRANCH   5  12
BRANCH   6  14
ATOM     14  O   UNL     1      18.877  25.855  16.697  1.00  0.00    -0.502 OA
ATOM     15  H   UNL     1      19.056  26.676  17.264  1.00  0.00     0.293 HD
ENDBRANCH   6  14
TORSDOF 4
ENDMDL
MODEL 4
REMARK VINA RESULT:    -5.153     11.786     14.052
REMARK INTER + INTRA:          -5.952
REMARK INTER:                  -5.907
REMARK INTRA:                  -0.045
REMARK UNBOUND:                -0.045
REMARK SMILES O=C([O-])c1cc(O)c(O)c(O)c1
REMARK SMILES IDX 4 1 5 2 12 3 6 4 10 5 8 6 2 7 1 8 3 9 7 10 11 12 9 14
REMARK H PARENT 7 11 11 13 9 15
REMARK Flexibility Score: inf
ROOT
ATOM      1  C   UNL     1      15.188  23.758  16.825  1.00  0.00     0.005 A 
ATOM      2  C   UNL     1      15.989  23.846  17.978  1.00  0.00     0.060 A 
ATOM      3  C   UNL     1      15.630  24.370  15.641  1.00  0.00     0.060 A 
ATOM      4  C   UNL     1      17.209  24.531  17.949  1.00  0.00     0.162 A 
ATOM      5  C   UNL     1      16.851  25.058  15.604  1.00  0.00     0.162 A 
ATOM      6  C   UNL     1      17.644  25.141  16.760  1.00  0.00     0.200 A 
ENDROOT
BRANCH   1   7
ATOM      7  C   UNL     1      13.899  23.033  16.856  1.00  0.00     0.072 C 
ATOM      8  O   UNL     1      13.858  21.790  16.661  1.00  0.00    -0.545 OA
ATOM      9  O   UNL     1      12.713  23.715  17.102  1.00  0.00    -0.545 OA
ENDBRANCH   1   7
BRANCH   4  10
ATOM     10  O   UNL     1      17.973  24.595  19.113  1.00  0.00    -0.504 OA
ATOM     11  H   UNL     1      18.833  25.128  19.165  1.00  0.00     0.293 HD
ENDBRANCH   4  10
BRANCH   5  12
ATOM     12  O   UNL     1      17.277  25.661  14.421  1.00  0.00    -0.504 OA
ATOM     13  H   UNL     1      18.127  25.372  13.952  1.00  0.00     0.293 HD
ENDBRANCH   5  12
BRANCH   6  14
ATOM     14  O   UNL     1      18.863  25.822  16.741  1.00  0.00    -0.502 OA
ATOM     15  H   UNL     1      19.136  26.418  15.969  1.00  0.00     0.293 HD
ENDBRANCH   6  14
TORSDOF 4
ENDMDL
MODEL 5
REMARK VINA RESULT:    -5.107      1.767      4.158
REMARK INTER + INTRA:          -5.899
REMARK INTER:                  -5.846
REMARK INTRA:                  -0.053
REMARK UNBOUND:                -0.045
REMARK SMILES O=C([O-])c1cc(O)c(O)c(O)c1
REMARK SMILES IDX 4 1 5 2 12 3 6 4 10 5 8 6 2 7 1 8 3 9 7 10 11 12 9 14
REMARK H PARENT 7 11 11 13 9 15
REMARK Flexibility Score: inf
ROOT
ATOM      1  C   UNL     1       6.071  25.904  24.522  1.00  0.00     0.005 A 
ATOM      2  C   UNL     1       5.209  25.789  25.627  1.00  0.00     0.060 A 
ATOM      3  C   UNL     1       7.458  25.927  24.741  1.00  0.00     0.060 A 
ATOM      4  C   UNL     1       5.720  25.698  26.926  1.00  0.00     0.162 A 
ATOM      5  C   UNL     1       7.979  25.836  26.040  1.00  0.00     0.162 A 
ATOM      6  C   UNL     1       7.109  25.721  27.137  1.00  0.00     0.200 A 
ENDROOT
BRANCH   1   7
ATOM      7  C   UNL     1       5.530  26.000  23.148  1.00  0.00     0.072 C 
ATOM      8  O   UNL     1       6.304  26.108  22.161  1.00  0.00    -0.545 OA
ATOM      9  O   UNL     1       4.158  25.972  22.929  1.00  0.00    -0.545 OA
ENDBRANCH   1   7
BRANCH   4  10
ATOM     10  O   UNL     1       4.831  25.585  27.994  1.00  0.00    -0.504 OA
ATOM     11  H   UNL     1       4.889  26.182  28.809  1.00  0.00     0.293 HD
ENDBRANCH   4  10
BRANCH   5  12
ATOM     12  O   UNL     1       9.358  25.861  26.242  1.00  0.00    -0.504 OA
ATOM     13  H   UNL     1       9.845  26.715  26.486  1.00  0.00     0.293 HD
ENDBRANCH   5  12
BRANCH   6  14
ATOM     14  O   UNL     1       7.610  25.631  28.437  1.00  0.00    -0.502 OA
ATOM     15  H   UNL     1       8.537  25.957  28.682  1.00  0.00     0.293 HD
ENDBRANCH   6  14
TORSDOF 4
ENDMDL
MODEL 6
REMARK VINA RESULT:    -5.067      1.861      3.871
REMARK INTER + INTRA:          -5.853
REMARK INTER:                  -5.800
REMARK INTRA:                  -0.053
REMARK UNBOUND:                -0.045
REMARK SMILES O=C([O-])c1cc(O)c(O)c(O)c1
REMARK SMILES IDX 4 1 5 2 12 3 6 4 10 5 8 6 2 7 1 8 3 9 7 10 11 12 9 14
REMARK H PARENT 7 11 11 13 9 15
REMARK Flexibility Score: inf
ROOT
ATOM      1  C   UNL     1       6.124  26.027  24.453  1.00  0.00     0.005 A 
ATOM      2  C   UNL     1       7.507  26.067  24.704  1.00  0.00     0.060 A 
ATOM      3  C   UNL     1       5.241  25.861  25.532  1.00  0.00     0.060 A 
ATOM      4  C   UNL     1       8.000  25.944  26.007  1.00  0.00     0.162 A 
ATOM      5  C   UNL     1       5.727  25.738  26.841  1.00  0.00     0.162 A 
ATOM      6  C   UNL     1       7.110  25.779  27.082  1.00  0.00     0.200 A 
ENDROOT
BRANCH   1   7
ATOM      7  C   UNL     1       5.603  26.157  23.074  1.00  0.00     0.072 C 
ATOM      8  O   UNL     1       4.363  26.161  22.855  1.00  0.00    -0.545 OA
ATOM      9  O   UNL     1       6.477  26.277  22.000  1.00  0.00    -0.545 OA
ENDBRANCH   1   7
BRANCH   4  10
ATOM     10  O   UNL     1       9.378  25.990  26.214  1.00  0.00    -0.504 OA
ATOM     11  H   UNL     1       9.843  26.816  26.570  1.00  0.00     0.293 HD
ENDBRANCH   4  10
BRANCH   5  12
ATOM     12  O   UNL     1       4.838  25.573  27.903  1.00  0.00    -0.504 OA
ATOM     13  H   UNL     1       5.161  25.481  28.859  1.00  0.00     0.293 HD
ENDBRANCH   5  12
BRANCH   6  14
ATOM     14  O   UNL     1       7.611  25.657  28.380  1.00  0.00    -0.502 OA
ATOM     15  H   UNL     1       7.037  25.821  29.198  1.00  0.00     0.293 HD
ENDBRANCH   6  14
TORSDOF 4
ENDMDL
MODEL 7
REMARK VINA RESULT:    -4.910      1.723      2.252
REMARK INTER + INTRA:          -5.672
REMARK INTER:                  -5.623
REMARK INTRA:                  -0.049
REMARK UNBOUND:                -0.045
REMARK SMILES O=C([O-])c1cc(O)c(O)c(O)c1
REMARK SMILES IDX 4 1 5 2 12 3 6 4 10 5 8 6 2 7 1 8 3 9 7 10 11 12 9 14
REMARK H PARENT 7 11 11 13 9 15
REMARK Flexibility Score: inf
ROOT
ATOM      1  C   UNL     1       6.643  25.250  25.595  1.00  0.00     0.005 A 
ATOM      2  C   UNL     1       6.935  25.543  24.252  1.00  0.00     0.060 A 
ATOM      3  C   UNL     1       5.300  25.132  25.990  1.00  0.00     0.060 A 
ATOM      4  C   UNL     1       5.908  25.714  23.318  1.00  0.00     0.162 A 
ATOM      5  C   UNL     1       4.265  25.301  25.060  1.00  0.00     0.162 A 
ATOM      6  C   UNL     1       4.567  25.594  23.720  1.00  0.00     0.200 A 
ENDROOT
BRANCH   1   7
ATOM      7  C   UNL     1       7.731  25.069  26.582  1.00  0.00     0.072 C 
ATOM      8  O   UNL     1       8.791  24.469  26.264  1.00  0.00    -0.545 OA
ATOM      9  O   UNL     1       7.596  25.559  27.876  1.00  0.00    -0.545 OA
ENDBRANCH   1   7
BRANCH   4  10
ATOM     10  O   UNL     1       6.240  26.003  21.995  1.00  0.00    -0.504 OA
ATOM     11  H   UNL     1       6.025  25.370  21.234  1.00  0.00     0.293 HD
ENDBRANCH   4  10
BRANCH   5  12
ATOM     12  O   UNL     1       2.936  25.181  25.466  1.00  0.00    -0.504 OA
ATOM     13  H   UNL     1       2.553  24.298  25.780  1.00  0.00     0.293 HD
ENDBRANCH   5  12
BRANCH   6  14
ATOM     14  O   UNL     1       3.548  25.767  22.781  1.00  0.00    -0.502 OA
ATOM     15  H   UNL     1       2.570  25.649  23.018  1.00  0.00     0.293 HD
ENDBRANCH   6  14
TORSDOF 4
ENDMDL
MODEL 8
REMARK VINA RESULT:    -4.873      1.724      2.772
REMARK INTER + INTRA:          -5.630
REMARK INTER:                  -5.581
REMARK INTRA:                  -0.049
REMARK UNBOUND:                -0.045
REMARK SMILES O=C([O-])c1cc(O)c(O)c(O)c1
REMARK SMILES IDX 4 1 5 2 12 3 6 4 10 5 8 6 2 7 1 8 3 9 7 10 11 12 9 14
REMARK H PARENT 7 11 11 13 9 15
REMARK Flexibility Score: inf
ROOT
ATOM      1  C   UNL     1       6.628  25.234  25.553  1.00  0.00     0.005 A 
ATOM      2  C   UNL     1       5.285  25.125  25.953  1.00  0.00     0.060 A 
ATOM      3  C   UNL     1       6.917  25.523  24.210  1.00  0.00     0.060 A 
ATOM      4  C   UNL     1       4.248  25.302  25.031  1.00  0.00     0.162 A 
ATOM      5  C   UNL     1       5.884  25.702  23.279  1.00  0.00     0.162 A 
ATOM      6  C   UNL     1       4.545  25.591  23.688  1.00  0.00     0.200 A 
ENDROOT
BRANCH   1   7
ATOM      7  C   UNL     1       7.724  25.047  26.530  1.00  0.00     0.072 C 
ATOM      8  O   UNL     1       7.636  25.527  27.691  1.00  0.00    -0.545 OA
ATOM      9  O   UNL     1       8.867  24.339  26.179  1.00  0.00    -0.545 OA
ENDBRANCH   1   7
BRANCH   4  10
ATOM     10  O   UNL     1       2.929  25.186  25.469  1.00  0.00    -0.504 OA
ATOM     11  H   UNL     1       2.176  25.723  25.058  1.00  0.00     0.293 HD
ENDBRANCH   4  10
BRANCH   5  12
ATOM     12  O   UNL     1       6.185  25.988  21.948  1.00  0.00    -0.504 OA
ATOM     13  H   UNL     1       5.511  26.428  21.332  1.00  0.00     0.293 HD
ENDBRANCH   5  12
BRANCH   6  14
ATOM     14  O   UNL     1       3.503  25.765  22.775  1.00  0.00    -0.502 OA
ATOM     15  H   UNL     1       3.421  26.597  22.202  1.00  0.00     0.293 HD
ENDBRANCH   6  14
TORSDOF 4
ENDMDL
MODEL 9
REMARK VINA RESULT:    -4.837     12.354     13.405
REMARK INTER + INTRA:          -5.589
REMARK INTER:                  -5.545
REMARK INTRA:                  -0.045
REMARK UNBOUND:                -0.045
REMARK SMILES O=C([O-])c1cc(O)c(O)c(O)c1
REMARK SMILES IDX 4 1 5 2 12 3 6 4 10 5 8 6 2 7 1 8 3 9 7 10 11 12 9 14
REMARK H PARENT 7 11 11 13 9 15
REMARK Flexibility Score: inf
ROOT
ATOM      1  C   UNL     1      16.736  25.067  17.187  1.00  0.00     0.005 A 
ATOM      2  C   UNL     1      15.708  26.026  17.214  1.00  0.00     0.060 A 
ATOM      3  C   UNL     1      16.533  23.871  16.479  1.00  0.00     0.060 A 
ATOM      4  C   UNL     1      14.500  25.797  16.547  1.00  0.00     0.162 A 
ATOM      5  C   UNL     1      15.326  23.635  15.807  1.00  0.00     0.162 A 
ATOM      6  C   UNL     1      14.305  24.599  15.840  1.00  0.00     0.200 A 
ENDROOT
BRANCH   1   7
ATOM      7  C   UNL     1      18.014  25.310  17.893  1.00  0.00     0.072 C 
ATOM      8  O   UNL     1      18.147  24.991  19.104  1.00  0.00    -0.545 OA
ATOM      9  O   UNL     1      19.085  25.894  17.229  1.00  0.00    -0.545 OA
ENDBRANCH   1   7
BRANCH   4  10
ATOM     10  O   UNL     1      13.506  26.774  16.598  1.00  0.00    -0.504 OA
ATOM     11  H   UNL     1      12.926  26.995  15.798  1.00  0.00     0.293 HD
ENDBRANCH   4  10
BRANCH   5  12
ATOM     12  O   UNL     1      15.138  22.443  15.108  1.00  0.00    -0.504 OA
ATOM     13  H   UNL     1      15.908  21.964  14.655  1.00  0.00     0.293 HD
ENDBRANCH   5  12
BRANCH   6  14
ATOM     14  O   UNL     1      13.096  24.379  15.177  1.00  0.00    -0.502 OA
ATOM     15  H   UNL     1      12.760  24.996  14.447  1.00  0.00     0.293 HD
ENDBRANCH   6  14
TORSDOF 4
ENDMDL
