MODEL 1
REMARK VINA RESULT:    -3.974      0.000      0.000
REMARK INTER + INTRA:          -4.090
REMARK INTER:                  -4.090
REMARK INTRA:                   0.000
REMARK UNBOUND:                 0.000
REMARK SMILES CC1(C)[C@@H]2CC[C@@]1(C)[C@H](O)C2
REMARK SMILES IDX 1 1 2 2 4 3 5 4 6 5 7 6 9 7 11 8 8 9 3 10 10 11
REMARK H PARENT 10 12
REMARK Flexibility Score: inf
ROOT
ATOM      1  C   UNL     1     137.103 138.116 129.793  1.00  0.00     0.012 C 
ATOM      2  C   UNL     1     136.042 136.981 129.946  1.00  0.00    -0.025 C 
ATOM      3  C   UNL     1     135.924 136.430 131.376  1.00  0.00    -0.002 C 
ATOM      4  C   UNL     1     137.319 135.807 131.632  1.00  0.00     0.005 C 
ATOM      5  C   UNL     1     137.699 135.239 130.249  1.00  0.00     0.010 C 
ATOM      6  C   UNL     1     136.462 135.603 129.382  1.00  0.00    -0.001 C 
ATOM      7  C   UNL     1     135.327 134.642 129.850  1.00  0.00     0.121 C 
ATOM      8  C   UNL     1     134.941 135.240 131.224  1.00  0.00     0.036 C 
ATOM      9  C   UNL     1     136.756 135.551 127.875  1.00  0.00     0.015 C 
ATOM     10  C   UNL     1     134.711 137.573 129.389  1.00  0.00     0.012 C 
ENDROOT
BRANCH   7  11
ATOM     11  O   UNL     1     134.241 134.638 128.959  1.00  0.00    -0.393 OA
ATOM     12  H   UNL     1     134.615 134.834 128.060  1.00  0.00     0.210 HD
ENDBRANCH   7  11
TORSDOF 1
ENDMDL
MODEL 2
REMARK VINA RESULT:    -3.964      2.583      3.750
REMARK INTER + INTRA:          -4.080
REMARK INTER:                  -4.080
REMARK INTRA:                   0.000
REMARK UNBOUND:                 0.000
REMARK SMILES CC1(C)[C@@H]2CC[C@@]1(C)[C@H](O)C2
REMARK SMILES IDX 1 1 2 2 4 3 5 4 6 5 7 6 9 7 11 8 8 9 3 10 10 11
REMARK H PARENT 10 12
REMARK Flexibility Score: inf
ROOT
ATOM      1  C   UNL     1     137.792 137.737 130.231  1.00  0.00     0.012 C 
ATOM      2  C   UNL     1     138.523 136.369 130.051  1.00  0.00    -0.025 C 
ATOM      3  C   UNL     1     140.052 136.460 130.169  1.00  0.00    -0.002 C 
ATOM      4  C   UNL     1     140.447 137.364 128.976  1.00  0.00     0.005 C 
ATOM      5  C   UNL     1     139.439 136.950 127.884  1.00  0.00     0.010 C 
ATOM      6  C   UNL     1     138.603 135.851 128.595  1.00  0.00    -0.001 C 
ATOM      7  C   UNL     1     139.541 134.608 128.688  1.00  0.00     0.121 C 
ATOM      8  C   UNL     1     140.528 135.030 129.803  1.00  0.00     0.036 C 
ATOM      9  C   UNL     1     137.261 135.580 127.899  1.00  0.00     0.015 C 
ATOM     10  C   UNL     1     137.868 135.404 131.087  1.00  0.00     0.012 C 
ENDROOT
BRANCH   7  11
ATOM     11  O   UNL     1     138.836 133.442 129.029  1.00  0.00    -0.393 OA
ATOM     12  H   UNL     1     137.969 133.488 128.548  1.00  0.00     0.210 HD
ENDBRANCH   7  11
TORSDOF 1
ENDMDL
MODEL 3
REMARK VINA RESULT:    -3.957      2.874      3.852
REMARK INTER + INTRA:          -4.072
REMARK INTER:                  -4.072
REMARK INTRA:                   0.000
REMARK UNBOUND:                 0.000
REMARK SMILES CC1(C)[C@@H]2CC[C@@]1(C)[C@H](O)C2
REMARK SMILES IDX 1 1 2 2 4 3 5 4 6 5 7 6 9 7 11 8 8 9 3 10 10 11
REMARK H PARENT 10 12
REMARK Flexibility Score: inf
ROOT
ATOM      1  C   UNL     1     138.082 138.067 129.746  1.00  0.00     0.012 C 
ATOM      2  C   UNL     1     136.963 139.140 129.929  1.00  0.00    -0.025 C 
ATOM      3  C   UNL     1     136.436 139.250 131.369  1.00  0.00    -0.002 C 
ATOM      4  C   UNL     1     135.801 137.861 131.622  1.00  0.00     0.005 C 
ATOM      5  C   UNL     1     135.206 137.500 130.245  1.00  0.00     0.010 C 
ATOM      6  C   UNL     1     135.570 138.741 129.384  1.00  0.00    -0.001 C 
ATOM      7  C   UNL     1     134.630 139.882 129.878  1.00  0.00     0.121 C 
ATOM      8  C   UNL     1     135.256 140.249 131.245  1.00  0.00     0.036 C 
ATOM      9  C   UNL     1     135.490 138.462 127.875  1.00  0.00     0.015 C 
ATOM     10  C   UNL     1     137.561 140.469 129.375  1.00  0.00     0.012 C 
ENDROOT
BRANCH   7  11
ATOM     11  O   UNL     1     134.625 140.977 128.997  1.00  0.00    -0.393 OA
ATOM     12  H   UNL     1     133.698 141.054 128.651  1.00  0.00     0.210 HD
ENDBRANCH   7  11
TORSDOF 1
ENDMDL
MODEL 4
REMARK VINA RESULT:    -3.954      1.243      1.897
REMARK INTER + INTRA:          -4.069
REMARK INTER:                  -4.069
REMARK INTRA:                   0.000
REMARK UNBOUND:                 0.000
REMARK SMILES CC1(C)[C@@H]2CC[C@@]1(C)[C@H](O)C2
REMARK SMILES IDX 1 1 2 2 4 3 5 4 6 5 7 6 9 7 11 8 8 9 3 10 10 11
REMARK H PARENT 10 12
REMARK Flexibility Score: inf
ROOT
ATOM      1  C   UNL     1     137.697 137.401 130.220  1.00  0.00     0.012 C 
ATOM      2  C   UNL     1     136.339 136.648 130.048  1.00  0.00    -0.025 C 
ATOM      3  C   UNL     1     136.453 135.122 130.189  1.00  0.00    -0.002 C 
ATOM      4  C   UNL     1     137.365 134.722 129.004  1.00  0.00     0.005 C 
ATOM      5  C   UNL     1     136.939 135.707 127.896  1.00  0.00     0.010 C 
ATOM      6  C   UNL     1     135.826 136.538 128.592  1.00  0.00    -0.001 C 
ATOM      7  C   UNL     1     134.597 135.583 128.697  1.00  0.00     0.121 C 
ATOM      8  C   UNL     1     135.030 134.620 129.828  1.00  0.00     0.036 C 
ATOM      9  C   UNL     1     135.537 137.866 127.875  1.00  0.00     0.015 C 
ATOM     10  C   UNL     1     135.363 137.304 131.072  1.00  0.00     0.012 C 
ENDROOT
BRANCH   7  11
ATOM     11  O   UNL     1     133.420 136.276 129.025  1.00  0.00    -0.393 OA
ATOM     12  H   UNL     1     132.705 135.593 129.106  1.00  0.00     0.210 HD
ENDBRANCH   7  11
TORSDOF 1
ENDMDL
MODEL 5
REMARK VINA RESULT:    -3.953      3.708      5.345
REMARK INTER + INTRA:          -4.069
REMARK INTER:                  -4.069
REMARK INTRA:                   0.000
REMARK UNBOUND:                 0.000
REMARK SMILES CC1(C)[C@@H]2CC[C@@]1(C)[C@H](O)C2
REMARK SMILES IDX 1 1 2 2 4 3 5 4 6 5 7 6 9 7 11 8 8 9 3 10 10 11
REMARK H PARENT 10 12
REMARK Flexibility Score: inf
ROOT
ATOM      1  C   UNL     1     137.988 136.972 129.858  1.00  0.00     0.012 C 
ATOM      2  C   UNL     1     139.109 138.057 129.920  1.00  0.00    -0.025 C 
ATOM      3  C   UNL     1     139.348 138.623 131.329  1.00  0.00    -0.002 C 
ATOM      4  C   UNL     1     138.004 139.316 131.666  1.00  0.00     0.005 C 
ATOM      5  C   UNL     1     137.558 139.880 130.301  1.00  0.00     0.010 C 
ATOM      6  C   UNL     1     138.716 139.445 129.360  1.00  0.00    -0.001 C 
ATOM      7  C   UNL     1     139.923 140.358 129.735  1.00  0.00     0.121 C 
ATOM      8  C   UNL     1     140.373 139.763 131.090  1.00  0.00     0.036 C 
ATOM      9  C   UNL     1     138.325 139.488 127.875  1.00  0.00     0.015 C 
ATOM     10  C   UNL     1     140.371 137.394 129.287  1.00  0.00     0.012 C 
ENDROOT
BRANCH   7  11
ATOM     11  O   UNL     1     140.946 140.297 128.774  1.00  0.00    -0.393 OA
ATOM     12  H   UNL     1     141.676 140.882 129.103  1.00  0.00     0.210 HD
ENDBRANCH   7  11
TORSDOF 1
ENDMDL
MODEL 6
REMARK VINA RESULT:    -3.951      2.854      3.847
REMARK INTER + INTRA:          -4.067
REMARK INTER:                  -4.067
REMARK INTRA:                   0.000
REMARK UNBOUND:                 0.000
REMARK SMILES CC1(C)[C@@H]2CC[C@@]1(C)[C@H](O)C2
REMARK SMILES IDX 1 1 2 2 4 3 5 4 6 5 7 6 9 7 11 8 8 9 3 10 10 11
REMARK H PARENT 10 12
REMARK Flexibility Score: inf
ROOT
ATOM      1  C   UNL     1     137.035 136.960 129.951  1.00  0.00     0.012 C 
ATOM      2  C   UNL     1     138.195 135.919 130.041  1.00  0.00    -0.025 C 
ATOM      3  C   UNL     1     138.726 135.701 131.466  1.00  0.00    -0.002 C 
ATOM      4  C   UNL     1     139.308 137.086 131.844  1.00  0.00     0.005 C 
ATOM      5  C   UNL     1     139.887 137.590 130.506  1.00  0.00     0.010 C 
ATOM      6  C   UNL     1     139.570 136.418 129.537  1.00  0.00    -0.001 C 
ATOM      7  C   UNL     1     140.554 135.274 129.930  1.00  0.00     0.121 C 
ATOM      8  C   UNL     1     139.944 134.763 131.258  1.00  0.00     0.036 C 
ATOM      9  C   UNL     1     139.638 136.832 128.059  1.00  0.00     0.015 C 
ATOM     10  C   UNL     1     137.648 134.622 129.369  1.00  0.00     0.012 C 
ENDROOT
BRANCH   7  11
ATOM     11  O   UNL     1     140.601 134.263 128.955  1.00  0.00    -0.393 OA
ATOM     12  H   UNL     1     140.176 133.463 129.360  1.00  0.00     0.210 HD
ENDBRANCH   7  11
TORSDOF 1
ENDMDL
MODEL 7
REMARK VINA RESULT:    -3.823      2.756      4.535
REMARK INTER + INTRA:          -3.934
REMARK INTER:                  -3.934
REMARK INTRA:                   0.000
REMARK UNBOUND:                 0.000
REMARK SMILES CC1(C)[C@@H]2CC[C@@]1(C)[C@H](O)C2
REMARK SMILES IDX 1 1 2 2 4 3 5 4 6 5 7 6 9 7 11 8 8 9 3 10 10 11
REMARK H PARENT 10 12
REMARK Flexibility Score: inf
ROOT
ATOM      1  C   UNL     1     137.317 137.359 130.496  1.00  0.00     0.012 C 
ATOM      2  C   UNL     1     136.386 138.358 129.739  1.00  0.00    -0.025 C 
ATOM      3  C   UNL     1     136.883 138.728 128.333  1.00  0.00    -0.002 C 
ATOM      4  C   UNL     1     138.224 139.452 128.609  1.00  0.00     0.005 C 
ATOM      5  C   UNL     1     137.939 140.209 129.923  1.00  0.00     0.010 C 
ATOM      6  C   UNL     1     136.463 139.827 130.221  1.00  0.00    -0.001 C 
ATOM      7  C   UNL     1     135.610 140.611 129.178  1.00  0.00     0.121 C 
ATOM      8  C   UNL     1     135.886 139.824 127.875  1.00  0.00     0.036 C 
ATOM      9  C   UNL     1     136.067 140.079 131.684  1.00  0.00     0.015 C 
ATOM     10  C   UNL     1     134.970 137.705 129.754  1.00  0.00     0.012 C 
ENDROOT
BRANCH   7  11
ATOM     11  O   UNL     1     134.245 140.609 129.509  1.00  0.00    -0.393 OA
ATOM     12  H   UNL     1     133.989 139.660 129.642  1.00  0.00     0.210 HD
ENDBRANCH   7  11
TORSDOF 1
ENDMDL
MODEL 8
REMARK VINA RESULT:    -3.818      3.394      5.068
REMARK INTER + INTRA:          -3.929
REMARK INTER:                  -3.929
REMARK INTRA:                   0.000
REMARK UNBOUND:                 0.000
REMARK SMILES CC1(C)[C@@H]2CC[C@@]1(C)[C@H](O)C2
REMARK SMILES IDX 1 1 2 2 4 3 5 4 6 5 7 6 9 7 11 8 8 9 3 10 10 11
REMARK H PARENT 10 12
REMARK Flexibility Score: inf
ROOT
ATOM      1  C   UNL     1     138.421 138.548 131.582  1.00  0.00     0.012 C 
ATOM      2  C   UNL     1     139.404 138.074 130.465  1.00  0.00    -0.025 C 
ATOM      3  C   UNL     1     140.593 139.022 130.241  1.00  0.00    -0.002 C 
ATOM      4  C   UNL     1     139.919 140.327 129.750  1.00  0.00     0.005 C 
ATOM      5  C   UNL     1     138.738 139.806 128.906  1.00  0.00     0.010 C 
ATOM      6  C   UNL     1     138.898 138.264 129.015  1.00  0.00    -0.001 C 
ATOM      7  C   UNL     1     140.135 137.910 128.134  1.00  0.00     0.121 C 
ATOM      8  C   UNL     1     141.310 138.415 129.006  1.00  0.00     0.036 C 
ATOM      9  C   UNL     1     137.616 137.505 128.642  1.00  0.00     0.015 C 
ATOM     10  C   UNL     1     139.821 136.625 130.861  1.00  0.00     0.012 C 
ENDROOT
BRANCH   7  11
ATOM     11  O   UNL     1     140.225 136.530 127.886  1.00  0.00    -0.393 OA
ATOM     12  H   UNL     1     141.009 136.403 127.292  1.00  0.00     0.210 HD
ENDBRANCH   7  11
TORSDOF 1
ENDMDL
MODEL 9
REMARK VINA RESULT:    -3.802      3.939      5.275
REMARK INTER + INTRA:          -3.913
REMARK INTER:                  -3.913
REMARK INTRA:                   0.000
REMARK UNBOUND:                 0.000
REMARK SMILES CC1(C)[C@@H]2CC[C@@]1(C)[C@H](O)C2
REMARK SMILES IDX 1 1 2 2 4 3 5 4 6 5 7 6 9 7 11 8 8 9 3 10 10 11
REMARK H PARENT 10 12
REMARK Flexibility Score: inf
ROOT
ATOM      1  C   UNL     1     137.289 138.807 130.078  1.00  0.00     0.012 C 
ATOM      2  C   UNL     1     138.594 138.807 129.219  1.00  0.00    -0.025 C 
ATOM      3  C   UNL     1     138.977 137.424 128.670  1.00  0.00    -0.002 C 
ATOM      4  C   UNL     1     139.258 136.599 129.951  1.00  0.00     0.005 C 
ATOM      5  C   UNL     1     139.899 137.638 130.893  1.00  0.00     0.010 C 
ATOM      6  C   UNL     1     139.912 138.924 130.021  1.00  0.00    -0.001 C 
ATOM      7  C   UNL     1     141.025 138.692 128.953  1.00  0.00     0.121 C 
ATOM      8  C   UNL     1     140.355 137.670 128.004  1.00  0.00     0.036 C 
ATOM      9  C   UNL     1     140.087 140.205 130.850  1.00  0.00     0.015 C 
ATOM     10  C   UNL     1     138.367 139.882 128.112  1.00  0.00     0.012 C 
ENDROOT
BRANCH   7  11
ATOM     11  O   UNL     1     141.365 139.880 128.283  1.00  0.00    -0.393 OA
ATOM     12  H   UNL     1     142.343 140.001 128.406  1.00  0.00     0.210 HD
ENDBRANCH   7  11
TORSDOF 1
ENDMDL
