MODEL 1
REMARK VINA RESULT:    -5.258      0.000      0.000
REMARK INTER + INTRA:          -6.459
REMARK INTER:                  -6.180
REMARK INTRA:                  -0.279
REMARK UNBOUND:                -0.279
REMARK SMILES O=c1cc(-c2ccc(O)c(O)c2)oc2cc(O)cc(O)c12
REMARK SMILES IDX 4 1 3 2 2 3 1 4 21 5 19 6 18 7 16 8 15 9 14 10 13 11 5 12
REMARK SMILES IDX 6 13 7 14 8 15 12 16 10 17 9 18 11 20 20 22 17 24
REMARK H PARENT 9 19 11 21 20 23 17 25
REMARK Flexibility Score: inf
ROOT
ATOM      1  C   UNL     1      64.158  51.086  35.261  1.00  0.00     0.138 A 
ATOM      2  C   UNL     1      65.437  51.621  35.049  1.00  0.00     0.100 A 
ATOM      3  C   UNL     1      66.410  51.496  36.041  1.00  0.00     0.197 A 
ATOM      4  O   UNL     1      67.528  52.040  35.849  1.00  0.00    -0.289 OA
ATOM      5  C   UNL     1      66.109  50.804  37.239  1.00  0.00     0.107 A 
ATOM      6  C   UNL     1      67.033  50.580  38.302  1.00  0.00     0.134 A 
ATOM      7  C   UNL     1      66.589  49.984  39.488  1.00  0.00     0.093 A 
ATOM      8  C   UNL     1      65.272  49.550  39.628  1.00  0.00     0.123 A 
ATOM      9  C   UNL     1      64.372  49.716  38.574  1.00  0.00     0.094 A 
ATOM     10  C   UNL     1      64.776  50.338  37.390  1.00  0.00     0.146 A 
ATOM     11  O   UNL     1      63.885  50.490  36.416  1.00  0.00    -0.456 OA
ENDROOT
BRANCH   1  12
ATOM     12  C   UNL     1      63.087  51.190  34.239  1.00  0.00     0.021 A 
ATOM     13  C   UNL     1      63.301  50.659  32.955  1.00  0.00     0.016 A 
ATOM     14  C   UNL     1      62.312  50.751  31.973  1.00  0.00     0.051 A 
ATOM     15  C   UNL     1      61.096  51.385  32.253  1.00  0.00     0.157 A 
ATOM     16  C   UNL     1      61.865  51.839  34.509  1.00  0.00     0.062 A 
ATOM     17  C   UNL     1      60.873  51.933  33.522  1.00  0.00     0.158 A 
BRANCH  15  18
ATOM     18  O   UNL     1      60.106  51.478  31.276  1.00  0.00    -0.504 OA
ATOM     19  H   UNL     1      60.093  50.859  30.474  1.00  0.00     0.293 HD
ENDBRANCH  15  18
BRANCH  17  20
ATOM     20  O   UNL     1      59.666  52.574  33.794  1.00  0.00    -0.504 OA
ATOM     21  H   UNL     1      58.815  52.335  33.297  1.00  0.00     0.293 HD
ENDBRANCH  17  20
ENDBRANCH   1  12
BRANCH   6  22
ATOM     22  O   UNL     1      68.394  50.898  38.235  1.00  0.00    -0.507 OA
ATOM     23  H   UNL     1      69.026  50.577  37.519  1.00  0.00     0.293 HD
ENDBRANCH   6  22
BRANCH   8  24
ATOM     24  O   UNL     1      64.868  48.946  40.817  1.00  0.00    -0.508 OA
ATOM     25  H   UNL     1      65.015  47.958  40.986  1.00  0.00     0.293 HD
ENDBRANCH   8  24
TORSDOF 5
ENDMDL
MODEL 2
REMARK VINA RESULT:    -5.170      1.546      6.715
REMARK INTER + INTRA:          -6.356
REMARK INTER:                  -6.041
REMARK INTRA:                  -0.315
REMARK UNBOUND:                -0.279
REMARK SMILES O=c1cc(-c2ccc(O)c(O)c2)oc2cc(O)cc(O)c12
REMARK SMILES IDX 4 1 3 2 2 3 1 4 21 5 19 6 18 7 16 8 15 9 14 10 13 11 5 12
REMARK SMILES IDX 6 13 7 14 8 15 12 16 10 17 9 18 11 20 20 22 17 24
REMARK H PARENT 9 19 11 21 20 23 17 25
REMARK Flexibility Score: inf
ROOT
ATOM      1  C   UNL     1      65.063  50.890  36.249  1.00  0.00     0.138 A 
ATOM      2  C   UNL     1      65.969  51.249  35.240  1.00  0.00     0.100 A 
ATOM      3  C   UNL     1      65.491  51.767  34.036  1.00  0.00     0.197 A 
ATOM      4  O   UNL     1      66.323  52.021  33.127  1.00  0.00    -0.289 OA
ATOM      5  C   UNL     1      64.100  51.958  33.855  1.00  0.00     0.107 A 
ATOM      6  C   UNL     1      63.503  52.516  32.686  1.00  0.00     0.134 A 
ATOM      7  C   UNL     1      62.108  52.548  32.573  1.00  0.00     0.093 A 
ATOM      8  C   UNL     1      61.289  52.098  33.608  1.00  0.00     0.123 A 
ATOM      9  C   UNL     1      61.864  51.599  34.778  1.00  0.00     0.094 A 
ATOM     10  C   UNL     1      63.253  51.523  34.908  1.00  0.00     0.146 A 
ATOM     11  O   UNL     1      63.760  51.028  36.033  1.00  0.00    -0.456 OA
ENDROOT
BRANCH   1  12
ATOM     12  C   UNL     1      65.518  50.335  37.548  1.00  0.00     0.021 A 
ATOM     13  C   UNL     1      66.844  49.890  37.684  1.00  0.00     0.016 A 
ATOM     14  C   UNL     1      67.294  49.355  38.894  1.00  0.00     0.051 A 
ATOM     15  C   UNL     1      66.424  49.246  39.985  1.00  0.00     0.157 A 
ATOM     16  C   UNL     1      64.644  50.210  38.647  1.00  0.00     0.062 A 
ATOM     17  C   UNL     1      65.096  49.672  39.861  1.00  0.00     0.158 A 
BRANCH  15  18
ATOM     18  O   UNL     1      66.870  48.715  41.194  1.00  0.00    -0.504 OA
ATOM     19  H   UNL     1      67.856  48.563  41.375  1.00  0.00     0.293 HD
ENDBRANCH  15  18
BRANCH  17  20
ATOM     20  O   UNL     1      64.230  49.551  40.946  1.00  0.00    -0.504 OA
ATOM     21  H   UNL     1      64.538  49.163  41.829  1.00  0.00     0.293 HD
ENDBRANCH  17  20
ENDBRANCH   1  12
BRANCH   6  22
ATOM     22  O   UNL     1      64.227  53.072  31.627  1.00  0.00    -0.507 OA
ATOM     23  H   UNL     1      64.823  52.553  31.001  1.00  0.00     0.293 HD
ENDBRANCH   6  22
BRANCH   8  24
ATOM     24  O   UNL     1      59.905  52.159  33.468  1.00  0.00    -0.508 OA
ATOM     25  H   UNL     1      59.358  52.886  33.914  1.00  0.00     0.293 HD
ENDBRANCH   8  24
TORSDOF 5
ENDMDL
MODEL 3
REMARK VINA RESULT:    -5.072      2.126      6.958
REMARK INTER + INTRA:          -6.241
REMARK INTER:                  -5.976
REMARK INTRA:                  -0.265
REMARK UNBOUND:                -0.279
REMARK SMILES O=c1cc(-c2ccc(O)c(O)c2)oc2cc(O)cc(O)c12
REMARK SMILES IDX 4 1 3 2 2 3 1 4 21 5 19 6 18 7 16 8 15 9 14 10 13 11 5 12
REMARK SMILES IDX 6 13 7 14 8 15 12 16 10 17 9 18 11 20 20 22 17 24
REMARK H PARENT 9 19 11 21 20 23 17 25
REMARK Flexibility Score: inf
ROOT
ATOM      1  C   UNL     1      63.984  51.482  35.420  1.00  0.00     0.138 A 
ATOM      2  C   UNL     1      63.658  50.897  34.188  1.00  0.00     0.100 A 
ATOM      3  C   UNL     1      62.866  51.599  33.279  1.00  0.00     0.197 A 
ATOM      4  O   UNL     1      62.537  51.025  32.209  1.00  0.00    -0.289 OA
ATOM      5  C   UNL     1      62.425  52.907  33.593  1.00  0.00     0.107 A 
ATOM      6  C   UNL     1      61.647  53.732  32.727  1.00  0.00     0.134 A 
ATOM      7  C   UNL     1      61.171  54.964  33.193  1.00  0.00     0.093 A 
ATOM      8  C   UNL     1      61.493  55.427  34.468  1.00  0.00     0.123 A 
ATOM      9  C   UNL     1      62.297  54.651  35.304  1.00  0.00     0.094 A 
ATOM     10  C   UNL     1      62.760  53.403  34.881  1.00  0.00     0.146 A 
ATOM     11  O   UNL     1      63.512  52.689  35.713  1.00  0.00    -0.456 OA
ENDROOT
BRANCH   1  12
ATOM     12  C   UNL     1      64.823  50.780  36.423  1.00  0.00     0.021 A 
ATOM     13  C   UNL     1      66.224  50.842  36.318  1.00  0.00     0.016 A 
ATOM     14  C   UNL     1      67.036  50.183  37.244  1.00  0.00     0.051 A 
ATOM     15  C   UNL     1      66.463  49.442  38.285  1.00  0.00     0.157 A 
ATOM     16  C   UNL     1      64.254  50.021  37.465  1.00  0.00     0.062 A 
ATOM     17  C   UNL     1      65.070  49.359  38.394  1.00  0.00     0.158 A 
BRANCH  15  18
ATOM     18  O   UNL     1      67.270  48.784  39.211  1.00  0.00    -0.504 OA
ATOM     19  H   UNL     1      66.981  47.913  39.642  1.00  0.00     0.293 HD
ENDBRANCH  15  18
BRANCH  17  20
ATOM     20  O   UNL     1      64.503  48.611  39.424  1.00  0.00    -0.504 OA
ATOM     21  H   UNL     1      64.394  48.990  40.357  1.00  0.00     0.293 HD
ENDBRANCH  17  20
ENDBRANCH   1  12
BRANCH   6  22
ATOM     22  O   UNL     1      61.339  53.404  31.404  1.00  0.00    -0.507 OA
ATOM     23  H   UNL     1      62.017  53.193  30.689  1.00  0.00     0.293 HD
ENDBRANCH   6  22
BRANCH   8  24
ATOM     24  O   UNL     1      61.014  56.665  34.892  1.00  0.00    -0.508 OA
ATOM     25  H   UNL     1      60.606  57.326  34.242  1.00  0.00     0.293 HD
ENDBRANCH   8  24
TORSDOF 5
ENDMDL
MODEL 4
REMARK VINA RESULT:    -5.050      1.868      6.951
REMARK INTER + INTRA:          -6.215
REMARK INTER:                  -5.945
REMARK INTRA:                  -0.270
REMARK UNBOUND:                -0.279
REMARK SMILES O=c1cc(-c2ccc(O)c(O)c2)oc2cc(O)cc(O)c12
REMARK SMILES IDX 4 1 3 2 2 3 1 4 21 5 19 6 18 7 16 8 15 9 14 10 13 11 5 12
REMARK SMILES IDX 6 13 7 14 8 15 12 16 10 17 9 18 11 20 20 22 17 24
REMARK H PARENT 9 19 11 21 20 23 17 25
REMARK Flexibility Score: inf
ROOT
ATOM      1  C   UNL     1      64.138  51.657  35.604  1.00  0.00     0.138 A 
ATOM      2  C   UNL     1      64.167  53.059  35.618  1.00  0.00     0.100 A 
ATOM      3  C   UNL     1      63.392  53.773  34.703  1.00  0.00     0.197 A 
ATOM      4  O   UNL     1      63.486  55.028  34.697  1.00  0.00    -0.289 OA
ATOM      5  C   UNL     1      62.561  53.079  33.791  1.00  0.00     0.107 A 
ATOM      6  C   UNL     1      61.698  53.703  32.842  1.00  0.00     0.134 A 
ATOM      7  C   UNL     1      61.010  52.914  31.912  1.00  0.00     0.093 A 
ATOM      8  C   UNL     1      61.105  51.523  31.936  1.00  0.00     0.123 A 
ATOM      9  C   UNL     1      61.905  50.900  32.895  1.00  0.00     0.094 A 
ATOM     10  C   UNL     1      62.631  51.661  33.814  1.00  0.00     0.146 A 
ATOM     11  O   UNL     1      63.392  51.029  34.702  1.00  0.00    -0.456 OA
ENDROOT
BRANCH   1  12
ATOM     12  C   UNL     1      64.942  50.848  36.555  1.00  0.00     0.021 A 
ATOM     13  C   UNL     1      66.343  50.837  36.441  1.00  0.00     0.016 A 
ATOM     14  C   UNL     1      67.122  50.078  37.318  1.00  0.00     0.051 A 
ATOM     15  C   UNL     1      66.513  49.308  38.317  1.00  0.00     0.157 A 
ATOM     16  C   UNL     1      64.337  50.061  37.555  1.00  0.00     0.062 A 
ATOM     17  C   UNL     1      65.118  49.298  38.434  1.00  0.00     0.158 A 
BRANCH  15  18
ATOM     18  O   UNL     1      67.287  48.551  39.195  1.00  0.00    -0.504 OA
ATOM     19  H   UNL     1      67.071  47.580  39.388  1.00  0.00     0.293 HD
ENDBRANCH  15  18
BRANCH  17  20
ATOM     20  O   UNL     1      64.516  48.522  39.422  1.00  0.00    -0.504 OA
ATOM     21  H   UNL     1      63.719  48.860  39.949  1.00  0.00     0.293 HD
ENDBRANCH  17  20
ENDBRANCH   1  12
BRANCH   6  22
ATOM     22  O   UNL     1      61.464  55.081  32.786  1.00  0.00    -0.507 OA
ATOM     23  H   UNL     1      61.989  55.733  32.224  1.00  0.00     0.293 HD
ENDBRANCH   6  22
BRANCH   8  24
ATOM     24  O   UNL     1      60.394  50.769  31.006  1.00  0.00    -0.508 OA
ATOM     25  H   UNL     1      60.735  49.873  30.678  1.00  0.00     0.293 HD
ENDBRANCH   8  24
TORSDOF 5
ENDMDL
MODEL 5
REMARK VINA RESULT:    -4.828      2.334      3.529
REMARK INTER + INTRA:          -5.954
REMARK INTER:                  -5.684
REMARK INTRA:                  -0.270
REMARK UNBOUND:                -0.279
REMARK SMILES O=c1cc(-c2ccc(O)c(O)c2)oc2cc(O)cc(O)c12
REMARK SMILES IDX 4 1 3 2 2 3 1 4 21 5 19 6 18 7 16 8 15 9 14 10 13 11 5 12
REMARK SMILES IDX 6 13 7 14 8 15 12 16 10 17 9 18 11 20 20 22 17 24
REMARK H PARENT 9 19 11 21 20 23 17 25
REMARK Flexibility Score: inf
ROOT
ATOM      1  C   UNL     1      65.890  50.567  37.344  1.00  0.00     0.138 A 
ATOM      2  C   UNL     1      65.719  51.263  38.550  1.00  0.00     0.100 A 
ATOM      3  C   UNL     1      66.446  50.879  39.677  1.00  0.00     0.197 A 
ATOM      4  O   UNL     1      66.225  51.479  40.760  1.00  0.00    -0.289 OA
ATOM      5  C   UNL     1      67.372  49.812  39.587  1.00  0.00     0.107 A 
ATOM      6  C   UNL     1      68.197  49.360  40.659  1.00  0.00     0.134 A 
ATOM      7  C   UNL     1      68.991  48.220  40.485  1.00  0.00     0.093 A 
ATOM      8  C   UNL     1      69.038  47.553  39.262  1.00  0.00     0.123 A 
ATOM      9  C   UNL     1      68.275  48.018  38.190  1.00  0.00     0.094 A 
ATOM     10  C   UNL     1      67.446  49.132  38.342  1.00  0.00     0.146 A 
ATOM     11  O   UNL     1      66.725  49.535  37.300  1.00  0.00    -0.456 OA
ENDROOT
BRANCH   1  12
ATOM     12  C   UNL     1      65.143  50.935  36.115  1.00  0.00     0.021 A 
ATOM     13  C   UNL     1      65.850  51.222  34.935  1.00  0.00     0.016 A 
ATOM     14  C   UNL     1      65.171  51.578  33.767  1.00  0.00     0.051 A 
ATOM     15  C   UNL     1      63.774  51.664  33.761  1.00  0.00     0.157 A 
ATOM     16  C   UNL     1      63.737  51.036  36.105  1.00  0.00     0.062 A 
ATOM     17  C   UNL     1      63.056  51.396  34.933  1.00  0.00     0.158 A 
BRANCH  15  18
ATOM     18  O   UNL     1      63.092  52.018  32.598  1.00  0.00    -0.504 OA
ATOM     19  H   UNL     1      63.586  52.238  31.741  1.00  0.00     0.293 HD
ENDBRANCH  15  18
BRANCH  17  20
ATOM     20  O   UNL     1      61.666  51.494  34.926  1.00  0.00    -0.504 OA
ATOM     21  H   UNL     1      61.183  52.221  35.440  1.00  0.00     0.293 HD
ENDBRANCH  17  20
ENDBRANCH   1  12
BRANCH   6  22
ATOM     22  O   UNL     1      68.292  50.003  41.897  1.00  0.00    -0.507 OA
ATOM     23  H   UNL     1      67.506  50.288  42.461  1.00  0.00     0.293 HD
ENDBRANCH   6  22
BRANCH   8  24
ATOM     24  O   UNL     1      69.852  46.431  39.120  1.00  0.00    -0.508 OA
ATOM     25  H   UNL     1      70.177  46.125  38.211  1.00  0.00     0.293 HD
ENDBRANCH   8  24
TORSDOF 5
ENDMDL
MODEL 6
REMARK VINA RESULT:    -4.725      2.289      7.618
REMARK INTER + INTRA:          -5.833
REMARK INTER:                  -5.566
REMARK INTRA:                  -0.266
REMARK UNBOUND:                -0.279
REMARK SMILES O=c1cc(-c2ccc(O)c(O)c2)oc2cc(O)cc(O)c12
REMARK SMILES IDX 4 1 3 2 2 3 1 4 21 5 19 6 18 7 16 8 15 9 14 10 13 11 5 12
REMARK SMILES IDX 6 13 7 14 8 15 12 16 10 17 9 18 11 20 20 22 17 24
REMARK H PARENT 9 19 11 21 20 23 17 25
REMARK Flexibility Score: inf
ROOT
ATOM      1  C   UNL     1      62.969  50.681  33.398  1.00  0.00     0.138 A 
ATOM      2  C   UNL     1      61.822  51.476  33.256  1.00  0.00     0.100 A 
ATOM      3  C   UNL     1      60.884  51.165  32.271  1.00  0.00     0.197 A 
ATOM      4  O   UNL     1      59.898  51.933  32.126  1.00  0.00    -0.289 OA
ATOM      5  C   UNL     1      61.081  50.033  31.444  1.00  0.00     0.107 A 
ATOM      6  C   UNL     1      60.173  49.597  30.435  1.00  0.00     0.134 A 
ATOM      7  C   UNL     1      60.529  48.531  29.600  1.00  0.00     0.093 A 
ATOM      8  C   UNL     1      61.731  47.847  29.777  1.00  0.00     0.123 A 
ATOM      9  C   UNL     1      62.604  48.232  30.796  1.00  0.00     0.094 A 
ATOM     10  C   UNL     1      62.292  49.313  31.623  1.00  0.00     0.146 A 
ATOM     11  O   UNL     1      63.157  49.657  32.573  1.00  0.00    -0.456 OA
ENDROOT
BRANCH   1  12
ATOM     12  C   UNL     1      63.997  50.967  34.429  1.00  0.00     0.021 A 
ATOM     13  C   UNL     1      65.309  51.277  34.031  1.00  0.00     0.016 A 
ATOM     14  C   UNL     1      66.297  51.542  34.982  1.00  0.00     0.051 A 
ATOM     15  C   UNL     1      65.995  51.490  36.348  1.00  0.00     0.157 A 
ATOM     16  C   UNL     1      63.703  50.904  35.806  1.00  0.00     0.062 A 
ATOM     17  C   UNL     1      64.696  51.168  36.760  1.00  0.00     0.158 A 
BRANCH  15  18
ATOM     18  O   UNL     1      66.977  51.755  37.300  1.00  0.00    -0.504 OA
ATOM     19  H   UNL     1      67.271  52.702  37.509  1.00  0.00     0.293 HD
ENDBRANCH  15  18
BRANCH  17  20
ATOM     20  O   UNL     1      64.401  51.106  38.121  1.00  0.00    -0.504 OA
ATOM     21  H   UNL     1      64.782  51.779  38.777  1.00  0.00     0.293 HD
ENDBRANCH  17  20
ENDBRANCH   1  12
BRANCH   6  22
ATOM     22  O   UNL     1      58.907  50.156  30.227  1.00  0.00    -0.507 OA
ATOM     23  H   UNL     1      58.707  50.909  29.589  1.00  0.00     0.293 HD
ENDBRANCH   6  22
BRANCH   8  24
ATOM     24  O   UNL     1      62.046  46.780  28.938  1.00  0.00    -0.508 OA
ATOM     25  H   UNL     1      61.332  46.289  28.414  1.00  0.00     0.293 HD
ENDBRANCH   8  24
TORSDOF 5
ENDMDL
MODEL 7
REMARK VINA RESULT:    -4.694      1.431      7.181
REMARK INTER + INTRA:          -5.797
REMARK INTER:                  -5.522
REMARK INTRA:                  -0.275
REMARK UNBOUND:                -0.279
REMARK SMILES O=c1cc(-c2ccc(O)c(O)c2)oc2cc(O)cc(O)c12
REMARK SMILES IDX 4 1 3 2 2 3 1 4 21 5 19 6 18 7 16 8 15 9 14 10 13 11 5 12
REMARK SMILES IDX 6 13 7 14 8 15 12 16 10 17 9 18 11 20 20 22 17 24
REMARK H PARENT 9 19 11 21 20 23 17 25
REMARK Flexibility Score: inf
ROOT
ATOM      1  C   UNL     1      63.382  51.150  34.680  1.00  0.00     0.138 A 
ATOM      2  C   UNL     1      63.497  50.469  33.460  1.00  0.00     0.100 A 
ATOM      3  C   UNL     1      62.552  50.687  32.457  1.00  0.00     0.197 A 
ATOM      4  O   UNL     1      62.645  50.016  31.397  1.00  0.00    -0.289 OA
ATOM      5  C   UNL     1      61.504  51.615  32.667  1.00  0.00     0.107 A 
ATOM      6  C   UNL     1      60.507  51.947  31.702  1.00  0.00     0.134 A 
ATOM      7  C   UNL     1      59.451  52.792  32.063  1.00  0.00     0.093 A 
ATOM      8  C   UNL     1      59.387  53.364  33.333  1.00  0.00     0.123 A 
ATOM      9  C   UNL     1      60.386  53.088  34.268  1.00  0.00     0.094 A 
ATOM     10  C   UNL     1      61.434  52.222  33.949  1.00  0.00     0.146 A 
ATOM     11  O   UNL     1      62.358  51.974  34.873  1.00  0.00    -0.456 OA
ENDROOT
BRANCH   1  12
ATOM     12  C   UNL     1      64.359  50.956  35.780  1.00  0.00     0.021 A 
ATOM     13  C   UNL     1      65.706  51.304  35.578  1.00  0.00     0.016 A 
ATOM     14  C   UNL     1      66.648  51.124  36.595  1.00  0.00     0.051 A 
ATOM     15  C   UNL     1      66.262  50.583  37.827  1.00  0.00     0.157 A 
ATOM     16  C   UNL     1      63.981  50.399  37.019  1.00  0.00     0.062 A 
ATOM     17  C   UNL     1      64.927  50.217  38.038  1.00  0.00     0.158 A 
BRANCH  15  18
ATOM     18  O   UNL     1      67.198  50.403  38.844  1.00  0.00    -0.504 OA
ATOM     19  H   UNL     1      68.175  50.639  38.713  1.00  0.00     0.293 HD
ENDBRANCH  15  18
BRANCH  17  20
ATOM     20  O   UNL     1      64.549  49.668  39.262  1.00  0.00    -0.504 OA
ATOM     21  H   UNL     1      65.190  49.628  40.046  1.00  0.00     0.293 HD
ENDBRANCH  17  20
ENDBRANCH   1  12
BRANCH   6  22
ATOM     22  O   UNL     1      60.522  51.498  30.377  1.00  0.00    -0.507 OA
ATOM     23  H   UNL     1      59.842  50.873  29.973  1.00  0.00     0.293 HD
ENDBRANCH   6  22
BRANCH   8  24
ATOM     24  O   UNL     1      58.330  54.213  33.654  1.00  0.00    -0.508 OA
ATOM     25  H   UNL     1      57.932  54.845  32.969  1.00  0.00     0.293 HD
ENDBRANCH   8  24
TORSDOF 5
ENDMDL
MODEL 8
REMARK VINA RESULT:    -4.681      1.472      7.354
REMARK INTER + INTRA:          -5.781
REMARK INTER:                  -5.513
REMARK INTRA:                  -0.268
REMARK UNBOUND:                -0.279
REMARK SMILES O=c1cc(-c2ccc(O)c(O)c2)oc2cc(O)cc(O)c12
REMARK SMILES IDX 4 1 3 2 2 3 1 4 21 5 19 6 18 7 16 8 15 9 14 10 13 11 5 12
REMARK SMILES IDX 6 13 7 14 8 15 12 16 10 17 9 18 11 20 20 22 17 24
REMARK H PARENT 9 19 11 21 20 23 17 25
REMARK Flexibility Score: inf
ROOT
ATOM      1  C   UNL     1      63.337  51.070  34.761  1.00  0.00     0.138 A 
ATOM      2  C   UNL     1      62.254  51.953  34.876  1.00  0.00     0.100 A 
ATOM      3  C   UNL     1      61.348  52.075  33.822  1.00  0.00     0.197 A 
ATOM      4  O   UNL     1      60.423  52.920  33.928  1.00  0.00    -0.289 OA
ATOM      5  C   UNL     1      61.511  51.284  32.659  1.00  0.00     0.107 A 
ATOM      6  C   UNL     1      60.628  51.294  31.539  1.00  0.00     0.134 A 
ATOM      7  C   UNL     1      60.955  50.555  30.396  1.00  0.00     0.093 A 
ATOM      8  C   UNL     1      62.099  49.760  30.354  1.00  0.00     0.123 A 
ATOM      9  C   UNL     1      62.943  49.700  31.464  1.00  0.00     0.094 A 
ATOM     10  C   UNL     1      62.662  50.453  32.607  1.00  0.00     0.146 A 
ATOM     11  O   UNL     1      63.499  50.380  33.638  1.00  0.00    -0.456 OA
ENDROOT
BRANCH   1  12
ATOM     12  C   UNL     1      64.329  50.902  35.852  1.00  0.00     0.021 A 
ATOM     13  C   UNL     1      65.686  51.170  35.601  1.00  0.00     0.016 A 
ATOM     14  C   UNL     1      66.641  51.012  36.609  1.00  0.00     0.051 A 
ATOM     15  C   UNL     1      66.258  50.572  37.882  1.00  0.00     0.157 A 
ATOM     16  C   UNL     1      63.954  50.447  37.132  1.00  0.00     0.062 A 
ATOM     17  C   UNL     1      64.913  50.286  38.143  1.00  0.00     0.158 A 
BRANCH  15  18
ATOM     18  O   UNL     1      67.207  50.414  38.890  1.00  0.00    -0.504 OA
ATOM     19  H   UNL     1      66.937  50.325  39.863  1.00  0.00     0.293 HD
ENDBRANCH  15  18
BRANCH  17  20
ATOM     20  O   UNL     1      64.537  49.838  39.408  1.00  0.00    -0.504 OA
ATOM     21  H   UNL     1      65.073  49.133  39.901  1.00  0.00     0.293 HD
ENDBRANCH  17  20
ENDBRANCH   1  12
BRANCH   6  22
ATOM     22  O   UNL     1      59.414  51.988  31.508  1.00  0.00    -0.507 OA
ATOM     23  H   UNL     1      58.745  51.944  30.755  1.00  0.00     0.293 HD
ENDBRANCH   6  22
BRANCH   8  24
ATOM     24  O   UNL     1      62.385  49.025  29.206  1.00  0.00    -0.508 OA
ATOM     25  H   UNL     1      63.307  49.033  28.787  1.00  0.00     0.293 HD
ENDBRANCH   8  24
TORSDOF 5
ENDMDL
MODEL 9
REMARK VINA RESULT:    -4.664      2.001      2.410
REMARK INTER + INTRA:          -5.761
REMARK INTER:                  -5.487
REMARK INTRA:                  -0.274
REMARK UNBOUND:                -0.279
REMARK SMILES O=c1cc(-c2ccc(O)c(O)c2)oc2cc(O)cc(O)c12
REMARK SMILES IDX 4 1 3 2 2 3 1 4 21 5 19 6 18 7 16 8 15 9 14 10 13 11 5 12
REMARK SMILES IDX 6 13 7 14 8 15 12 16 10 17 9 18 11 20 20 22 17 24
REMARK H PARENT 9 19 11 21 20 23 17 25
REMARK Flexibility Score: inf
ROOT
ATOM      1  C   UNL     1      65.011  51.512  36.120  1.00  0.00     0.138 A 
ATOM      2  C   UNL     1      65.361  52.803  36.540  1.00  0.00     0.100 A 
ATOM      3  C   UNL     1      65.694  53.027  37.876  1.00  0.00     0.197 A 
ATOM      4  O   UNL     1      65.943  54.206  38.237  1.00  0.00    -0.289 OA
ATOM      5  C   UNL     1      65.706  51.945  38.789  1.00  0.00     0.107 A 
ATOM      6  C   UNL     1      66.068  52.048  40.165  1.00  0.00     0.134 A 
ATOM      7  C   UNL     1      65.930  50.932  41.000  1.00  0.00     0.093 A 
ATOM      8  C   UNL     1      65.502  49.704  40.497  1.00  0.00     0.123 A 
ATOM      9  C   UNL     1      65.196  49.579  39.141  1.00  0.00     0.094 A 
ATOM     10  C   UNL     1      65.291  50.682  38.290  1.00  0.00     0.146 A 
ATOM     11  O   UNL     1      64.977  50.525  37.007  1.00  0.00    -0.456 OA
ENDROOT
BRANCH   1  12
ATOM     12  C   UNL     1      64.649  51.219  34.710  1.00  0.00     0.021 A 
ATOM     13  C   UNL     1      65.611  51.390  33.699  1.00  0.00     0.016 A 
ATOM     14  C   UNL     1      65.294  51.129  32.364  1.00  0.00     0.051 A 
ATOM     15  C   UNL     1      64.007  50.702  32.015  1.00  0.00     0.157 A 
ATOM     16  C   UNL     1      63.353  50.801  34.349  1.00  0.00     0.062 A 
ATOM     17  C   UNL     1      63.034  50.540  33.009  1.00  0.00     0.158 A 
BRANCH  15  18
ATOM     18  O   UNL     1      63.686  50.438  30.684  1.00  0.00    -0.504 OA
ATOM     19  H   UNL     1      63.915  49.552  30.249  1.00  0.00     0.293 HD
ENDBRANCH  15  18
BRANCH  17  20
ATOM     20  O   UNL     1      61.751  50.126  32.656  1.00  0.00    -0.504 OA
ATOM     21  H   UNL     1      60.948  50.733  32.771  1.00  0.00     0.293 HD
ENDBRANCH  17  20
ENDBRANCH   1  12
BRANCH   6  22
ATOM     22  O   UNL     1      66.588  53.205  40.753  1.00  0.00    -0.507 OA
ATOM     23  H   UNL     1      66.402  54.145  40.439  1.00  0.00     0.293 HD
ENDBRANCH   6  22
BRANCH   8  24
ATOM     24  O   UNL     1      65.392  48.610  41.353  1.00  0.00    -0.508 OA
ATOM     25  H   UNL     1      64.491  48.284  41.682  1.00  0.00     0.293 HD
ENDBRANCH   8  24
TORSDOF 5
ENDMDL
