MODEL 1
REMARK VINA RESULT:    -2.477      0.000      0.000
REMARK INTER + INTRA:          -2.776
REMARK INTER:                  -2.766
REMARK INTRA:                  -0.010
REMARK UNBOUND:                -0.010
REMARK SMILES CCCC(=O)[O-]
REMARK SMILES IDX 3 1 4 2 5 3 6 4 2 5 1 6
REMARK H PARENT
REMARK Flexibility Score: inf
ROOT
ATOM      1  C   UNL     1      53.759  27.216  49.737  1.00  0.00     0.052 C 
ENDROOT
BRANCH   1   2
ATOM      2  C   UNL     1      54.467  25.910  49.556  1.00  0.00     0.041 C 
ATOM      3  O   UNL     1      55.725  25.874  49.502  1.00  0.00    -0.550 OA
ATOM      4  O   UNL     1      53.739  24.736  49.412  1.00  0.00    -0.550 OA
ENDBRANCH   1   2
BRANCH   1   5
ATOM      5  C   UNL     1      54.691  28.297  50.300  1.00  0.00     0.003 C 
ATOM      6  C   UNL     1      53.964  29.616  50.561  1.00  0.00     0.004 C 
ENDBRANCH   1   5
TORSDOF 2
ENDMDL
MODEL 2
REMARK VINA RESULT:    -2.464      1.038      1.255
REMARK INTER + INTRA:          -2.763
REMARK INTER:                  -2.754
REMARK INTRA:                  -0.009
REMARK UNBOUND:                -0.010
REMARK SMILES CCCC(=O)[O-]
REMARK SMILES IDX 3 1 4 2 5 3 6 4 2 5 1 6
REMARK H PARENT
REMARK Flexibility Score: inf
ROOT
ATOM      1  C   UNL     1      55.430  27.671  50.414  1.00  0.00     0.052 C 
ENDROOT
BRANCH   1   2
ATOM      2  C   UNL     1      55.737  26.310  49.873  1.00  0.00     0.041 C 
ATOM      3  O   UNL     1      56.882  25.809  50.030  1.00  0.00    -0.550 OA
ATOM      4  O   UNL     1      54.770  25.607  49.164  1.00  0.00    -0.550 OA
ENDBRANCH   1   2
BRANCH   1   5
ATOM      5  C   UNL     1      54.024  28.138  50.016  1.00  0.00     0.003 C 
ATOM      6  C   UNL     1      53.716  29.550  50.515  1.00  0.00     0.004 C 
ENDBRANCH   1   5
TORSDOF 2
ENDMDL
MODEL 3
REMARK VINA RESULT:    -2.446     15.760     16.377
REMARK INTER + INTRA:          -2.743
REMARK INTER:                  -2.734
REMARK INTRA:                  -0.009
REMARK UNBOUND:                -0.010
REMARK SMILES CCCC(=O)[O-]
REMARK SMILES IDX 3 1 4 2 5 3 6 4 2 5 1 6
REMARK H PARENT
REMARK Flexibility Score: inf
ROOT
ATOM      1  C   UNL     1      62.679  34.500  60.663  1.00  0.00     0.052 C 
ENDROOT
BRANCH   1   2
ATOM      2  C   UNL     1      64.066  34.123  61.082  1.00  0.00     0.041 C 
ATOM      3  O   UNL     1      64.514  32.973  60.831  1.00  0.00    -0.550 OA
ATOM      4  O   UNL     1      64.853  35.030  61.781  1.00  0.00    -0.550 OA
ENDBRANCH   1   2
BRANCH   1   5
ATOM      5  C   UNL     1      62.351  35.955  61.021  1.00  0.00     0.003 C 
ATOM      6  C   UNL     1      60.969  36.380  60.525  1.00  0.00     0.004 C 
ENDBRANCH   1   5
TORSDOF 2
ENDMDL
MODEL 4
REMARK VINA RESULT:    -2.391     13.725     14.429
REMARK INTER + INTRA:          -2.680
REMARK INTER:                  -2.643
REMARK INTRA:                  -0.037
REMARK UNBOUND:                -0.010
REMARK SMILES CCCC(=O)[O-]
REMARK SMILES IDX 3 1 4 2 5 3 6 4 2 5 1 6
REMARK H PARENT
REMARK Flexibility Score: inf
ROOT
ATOM      1  C   UNL     1      61.179  30.966  61.764  1.00  0.00     0.052 C 
ENDROOT
BRANCH   1   2
ATOM      2  C   UNL     1      62.335  30.014  61.735  1.00  0.00     0.041 C 
ATOM      3  O   UNL     1      62.132  28.771  61.746  1.00  0.00    -0.550 OA
ATOM      4  O   UNL     1      63.637  30.499  61.732  1.00  0.00    -0.550 OA
ENDBRANCH   1   2
BRANCH   1   5
ATOM      5  C   UNL     1      61.049  31.743  60.447  1.00  0.00     0.003 C 
ATOM      6  C   UNL     1      61.602  33.164  60.552  1.00  0.00     0.004 C 
ENDBRANCH   1   5
TORSDOF 2
ENDMDL
MODEL 5
REMARK VINA RESULT:    -2.382      4.382      5.085
REMARK INTER + INTRA:          -2.670
REMARK INTER:                  -2.641
REMARK INTRA:                  -0.029
REMARK UNBOUND:                -0.010
REMARK SMILES CCCC(=O)[O-]
REMARK SMILES IDX 3 1 4 2 5 3 6 4 2 5 1 6
REMARK H PARENT
REMARK Flexibility Score: inf
ROOT
ATOM      1  C   UNL     1      59.107  28.871  49.265  1.00  0.00     0.052 C 
ENDROOT
BRANCH   1   2
ATOM      2  C   UNL     1      59.941  27.628  49.306  1.00  0.00     0.041 C 
ATOM      3  O   UNL     1      61.198  27.707  49.263  1.00  0.00    -0.550 OA
ATOM      4  O   UNL     1      59.331  26.381  49.355  1.00  0.00    -0.550 OA
ENDBRANCH   1   2
BRANCH   1   5
ATOM      5  C   UNL     1      58.319  29.071  50.567  1.00  0.00     0.003 C 
ATOM      6  C   UNL     1      56.865  28.615  50.443  1.00  0.00     0.004 C 
ENDBRANCH   1   5
TORSDOF 2
ENDMDL
MODEL 6
REMARK VINA RESULT:    -2.356      2.039      2.398
REMARK INTER + INTRA:          -2.641
REMARK INTER:                  -2.629
REMARK INTRA:                  -0.013
REMARK UNBOUND:                -0.010
REMARK SMILES CCCC(=O)[O-]
REMARK SMILES IDX 3 1 4 2 5 3 6 4 2 5 1 6
REMARK H PARENT
REMARK Flexibility Score: inf
ROOT
ATOM      1  C   UNL     1      56.095  26.884  50.245  1.00  0.00     0.052 C 
ENDROOT
BRANCH   1   2
ATOM      2  C   UNL     1      54.732  26.621  49.682  1.00  0.00     0.041 C 
ATOM      3  O   UNL     1      54.458  25.495  49.189  1.00  0.00    -0.550 OA
ATOM      4  O   UNL     1      53.776  27.629  49.670  1.00  0.00    -0.550 OA
ENDBRANCH   1   2
BRANCH   1   5
ATOM      5  C   UNL     1      56.319  28.377  50.519  1.00  0.00     0.003 C 
ATOM      6  C   UNL     1      57.749  28.818  50.205  1.00  0.00     0.004 C 
ENDBRANCH   1   5
TORSDOF 2
ENDMDL
MODEL 7
REMARK VINA RESULT:    -2.331      2.514      3.480
REMARK INTER + INTRA:          -2.614
REMARK INTER:                  -2.604
REMARK INTRA:                  -0.009
REMARK UNBOUND:                -0.010
REMARK SMILES CCCC(=O)[O-]
REMARK SMILES IDX 3 1 4 2 5 3 6 4 2 5 1 6
REMARK H PARENT
REMARK Flexibility Score: inf
ROOT
ATOM      1  C   UNL     1      54.816  27.607  50.109  1.00  0.00     0.052 C 
ENDROOT
BRANCH   1   2
ATOM      2  C   UNL     1      56.034  28.317  50.613  1.00  0.00     0.041 C 
ATOM      3  O   UNL     1      57.167  28.053  50.130  1.00  0.00    -0.550 OA
ATOM      4  O   UNL     1      55.924  29.246  51.641  1.00  0.00    -0.550 OA
ENDBRANCH   1   2
BRANCH   1   5
ATOM      5  C   UNL     1      55.135  26.173  49.667  1.00  0.00     0.003 C 
ATOM      6  C   UNL     1      53.909  25.447  49.114  1.00  0.00     0.004 C 
ENDBRANCH   1   5
TORSDOF 2
ENDMDL
MODEL 8
REMARK VINA RESULT:    -2.309     13.608     14.434
REMARK INTER + INTRA:          -2.589
REMARK INTER:                  -2.584
REMARK INTRA:                  -0.005
REMARK UNBOUND:                -0.010
REMARK SMILES CCCC(=O)[O-]
REMARK SMILES IDX 3 1 4 2 5 3 6 4 2 5 1 6
REMARK H PARENT
REMARK Flexibility Score: inf
ROOT
ATOM      1  C   UNL     1      62.252  33.157  60.628  1.00  0.00     0.052 C 
ENDROOT
BRANCH   1   2
ATOM      2  C   UNL     1      61.155  32.138  60.653  1.00  0.00     0.041 C 
ATOM      3  O   UNL     1      60.926  31.480  61.703  1.00  0.00    -0.550 OA
ATOM      4  O   UNL     1      60.408  31.889  59.508  1.00  0.00    -0.550 OA
ENDBRANCH   1   2
BRANCH   1   5
ATOM      5  C   UNL     1      61.705  34.578  60.438  1.00  0.00     0.003 C 
ATOM      6  C   UNL     1      62.635  35.643  61.020  1.00  0.00     0.004 C 
ENDBRANCH   1   5
TORSDOF 2
ENDMDL
MODEL 9
REMARK VINA RESULT:    -2.252     14.782     15.718
REMARK INTER + INTRA:          -2.526
REMARK INTER:                  -2.494
REMARK INTRA:                  -0.032
REMARK UNBOUND:                -0.010
REMARK SMILES CCCC(=O)[O-]
REMARK SMILES IDX 3 1 4 2 5 3 6 4 2 5 1 6
REMARK H PARENT
REMARK Flexibility Score: inf
ROOT
ATOM      1  C   UNL     1      62.499  34.297  60.649  1.00  0.00     0.052 C 
ENDROOT
BRANCH   1   2
ATOM      2  C   UNL     1      63.933  34.040  60.992  1.00  0.00     0.041 C 
ATOM      3  O   UNL     1      64.557  34.835  61.744  1.00  0.00    -0.550 OA
ATOM      4  O   UNL     1      64.592  32.940  60.456  1.00  0.00    -0.550 OA
ENDBRANCH   1   2
BRANCH   1   5
ATOM      5  C   UNL     1      61.851  33.086  59.967  1.00  0.00     0.003 C 
ATOM      6  C   UNL     1      61.227  32.117  60.971  1.00  0.00     0.004 C 
ENDBRANCH   1   5
TORSDOF 2
ENDMDL
