MODEL 1
REMARK VINA RESULT:    -3.417      0.000      0.000
REMARK INTER + INTRA:          -5.147
REMARK INTER:                  -4.615
REMARK INTRA:                  -0.532
REMARK UNBOUND:                -0.532
REMARK SMILES [NH3+]CCCC[C@@H]([NH3+])C(=O)[O-]
REMARK SMILES IDX 4 1 3 2 2 3 1 4 5 8 6 9 7 10 8 14 9 15 10 16
REMARK H PARENT 1 5 1 6 1 7 7 11 7 12 7 13
REMARK Flexibility Score: inf
ROOT
ATOM      1  C   UNL     1     136.276 121.215 122.567  1.00  0.00     0.012 C 
ENDROOT
BRANCH   1   2
ATOM      2  C   UNL     1     137.793 121.421 122.676  1.00  0.00     0.061 C 
BRANCH   2   3
ATOM      3  C   UNL     1     138.124 122.632 123.558  1.00  0.00     0.258 C 
BRANCH   3   4
ATOM      4  N   UNL     1     137.792 123.882 122.877  1.00  0.00    -0.358 N 
ATOM      5  H   UNL     1     137.293 123.681 121.980  1.00  0.00     0.344 HD
ATOM      6  H   UNL     1     137.167 124.451 123.491  1.00  0.00     0.344 HD
ATOM      7  H   UNL     1     138.664 124.428 122.683  1.00  0.00     0.344 HD
ENDBRANCH   3   4
ENDBRANCH   2   3
ENDBRANCH   1   2
BRANCH   1   8
ATOM      8  C   UNL     1     135.791 120.957 121.126  1.00  0.00     0.072 C 
BRANCH   8   9
ATOM      9  C   UNL     1     135.430 122.209 120.282  1.00  0.00     0.227 C 
BRANCH   9  10
ATOM     10  N   UNL     1     134.924 123.309 121.114  1.00  0.00    -0.350 N 
ATOM     11  H   UNL     1     134.178 123.826 120.594  1.00  0.00     0.345 HD
ATOM     12  H   UNL     1     134.503 122.928 121.992  1.00  0.00     0.345 HD
ATOM     13  H   UNL     1     135.688 123.980 121.359  1.00  0.00     0.345 HD
ENDBRANCH   9  10
BRANCH   9  14
ATOM     14  C   UNL     1     136.569 122.654 119.397  1.00  0.00     0.099 C 
ATOM     15  O   UNL     1     136.656 122.218 118.218  1.00  0.00    -0.544 OA
ATOM     16  O   UNL     1     137.513 123.569 119.852  1.00  0.00    -0.544 OA
ENDBRANCH   9  14
ENDBRANCH   8   9
ENDBRANCH   1   8
TORSDOF 7
ENDMDL
MODEL 2
REMARK VINA RESULT:    -3.299     21.484     22.015
REMARK INTER + INTRA:          -4.989
REMARK INTER:                  -4.884
REMARK INTRA:                  -0.105
REMARK UNBOUND:                -0.532
REMARK SMILES [NH3+]CCCC[C@@H]([NH3+])C(=O)[O-]
REMARK SMILES IDX 4 1 3 2 2 3 1 4 5 8 6 9 7 10 8 14 9 15 10 16
REMARK H PARENT 1 5 1 6 1 7 7 11 7 12 7 13
REMARK Flexibility Score: inf
ROOT
ATOM      1  C   UNL     1     120.261 131.581 134.400  1.00  0.00     0.012 C 
ENDROOT
BRANCH   1   2
ATOM      2  C   UNL     1     120.242 132.022 135.869  1.00  0.00     0.061 C 
BRANCH   2   3
ATOM      3  C   UNL     1     119.375 133.274 136.059  1.00  0.00     0.258 C 
BRANCH   3   4
ATOM      4  N   UNL     1     118.636 133.589 134.838  1.00  0.00    -0.358 N 
ATOM      5  H   UNL     1     118.127 132.741 134.497  1.00  0.00     0.344 HD
ATOM      6  H   UNL     1     117.940 134.341 135.043  1.00  0.00     0.344 HD
ATOM      7  H   UNL     1     119.294 133.929 134.098  1.00  0.00     0.344 HD
ENDBRANCH   3   4
ENDBRANCH   2   3
ENDBRANCH   1   2
BRANCH   1   8
ATOM      8  C   UNL     1     121.682 131.445 133.815  1.00  0.00     0.072 C 
BRANCH   8   9
ATOM      9  C   UNL     1     121.842 130.498 132.595  1.00  0.00     0.227 C 
BRANCH   9  10
ATOM     10  N   UNL     1     122.731 131.061 131.571  1.00  0.00    -0.350 N 
ATOM     11  H   UNL     1     122.912 132.070 131.781  1.00  0.00     0.345 HD
ATOM     12  H   UNL     1     123.648 130.559 131.579  1.00  0.00     0.345 HD
ATOM     13  H   UNL     1     122.306 130.990 130.618  1.00  0.00     0.345 HD
ENDBRANCH   9  10
BRANCH   9  14
ATOM     14  C   UNL     1     122.264 129.106 132.999  1.00  0.00     0.099 C 
ATOM     15  O   UNL     1     123.097 128.474 132.298  1.00  0.00    -0.544 OA
ATOM     16  O   UNL     1     121.769 128.517 134.158  1.00  0.00    -0.544 OA
ENDBRANCH   9  14
ENDBRANCH   8   9
ENDBRANCH   1   8
TORSDOF 7
ENDMDL
MODEL 3
REMARK VINA RESULT:    -3.277     14.984     16.215
REMARK INTER + INTRA:          -4.959
REMARK INTER:                  -4.843
REMARK INTRA:                  -0.116
REMARK UNBOUND:                -0.532
REMARK SMILES [NH3+]CCCC[C@@H]([NH3+])C(=O)[O-]
REMARK SMILES IDX 4 1 3 2 2 3 1 4 5 8 6 9 7 10 8 14 9 15 10 16
REMARK H PARENT 1 5 1 6 1 7 7 11 7 12 7 13
REMARK Flexibility Score: inf
ROOT
ATOM      1  C   UNL     1     134.890 132.269 134.328  1.00  0.00     0.012 C 
ENDROOT
BRANCH   1   2
ATOM      2  C   UNL     1     135.248 132.094 135.810  1.00  0.00     0.061 C 
BRANCH   2   3
ATOM      3  C   UNL     1     136.728 132.412 136.061  1.00  0.00     0.258 C 
BRANCH   3   4
ATOM      4  N   UNL     1     137.395 132.812 134.823  1.00  0.00    -0.358 N 
ATOM      5  H   UNL     1     137.527 131.981 134.201  1.00  0.00     0.344 HD
ATOM      6  H   UNL     1     136.802 133.514 134.327  1.00  0.00     0.344 HD
ATOM      7  H   UNL     1     138.323 133.245 135.039  1.00  0.00     0.344 HD
ENDBRANCH   3   4
ENDBRANCH   2   3
ENDBRANCH   1   2
BRANCH   1   8
ATOM      8  C   UNL     1     133.982 131.149 133.777  1.00  0.00     0.072 C 
BRANCH   8   9
ATOM      9  C   UNL     1     133.129 131.500 132.529  1.00  0.00     0.227 C 
BRANCH   9  10
ATOM     10  N   UNL     1     133.213 130.463 131.492  1.00  0.00    -0.350 N 
ATOM     11  H   UNL     1     132.484 130.637 130.763  1.00  0.00     0.345 HD
ATOM     12  H   UNL     1     134.150 130.497 131.029  1.00  0.00     0.345 HD
ATOM     13  H   UNL     1     133.061 129.510 131.896  1.00  0.00     0.345 HD
ENDBRANCH   9  10
BRANCH   9  14
ATOM     14  C   UNL     1     131.697 131.822 132.883  1.00  0.00     0.099 C 
ATOM     15  O   UNL     1     131.447 132.630 133.817  1.00  0.00    -0.544 OA
ATOM     16  O   UNL     1     130.641 131.264 132.170  1.00  0.00    -0.544 OA
ENDBRANCH   9  14
ENDBRANCH   8   9
ENDBRANCH   1   8
TORSDOF 7
ENDMDL
MODEL 4
REMARK VINA RESULT:    -3.267     22.612     23.183
REMARK INTER + INTRA:          -4.945
REMARK INTER:                  -4.841
REMARK INTRA:                  -0.104
REMARK UNBOUND:                -0.532
REMARK SMILES [NH3+]CCCC[C@@H]([NH3+])C(=O)[O-]
REMARK SMILES IDX 4 1 3 2 2 3 1 4 5 8 6 9 7 10 8 14 9 15 10 16
REMARK H PARENT 1 5 1 6 1 7 7 11 7 12 7 13
REMARK Flexibility Score: inf
ROOT
ATOM      1  C   UNL     1     121.384 131.394 133.599  1.00  0.00     0.012 C 
ENDROOT
BRANCH   1   2
ATOM      2  C   UNL     1     121.688 129.943 133.203  1.00  0.00     0.061 C 
BRANCH   2   3
ATOM      3  C   UNL     1     123.022 129.844 132.452  1.00  0.00     0.258 C 
BRANCH   3   4
ATOM      4  N   UNL     1     123.089 130.825 131.370  1.00  0.00    -0.358 N 
ATOM      5  H   UNL     1     122.326 131.532 131.479  1.00  0.00     0.344 HD
ATOM      6  H   UNL     1     124.011 131.315 131.408  1.00  0.00     0.344 HD
ATOM      7  H   UNL     1     122.998 130.345 130.444  1.00  0.00     0.344 HD
ENDBRANCH   3   4
ENDBRANCH   2   3
ENDBRANCH   1   2
BRANCH   1   8
ATOM      8  C   UNL     1     119.998 131.577 134.252  1.00  0.00     0.072 C 
BRANCH   8   9
ATOM      9  C   UNL     1     119.834 132.795 135.201  1.00  0.00     0.227 C 
BRANCH   9  10
ATOM     10  N   UNL     1     118.642 133.590 134.880  1.00  0.00    -0.350 N 
ATOM     11  H   UNL     1     117.869 133.343 135.541  1.00  0.00     0.345 HD
ATOM     12  H   UNL     1     118.851 134.608 134.990  1.00  0.00     0.345 HD
ATOM     13  H   UNL     1     118.316 133.407 133.903  1.00  0.00     0.345 HD
ENDBRANCH   9  10
BRANCH   9  14
ATOM     14  C   UNL     1     119.866 132.397 136.657  1.00  0.00     0.099 C 
ATOM     15  O   UNL     1     120.951 132.040 137.187  1.00  0.00    -0.544 OA
ATOM     16  O   UNL     1     118.716 132.447 137.438  1.00  0.00    -0.544 OA
ENDBRANCH   9  14
ENDBRANCH   8   9
ENDBRANCH   1   8
TORSDOF 7
ENDMDL
MODEL 5
REMARK VINA RESULT:    -3.249     15.922     17.343
REMARK INTER + INTRA:          -4.921
REMARK INTER:                  -4.835
REMARK INTRA:                  -0.086
REMARK UNBOUND:                -0.532
REMARK SMILES [NH3+]CCCC[C@@H]([NH3+])C(=O)[O-]
REMARK SMILES IDX 4 1 3 2 2 3 1 4 5 8 6 9 7 10 8 14 9 15 10 16
REMARK H PARENT 1 5 1 6 1 7 7 11 7 12 7 13
REMARK Flexibility Score: inf
ROOT
ATOM      1  C   UNL     1     133.680 131.838 134.120  1.00  0.00     0.012 C 
ENDROOT
BRANCH   1   2
ATOM      2  C   UNL     1     133.253 131.815 132.647  1.00  0.00     0.061 C 
BRANCH   2   3
ATOM      3  C   UNL     1     131.880 131.149 132.480  1.00  0.00     0.258 C 
BRANCH   3   4
ATOM      4  N   UNL     1     131.873 130.249 131.328  1.00  0.00    -0.358 N 
ATOM      5  H   UNL     1     132.794 130.287 130.835  1.00  0.00     0.344 HD
ATOM      6  H   UNL     1     131.707 129.271 131.658  1.00  0.00     0.344 HD
ATOM      7  H   UNL     1     131.106 130.517 130.668  1.00  0.00     0.344 HD
ENDBRANCH   3   4
ENDBRANCH   2   3
ENDBRANCH   1   2
BRANCH   1   8
ATOM      8  C   UNL     1     134.846 132.807 134.409  1.00  0.00     0.072 C 
BRANCH   8   9
ATOM      9  C   UNL     1     136.032 132.238 135.232  1.00  0.00     0.227 C 
BRANCH   9  10
ATOM     10  N   UNL     1     137.322 132.790 134.798  1.00  0.00    -0.350 N 
ATOM     11  H   UNL     1     137.328 132.887 133.756  1.00  0.00     0.345 HD
ATOM     12  H   UNL     1     137.462 133.739 135.214  1.00  0.00     0.345 HD
ATOM     13  H   UNL     1     138.115 132.168 135.080  1.00  0.00     0.345 HD
ENDBRANCH   9  10
BRANCH   9  14
ATOM     14  C   UNL     1     135.828 132.396 136.720  1.00  0.00     0.099 C 
ATOM     15  O   UNL     1     136.480 133.267 137.354  1.00  0.00    -0.544 OA
ATOM     16  O   UNL     1     134.902 131.613 137.402  1.00  0.00    -0.544 OA
ENDBRANCH   9  14
ENDBRANCH   8   9
ENDBRANCH   1   8
TORSDOF 7
ENDMDL
MODEL 6
REMARK VINA RESULT:    -3.198     21.958     22.478
REMARK INTER + INTRA:          -4.852
REMARK INTER:                  -4.339
REMARK INTRA:                  -0.513
REMARK UNBOUND:                -0.532
REMARK SMILES [NH3+]CCCC[C@@H]([NH3+])C(=O)[O-]
REMARK SMILES IDX 4 1 3 2 2 3 1 4 5 8 6 9 7 10 8 14 9 15 10 16
REMARK H PARENT 1 5 1 6 1 7 7 11 7 12 7 13
REMARK Flexibility Score: inf
ROOT
ATOM      1  C   UNL     1     119.990 132.185 134.409  1.00  0.00     0.012 C 
ENDROOT
BRANCH   1   2
ATOM      2  C   UNL     1     119.812 132.815 135.797  1.00  0.00     0.061 C 
BRANCH   2   3
ATOM      3  C   UNL     1     120.133 131.806 136.907  1.00  0.00     0.258 C 
BRANCH   3   4
ATOM      4  N   UNL     1     121.396 132.136 137.565  1.00  0.00    -0.358 N 
ATOM      5  H   UNL     1     121.489 131.599 138.458  1.00  0.00     0.344 HD
ATOM      6  H   UNL     1     122.188 131.881 136.933  1.00  0.00     0.344 HD
ATOM      7  H   UNL     1     121.440 133.163 137.764  1.00  0.00     0.344 HD
ENDBRANCH   3   4
ENDBRANCH   2   3
ENDBRANCH   1   2
BRANCH   1   8
ATOM      8  C   UNL     1     120.496 130.728 134.455  1.00  0.00     0.072 C 
BRANCH   8   9
ATOM      9  C   UNL     1     121.799 130.422 133.669  1.00  0.00     0.227 C 
BRANCH   9  10
ATOM     10  N   UNL     1     121.586 130.446 132.215  1.00  0.00    -0.350 N 
ATOM     11  H   UNL     1     121.316 131.412 131.918  1.00  0.00     0.345 HD
ATOM     12  H   UNL     1     122.471 130.190 131.721  1.00  0.00     0.345 HD
ATOM     13  H   UNL     1     120.827 129.785 131.932  1.00  0.00     0.345 HD
ENDBRANCH   9  10
BRANCH   9  14
ATOM     14  C   UNL     1     122.943 131.316 134.082  1.00  0.00     0.099 C 
ATOM     15  O   UNL     1     123.282 131.383 135.293  1.00  0.00    -0.544 OA
ATOM     16  O   UNL     1     123.656 132.047 133.138  1.00  0.00    -0.544 OA
ENDBRANCH   9  14
ENDBRANCH   8   9
ENDBRANCH   1   8
TORSDOF 7
ENDMDL
MODEL 7
REMARK VINA RESULT:    -3.193     17.005     18.073
REMARK INTER + INTRA:          -4.845
REMARK INTER:                  -4.350
REMARK INTRA:                  -0.496
REMARK UNBOUND:                -0.532
REMARK SMILES [NH3+]CCCC[C@@H]([NH3+])C(=O)[O-]
REMARK SMILES IDX 4 1 3 2 2 3 1 4 5 8 6 9 7 10 8 14 9 15 10 16
REMARK H PARENT 1 5 1 6 1 7 7 11 7 12 7 13
REMARK Flexibility Score: inf
ROOT
ATOM      1  C   UNL     1     133.757 131.948 133.792  1.00  0.00     0.012 C 
ENDROOT
BRANCH   1   2
ATOM      2  C   UNL     1     132.369 132.489 134.164  1.00  0.00     0.061 C 
BRANCH   2   3
ATOM      3  C   UNL     1     132.411 133.248 135.497  1.00  0.00     0.258 C 
BRANCH   3   4
ATOM      4  N   UNL     1     132.114 132.356 136.616  1.00  0.00    -0.358 N 
ATOM      5  H   UNL     1     131.196 132.612 137.047  1.00  0.00     0.344 HD
ATOM      6  H   UNL     1     132.060 131.373 136.266  1.00  0.00     0.344 HD
ATOM      7  H   UNL     1     132.873 132.417 137.335  1.00  0.00     0.344 HD
ENDBRANCH   3   4
ENDBRANCH   2   3
ENDBRANCH   1   2
BRANCH   1   8
ATOM      8  C   UNL     1     134.917 132.833 134.293  1.00  0.00     0.072 C 
BRANCH   8   9
ATOM      9  C   UNL     1     136.022 132.124 135.120  1.00  0.00     0.227 C 
BRANCH   9  10
ATOM     10  N   UNL     1     137.370 132.559 134.730  1.00  0.00    -0.350 N 
ATOM     11  H   UNL     1     137.364 132.858 133.727  1.00  0.00     0.345 HD
ATOM     12  H   UNL     1     137.664 133.376 135.311  1.00  0.00     0.345 HD
ATOM     13  H   UNL     1     138.065 131.785 134.842  1.00  0.00     0.345 HD
ENDBRANCH   9  10
BRANCH   9  14
ATOM     14  C   UNL     1     135.801 132.256 136.608  1.00  0.00     0.099 C 
ATOM     15  O   UNL     1     136.400 133.156 137.255  1.00  0.00    -0.544 OA
ATOM     16  O   UNL     1     134.917 131.416 137.277  1.00  0.00    -0.544 OA
ENDBRANCH   9  14
ENDBRANCH   8   9
ENDBRANCH   1   8
TORSDOF 7
ENDMDL
MODEL 8
REMARK VINA RESULT:    -3.176     22.761     23.248
REMARK INTER + INTRA:          -4.822
REMARK INTER:                  -4.290
REMARK INTRA:                  -0.533
REMARK UNBOUND:                -0.532
REMARK SMILES [NH3+]CCCC[C@@H]([NH3+])C(=O)[O-]
REMARK SMILES IDX 4 1 3 2 2 3 1 4 5 8 6 9 7 10 8 14 9 15 10 16
REMARK H PARENT 1 5 1 6 1 7 7 11 7 12 7 13
REMARK Flexibility Score: inf
ROOT
ATOM      1  C   UNL     1     121.287 130.665 133.387  1.00  0.00     0.012 C 
ENDROOT
BRANCH   1   2
ATOM      2  C   UNL     1     122.458 131.651 133.491  1.00  0.00     0.061 C 
BRANCH   2   3
ATOM      3  C   UNL     1     123.491 131.175 134.521  1.00  0.00     0.258 C 
BRANCH   3   4
ATOM      4  N   UNL     1     123.667 132.166 135.582  1.00  0.00    -0.358 N 
ATOM      5  H   UNL     1     124.375 132.880 135.293  1.00  0.00     0.344 HD
ATOM      6  H   UNL     1     122.756 132.646 135.757  1.00  0.00     0.344 HD
ATOM      7  H   UNL     1     123.977 131.696 136.464  1.00  0.00     0.344 HD
ENDBRANCH   3   4
ENDBRANCH   2   3
ENDBRANCH   1   2
BRANCH   1   8
ATOM      8  C   UNL     1     120.109 131.007 134.323  1.00  0.00     0.072 C 
BRANCH   8   9
ATOM      9  C   UNL     1     120.037 132.469 134.840  1.00  0.00     0.227 C 
BRANCH   9  10
ATOM     10  N   UNL     1     118.928 133.216 134.232  1.00  0.00    -0.350 N 
ATOM     11  H   UNL     1     118.621 132.735 133.355  1.00  0.00     0.345 HD
ATOM     12  H   UNL     1     118.115 133.245 134.888  1.00  0.00     0.345 HD
ATOM     13  H   UNL     1     119.216 134.193 133.993  1.00  0.00     0.345 HD
ENDBRANCH   9  10
BRANCH   9  14
ATOM     14  C   UNL     1     120.002 132.544 136.348  1.00  0.00     0.099 C 
ATOM     15  O   UNL     1     118.953 132.923 136.934  1.00  0.00    -0.544 OA
ATOM     16  O   UNL     1     121.105 132.170 137.108  1.00  0.00    -0.544 OA
ENDBRANCH   9  14
ENDBRANCH   8   9
ENDBRANCH   1   8
TORSDOF 7
ENDMDL
MODEL 9
REMARK VINA RESULT:    -3.175     15.409     16.696
REMARK INTER + INTRA:          -4.821
REMARK INTER:                  -4.287
REMARK INTRA:                  -0.534
REMARK UNBOUND:                -0.532
REMARK SMILES [NH3+]CCCC[C@@H]([NH3+])C(=O)[O-]
REMARK SMILES IDX 4 1 3 2 2 3 1 4 5 8 6 9 7 10 8 14 9 15 10 16
REMARK H PARENT 1 5 1 6 1 7 7 11 7 12 7 13
REMARK Flexibility Score: inf
ROOT
ATOM      1  C   UNL     1     135.377 132.500 134.391  1.00  0.00     0.012 C 
ENDROOT
BRANCH   1   2
ATOM      2  C   UNL     1     135.998 132.155 135.751  1.00  0.00     0.061 C 
BRANCH   2   3
ATOM      3  C   UNL     1     135.027 132.470 136.897  1.00  0.00     0.258 C 
BRANCH   3   4
ATOM      4  N   UNL     1     134.675 131.256 137.633  1.00  0.00    -0.358 N 
ATOM      5  H   UNL     1     134.194 130.578 136.999  1.00  0.00     0.344 HD
ATOM      6  H   UNL     1     135.548 130.814 138.001  1.00  0.00     0.344 HD
ATOM      7  H   UNL     1     134.050 131.493 138.438  1.00  0.00     0.344 HD
ENDBRANCH   3   4
ENDBRANCH   2   3
ENDBRANCH   1   2
BRANCH   1   8
ATOM      8  C   UNL     1     133.846 132.689 134.443  1.00  0.00     0.072 C 
BRANCH   8   9
ATOM      9  C   UNL     1     132.994 131.657 133.657  1.00  0.00     0.227 C 
BRANCH   9  10
ATOM     10  N   UNL     1     133.141 131.811 132.204  1.00  0.00    -0.350 N 
ATOM     11  H   UNL     1     133.936 131.219 131.868  1.00  0.00     0.345 HD
ATOM     12  H   UNL     1     132.271 131.489 131.721  1.00  0.00     0.345 HD
ATOM     13  H   UNL     1     133.332 132.806 131.945  1.00  0.00     0.345 HD
ENDBRANCH   9  10
BRANCH   9  14
ATOM     14  C   UNL     1     133.258 130.238 134.099  1.00  0.00     0.099 C 
ATOM     15  O   UNL     1     133.598 129.369 133.253  1.00  0.00    -0.544 OA
ATOM     16  O   UNL     1     133.163 129.877 135.439  1.00  0.00    -0.544 OA
ENDBRANCH   9  14
ENDBRANCH   8   9
ENDBRANCH   1   8
TORSDOF 7
ENDMDL
