MODEL 1
REMARK VINA RESULT:    -3.250      0.000      0.000
REMARK INTER + INTRA:          -4.647
REMARK INTER:                  -4.390
REMARK INTRA:                  -0.257
REMARK UNBOUND:                -0.257
REMARK SMILES CCCCCCCC(=O)[O-]
REMARK SMILES IDX 5 1 6 2 7 3 8 4 9 5 10 6 4 7 3 8 2 9 1 10
REMARK H PARENT
REMARK Flexibility Score: inf
ROOT
ATOM      1  C   UNL     1     113.075  54.813 228.892  1.00  0.00     0.000 C 
ENDROOT
BRANCH   1   2
ATOM      2  C   UNL     1     112.966  53.455 228.187  1.00  0.00     0.006 C 
BRANCH   2   3
ATOM      3  C   UNL     1     113.551  53.522 226.772  1.00  0.00     0.053 C 
BRANCH   3   4
ATOM      4  C   UNL     1     112.457  53.521 225.753  1.00  0.00     0.041 C 
ATOM      5  O   UNL     1     112.674  53.953 224.590  1.00  0.00    -0.550 OA
ATOM      6  O   UNL     1     111.184  53.088 226.100  1.00  0.00    -0.550 OA
ENDBRANCH   3   4
ENDBRANCH   2   3
ENDBRANCH   1   2
BRANCH   1   7
ATOM      7  C   UNL     1     113.270  54.633 230.404  1.00  0.00     0.000 C 
BRANCH   7   8
ATOM      8  C   UNL     1     112.385  53.521 230.996  1.00  0.00    -0.000 C 
BRANCH   8   9
ATOM      9  C   UNL     1     112.912  52.903 232.303  1.00  0.00    -0.003 C 
ATOM     10  C   UNL     1     114.125  53.642 232.868  1.00  0.00     0.004 C 
ENDBRANCH   8   9
ENDBRANCH   7   8
ENDBRANCH   1   7
TORSDOF 6
ENDMDL
MODEL 2
REMARK VINA RESULT:    -3.216      3.728      5.840
REMARK INTER + INTRA:          -4.601
REMARK INTER:                  -4.428
REMARK INTRA:                  -0.173
REMARK UNBOUND:                -0.257
REMARK SMILES CCCCCCCC(=O)[O-]
REMARK SMILES IDX 5 1 6 2 7 3 8 4 9 5 10 6 4 7 3 8 2 9 1 10
REMARK H PARENT
REMARK Flexibility Score: inf
ROOT
ATOM      1  C   UNL     1     112.913  53.886 231.587  1.00  0.00     0.000 C 
ENDROOT
BRANCH   1   2
ATOM      2  C   UNL     1     111.996  52.822 232.206  1.00  0.00     0.006 C 
BRANCH   2   3
ATOM      3  C   UNL     1     110.598  53.388 232.470  1.00  0.00     0.053 C 
BRANCH   3   4
ATOM      4  C   UNL     1     109.710  52.338 233.058  1.00  0.00     0.041 C 
ATOM      5  O   UNL     1     109.708  51.172 232.583  1.00  0.00    -0.550 OA
ATOM      6  O   UNL     1     108.847  52.660 234.098  1.00  0.00    -0.550 OA
ENDBRANCH   3   4
ENDBRANCH   2   3
ENDBRANCH   1   2
BRANCH   1   7
ATOM      7  C   UNL     1     112.476  54.220 230.153  1.00  0.00     0.000 C 
BRANCH   7   8
ATOM      8  C   UNL     1     113.575  54.927 229.340  1.00  0.00    -0.000 C 
BRANCH   8   9
ATOM      9  C   UNL     1     113.459  54.759 227.814  1.00  0.00    -0.003 C 
ATOM     10  C   UNL     1     113.191  53.315 227.390  1.00  0.00     0.004 C 
ENDBRANCH   8   9
ENDBRANCH   7   8
ENDBRANCH   1   7
TORSDOF 6
ENDMDL
MODEL 3
REMARK VINA RESULT:    -3.116      3.664      5.843
REMARK INTER + INTRA:          -4.466
REMARK INTER:                  -4.233
REMARK INTRA:                  -0.233
REMARK UNBOUND:                -0.257
REMARK SMILES CCCCCCCC(=O)[O-]
REMARK SMILES IDX 5 1 6 2 7 3 8 4 9 5 10 6 4 7 3 8 2 9 1 10
REMARK H PARENT
REMARK Flexibility Score: inf
ROOT
ATOM      1  C   UNL     1     112.307  54.724 230.007  1.00  0.00     0.000 C 
ENDROOT
BRANCH   1   2
ATOM      2  C   UNL     1     112.702  53.401 230.676  1.00  0.00     0.006 C 
BRANCH   2   3
ATOM      3  C   UNL     1     111.942  53.202 231.991  1.00  0.00     0.053 C 
BRANCH   3   4
ATOM      4  C   UNL     1     112.897  53.089 233.136  1.00  0.00     0.041 C 
ATOM      5  O   UNL     1     114.059  52.640 232.950  1.00  0.00    -0.550 OA
ATOM      6  O   UNL     1     112.488  53.432 234.418  1.00  0.00    -0.550 OA
ENDBRANCH   3   4
ENDBRANCH   2   3
ENDBRANCH   1   2
BRANCH   1   7
ATOM      7  C   UNL     1     112.910  54.830 228.599  1.00  0.00     0.000 C 
BRANCH   7   8
ATOM      8  C   UNL     1     113.079  53.462 227.913  1.00  0.00    -0.000 C 
BRANCH   8   9
ATOM      9  C   UNL     1     112.910  53.482 226.384  1.00  0.00    -0.003 C 
ATOM     10  C   UNL     1     111.448  53.415 225.942  1.00  0.00     0.004 C 
ENDBRANCH   8   9
ENDBRANCH   7   8
ENDBRANCH   1   7
TORSDOF 6
ENDMDL
MODEL 4
REMARK VINA RESULT:    -3.025      4.586      6.105
REMARK INTER + INTRA:          -4.344
REMARK INTER:                  -3.918
REMARK INTRA:                  -0.425
REMARK UNBOUND:                -0.257
REMARK SMILES CCCCCCCC(=O)[O-]
REMARK SMILES IDX 5 1 6 2 7 3 8 4 9 5 10 6 4 7 3 8 2 9 1 10
REMARK H PARENT
REMARK Flexibility Score: inf
ROOT
ATOM      1  C   UNL     1     110.477  53.331 234.350  1.00  0.00     0.000 C 
ENDROOT
BRANCH   1   2
ATOM      2  C   UNL     1     109.501  52.920 233.240  1.00  0.00     0.006 C 
BRANCH   2   3
ATOM      3  C   UNL     1     110.006  51.681 232.494  1.00  0.00     0.053 C 
BRANCH   3   4
ATOM      4  C   UNL     1     108.930  50.647 232.407  1.00  0.00     0.041 C 
ATOM      5  O   UNL     1     107.719  50.984 232.486  1.00  0.00    -0.550 OA
ATOM      6  O   UNL     1     109.264  49.304 232.289  1.00  0.00    -0.550 OA
ENDBRANCH   3   4
ENDBRANCH   2   3
ENDBRANCH   1   2
BRANCH   1   7
ATOM      7  C   UNL     1     111.917  53.389 233.822  1.00  0.00     0.000 C 
BRANCH   7   8
ATOM      8  C   UNL     1     112.230  54.697 233.072  1.00  0.00    -0.000 C 
BRANCH   8   9
ATOM      9  C   UNL     1     113.179  54.541 231.871  1.00  0.00    -0.003 C 
ATOM     10  C   UNL     1     112.614  53.639 230.774  1.00  0.00     0.004 C 
ENDBRANCH   8   9
ENDBRANCH   7   8
ENDBRANCH   1   7
TORSDOF 6
ENDMDL
MODEL 5
REMARK VINA RESULT:    -3.020     15.659     16.578
REMARK INTER + INTRA:          -4.336
REMARK INTER:                  -3.984
REMARK INTRA:                  -0.352
REMARK UNBOUND:                -0.257
REMARK SMILES CCCCCCCC(=O)[O-]
REMARK SMILES IDX 5 1 6 2 7 3 8 4 9 5 10 6 4 7 3 8 2 9 1 10
REMARK H PARENT
REMARK Flexibility Score: inf
ROOT
ATOM      1  C   UNL     1     111.683  64.678 218.723  1.00  0.00     0.000 C 
ENDROOT
BRANCH   1   2
ATOM      2  C   UNL     1     110.877  65.213 217.532  1.00  0.00     0.006 C 
BRANCH   2   3
ATOM      3  C   UNL     1     111.622  64.979 216.214  1.00  0.00     0.053 C 
BRANCH   3   4
ATOM      4  C   UNL     1     112.475  66.160 215.878  1.00  0.00     0.041 C 
ATOM      5  O   UNL     1     112.178  67.302 216.317  1.00  0.00    -0.550 OA
ATOM      6  O   UNL     1     113.571  66.010 215.038  1.00  0.00    -0.550 OA
ENDBRANCH   3   4
ENDBRANCH   2   3
ENDBRANCH   1   2
BRANCH   1   7
ATOM      7  C   UNL     1     112.160  65.827 219.623  1.00  0.00     0.000 C 
BRANCH   7   8
ATOM      8  C   UNL     1     111.123  66.225 220.689  1.00  0.00    -0.000 C 
BRANCH   8   9
ATOM      9  C   UNL     1     110.407  67.562 220.426  1.00  0.00    -0.003 C 
ATOM     10  C   UNL     1     108.889  67.466 220.572  1.00  0.00     0.004 C 
ENDBRANCH   8   9
ENDBRANCH   7   8
ENDBRANCH   1   7
TORSDOF 6
ENDMDL
MODEL 6
REMARK VINA RESULT:    -3.015      4.355      5.528
REMARK INTER + INTRA:          -4.330
REMARK INTER:                  -3.909
REMARK INTRA:                  -0.421
REMARK UNBOUND:                -0.257
REMARK SMILES CCCCCCCC(=O)[O-]
REMARK SMILES IDX 5 1 6 2 7 3 8 4 9 5 10 6 4 7 3 8 2 9 1 10
REMARK H PARENT
REMARK Flexibility Score: inf
ROOT
ATOM      1  C   UNL     1     112.553  53.504 230.952  1.00  0.00     0.000 C 
ENDROOT
BRANCH   1   2
ATOM      2  C   UNL     1     111.959  52.945 232.251  1.00  0.00     0.006 C 
BRANCH   2   3
ATOM      3  C   UNL     1     110.522  53.436 232.455  1.00  0.00     0.053 C 
BRANCH   3   4
ATOM      4  C   UNL     1     109.682  52.359 233.061  1.00  0.00     0.041 C 
ATOM      5  O   UNL     1     109.682  51.201 232.567  1.00  0.00    -0.550 OA
ATOM      6  O   UNL     1     108.858  52.645 234.143  1.00  0.00    -0.550 OA
ENDBRANCH   3   4
ENDBRANCH   2   3
ENDBRANCH   1   2
BRANCH   1   7
ATOM      7  C   UNL     1     113.679  54.505 231.248  1.00  0.00     0.000 C 
BRANCH   7   8
ATOM      8  C   UNL     1     114.124  54.489 232.722  1.00  0.00    -0.000 C 
BRANCH   8   9
ATOM      9  C   UNL     1     113.872  55.800 233.487  1.00  0.00    -0.003 C 
ATOM     10  C   UNL     1     112.974  55.616 234.710  1.00  0.00     0.004 C 
ENDBRANCH   8   9
ENDBRANCH   7   8
ENDBRANCH   1   7
TORSDOF 6
ENDMDL
MODEL 7
REMARK VINA RESULT:    -3.006      4.121      6.187
REMARK INTER + INTRA:          -4.318
REMARK INTER:                  -4.121
REMARK INTRA:                  -0.197
REMARK UNBOUND:                -0.257
REMARK SMILES CCCCCCCC(=O)[O-]
REMARK SMILES IDX 5 1 6 2 7 3 8 4 9 5 10 6 4 7 3 8 2 9 1 10
REMARK H PARENT
REMARK Flexibility Score: inf
ROOT
ATOM      1  C   UNL     1     111.974  52.988 232.762  1.00  0.00     0.000 C 
ENDROOT
BRANCH   1   2
ATOM      2  C   UNL     1     111.092  54.218 233.012  1.00  0.00     0.006 C 
BRANCH   2   3
ATOM      3  C   UNL     1     109.621  53.908 232.713  1.00  0.00     0.053 C 
BRANCH   3   4
ATOM      4  C   UNL     1     109.147  52.763 233.548  1.00  0.00     0.041 C 
ATOM      5  O   UNL     1     109.126  52.859 234.803  1.00  0.00    -0.550 OA
ATOM      6  O   UNL     1     108.775  51.569 232.943  1.00  0.00    -0.550 OA
ENDBRANCH   3   4
ENDBRANCH   2   3
ENDBRANCH   1   2
BRANCH   1   7
ATOM      7  C   UNL     1     112.950  53.237 231.603  1.00  0.00     0.000 C 
BRANCH   7   8
ATOM      8  C   UNL     1     112.359  54.137 230.503  1.00  0.00    -0.000 C 
BRANCH   8   9
ATOM      9  C   UNL     1     113.327  54.477 229.357  1.00  0.00    -0.003 C 
ATOM     10  C   UNL     1     113.025  53.709 228.070  1.00  0.00     0.004 C 
ENDBRANCH   8   9
ENDBRANCH   7   8
ENDBRANCH   1   7
TORSDOF 6
ENDMDL
MODEL 8
REMARK VINA RESULT:    -2.935      1.612      2.329
REMARK INTER + INTRA:          -4.222
REMARK INTER:                  -3.949
REMARK INTRA:                  -0.273
REMARK UNBOUND:                -0.257
REMARK SMILES CCCCCCCC(=O)[O-]
REMARK SMILES IDX 5 1 6 2 7 3 8 4 9 5 10 6 4 7 3 8 2 9 1 10
REMARK H PARENT
REMARK Flexibility Score: inf
ROOT
ATOM      1  C   UNL     1     112.211  54.633 230.629  1.00  0.00     0.000 C 
ENDROOT
BRANCH   1   2
ATOM      2  C   UNL     1     112.901  55.033 229.319  1.00  0.00     0.006 C 
BRANCH   2   3
ATOM      3  C   UNL     1     113.056  53.825 228.389  1.00  0.00     0.053 C 
BRANCH   3   4
ATOM      4  C   UNL     1     112.190  53.980 227.180  1.00  0.00     0.041 C 
ATOM      5  O   UNL     1     112.110  53.050 226.335  1.00  0.00    -0.550 OA
ATOM      6  O   UNL     1     111.508  55.170 226.961  1.00  0.00    -0.550 OA
ENDBRANCH   3   4
ENDBRANCH   2   3
ENDBRANCH   1   2
BRANCH   1   7
ATOM      7  C   UNL     1     112.657  53.236 231.082  1.00  0.00     0.000 C 
BRANCH   7   8
ATOM      8  C   UNL     1     112.203  52.894 232.513  1.00  0.00    -0.000 C 
BRANCH   8   9
ATOM      9  C   UNL     1     110.714  53.158 232.797  1.00  0.00    -0.003 C 
ATOM     10  C   UNL     1     109.841  51.915 232.623  1.00  0.00     0.004 C 
ENDBRANCH   8   9
ENDBRANCH   7   8
ENDBRANCH   1   7
TORSDOF 6
ENDMDL
MODEL 9
REMARK VINA RESULT:    -2.924     14.875     16.396
REMARK INTER + INTRA:          -4.207
REMARK INTER:                  -3.732
REMARK INTRA:                  -0.475
REMARK UNBOUND:                -0.257
REMARK SMILES CCCCCCCC(=O)[O-]
REMARK SMILES IDX 5 1 6 2 7 3 8 4 9 5 10 6 4 7 3 8 2 9 1 10
REMARK H PARENT
REMARK Flexibility Score: inf
ROOT
ATOM      1  C   UNL     1     112.087  64.045 218.159  1.00  0.00     0.000 C 
ENDROOT
BRANCH   1   2
ATOM      2  C   UNL     1     111.055  64.947 217.469  1.00  0.00     0.006 C 
BRANCH   2   3
ATOM      3  C   UNL     1     111.445  65.211 216.011  1.00  0.00     0.053 C 
BRANCH   3   4
ATOM      4  C   UNL     1     112.486  66.281 215.932  1.00  0.00     0.041 C 
ATOM      5  O   UNL     1     113.620  66.027 215.446  1.00  0.00    -0.550 OA
ATOM      6  O   UNL     1     112.223  67.546 216.441  1.00  0.00    -0.550 OA
ENDBRANCH   3   4
ENDBRANCH   2   3
ENDBRANCH   1   2
BRANCH   1   7
ATOM      7  C   UNL     1     111.524  62.633 218.376  1.00  0.00     0.000 C 
BRANCH   7   8
ATOM      8  C   UNL     1     111.701  61.720 217.149  1.00  0.00    -0.000 C 
BRANCH   8   9
ATOM      9  C   UNL     1     110.393  61.145 216.577  1.00  0.00    -0.003 C 
ATOM     10  C   UNL     1     109.984  61.790 215.253  1.00  0.00     0.004 C 
ENDBRANCH   8   9
ENDBRANCH   7   8
ENDBRANCH   1   7
TORSDOF 6
ENDMDL
