MODEL 1
REMARK VINA RESULT:    -4.052      0.000      0.000
REMARK INTER + INTRA:         -14.715
REMARK INTER:                 -10.212
REMARK INTRA:                  -4.504
REMARK UNBOUND:                -4.504
REMARK SMILES CCCCCCCCCCCCCCCCCCCCCCCCCCCC(=O)[O-]
REMARK SMILES IDX 15 1 16 2 17 3 18 4 19 5 20 6 21 7 22 8 23 9 24 10 25 11
REMARK SMILES IDX 26 12 27 13 28 14 29 15 30 16 14 17 13 18 12 19 11 20 10 21
REMARK SMILES IDX 9 22 8 23 7 24 6 25 5 26 4 27 3 28 2 29 1 30
REMARK H PARENT
REMARK Flexibility Score: inf
ROOT
ATOM      1  C   UNL     1      77.568 -76.571  -0.686  1.00  0.00     0.000 C 
ENDROOT
BRANCH   1   2
ATOM      2  C   UNL     1      78.283 -75.570  -1.608  1.00  0.00     0.000 C 
BRANCH   2   3
ATOM      3  C   UNL     1      77.425 -74.341  -1.974  1.00  0.00     0.000 C 
BRANCH   3   4
ATOM      4  C   UNL     1      77.565 -73.951  -3.452  1.00  0.00     0.000 C 
BRANCH   4   5
ATOM      5  C   UNL     1      76.196 -73.638  -4.069  1.00  0.00     0.000 C 
BRANCH   5   6
ATOM      6  C   UNL     1      75.278 -72.942  -3.052  1.00  0.00     0.000 C 
BRANCH   6   7
ATOM      7  C   UNL     1      73.960 -72.446  -3.674  1.00  0.00     0.000 C 
BRANCH   7   8
ATOM      8  C   UNL     1      72.890 -73.534  -3.896  1.00  0.00     0.000 C 
BRANCH   8   9
ATOM      9  C   UNL     1      71.511 -73.233  -3.277  1.00  0.00     0.000 C 
BRANCH   9  10
ATOM     10  C   UNL     1      71.312 -73.776  -1.848  1.00  0.00     0.000 C 
BRANCH  10  11
ATOM     11  C   UNL     1      70.897 -72.720  -0.804  1.00  0.00     0.000 C 
BRANCH  11  12
ATOM     12  C   UNL     1      71.993 -72.342   0.210  1.00  0.00     0.006 C 
BRANCH  12  13
ATOM     13  C   UNL     1      71.856 -70.902   0.723  1.00  0.00     0.053 C 
BRANCH  13  14
ATOM     14  C   UNL     1      73.095 -70.113   0.428  1.00  0.00     0.041 C 
ATOM     15  O   UNL     1      73.284 -68.998   0.982  1.00  0.00    -0.550 OA
ATOM     16  O   UNL     1      74.044 -70.614  -0.455  1.00  0.00    -0.550 OA
ENDBRANCH  13  14
ENDBRANCH  12  13
ENDBRANCH  11  12
ENDBRANCH  10  11
ENDBRANCH   9  10
ENDBRANCH   8   9
ENDBRANCH   7   8
ENDBRANCH   6   7
ENDBRANCH   5   6
ENDBRANCH   4   5
ENDBRANCH   3   4
ENDBRANCH   2   3
ENDBRANCH   1   2
BRANCH   1  17
ATOM     17  C   UNL     1      77.151 -77.860  -1.414  1.00  0.00     0.000 C 
BRANCH  17  18
ATOM     18  C   UNL     1      76.837 -77.623  -2.898  1.00  0.00     0.000 C 
BRANCH  18  19
ATOM     19  C   UNL     1      75.349 -77.824  -3.231  1.00  0.00     0.000 C 
BRANCH  19  20
ATOM     20  C   UNL     1      74.487 -76.593  -2.899  1.00  0.00     0.000 C 
BRANCH  20  21
ATOM     21  C   UNL     1      73.692 -76.691  -1.582  1.00  0.00     0.000 C 
BRANCH  21  22
ATOM     22  C   UNL     1      74.092 -75.621  -0.555  1.00  0.00    -0.000 C 
BRANCH  22  23
ATOM     23  C   UNL     1      73.834 -76.112   0.874  1.00  0.00    -0.000 C 
BRANCH  23  24
ATOM     24  C   UNL     1      72.399 -75.793   1.316  1.00  0.00    -0.000 C 
BRANCH  24  25
ATOM     25  C   UNL     1      71.549 -77.055   1.561  1.00  0.00    -0.000 C 
BRANCH  25  26
ATOM     26  C   UNL     1      72.276 -78.203   2.286  1.00  0.00    -0.000 C 
BRANCH  26  27
ATOM     27  C   UNL     1      72.190 -78.092   3.817  1.00  0.00    -0.000 C 
BRANCH  27  28
ATOM     28  C   UNL     1      73.496 -77.585   4.455  1.00  0.00    -0.000 C 
BRANCH  28  29
ATOM     29  C   UNL     1      73.315 -76.514   5.547  1.00  0.00    -0.003 C 
ATOM     30  C   UNL     1      71.946 -76.574   6.225  1.00  0.00     0.004 C 
ENDBRANCH  28  29
ENDBRANCH  27  28
ENDBRANCH  26  27
ENDBRANCH  25  26
ENDBRANCH  24  25
ENDBRANCH  23  24
ENDBRANCH  22  23
ENDBRANCH  21  22
ENDBRANCH  20  21
ENDBRANCH  19  20
ENDBRANCH  18  19
ENDBRANCH  17  18
ENDBRANCH   1  17
TORSDOF 26
ENDMDL
MODEL 2
REMARK VINA RESULT:    -4.036      2.280      5.629
REMARK INTER + INTRA:         -14.673
REMARK INTER:                  -9.611
REMARK INTRA:                  -5.062
REMARK UNBOUND:                -4.504
REMARK SMILES CCCCCCCCCCCCCCCCCCCCCCCCCCCC(=O)[O-]
REMARK SMILES IDX 15 1 16 2 17 3 18 4 19 5 20 6 21 7 22 8 23 9 24 10 25 11
REMARK SMILES IDX 26 12 27 13 28 14 29 15 30 16 14 17 13 18 12 19 11 20 10 21
REMARK SMILES IDX 9 22 8 23 7 24 6 25 5 26 4 27 3 28 2 29 1 30
REMARK H PARENT
REMARK Flexibility Score: inf
ROOT
ATOM      1  C   UNL     1      75.948 -75.304  -0.753  1.00  0.00     0.000 C 
ENDROOT
BRANCH   1   2
ATOM      2  C   UNL     1      77.124 -76.251  -0.462  1.00  0.00     0.000 C 
BRANCH   2   3
ATOM      3  C   UNL     1      78.422 -75.873  -1.205  1.00  0.00     0.000 C 
BRANCH   3   4
ATOM      4  C   UNL     1      78.707 -76.805  -2.392  1.00  0.00     0.000 C 
BRANCH   4   5
ATOM      5  C   UNL     1      78.302 -78.248  -2.067  1.00  0.00     0.000 C 
BRANCH   5   6
ATOM      6  C   UNL     1      77.531 -78.881  -3.236  1.00  0.00     0.000 C 
BRANCH   6   7
ATOM      7  C   UNL     1      76.003 -78.830  -3.045  1.00  0.00     0.000 C 
BRANCH   7   8
ATOM      8  C   UNL     1      75.303 -77.615  -3.687  1.00  0.00     0.000 C 
BRANCH   8   9
ATOM      9  C   UNL     1      73.911 -77.284  -3.114  1.00  0.00     0.000 C 
BRANCH   9  10
ATOM     10  C   UNL     1      73.654 -77.819  -1.692  1.00  0.00     0.000 C 
BRANCH  10  11
ATOM     11  C   UNL     1      72.177 -77.806  -1.250  1.00  0.00     0.000 C 
BRANCH  11  12
ATOM     12  C   UNL     1      71.944 -77.452   0.230  1.00  0.00     0.006 C 
BRANCH  12  13
ATOM     13  C   UNL     1      73.243 -77.105   0.970  1.00  0.00     0.053 C 
BRANCH  13  14
ATOM     14  C   UNL     1      72.947 -76.509   2.312  1.00  0.00     0.041 C 
ATOM     15  O   UNL     1      73.565 -76.907   3.334  1.00  0.00    -0.550 OA
ATOM     16  O   UNL     1      71.991 -75.506   2.432  1.00  0.00    -0.550 OA
ENDBRANCH  13  14
ENDBRANCH  12  13
ENDBRANCH  11  12
ENDBRANCH  10  11
ENDBRANCH   9  10
ENDBRANCH   8   9
ENDBRANCH   7   8
ENDBRANCH   6   7
ENDBRANCH   5   6
ENDBRANCH   4   5
ENDBRANCH   3   4
ENDBRANCH   2   3
ENDBRANCH   1   2
BRANCH   1  17
ATOM     17  C   UNL     1      76.378 -74.027  -1.494  1.00  0.00     0.000 C 
BRANCH  17  18
ATOM     18  C   UNL     1      76.034 -74.071  -2.990  1.00  0.00     0.000 C 
BRANCH  18  19
ATOM     19  C   UNL     1      75.828 -72.671  -3.594  1.00  0.00     0.000 C 
BRANCH  19  20
ATOM     20  C   UNL     1      74.343 -72.310  -3.781  1.00  0.00     0.000 C 
BRANCH  20  21
ATOM     21  C   UNL     1      73.381 -73.514  -3.817  1.00  0.00     0.000 C 
BRANCH  21  22
ATOM     22  C   UNL     1      72.168 -73.344  -2.890  1.00  0.00    -0.000 C 
BRANCH  22  23
ATOM     23  C   UNL     1      72.312 -74.212  -1.636  1.00  0.00    -0.000 C 
BRANCH  23  24
ATOM     24  C   UNL     1      72.855 -73.392  -0.456  1.00  0.00    -0.000 C 
BRANCH  24  25
ATOM     25  C   UNL     1      72.431 -71.912  -0.505  1.00  0.00    -0.000 C 
BRANCH  25  26
ATOM     26  C   UNL     1      73.591 -70.899  -0.488  1.00  0.00    -0.000 C 
BRANCH  26  27
ATOM     27  C   UNL     1      73.805 -70.258   0.893  1.00  0.00    -0.000 C 
BRANCH  27  28
ATOM     28  C   UNL     1      73.059 -68.922   1.057  1.00  0.00    -0.000 C 
BRANCH  28  29
ATOM     29  C   UNL     1      71.761 -68.998   1.884  1.00  0.00    -0.003 C 
ATOM     30  C   UNL     1      71.684 -70.245   2.766  1.00  0.00     0.004 C 
ENDBRANCH  28  29
ENDBRANCH  27  28
ENDBRANCH  26  27
ENDBRANCH  25  26
ENDBRANCH  24  25
ENDBRANCH  23  24
ENDBRANCH  22  23
ENDBRANCH  21  22
ENDBRANCH  20  21
ENDBRANCH  19  20
ENDBRANCH  18  19
ENDBRANCH  17  18
ENDBRANCH   1  17
TORSDOF 26
ENDMDL
MODEL 3
REMARK VINA RESULT:    -4.009      2.502      5.951
REMARK INTER + INTRA:         -14.606
REMARK INTER:                 -10.273
REMARK INTRA:                  -4.332
REMARK UNBOUND:                -4.504
REMARK SMILES CCCCCCCCCCCCCCCCCCCCCCCCCCCC(=O)[O-]
REMARK SMILES IDX 15 1 16 2 17 3 18 4 19 5 20 6 21 7 22 8 23 9 24 10 25 11
REMARK SMILES IDX 26 12 27 13 28 14 29 15 30 16 14 17 13 18 12 19 11 20 10 21
REMARK SMILES IDX 9 22 8 23 7 24 6 25 5 26 4 27 3 28 2 29 1 30
REMARK H PARENT
REMARK Flexibility Score: inf
ROOT
ATOM      1  C   UNL     1      77.423 -78.247  -2.149  1.00  0.00     0.000 C 
ENDROOT
BRANCH   1   2
ATOM      2  C   UNL     1      76.112 -79.052  -2.177  1.00  0.00     0.000 C 
BRANCH   2   3
ATOM      3  C   UNL     1      75.130 -78.596  -3.275  1.00  0.00     0.000 C 
BRANCH   3   4
ATOM      4  C   UNL     1      75.376 -77.145  -3.713  1.00  0.00     0.000 C 
BRANCH   4   5
ATOM      5  C   UNL     1      74.109 -76.297  -3.543  1.00  0.00     0.000 C 
BRANCH   5   6
ATOM      6  C   UNL     1      73.525 -76.456  -2.130  1.00  0.00     0.000 C 
BRANCH   6   7
ATOM      7  C   UNL     1      74.386 -75.781  -1.046  1.00  0.00     0.000 C 
BRANCH   7   8
ATOM      8  C   UNL     1      74.248 -76.382   0.368  1.00  0.00     0.000 C 
BRANCH   8   9
ATOM      9  C   UNL     1      73.023 -77.294   0.575  1.00  0.00     0.000 C 
BRANCH   9  10
ATOM     10  C   UNL     1      72.627 -77.519   2.047  1.00  0.00     0.000 C 
BRANCH  10  11
ATOM     11  C   UNL     1      73.380 -76.640   3.065  1.00  0.00     0.000 C 
BRANCH  11  12
ATOM     12  C   UNL     1      73.744 -77.341   4.387  1.00  0.00     0.006 C 
BRANCH  12  13
ATOM     13  C   UNL     1      73.253 -76.573   5.622  1.00  0.00     0.053 C 
BRANCH  13  14
ATOM     14  C   UNL     1      71.759 -76.467   5.622  1.00  0.00     0.041 C 
ATOM     15  O   UNL     1      71.201 -75.355   5.431  1.00  0.00    -0.550 OA
ATOM     16  O   UNL     1      70.981 -77.601   5.828  1.00  0.00    -0.550 OA
ENDBRANCH  13  14
ENDBRANCH  12  13
ENDBRANCH  11  12
ENDBRANCH  10  11
ENDBRANCH   9  10
ENDBRANCH   8   9
ENDBRANCH   7   8
ENDBRANCH   6   7
ENDBRANCH   5   6
ENDBRANCH   4   5
ENDBRANCH   3   4
ENDBRANCH   2   3
ENDBRANCH   1   2
BRANCH   1  17
ATOM     17  C   UNL     1      77.744 -77.677  -0.757  1.00  0.00     0.000 C 
BRANCH  17  18
ATOM     18  C   UNL     1      77.873 -76.147  -0.764  1.00  0.00     0.000 C 
BRANCH  18  19
ATOM     19  C   UNL     1      78.320 -75.594  -2.128  1.00  0.00     0.000 C 
BRANCH  19  20
ATOM     20  C   UNL     1      77.868 -74.142  -2.364  1.00  0.00     0.000 C 
BRANCH  20  21
ATOM     21  C   UNL     1      77.157 -73.893  -3.709  1.00  0.00     0.000 C 
BRANCH  21  22
ATOM     22  C   UNL     1      76.456 -72.528  -3.776  1.00  0.00    -0.000 C 
BRANCH  22  23
ATOM     23  C   UNL     1      74.951 -72.696  -4.011  1.00  0.00    -0.000 C 
BRANCH  23  24
ATOM     24  C   UNL     1      74.168 -72.555  -2.697  1.00  0.00    -0.000 C 
BRANCH  24  25
ATOM     25  C   UNL     1      72.678 -72.918  -2.842  1.00  0.00    -0.000 C 
BRANCH  25  26
ATOM     26  C   UNL     1      71.924 -73.128  -1.515  1.00  0.00    -0.000 C 
BRANCH  26  27
ATOM     27  C   UNL     1      72.642 -72.494  -0.312  1.00  0.00    -0.000 C 
BRANCH  27  28
ATOM     28  C   UNL     1      72.261 -71.018  -0.097  1.00  0.00    -0.000 C 
BRANCH  28  29
ATOM     29  C   UNL     1      73.205 -70.231   0.831  1.00  0.00    -0.003 C 
ATOM     30  C   UNL     1      72.507 -69.084   1.563  1.00  0.00     0.004 C 
ENDBRANCH  28  29
ENDBRANCH  27  28
ENDBRANCH  26  27
ENDBRANCH  25  26
ENDBRANCH  24  25
ENDBRANCH  23  24
ENDBRANCH  22  23
ENDBRANCH  21  22
ENDBRANCH  20  21
ENDBRANCH  19  20
ENDBRANCH  18  19
ENDBRANCH  17  18
ENDBRANCH   1  17
TORSDOF 26
ENDMDL
MODEL 4
REMARK VINA RESULT:    -3.986      2.600      6.839
REMARK INTER + INTRA:         -14.549
REMARK INTER:                  -9.652
REMARK INTRA:                  -4.897
REMARK UNBOUND:                -4.504
REMARK SMILES CCCCCCCCCCCCCCCCCCCCCCCCCCCC(=O)[O-]
REMARK SMILES IDX 15 1 16 2 17 3 18 4 19 5 20 6 21 7 22 8 23 9 24 10 25 11
REMARK SMILES IDX 26 12 27 13 28 14 29 15 30 16 14 17 13 18 12 19 11 20 10 21
REMARK SMILES IDX 9 22 8 23 7 24 6 25 5 26 4 27 3 28 2 29 1 30
REMARK H PARENT
REMARK Flexibility Score: inf
ROOT
ATOM      1  C   UNL     1      72.322 -69.967   1.148  1.00  0.00     0.000 C 
ENDROOT
BRANCH   1   2
ATOM      2  C   UNL     1      72.134 -70.235   2.651  1.00  0.00     0.000 C 
BRANCH   2   3
ATOM      3  C   UNL     1      71.154 -71.386   2.957  1.00  0.00     0.000 C 
BRANCH   3   4
ATOM      4  C   UNL     1      71.006 -72.356   1.776  1.00  0.00     0.000 C 
BRANCH   4   5
ATOM      5  C   UNL     1      69.532 -72.528   1.388  1.00  0.00     0.000 C 
BRANCH   5   6
ATOM      6  C   UNL     1      69.315 -72.225  -0.103  1.00  0.00     0.000 C 
BRANCH   6   7
ATOM      7  C   UNL     1      70.527 -72.605  -0.975  1.00  0.00     0.000 C 
BRANCH   7   8
ATOM      8  C   UNL     1      70.352 -73.885  -1.818  1.00  0.00     0.000 C 
BRANCH   8   9
ATOM      9  C   UNL     1      71.373 -75.002  -1.531  1.00  0.00     0.000 C 
BRANCH   9  10
ATOM     10  C   UNL     1      71.259 -75.638  -0.132  1.00  0.00     0.000 C 
BRANCH  10  11
ATOM     11  C   UNL     1      72.498 -75.457   0.767  1.00  0.00     0.000 C 
BRANCH  11  12
ATOM     12  C   UNL     1      72.299 -75.863   2.239  1.00  0.00     0.006 C 
BRANCH  12  13
ATOM     13  C   UNL     1      73.107 -77.109   2.627  1.00  0.00     0.053 C 
BRANCH  13  14
ATOM     14  C   UNL     1      73.168 -77.259   4.116  1.00  0.00     0.041 C 
ATOM     15  O   UNL     1      72.129 -77.544   4.769  1.00  0.00    -0.550 OA
ATOM     16  O   UNL     1      74.376 -77.090   4.783  1.00  0.00    -0.550 OA
ENDBRANCH  13  14
ENDBRANCH  12  13
ENDBRANCH  11  12
ENDBRANCH  10  11
ENDBRANCH   9  10
ENDBRANCH   8   9
ENDBRANCH   7   8
ENDBRANCH   6   7
ENDBRANCH   5   6
ENDBRANCH   4   5
ENDBRANCH   3   4
ENDBRANCH   2   3
ENDBRANCH   1   2
BRANCH   1  17
ATOM     17  C   UNL     1      73.755 -70.247   0.666  1.00  0.00     0.000 C 
BRANCH  17  18
ATOM     18  C   UNL     1      73.790 -70.926  -0.711  1.00  0.00     0.000 C 
BRANCH  18  19
ATOM     19  C   UNL     1      74.179 -72.412  -0.630  1.00  0.00     0.000 C 
BRANCH  19  20
ATOM     20  C   UNL     1      74.302 -73.076  -2.014  1.00  0.00     0.000 C 
BRANCH  20  21
ATOM     21  C   UNL     1      75.157 -72.300  -3.034  1.00  0.00     0.000 C 
BRANCH  21  22
ATOM     22  C   UNL     1      76.181 -73.186  -3.760  1.00  0.00    -0.000 C 
BRANCH  22  23
ATOM     23  C   UNL     1      77.362 -73.522  -2.843  1.00  0.00    -0.000 C 
BRANCH  23  24
ATOM     24  C   UNL     1      77.871 -74.948  -3.099  1.00  0.00    -0.000 C 
BRANCH  24  25
ATOM     25  C   UNL     1      78.596 -75.557  -1.883  1.00  0.00    -0.000 C 
BRANCH  25  26
ATOM     26  C   UNL     1      77.816 -76.657  -1.140  1.00  0.00    -0.000 C 
BRANCH  26  27
ATOM     27  C   UNL     1      76.768 -76.094  -0.165  1.00  0.00    -0.000 C 
BRANCH  27  28
ATOM     28  C   UNL     1      75.323 -76.420  -0.586  1.00  0.00    -0.000 C 
BRANCH  28  29
ATOM     29  C   UNL     1      75.194 -77.300  -1.844  1.00  0.00    -0.003 C 
ATOM     30  C   UNL     1      74.511 -76.585  -3.009  1.00  0.00     0.004 C 
ENDBRANCH  28  29
ENDBRANCH  27  28
ENDBRANCH  26  27
ENDBRANCH  25  26
ENDBRANCH  24  25
ENDBRANCH  23  24
ENDBRANCH  22  23
ENDBRANCH  21  22
ENDBRANCH  20  21
ENDBRANCH  19  20
ENDBRANCH  18  19
ENDBRANCH  17  18
ENDBRANCH   1  17
TORSDOF 26
ENDMDL
MODEL 5
REMARK VINA RESULT:    -3.979      2.441      5.619
REMARK INTER + INTRA:         -14.530
REMARK INTER:                  -9.807
REMARK INTRA:                  -4.722
REMARK UNBOUND:                -4.504
REMARK SMILES CCCCCCCCCCCCCCCCCCCCCCCCCCCC(=O)[O-]
REMARK SMILES IDX 15 1 16 2 17 3 18 4 19 5 20 6 21 7 22 8 23 9 24 10 25 11
REMARK SMILES IDX 26 12 27 13 28 14 29 15 30 16 14 17 13 18 12 19 11 20 10 21
REMARK SMILES IDX 9 22 8 23 7 24 6 25 5 26 4 27 3 28 2 29 1 30
REMARK H PARENT
REMARK Flexibility Score: inf
ROOT
ATOM      1  C   UNL     1      77.190 -74.529  -1.939  1.00  0.00     0.000 C 
ENDROOT
BRANCH   1   2
ATOM      2  C   UNL     1      78.279 -75.464  -1.387  1.00  0.00     0.000 C 
BRANCH   2   3
ATOM      3  C   UNL     1      77.729 -76.789  -0.820  1.00  0.00     0.000 C 
BRANCH   3   4
ATOM      4  C   UNL     1      78.040 -77.987  -1.729  1.00  0.00     0.000 C 
BRANCH   4   5
ATOM      5  C   UNL     1      76.764 -78.519  -2.393  1.00  0.00     0.000 C 
BRANCH   5   6
ATOM      6  C   UNL     1      76.435 -77.728  -3.669  1.00  0.00     0.000 C 
BRANCH   6   7
ATOM      7  C   UNL     1      75.030 -77.098  -3.639  1.00  0.00     0.000 C 
BRANCH   7   8
ATOM      8  C   UNL     1      74.269 -77.258  -2.307  1.00  0.00     0.000 C 
BRANCH   8   9
ATOM      9  C   UNL     1      73.988 -75.944  -1.552  1.00  0.00     0.000 C 
BRANCH   9  10
ATOM     10  C   UNL     1      74.335 -75.975  -0.050  1.00  0.00     0.000 C 
BRANCH  10  11
ATOM     11  C   UNL     1      73.123 -76.086   0.895  1.00  0.00     0.000 C 
BRANCH  11  12
ATOM     12  C   UNL     1      73.373 -76.893   2.181  1.00  0.00     0.006 C 
BRANCH  12  13
ATOM     13  C   UNL     1      72.463 -76.462   3.340  1.00  0.00     0.053 C 
BRANCH  13  14
ATOM     14  C   UNL     1      73.173 -76.597   4.652  1.00  0.00     0.041 C 
ATOM     15  O   UNL     1      72.746 -75.992   5.671  1.00  0.00    -0.550 OA
ATOM     16  O   UNL     1      74.305 -77.397   4.751  1.00  0.00    -0.550 OA
ENDBRANCH  13  14
ENDBRANCH  12  13
ENDBRANCH  11  12
ENDBRANCH  10  11
ENDBRANCH   9  10
ENDBRANCH   8   9
ENDBRANCH   7   8
ENDBRANCH   6   7
ENDBRANCH   5   6
ENDBRANCH   4   5
ENDBRANCH   3   4
ENDBRANCH   2   3
ENDBRANCH   1   2
BRANCH   1  17
ATOM     17  C   UNL     1      77.583 -73.878  -3.275  1.00  0.00     0.000 C 
BRANCH  17  18
ATOM     18  C   UNL     1      76.580 -72.805  -3.724  1.00  0.00     0.000 C 
BRANCH  18  19
ATOM     19  C   UNL     1      75.205 -73.391  -4.085  1.00  0.00     0.000 C 
BRANCH  19  20
ATOM     20  C   UNL     1      74.078 -72.889  -3.164  1.00  0.00     0.000 C 
BRANCH  20  21
ATOM     21  C   UNL     1      74.477 -71.746  -2.211  1.00  0.00     0.000 C 
BRANCH  21  22
ATOM     22  C   UNL     1      73.981 -71.960  -0.773  1.00  0.00    -0.000 C 
BRANCH  22  23
ATOM     23  C   UNL     1      73.699 -70.619  -0.086  1.00  0.00    -0.000 C 
BRANCH  23  24
ATOM     24  C   UNL     1      72.442 -70.703   0.793  1.00  0.00    -0.000 C 
BRANCH  24  25
ATOM     25  C   UNL     1      71.699 -72.046   0.655  1.00  0.00    -0.000 C 
BRANCH  25  26
ATOM     26  C   UNL     1      70.213 -71.934   0.268  1.00  0.00    -0.000 C 
BRANCH  26  27
ATOM     27  C   UNL     1      69.896 -72.593  -1.085  1.00  0.00    -0.000 C 
BRANCH  27  28
ATOM     28  C   UNL     1      70.884 -73.715  -1.451  1.00  0.00    -0.000 C 
BRANCH  28  29
ATOM     29  C   UNL     1      70.334 -75.145  -1.291  1.00  0.00    -0.003 C 
ATOM     30  C   UNL     1      70.575 -76.021  -2.520  1.00  0.00     0.004 C 
ENDBRANCH  28  29
ENDBRANCH  27  28
ENDBRANCH  26  27
ENDBRANCH  25  26
ENDBRANCH  24  25
ENDBRANCH  23  24
ENDBRANCH  22  23
ENDBRANCH  21  22
ENDBRANCH  20  21
ENDBRANCH  19  20
ENDBRANCH  18  19
ENDBRANCH  17  18
ENDBRANCH   1  17
TORSDOF 26
ENDMDL
MODEL 6
REMARK VINA RESULT:    -3.954      2.502      5.770
REMARK INTER + INTRA:         -14.469
REMARK INTER:                 -10.237
REMARK INTRA:                  -4.232
REMARK UNBOUND:                -4.504
REMARK SMILES CCCCCCCCCCCCCCCCCCCCCCCCCCCC(=O)[O-]
REMARK SMILES IDX 15 1 16 2 17 3 18 4 19 5 20 6 21 7 22 8 23 9 24 10 25 11
REMARK SMILES IDX 26 12 27 13 28 14 29 15 30 16 14 17 13 18 12 19 11 20 10 21
REMARK SMILES IDX 9 22 8 23 7 24 6 25 5 26 4 27 3 28 2 29 1 30
REMARK H PARENT
REMARK Flexibility Score: inf
ROOT
ATOM      1  C   UNL     1      78.736 -76.780  -2.380  1.00  0.00     0.000 C 
ENDROOT
BRANCH   1   2
ATOM      2  C   UNL     1      78.709 -78.305  -2.188  1.00  0.00     0.000 C 
BRANCH   2   3
ATOM      3  C   UNL     1      78.258 -78.745  -0.781  1.00  0.00     0.000 C 
BRANCH   3   4
ATOM      4  C   UNL     1      77.785 -80.206  -0.749  1.00  0.00     0.000 C 
BRANCH   4   5
ATOM      5  C   UNL     1      76.695 -80.453  -1.799  1.00  0.00     0.000 C 
BRANCH   5   6
ATOM      6  C   UNL     1      75.309 -80.546  -1.143  1.00  0.00     0.000 C 
BRANCH   6   7
ATOM      7  C   UNL     1      74.291 -79.561  -1.748  1.00  0.00     0.000 C 
BRANCH   7   8
ATOM      8  C   UNL     1      74.839 -78.662  -2.875  1.00  0.00     0.000 C 
BRANCH   8   9
ATOM      9  C   UNL     1      74.889 -77.158  -2.547  1.00  0.00     0.000 C 
BRANCH   9  10
ATOM     10  C   UNL     1      74.584 -76.807  -1.078  1.00  0.00     0.000 C 
BRANCH  10  11
ATOM     11  C   UNL     1      73.299 -75.984  -0.859  1.00  0.00     0.000 C 
BRANCH  11  12
ATOM     12  C   UNL     1      72.928 -75.737   0.615  1.00  0.00     0.006 C 
BRANCH  12  13
ATOM     13  C   UNL     1      73.135 -76.977   1.496  1.00  0.00     0.053 C 
BRANCH  13  14
ATOM     14  C   UNL     1      73.085 -76.611   2.948  1.00  0.00     0.041 C 
ATOM     15  O   UNL     1      73.881 -77.145   3.765  1.00  0.00    -0.550 OA
ATOM     16  O   UNL     1      72.162 -75.674   3.398  1.00  0.00    -0.550 OA
ENDBRANCH  13  14
ENDBRANCH  12  13
ENDBRANCH  11  12
ENDBRANCH  10  11
ENDBRANCH   9  10
ENDBRANCH   8   9
ENDBRANCH   7   8
ENDBRANCH   6   7
ENDBRANCH   5   6
ENDBRANCH   4   5
ENDBRANCH   3   4
ENDBRANCH   2   3
ENDBRANCH   1   2
BRANCH   1  17
ATOM     17  C   UNL     1      78.105 -76.018  -1.202  1.00  0.00     0.000 C 
BRANCH  17  18
ATOM     18  C   UNL     1      77.466 -74.691  -1.635  1.00  0.00     0.000 C 
BRANCH  18  19
ATOM     19  C   UNL     1      77.493 -74.487  -3.159  1.00  0.00     0.000 C 
BRANCH  19  20
ATOM     20  C   UNL     1      76.598 -73.324  -3.625  1.00  0.00     0.000 C 
BRANCH  20  21
ATOM     21  C   UNL     1      75.176 -73.731  -4.059  1.00  0.00     0.000 C 
BRANCH  21  22
ATOM     22  C   UNL     1      74.079 -73.127  -3.169  1.00  0.00    -0.000 C 
BRANCH  22  23
ATOM     23  C   UNL     1      74.681 -72.179  -2.125  1.00  0.00    -0.000 C 
BRANCH  23  24
ATOM     24  C   UNL     1      74.006 -72.365  -0.758  1.00  0.00    -0.000 C 
BRANCH  24  25
ATOM     25  C   UNL     1      72.952 -71.284  -0.454  1.00  0.00    -0.000 C 
BRANCH  25  26
ATOM     26  C   UNL     1      73.427 -70.148   0.471  1.00  0.00    -0.000 C 
BRANCH  26  27
ATOM     27  C   UNL     1      72.380 -69.760   1.528  1.00  0.00    -0.000 C 
BRANCH  27  28
ATOM     28  C   UNL     1      71.405 -70.905   1.854  1.00  0.00    -0.000 C 
BRANCH  28  29
ATOM     29  C   UNL     1      71.318 -71.283   3.344  1.00  0.00    -0.003 C 
ATOM     30  C   UNL     1      72.320 -70.525   4.215  1.00  0.00     0.004 C 
ENDBRANCH  28  29
ENDBRANCH  27  28
ENDBRANCH  26  27
ENDBRANCH  25  26
ENDBRANCH  24  25
ENDBRANCH  23  24
ENDBRANCH  22  23
ENDBRANCH  21  22
ENDBRANCH  20  21
ENDBRANCH  19  20
ENDBRANCH  18  19
ENDBRANCH  17  18
ENDBRANCH   1  17
TORSDOF 26
ENDMDL
MODEL 7
REMARK VINA RESULT:    -3.943      1.711      2.848
REMARK INTER + INTRA:         -14.440
REMARK INTER:                  -9.107
REMARK INTRA:                  -5.334
REMARK UNBOUND:                -4.504
REMARK SMILES CCCCCCCCCCCCCCCCCCCCCCCCCCCC(=O)[O-]
REMARK SMILES IDX 15 1 16 2 17 3 18 4 19 5 20 6 21 7 22 8 23 9 24 10 25 11
REMARK SMILES IDX 26 12 27 13 28 14 29 15 30 16 14 17 13 18 12 19 11 20 10 21
REMARK SMILES IDX 9 22 8 23 7 24 6 25 5 26 4 27 3 28 2 29 1 30
REMARK H PARENT
REMARK Flexibility Score: inf
ROOT
ATOM      1  C   UNL     1      78.999 -78.062  -1.871  1.00  0.00     0.000 C 
ENDROOT
BRANCH   1   2
ATOM      2  C   UNL     1      78.655 -76.565  -1.945  1.00  0.00     0.000 C 
BRANCH   2   3
ATOM      3  C   UNL     1      77.513 -76.144  -0.999  1.00  0.00     0.000 C 
BRANCH   3   4
ATOM      4  C   UNL     1      76.782 -74.886  -1.489  1.00  0.00     0.000 C 
BRANCH   4   5
ATOM      5  C   UNL     1      77.532 -74.236  -2.659  1.00  0.00     0.000 C 
BRANCH   5   6
ATOM      6  C   UNL     1      76.554 -73.763  -3.746  1.00  0.00     0.000 C 
BRANCH   6   7
ATOM      7  C   UNL     1      76.341 -72.237  -3.737  1.00  0.00     0.000 C 
BRANCH   7   8
ATOM      8  C   UNL     1      74.907 -71.778  -3.401  1.00  0.00     0.000 C 
BRANCH   8   9
ATOM      9  C   UNL     1      73.867 -72.910  -3.289  1.00  0.00     0.000 C 
BRANCH   9  10
ATOM     10  C   UNL     1      73.530 -73.336  -1.846  1.00  0.00     0.000 C 
BRANCH  10  11
ATOM     11  C   UNL     1      72.026 -73.347  -1.507  1.00  0.00     0.000 C 
BRANCH  11  12
ATOM     12  C   UNL     1      71.507 -72.075  -0.812  1.00  0.00     0.006 C 
BRANCH  12  13
ATOM     13  C   UNL     1      72.243 -71.772   0.501  1.00  0.00     0.053 C 
BRANCH  13  14
ATOM     14  C   UNL     1      72.876 -70.415   0.453  1.00  0.00     0.041 C 
ATOM     15  O   UNL     1      72.309 -69.430   0.999  1.00  0.00    -0.550 OA
ATOM     16  O   UNL     1      74.096 -70.238  -0.189  1.00  0.00    -0.550 OA
ENDBRANCH  13  14
ENDBRANCH  12  13
ENDBRANCH  11  12
ENDBRANCH  10  11
ENDBRANCH   9  10
ENDBRANCH   8   9
ENDBRANCH   7   8
ENDBRANCH   6   7
ENDBRANCH   5   6
ENDBRANCH   4   5
ENDBRANCH   3   4
ENDBRANCH   2   3
ENDBRANCH   1   2
BRANCH   1  17
ATOM     17  C   UNL     1      78.178 -78.812  -0.810  1.00  0.00     0.000 C 
BRANCH  17  18
ATOM     18  C   UNL     1      77.351 -79.959  -1.409  1.00  0.00     0.000 C 
BRANCH  18  19
ATOM     19  C   UNL     1      75.872 -79.586  -1.607  1.00  0.00     0.000 C 
BRANCH  19  20
ATOM     20  C   UNL     1      75.464 -79.514  -3.090  1.00  0.00     0.000 C 
BRANCH  20  21
ATOM     21  C   UNL     1      75.973 -78.271  -3.845  1.00  0.00     0.000 C 
BRANCH  21  22
ATOM     22  C   UNL     1      74.973 -77.104  -3.827  1.00  0.00    -0.000 C 
BRANCH  22  23
ATOM     23  C   UNL     1      73.530 -77.620  -3.828  1.00  0.00    -0.000 C 
BRANCH  23  24
ATOM     24  C   UNL     1      72.635 -76.759  -2.925  1.00  0.00    -0.000 C 
BRANCH  24  25
ATOM     25  C   UNL     1      71.972 -77.563  -1.790  1.00  0.00    -0.000 C 
BRANCH  25  26
ATOM     26  C   UNL     1      72.887 -77.883  -0.594  1.00  0.00    -0.000 C 
BRANCH  26  27
ATOM     27  C   UNL     1      73.836 -76.726  -0.240  1.00  0.00    -0.000 C 
BRANCH  27  28
ATOM     28  C   UNL     1      73.513 -76.081   1.120  1.00  0.00    -0.000 C 
BRANCH  28  29
ATOM     29  C   UNL     1      72.077 -76.316   1.627  1.00  0.00    -0.003 C 
ATOM     30  C   UNL     1      71.279 -75.023   1.790  1.00  0.00     0.004 C 
ENDBRANCH  28  29
ENDBRANCH  27  28
ENDBRANCH  26  27
ENDBRANCH  25  26
ENDBRANCH  24  25
ENDBRANCH  23  24
ENDBRANCH  22  23
ENDBRANCH  21  22
ENDBRANCH  20  21
ENDBRANCH  19  20
ENDBRANCH  18  19
ENDBRANCH  17  18
ENDBRANCH   1  17
TORSDOF 26
ENDMDL
MODEL 8
REMARK VINA RESULT:    -3.910      2.781      6.653
REMARK INTER + INTRA:         -14.356
REMARK INTER:                  -9.094
REMARK INTRA:                  -5.261
REMARK UNBOUND:                -4.504
REMARK SMILES CCCCCCCCCCCCCCCCCCCCCCCCCCCC(=O)[O-]
REMARK SMILES IDX 15 1 16 2 17 3 18 4 19 5 20 6 21 7 22 8 23 9 24 10 25 11
REMARK SMILES IDX 26 12 27 13 28 14 29 15 30 16 14 17 13 18 12 19 11 20 10 21
REMARK SMILES IDX 9 22 8 23 7 24 6 25 5 26 4 27 3 28 2 29 1 30
REMARK H PARENT
REMARK Flexibility Score: inf
ROOT
ATOM      1  C   UNL     1      74.311 -72.469  -1.696  1.00  0.00     0.000 C 
ENDROOT
BRANCH   1   2
ATOM      2  C   UNL     1      73.083 -72.920  -0.887  1.00  0.00     0.000 C 
BRANCH   2   3
ATOM      3  C   UNL     1      71.861 -73.270  -1.760  1.00  0.00     0.000 C 
BRANCH   3   4
ATOM      4  C   UNL     1      71.142 -74.538  -1.274  1.00  0.00     0.000 C 
BRANCH   4   5
ATOM      5  C   UNL     1      70.905 -75.513  -2.434  1.00  0.00     0.000 C 
BRANCH   5   6
ATOM      6  C   UNL     1      72.080 -75.488  -3.423  1.00  0.00     0.000 C 
BRANCH   6   7
ATOM      7  C   UNL     1      73.141 -76.563  -3.122  1.00  0.00     0.000 C 
BRANCH   7   8
ATOM      8  C   UNL     1      74.377 -76.064  -2.345  1.00  0.00     0.000 C 
BRANCH   8   9
ATOM      9  C   UNL     1      74.724 -76.871  -1.079  1.00  0.00     0.000 C 
BRANCH   9  10
ATOM     10  C   UNL     1      74.163 -76.288   0.233  1.00  0.00     0.000 C 
BRANCH  10  11
ATOM     11  C   UNL     1      72.918 -77.010   0.785  1.00  0.00     0.000 C 
BRANCH  11  12
ATOM     12  C   UNL     1      72.431 -76.511   2.158  1.00  0.00     0.006 C 
BRANCH  12  13
ATOM     13  C   UNL     1      73.331 -76.977   3.312  1.00  0.00     0.053 C 
BRANCH  13  14
ATOM     14  C   UNL     1      72.526 -77.682   4.360  1.00  0.00     0.041 C 
ATOM     15  O   UNL     1      72.006 -78.803   4.114  1.00  0.00    -0.550 OA
ATOM     16  O   UNL     1      72.357 -77.105   5.613  1.00  0.00    -0.550 OA
ENDBRANCH  13  14
ENDBRANCH  12  13
ENDBRANCH  11  12
ENDBRANCH  10  11
ENDBRANCH   9  10
ENDBRANCH   8   9
ENDBRANCH   7   8
ENDBRANCH   6   7
ENDBRANCH   5   6
ENDBRANCH   4   5
ENDBRANCH   3   4
ENDBRANCH   2   3
ENDBRANCH   1   2
BRANCH   1  17
ATOM     17  C   UNL     1      74.021 -72.339  -3.200  1.00  0.00     0.000 C 
BRANCH  17  18
ATOM     18  C   UNL     1      75.122 -72.965  -4.068  1.00  0.00     0.000 C 
BRANCH  18  19
ATOM     19  C   UNL     1      76.511 -72.366  -3.789  1.00  0.00     0.000 C 
BRANCH  19  20
ATOM     20  C   UNL     1      77.539 -73.419  -3.335  1.00  0.00     0.000 C 
BRANCH  20  21
ATOM     21  C   UNL     1      77.438 -74.778  -4.055  1.00  0.00     0.000 C 
BRANCH  21  22
ATOM     22  C   UNL     1      78.109 -75.922  -3.280  1.00  0.00    -0.000 C 
BRANCH  22  23
ATOM     23  C   UNL     1      78.308 -75.543  -1.808  1.00  0.00    -0.000 C 
BRANCH  23  24
ATOM     24  C   UNL     1      78.204 -76.778  -0.901  1.00  0.00    -0.000 C 
BRANCH  24  25
ATOM     25  C   UNL     1      78.531 -78.093  -1.635  1.00  0.00    -0.000 C 
BRANCH  25  26
ATOM     26  C   UNL     1      77.775 -79.333  -1.123  1.00  0.00    -0.000 C 
BRANCH  26  27
ATOM     27  C   UNL     1      77.290 -80.250  -2.258  1.00  0.00    -0.000 C 
BRANCH  27  28
ATOM     28  C   UNL     1      77.209 -79.529  -3.616  1.00  0.00    -0.000 C 
BRANCH  28  29
ATOM     29  C   UNL     1      75.811 -79.002  -3.991  1.00  0.00    -0.003 C 
ATOM     30  C   UNL     1      74.677 -79.891  -3.481  1.00  0.00     0.004 C 
ENDBRANCH  28  29
ENDBRANCH  27  28
ENDBRANCH  26  27
ENDBRANCH  25  26
ENDBRANCH  24  25
ENDBRANCH  23  24
ENDBRANCH  22  23
ENDBRANCH  21  22
ENDBRANCH  20  21
ENDBRANCH  19  20
ENDBRANCH  18  19
ENDBRANCH  17  18
ENDBRANCH   1  17
TORSDOF 26
ENDMDL
MODEL 9
REMARK VINA RESULT:    -3.905      2.478      5.798
REMARK INTER + INTRA:         -14.343
REMARK INTER:                  -9.529
REMARK INTRA:                  -4.815
REMARK UNBOUND:                -4.504
REMARK SMILES CCCCCCCCCCCCCCCCCCCCCCCCCCCC(=O)[O-]
REMARK SMILES IDX 15 1 16 2 17 3 18 4 19 5 20 6 21 7 22 8 23 9 24 10 25 11
REMARK SMILES IDX 26 12 27 13 28 14 29 15 30 16 14 17 13 18 12 19 11 20 10 21
REMARK SMILES IDX 9 22 8 23 7 24 6 25 5 26 4 27 3 28 2 29 1 30
REMARK H PARENT
REMARK Flexibility Score: inf
ROOT
ATOM      1  C   UNL     1      78.287 -79.296  -0.744  1.00  0.00     0.000 C 
ENDROOT
BRANCH   1   2
ATOM      2  C   UNL     1      77.223 -80.194  -1.398  1.00  0.00     0.000 C 
BRANCH   2   3
ATOM      3  C   UNL     1      77.174 -80.078  -2.935  1.00  0.00     0.000 C 
BRANCH   3   4
ATOM      4  C   UNL     1      75.740 -79.918  -3.462  1.00  0.00     0.000 C 
BRANCH   4   5
ATOM      5  C   UNL     1      75.070 -78.676  -2.863  1.00  0.00     0.000 C 
BRANCH   5   6
ATOM      6  C   UNL     1      75.336 -77.434  -3.729  1.00  0.00     0.000 C 
BRANCH   6   7
ATOM      7  C   UNL     1      74.472 -76.225  -3.325  1.00  0.00     0.000 C 
BRANCH   7   8
ATOM      8  C   UNL     1      73.802 -76.332  -1.939  1.00  0.00     0.000 C 
BRANCH   8   9
ATOM      9  C   UNL     1      74.561 -75.638  -0.791  1.00  0.00     0.000 C 
BRANCH   9  10
ATOM     10  C   UNL     1      73.779 -75.542   0.534  1.00  0.00     0.000 C 
BRANCH  10  11
ATOM     11  C   UNL     1      72.874 -76.750   0.845  1.00  0.00     0.000 C 
BRANCH  11  12
ATOM     12  C   UNL     1      72.042 -76.626   2.134  1.00  0.00     0.006 C 
BRANCH  12  13
ATOM     13  C   UNL     1      72.429 -77.666   3.194  1.00  0.00     0.053 C 
BRANCH  13  14
ATOM     14  C   UNL     1      73.111 -77.012   4.357  1.00  0.00     0.041 C 
ATOM     15  O   UNL     1      72.466 -76.249   5.124  1.00  0.00    -0.550 OA
ATOM     16  O   UNL     1      74.459 -77.250   4.597  1.00  0.00    -0.550 OA
ENDBRANCH  13  14
ENDBRANCH  12  13
ENDBRANCH  11  12
ENDBRANCH  10  11
ENDBRANCH   9  10
ENDBRANCH   8   9
ENDBRANCH   7   8
ENDBRANCH   6   7
ENDBRANCH   5   6
ENDBRANCH   4   5
ENDBRANCH   3   4
ENDBRANCH   2   3
ENDBRANCH   1   2
BRANCH   1  17
ATOM     17  C   UNL     1      78.623 -78.056  -1.589  1.00  0.00     0.000 C 
BRANCH  17  18
ATOM     18  C   UNL     1      77.921 -76.789  -1.079  1.00  0.00     0.000 C 
BRANCH  18  19
ATOM     19  C   UNL     1      78.589 -75.497  -1.579  1.00  0.00     0.000 C 
BRANCH  19  20
ATOM     20  C   UNL     1      77.867 -74.876  -2.788  1.00  0.00     0.000 C 
BRANCH  20  21
ATOM     21  C   UNL     1      77.039 -73.614  -2.473  1.00  0.00     0.000 C 
BRANCH  21  22
ATOM     22  C   UNL     1      76.503 -72.916  -3.732  1.00  0.00    -0.000 C 
BRANCH  22  23
ATOM     23  C   UNL     1      75.410 -71.903  -3.372  1.00  0.00    -0.000 C 
BRANCH  23  24
ATOM     24  C   UNL     1      74.310 -72.557  -2.523  1.00  0.00    -0.000 C 
BRANCH  24  25
ATOM     25  C   UNL     1      74.095 -71.853  -1.170  1.00  0.00    -0.000 C 
BRANCH  25  26
ATOM     26  C   UNL     1      72.643 -71.853  -0.656  1.00  0.00    -0.000 C 
BRANCH  26  27
ATOM     27  C   UNL     1      71.716 -72.761  -1.482  1.00  0.00    -0.000 C 
BRANCH  27  28
ATOM     28  C   UNL     1      70.907 -73.740  -0.612  1.00  0.00    -0.000 C 
BRANCH  28  29
ATOM     29  C   UNL     1      70.356 -74.970  -1.358  1.00  0.00    -0.003 C 
ATOM     30  C   UNL     1      70.533 -74.882  -2.874  1.00  0.00     0.004 C 
ENDBRANCH  28  29
ENDBRANCH  27  28
ENDBRANCH  26  27
ENDBRANCH  25  26
ENDBRANCH  24  25
ENDBRANCH  23  24
ENDBRANCH  22  23
ENDBRANCH  21  22
ENDBRANCH  20  21
ENDBRANCH  19  20
ENDBRANCH  18  19
ENDBRANCH  17  18
ENDBRANCH   1  17
TORSDOF 26
ENDMDL
