MODEL 1
REMARK VINA RESULT:    -3.967      0.000      0.000
REMARK INTER + INTRA:          -5.108
REMARK INTER:                  -4.779
REMARK INTRA:                  -0.330
REMARK UNBOUND:                -0.330
REMARK SMILES NC(=O)C[C@@H]([NH3+])C(=O)[O-]
REMARK SMILES IDX 4 1 5 2 6 3 7 7 8 8 9 9 2 10 3 11 1 12
REMARK H PARENT 6 4 6 5 6 6 1 13 1 14
REMARK Flexibility Score: inf
ROOT
ATOM      1  C   UNL     1      16.410  -8.422 -36.478  1.00  0.00     0.171 C 
ENDROOT
BRANCH   1   2
ATOM      2  C   UNL     1      15.739  -9.401 -37.465  1.00  0.00     0.237 C 
BRANCH   2   3
ATOM      3  N   UNL     1      15.063 -10.504 -36.768  1.00  0.00    -0.350 N 
ATOM      4  H   UNL     1      15.260 -10.480 -35.740  1.00  0.00     0.345 HD
ATOM      5  H   UNL     1      14.030 -10.432 -36.916  1.00  0.00     0.345 HD
ATOM      6  H   UNL     1      15.386 -11.420 -37.156  1.00  0.00     0.345 HD
ENDBRANCH   2   3
BRANCH   2   7
ATOM      7  C   UNL     1      14.799  -8.684 -38.401  1.00  0.00     0.100 C 
ATOM      8  O   UNL     1      13.594  -9.037 -38.500  1.00  0.00    -0.544 OA
ATOM      9  O   UNL     1      15.251  -7.588 -39.125  1.00  0.00    -0.544 OA
ENDBRANCH   2   7
ENDBRANCH   1   2
BRANCH   1  10
ATOM     10  C   UNL     1      15.954  -8.605 -35.056  1.00  0.00     0.223 C 
ATOM     11  O   UNL     1      14.758  -8.364 -34.746  1.00  0.00    -0.275 OA
ATOM     12  N   UNL     1      16.864  -9.071 -34.059  1.00  0.00    -0.369 N 
ATOM     13  H   UNL     1      17.856  -9.286 -34.299  1.00  0.00     0.159 HD
ATOM     14  H   UNL     1      16.540  -9.208 -33.075  1.00  0.00     0.159 HD
ENDBRANCH   1  10
TORSDOF 4
ENDMDL
MODEL 2
REMARK VINA RESULT:    -3.901      6.463      7.122
REMARK INTER + INTRA:          -5.028
REMARK INTER:                  -4.579
REMARK INTRA:                  -0.449
REMARK UNBOUND:                -0.330
REMARK SMILES NC(=O)C[C@@H]([NH3+])C(=O)[O-]
REMARK SMILES IDX 4 1 5 2 6 3 7 7 8 8 9 9 2 10 3 11 1 12
REMARK H PARENT 6 4 6 5 6 6 1 13 1 14
REMARK Flexibility Score: inf
ROOT
ATOM      1  C   UNL     1      10.999  -4.167 -34.907  1.00  0.00     0.171 C 
ENDROOT
BRANCH   1   2
ATOM      2  C   UNL     1      12.463  -3.795 -34.584  1.00  0.00     0.237 C 
BRANCH   2   3
ATOM      3  N   UNL     1      13.412  -4.758 -35.160  1.00  0.00    -0.350 N 
ATOM      4  H   UNL     1      12.950  -5.678 -35.349  1.00  0.00     0.345 HD
ATOM      5  H   UNL     1      13.793  -4.381 -36.058  1.00  0.00     0.345 HD
ATOM      6  H   UNL     1      14.210  -4.905 -34.501  1.00  0.00     0.345 HD
ENDBRANCH   2   3
BRANCH   2   7
ATOM      7  C   UNL     1      12.781  -2.385 -35.014  1.00  0.00     0.100 C 
ATOM      8  O   UNL     1      12.621  -1.418 -34.223  1.00  0.00    -0.544 OA
ATOM      9  O   UNL     1      13.307  -2.153 -36.279  1.00  0.00    -0.544 OA
ENDBRANCH   2   7
ENDBRANCH   1   2
BRANCH   1  10
ATOM     10  C   UNL     1      10.820  -4.729 -36.291  1.00  0.00     0.223 C 
ATOM     11  O   UNL     1      10.736  -5.975 -36.454  1.00  0.00    -0.275 OA
ATOM     12  N   UNL     1      10.723  -3.859 -37.419  1.00  0.00    -0.369 N 
ATOM     13  H   UNL     1      10.780  -2.824 -37.301  1.00  0.00     0.159 HD
ATOM     14  H   UNL     1      10.587  -4.253 -38.376  1.00  0.00     0.159 HD
ENDBRANCH   1  10
TORSDOF 4
ENDMDL
MODEL 3
REMARK VINA RESULT:    -3.891      7.112      7.575
REMARK INTER + INTRA:          -5.017
REMARK INTER:                  -4.800
REMARK INTRA:                  -0.217
REMARK UNBOUND:                -0.330
REMARK SMILES NC(=O)C[C@@H]([NH3+])C(=O)[O-]
REMARK SMILES IDX 4 1 5 2 6 3 7 7 8 8 9 9 2 10 3 11 1 12
REMARK H PARENT 6 4 6 5 6 6 1 13 1 14
REMARK Flexibility Score: inf
ROOT
ATOM      1  C   UNL     1      12.561  -2.246 -34.148  1.00  0.00     0.171 C 
ENDROOT
BRANCH   1   2
ATOM      2  C   UNL     1      12.672  -3.147 -35.398  1.00  0.00     0.237 C 
BRANCH   2   3
ATOM      3  N   UNL     1      13.879  -2.851 -36.181  1.00  0.00    -0.350 N 
ATOM      4  H   UNL     1      13.926  -3.443 -37.042  1.00  0.00     0.345 HD
ATOM      5  H   UNL     1      13.875  -1.843 -36.465  1.00  0.00     0.345 HD
ATOM      6  H   UNL     1      14.730  -3.023 -35.600  1.00  0.00     0.345 HD
ENDBRANCH   2   3
BRANCH   2   7
ATOM      7  C   UNL     1      12.598  -4.608 -35.032  1.00  0.00     0.100 C 
ATOM      8  O   UNL     1      12.793  -4.988 -33.847  1.00  0.00    -0.544 OA
ATOM      9  O   UNL     1      12.261  -5.545 -36.002  1.00  0.00    -0.544 OA
ENDBRANCH   2   7
ENDBRANCH   1   2
BRANCH   1  10
ATOM     10  C   UNL     1      12.461  -0.782 -34.478  1.00  0.00     0.223 C 
ATOM     11  O   UNL     1      12.641  -0.393 -35.662  1.00  0.00    -0.275 OA
ATOM     12  N   UNL     1      12.143   0.169 -33.461  1.00  0.00    -0.369 N 
ATOM     13  H   UNL     1      11.981  -0.136 -32.476  1.00  0.00     0.159 HD
ATOM     14  H   UNL     1      12.063   1.183 -33.697  1.00  0.00     0.159 HD
ENDBRANCH   1  10
TORSDOF 4
ENDMDL
MODEL 4
REMARK VINA RESULT:    -3.873     15.997     16.211
REMARK INTER + INTRA:          -4.995
REMARK INTER:                  -4.620
REMARK INTRA:                  -0.375
REMARK UNBOUND:                -0.330
REMARK SMILES NC(=O)C[C@@H]([NH3+])C(=O)[O-]
REMARK SMILES IDX 4 1 5 2 6 3 7 7 8 8 9 9 2 10 3 11 1 12
REMARK H PARENT 6 4 6 5 6 6 1 13 1 14
REMARK Flexibility Score: inf
ROOT
ATOM      1  C   UNL     1       9.419   5.178 -35.740  1.00  0.00     0.171 C 
ENDROOT
BRANCH   1   2
ATOM      2  C   UNL     1       8.088   5.622 -36.385  1.00  0.00     0.237 C 
BRANCH   2   3
ATOM      3  N   UNL     1       6.969   4.759 -35.982  1.00  0.00    -0.350 N 
ATOM      4  H   UNL     1       7.302   3.798 -35.736  1.00  0.00     0.345 HD
ATOM      5  H   UNL     1       6.489   5.173 -35.150  1.00  0.00     0.345 HD
ATOM      6  H   UNL     1       6.275   4.693 -36.761  1.00  0.00     0.345 HD
ENDBRANCH   2   3
BRANCH   2   7
ATOM      7  C   UNL     1       7.794   7.074 -36.099  1.00  0.00     0.100 C 
ATOM      8  O   UNL     1       6.740   7.615 -36.528  1.00  0.00    -0.544 OA
ATOM      9  O   UNL     1       8.668   7.812 -35.310  1.00  0.00    -0.544 OA
ENDBRANCH   2   7
ENDBRANCH   1   2
BRANCH   1  10
ATOM     10  C   UNL     1       9.230   4.309 -34.527  1.00  0.00     0.223 C 
ATOM     11  O   UNL     1       8.706   4.790 -33.487  1.00  0.00    -0.275 OA
ATOM     12  N   UNL     1       9.623   2.937 -34.551  1.00  0.00    -0.369 N 
ATOM     13  H   UNL     1      10.051   2.519 -35.407  1.00  0.00     0.159 HD
ATOM     14  H   UNL     1       9.480   2.334 -33.710  1.00  0.00     0.159 HD
ENDBRANCH   1  10
TORSDOF 4
ENDMDL
MODEL 5
REMARK VINA RESULT:    -3.862     15.521     15.948
REMARK INTER + INTRA:          -4.982
REMARK INTER:                  -4.465
REMARK INTRA:                  -0.517
REMARK UNBOUND:                -0.330
REMARK SMILES NC(=O)C[C@@H]([NH3+])C(=O)[O-]
REMARK SMILES IDX 4 1 5 2 6 3 7 7 8 8 9 9 2 10 3 11 1 12
REMARK H PARENT 6 4 6 5 6 6 1 13 1 14
REMARK Flexibility Score: inf
ROOT
ATOM      1  C   UNL     1       9.108   5.885 -36.862  1.00  0.00     0.171 C 
ENDROOT
BRANCH   1   2
ATOM      2  C   UNL     1      10.092   5.844 -35.672  1.00  0.00     0.237 C 
BRANCH   2   3
ATOM      3  N   UNL     1       9.572   6.571 -34.506  1.00  0.00    -0.350 N 
ATOM      4  H   UNL     1      10.331   6.771 -33.815  1.00  0.00     0.345 HD
ATOM      5  H   UNL     1       9.152   7.478 -34.817  1.00  0.00     0.345 HD
ATOM      6  H   UNL     1       8.825   6.007 -34.041  1.00  0.00     0.345 HD
ENDBRANCH   2   3
BRANCH   2   7
ATOM      7  C   UNL     1      10.466   4.427 -35.315  1.00  0.00     0.100 C 
ATOM      8  O   UNL     1      11.608   3.972 -35.592  1.00  0.00    -0.544 OA
ATOM      9  O   UNL     1       9.562   3.629 -34.626  1.00  0.00    -0.544 OA
ENDBRANCH   2   7
ENDBRANCH   1   2
BRANCH   1  10
ATOM     10  C   UNL     1       7.666   5.952 -36.439  1.00  0.00     0.223 C 
ATOM     11  O   UNL     1       7.087   7.068 -36.362  1.00  0.00    -0.275 OA
ATOM     12  N   UNL     1       6.942   4.758 -36.144  1.00  0.00    -0.369 N 
ATOM     13  H   UNL     1       7.402   3.823 -36.211  1.00  0.00     0.159 HD
ATOM     14  H   UNL     1       5.938   4.808 -35.862  1.00  0.00     0.159 HD
ENDBRANCH   1  10
TORSDOF 4
ENDMDL
MODEL 6
REMARK VINA RESULT:    -3.797     14.900     15.312
REMARK INTER + INTRA:          -4.903
REMARK INTER:                  -4.436
REMARK INTRA:                  -0.467
REMARK UNBOUND:                -0.330
REMARK SMILES NC(=O)C[C@@H]([NH3+])C(=O)[O-]
REMARK SMILES IDX 4 1 5 2 6 3 7 7 8 8 9 9 2 10 3 11 1 12
REMARK H PARENT 6 4 6 5 6 6 1 13 1 14
REMARK Flexibility Score: inf
ROOT
ATOM      1  C   UNL     1       9.972   6.238 -35.276  1.00  0.00     0.171 C 
ENDROOT
BRANCH   1   2
ATOM      2  C   UNL     1       8.733   5.333 -35.097  1.00  0.00     0.237 C 
BRANCH   2   3
ATOM      3  N   UNL     1       8.280   4.766 -36.375  1.00  0.00    -0.350 N 
ATOM      4  H   UNL     1       7.241   4.837 -36.473  1.00  0.00     0.345 HD
ATOM      5  H   UNL     1       8.731   5.280 -37.167  1.00  0.00     0.345 HD
ATOM      6  H   UNL     1       8.561   3.761 -36.435  1.00  0.00     0.345 HD
ENDBRANCH   2   3
BRANCH   2   7
ATOM      7  C   UNL     1       8.982   4.254 -34.073  1.00  0.00     0.100 C 
ATOM      8  O   UNL     1       8.380   4.264 -32.966  1.00  0.00    -0.544 OA
ATOM      9  O   UNL     1       9.844   3.207 -34.372  1.00  0.00    -0.544 OA
ENDBRANCH   2   7
ENDBRANCH   1   2
BRANCH   1  10
ATOM     10  C   UNL     1      10.979   5.682 -36.246  1.00  0.00     0.223 C 
ATOM     11  O   UNL     1      10.874   5.941 -37.474  1.00  0.00    -0.275 OA
ATOM     12  N   UNL     1      12.065   4.880 -35.781  1.00  0.00    -0.369 N 
ATOM     13  H   UNL     1      12.173   4.664 -34.766  1.00  0.00     0.159 HD
ATOM     14  H   UNL     1      12.768   4.506 -36.457  1.00  0.00     0.159 HD
ENDBRANCH   1  10
TORSDOF 4
ENDMDL
MODEL 7
REMARK VINA RESULT:    -3.768      6.439      6.672
REMARK INTER + INTRA:          -4.869
REMARK INTER:                  -4.632
REMARK INTRA:                  -0.237
REMARK UNBOUND:                -0.330
REMARK SMILES NC(=O)C[C@@H]([NH3+])C(=O)[O-]
REMARK SMILES IDX 4 1 5 2 6 3 7 7 8 8 9 9 2 10 3 11 1 12
REMARK H PARENT 6 4 6 5 6 6 1 13 1 14
REMARK Flexibility Score: inf
ROOT
ATOM      1  C   UNL     1      12.524  -4.117 -35.699  1.00  0.00     0.171 C 
ENDROOT
BRANCH   1   2
ATOM      2  C   UNL     1      11.036  -4.147 -36.109  1.00  0.00     0.237 C 
BRANCH   2   3
ATOM      3  N   UNL     1      10.840  -3.690 -37.492  1.00  0.00    -0.350 N 
ATOM      4  H   UNL     1      10.031  -4.179 -37.941  1.00  0.00     0.345 HD
ATOM      5  H   UNL     1      10.658  -2.660 -37.499  1.00  0.00     0.345 HD
ATOM      6  H   UNL     1      11.703  -3.874 -38.052  1.00  0.00     0.345 HD
ENDBRANCH   2   3
BRANCH   2   7
ATOM      7  C   UNL     1      10.430  -5.510 -35.889  1.00  0.00     0.100 C 
ATOM      8  O   UNL     1       9.255  -5.631 -35.449  1.00  0.00    -0.544 OA
ATOM      9  O   UNL     1      11.153  -6.648 -36.224  1.00  0.00    -0.544 OA
ENDBRANCH   2   7
ENDBRANCH   1   2
BRANCH   1  10
ATOM     10  C   UNL     1      13.047  -2.728 -35.459  1.00  0.00     0.223 C 
ATOM     11  O   UNL     1      13.308  -1.979 -36.438  1.00  0.00    -0.275 OA
ATOM     12  N   UNL     1      13.232  -2.243 -34.129  1.00  0.00    -0.369 N 
ATOM     13  H   UNL     1      13.013  -2.846 -33.305  1.00  0.00     0.159 HD
ATOM     14  H   UNL     1      13.585  -1.274 -33.967  1.00  0.00     0.159 HD
ENDBRANCH   1  10
TORSDOF 4
ENDMDL
MODEL 8
REMARK VINA RESULT:    -3.711      2.072      4.108
REMARK INTER + INTRA:          -4.801
REMARK INTER:                  -4.508
REMARK INTRA:                  -0.292
REMARK UNBOUND:                -0.330
REMARK SMILES NC(=O)C[C@@H]([NH3+])C(=O)[O-]
REMARK SMILES IDX 4 1 5 2 6 3 7 7 8 8 9 9 2 10 3 11 1 12
REMARK H PARENT 6 4 6 5 6 6 1 13 1 14
REMARK Flexibility Score: inf
ROOT
ATOM      1  C   UNL     1      15.091  -8.557 -35.855  1.00  0.00     0.171 C 
ENDROOT
BRANCH   1   2
ATOM      2  C   UNL     1      15.333  -9.097 -34.429  1.00  0.00     0.237 C 
BRANCH   2   3
ATOM      3  N   UNL     1      16.752  -9.035 -34.054  1.00  0.00    -0.350 N 
ATOM      4  H   UNL     1      17.208  -9.973 -34.140  1.00  0.00     0.345 HD
ATOM      5  H   UNL     1      17.251  -8.359 -34.677  1.00  0.00     0.345 HD
ATOM      6  H   UNL     1      16.844  -8.700 -33.068  1.00  0.00     0.345 HD
ENDBRANCH   2   3
BRANCH   2   7
ATOM      7  C   UNL     1      14.465  -8.392 -33.417  1.00  0.00     0.100 C 
ATOM      8  O   UNL     1      13.548  -7.610 -33.786  1.00  0.00    -0.544 OA
ATOM      9  O   UNL     1      14.642  -8.644 -32.062  1.00  0.00    -0.544 OA
ENDBRANCH   2   7
ENDBRANCH   1   2
BRANCH   1  10
ATOM     10  C   UNL     1      16.249  -8.792 -36.785  1.00  0.00     0.223 C 
ATOM     11  O   UNL     1      17.193  -7.960 -36.833  1.00  0.00    -0.275 OA
ATOM     12  N   UNL     1      16.297  -9.964 -37.600  1.00  0.00    -0.369 N 
ATOM     13  H   UNL     1      15.529 -10.670 -37.566  1.00  0.00     0.159 HD
ATOM     14  H   UNL     1      17.109 -10.129 -38.236  1.00  0.00     0.159 HD
ENDBRANCH   1  10
TORSDOF 4
ENDMDL
MODEL 9
REMARK VINA RESULT:    -3.703      6.371      7.441
REMARK INTER + INTRA:          -4.790
REMARK INTER:                  -4.350
REMARK INTRA:                  -0.440
REMARK UNBOUND:                -0.330
REMARK SMILES NC(=O)C[C@@H]([NH3+])C(=O)[O-]
REMARK SMILES IDX 4 1 5 2 6 3 7 7 8 8 9 9 2 10 3 11 1 12
REMARK H PARENT 6 4 6 5 6 6 1 13 1 14
REMARK Flexibility Score: inf
ROOT
ATOM      1  C   UNL     1      12.611  -4.726 -35.321  1.00  0.00     0.171 C 
ENDROOT
BRANCH   1   2
ATOM      2  C   UNL     1      12.657  -4.069 -33.925  1.00  0.00     0.237 C 
BRANCH   2   3
ATOM      3  N   UNL     1      13.203  -2.706 -33.979  1.00  0.00    -0.350 N 
ATOM      4  H   UNL     1      13.913  -2.552 -33.226  1.00  0.00     0.345 HD
ATOM      5  H   UNL     1      13.655  -2.546 -34.908  1.00  0.00     0.345 HD
ATOM      6  H   UNL     1      12.430  -2.010 -33.867  1.00  0.00     0.345 HD
ENDBRANCH   2   3
BRANCH   2   7
ATOM      7  C   UNL     1      11.304  -4.094 -33.258  1.00  0.00     0.100 C 
ATOM      8  O   UNL     1      11.111  -3.495 -32.166  1.00  0.00    -0.544 OA
ATOM      9  O   UNL     1      10.243  -4.741 -33.878  1.00  0.00    -0.544 OA
ENDBRANCH   2   7
ENDBRANCH   1   2
BRANCH   1  10
ATOM     10  C   UNL     1      12.102  -3.805 -36.396  1.00  0.00     0.223 C 
ATOM     11  O   UNL     1      12.867  -2.931 -36.884  1.00  0.00    -0.275 OA
ATOM     12  N   UNL     1      10.765  -3.926 -36.881  1.00  0.00    -0.369 N 
ATOM     13  H   UNL     1      10.120  -4.650 -36.494  1.00  0.00     0.159 HD
ATOM     14  H   UNL     1      10.420  -3.291 -37.635  1.00  0.00     0.159 HD
ENDBRANCH   1  10
TORSDOF 4
ENDMDL
