MODEL 1
REMARK VINA RESULT:    -6.856      0.000      0.000
REMARK INTER + INTRA:          -8.590
REMARK INTER:                  -8.259
REMARK INTRA:                  -0.331
REMARK UNBOUND:                -0.331
REMARK SMILES O=c1c(O)c(-c2ccc(O)c(O)c2)oc2cc(O)cc(O)c12
REMARK SMILES IDX 5 1 3 2 2 3 1 4 22 5 20 6 19 7 17 8 16 9 15 10 14 11 6 12
REMARK SMILES IDX 7 13 8 14 9 15 13 16 11 17 10 18 12 20 4 22 21 24 18 26
REMARK H PARENT 10 19 12 21 4 23 21 25 18 27
REMARK Flexibility Score: inf
ROOT
ATOM      1  C   UNL     1     -60.600  20.104 -30.104  1.00  0.00     0.180 A 
ATOM      2  C   UNL     1     -59.492  20.856 -29.677  1.00  0.00     0.208 A 
ATOM      3  C   UNL     1     -59.521  22.252 -29.818  1.00  0.00     0.238 A 
ATOM      4  O   UNL     1     -58.496  22.911 -29.503  1.00  0.00    -0.285 OA
ATOM      5  C   UNL     1     -60.679  22.886 -30.331  1.00  0.00     0.111 A 
ATOM      6  C   UNL     1     -60.836  24.297 -30.476  1.00  0.00     0.134 A 
ATOM      7  C   UNL     1     -61.985  24.805 -31.095  1.00  0.00     0.093 A 
ATOM      8  C   UNL     1     -63.011  23.955 -31.517  1.00  0.00     0.123 A 
ATOM      9  C   UNL     1     -62.892  22.581 -31.330  1.00  0.00     0.094 A 
ATOM     10  C   UNL     1     -61.740  22.042 -30.751  1.00  0.00     0.146 A 
ATOM     11  O   UNL     1     -61.659  20.723 -30.611  1.00  0.00    -0.452 OA
ENDROOT
BRANCH   1  12
ATOM     12  C   UNL     1     -60.638  18.628 -30.002  1.00  0.00     0.025 A 
ATOM     13  C   UNL     1     -61.188  18.029 -28.857  1.00  0.00     0.016 A 
ATOM     14  C   UNL     1     -61.254  16.638 -28.748  1.00  0.00     0.051 A 
ATOM     15  C   UNL     1     -60.785  15.825 -29.788  1.00  0.00     0.157 A 
ATOM     16  C   UNL     1     -60.189  17.809 -31.053  1.00  0.00     0.062 A 
ATOM     17  C   UNL     1     -60.257  16.412 -30.945  1.00  0.00     0.158 A 
BRANCH  15  18
ATOM     18  O   UNL     1     -60.847  14.437 -29.682  1.00  0.00    -0.504 OA
ATOM     19  H   UNL     1     -60.008  13.870 -29.643  1.00  0.00     0.293 HD
ENDBRANCH  15  18
BRANCH  17  20
ATOM     20  O   UNL     1     -59.804  15.601 -31.985  1.00  0.00    -0.504 OA
ATOM     21  H   UNL     1     -59.850  14.591 -31.928  1.00  0.00     0.293 HD
ENDBRANCH  17  20
ENDBRANCH   1  12
BRANCH   2  22
ATOM     22  O   UNL     1     -58.389  20.218 -29.101  1.00  0.00    -0.502 OA
ATOM     23  H   UNL     1     -57.595  19.906 -29.647  1.00  0.00     0.293 HD
ENDBRANCH   2  22
BRANCH   6  24
ATOM     24  O   UNL     1     -59.914  25.240 -30.010  1.00  0.00    -0.507 OA
ATOM     25  H   UNL     1     -60.140  26.183 -29.736  1.00  0.00     0.293 HD
ENDBRANCH   6  24
BRANCH   8  26
ATOM     26  O   UNL     1     -64.158  24.470 -32.116  1.00  0.00    -0.508 OA
ATOM     27  H   UNL     1     -65.040  24.522 -31.618  1.00  0.00     0.293 HD
ENDBRANCH   8  26
TORSDOF 6
ENDMDL
MODEL 2
REMARK VINA RESULT:    -6.820      2.201      6.746
REMARK INTER + INTRA:          -8.547
REMARK INTER:                  -8.399
REMARK INTRA:                  -0.147
REMARK UNBOUND:                -0.331
REMARK SMILES O=c1c(O)c(-c2ccc(O)c(O)c2)oc2cc(O)cc(O)c12
REMARK SMILES IDX 5 1 3 2 2 3 1 4 22 5 20 6 19 7 17 8 16 9 15 10 14 11 6 12
REMARK SMILES IDX 7 13 8 14 9 15 13 16 11 17 10 18 12 20 4 22 21 24 18 26
REMARK H PARENT 10 19 12 21 4 23 21 25 18 27
REMARK Flexibility Score: inf
ROOT
ATOM      1  C   UNL     1     -60.482  22.423 -30.347  1.00  0.00     0.180 A 
ATOM      2  C   UNL     1     -59.215  21.865 -30.591  1.00  0.00     0.208 A 
ATOM      3  C   UNL     1     -59.131  20.527 -31.012  1.00  0.00     0.238 A 
ATOM      4  O   UNL     1     -57.991  20.012 -31.156  1.00  0.00    -0.285 OA
ATOM      5  C   UNL     1     -60.313  19.782 -31.238  1.00  0.00     0.111 A 
ATOM      6  C   UNL     1     -60.348  18.435 -31.707  1.00  0.00     0.134 A 
ATOM      7  C   UNL     1     -61.573  17.763 -31.792  1.00  0.00     0.093 A 
ATOM      8  C   UNL     1     -62.773  18.411 -31.484  1.00  0.00     0.123 A 
ATOM      9  C   UNL     1     -62.755  19.742 -31.078  1.00  0.00     0.094 A 
ATOM     10  C   UNL     1     -61.544  20.427 -30.947  1.00  0.00     0.146 A 
ATOM     11  O   UNL     1     -61.572  21.690 -30.536  1.00  0.00    -0.452 OA
ENDROOT
BRANCH   1  12
ATOM     12  C   UNL     1     -60.652  23.820 -29.887  1.00  0.00     0.025 A 
ATOM     13  C   UNL     1     -60.130  24.206 -28.642  1.00  0.00     0.016 A 
ATOM     14  C   UNL     1     -60.260  25.523 -28.196  1.00  0.00     0.051 A 
ATOM     15  C   UNL     1     -60.900  26.478 -28.996  1.00  0.00     0.157 A 
ATOM     16  C   UNL     1     -61.274  24.788 -30.697  1.00  0.00     0.062 A 
ATOM     17  C   UNL     1     -61.403  26.111 -30.251  1.00  0.00     0.158 A 
BRANCH  15  18
ATOM     18  O   UNL     1     -61.034  27.793 -28.555  1.00  0.00    -0.504 OA
ATOM     19  H   UNL     1     -60.453  28.165 -27.813  1.00  0.00     0.293 HD
ENDBRANCH  15  18
BRANCH  17  20
ATOM     20  O   UNL     1     -62.027  27.067 -31.051  1.00  0.00    -0.504 OA
ATOM     21  H   UNL     1     -62.890  26.866 -31.543  1.00  0.00     0.293 HD
ENDBRANCH  17  20
ENDBRANCH   1  12
BRANCH   2  22
ATOM     22  O   UNL     1     -58.063  22.640 -30.437  1.00  0.00    -0.502 OA
ATOM     23  H   UNL     1     -57.609  22.768 -29.540  1.00  0.00     0.293 HD
ENDBRANCH   2  22
BRANCH   6  24
ATOM     24  O   UNL     1     -59.219  17.722 -32.125  1.00  0.00    -0.507 OA
ATOM     25  H   UNL     1     -58.273  17.917 -31.836  1.00  0.00     0.293 HD
ENDBRANCH   6  24
BRANCH   8  26
ATOM     26  O   UNL     1     -63.989  17.741 -31.588  1.00  0.00    -0.508 OA
ATOM     27  H   UNL     1     -64.234  17.210 -32.417  1.00  0.00     0.293 HD
ENDBRANCH   8  26
TORSDOF 6
ENDMDL
MODEL 3
REMARK VINA RESULT:    -6.804      1.220      2.865
REMARK INTER + INTRA:          -8.527
REMARK INTER:                  -8.206
REMARK INTRA:                  -0.321
REMARK UNBOUND:                -0.331
REMARK SMILES O=c1c(O)c(-c2ccc(O)c(O)c2)oc2cc(O)cc(O)c12
REMARK SMILES IDX 5 1 3 2 2 3 1 4 22 5 20 6 19 7 17 8 16 9 15 10 14 11 6 12
REMARK SMILES IDX 7 13 8 14 9 15 13 16 11 17 10 18 12 20 4 22 21 24 18 26
REMARK H PARENT 10 19 12 21 4 23 21 25 18 27
REMARK Flexibility Score: inf
ROOT
ATOM      1  C   UNL     1     -61.395  20.332 -30.370  1.00  0.00     0.180 A 
ATOM      2  C   UNL     1     -62.569  20.823 -30.966  1.00  0.00     0.208 A 
ATOM      3  C   UNL     1     -62.740  22.211 -31.092  1.00  0.00     0.238 A 
ATOM      4  O   UNL     1     -63.825  22.645 -31.559  1.00  0.00    -0.285 OA
ATOM      5  C   UNL     1     -61.711  23.090 -30.673  1.00  0.00     0.111 A 
ATOM      6  C   UNL     1     -61.757  24.511 -30.794  1.00  0.00     0.134 A 
ATOM      7  C   UNL     1     -60.726  25.285 -30.248  1.00  0.00     0.093 A 
ATOM      8  C   UNL     1     -59.620  24.685 -29.640  1.00  0.00     0.123 A 
ATOM      9  C   UNL     1     -59.539  23.298 -29.566  1.00  0.00     0.094 A 
ATOM     10  C   UNL     1     -60.571  22.500 -30.068  1.00  0.00     0.146 A 
ATOM     11  O   UNL     1     -60.462  21.181 -29.957  1.00  0.00    -0.452 OA
ENDROOT
BRANCH   1  12
ATOM     12  C   UNL     1     -61.149  18.883 -30.188  1.00  0.00     0.025 A 
ATOM     13  C   UNL     1     -61.557  18.258 -28.999  1.00  0.00     0.016 A 
ATOM     14  C   UNL     1     -61.354  16.888 -28.813  1.00  0.00     0.051 A 
ATOM     15  C   UNL     1     -60.756  16.121 -29.821  1.00  0.00     0.157 A 
ATOM     16  C   UNL     1     -60.569  18.105 -31.206  1.00  0.00     0.062 A 
ATOM     17  C   UNL     1     -60.368  16.730 -31.021  1.00  0.00     0.158 A 
BRANCH  15  18
ATOM     18  O   UNL     1     -60.550  14.755 -29.639  1.00  0.00    -0.504 OA
ATOM     19  H   UNL     1     -59.712  14.295 -29.976  1.00  0.00     0.293 HD
ENDBRANCH  15  18
BRANCH  17  20
ATOM     20  O   UNL     1     -59.785  15.960 -32.028  1.00  0.00    -0.504 OA
ATOM     21  H   UNL     1     -58.920  15.456 -31.876  1.00  0.00     0.293 HD
ENDBRANCH  17  20
ENDBRANCH   1  12
BRANCH   2  22
ATOM     22  O   UNL     1     -63.539  19.937 -31.444  1.00  0.00    -0.502 OA
ATOM     23  H   UNL     1     -64.111  20.142 -32.255  1.00  0.00     0.293 HD
ENDBRANCH   2  22
BRANCH   6  24
ATOM     24  O   UNL     1     -62.771  25.208 -31.460  1.00  0.00    -0.507 OA
ATOM     25  H   UNL     1     -62.797  26.207 -31.589  1.00  0.00     0.293 HD
ENDBRANCH   6  24
BRANCH   8  26
ATOM     26  O   UNL     1     -58.591  25.463 -29.114  1.00  0.00    -0.508 OA
ATOM     27  H   UNL     1     -58.511  26.451 -29.324  1.00  0.00     0.293 HD
ENDBRANCH   8  26
TORSDOF 6
ENDMDL
MODEL 4
REMARK VINA RESULT:    -6.654      2.087      6.909
REMARK INTER + INTRA:          -8.346
REMARK INTER:                  -8.167
REMARK INTRA:                  -0.180
REMARK UNBOUND:                -0.331
REMARK SMILES O=c1c(O)c(-c2ccc(O)c(O)c2)oc2cc(O)cc(O)c12
REMARK SMILES IDX 5 1 3 2 2 3 1 4 22 5 20 6 19 7 17 8 16 9 15 10 14 11 6 12
REMARK SMILES IDX 7 13 8 14 9 15 13 16 11 17 10 18 12 20 4 22 21 24 18 26
REMARK H PARENT 10 19 12 21 4 23 21 25 18 27
REMARK Flexibility Score: inf
ROOT
ATOM      1  C   UNL     1     -60.406  22.435 -30.554  1.00  0.00     0.180 A 
ATOM      2  C   UNL     1     -59.251  21.932 -31.176  1.00  0.00     0.208 A 
ATOM      3  C   UNL     1     -59.166  20.556 -31.444  1.00  0.00     0.238 A 
ATOM      4  O   UNL     1     -58.098  20.103 -31.933  1.00  0.00    -0.285 OA
ATOM      5  C   UNL     1     -60.258  19.709 -31.138  1.00  0.00     0.111 A 
ATOM      6  C   UNL     1     -60.299  18.307 -31.406  1.00  0.00     0.134 A 
ATOM      7  C   UNL     1     -61.390  17.550 -30.963  1.00  0.00     0.093 A 
ATOM      8  C   UNL     1     -62.471  18.155 -30.316  1.00  0.00     0.123 A 
ATOM      9  C   UNL     1     -62.466  19.530 -30.099  1.00  0.00     0.094 A 
ATOM     10  C   UNL     1     -61.374  20.306 -30.495  1.00  0.00     0.146 A 
ATOM     11  O   UNL     1     -61.401  21.611 -30.249  1.00  0.00    -0.452 OA
ENDROOT
BRANCH   1  12
ATOM     12  C   UNL     1     -60.565  23.870 -30.226  1.00  0.00     0.025 A 
ATOM     13  C   UNL     1     -61.610  24.601 -30.812  1.00  0.00     0.016 A 
ATOM     14  C   UNL     1     -61.792  25.951 -30.502  1.00  0.00     0.051 A 
ATOM     15  C   UNL     1     -60.940  26.586 -29.589  1.00  0.00     0.157 A 
ATOM     16  C   UNL     1     -59.725  24.506 -29.293  1.00  0.00     0.062 A 
ATOM     17  C   UNL     1     -59.908  25.860 -28.980  1.00  0.00     0.158 A 
BRANCH  15  18
ATOM     18  O   UNL     1     -61.116  27.933 -29.278  1.00  0.00    -0.504 OA
ATOM     19  H   UNL     1     -62.002  28.287 -28.936  1.00  0.00     0.293 HD
ENDBRANCH  15  18
BRANCH  17  20
ATOM     20  O   UNL     1     -59.070  26.491 -28.061  1.00  0.00    -0.504 OA
ATOM     21  H   UNL     1     -58.090  26.653 -28.261  1.00  0.00     0.293 HD
ENDBRANCH  17  20
ENDBRANCH   1  12
BRANCH   2  22
ATOM     22  O   UNL     1     -58.216  22.797 -31.541  1.00  0.00    -0.502 OA
ATOM     23  H   UNL     1     -58.383  23.751 -31.838  1.00  0.00     0.293 HD
ENDBRANCH   2  22
BRANCH   6  24
ATOM     24  O   UNL     1     -59.315  17.618 -32.122  1.00  0.00    -0.507 OA
ATOM     25  H   UNL     1     -58.373  17.946 -32.273  1.00  0.00     0.293 HD
ENDBRANCH   6  24
BRANCH   8  26
ATOM     26  O   UNL     1     -63.561  17.397 -29.894  1.00  0.00    -0.508 OA
ATOM     27  H   UNL     1     -63.734  16.467 -30.258  1.00  0.00     0.293 HD
ENDBRANCH   8  26
TORSDOF 6
ENDMDL
MODEL 5
REMARK VINA RESULT:    -6.241      2.172      3.128
REMARK INTER + INTRA:          -7.848
REMARK INTER:                  -7.527
REMARK INTRA:                  -0.321
REMARK UNBOUND:                -0.331
REMARK SMILES O=c1c(O)c(-c2ccc(O)c(O)c2)oc2cc(O)cc(O)c12
REMARK SMILES IDX 5 1 3 2 2 3 1 4 22 5 20 6 19 7 17 8 16 9 15 10 14 11 6 12
REMARK SMILES IDX 7 13 8 14 9 15 13 16 11 17 10 18 12 20 4 22 21 24 18 26
REMARK H PARENT 10 19 12 21 4 23 21 25 18 27
REMARK Flexibility Score: inf
ROOT
ATOM      1  C   UNL     1     -60.059  22.300 -30.156  1.00  0.00     0.180 A 
ATOM      2  C   UNL     1     -58.710  22.691 -30.213  1.00  0.00     0.208 A 
ATOM      3  C   UNL     1     -58.373  24.020 -29.910  1.00  0.00     0.238 A 
ATOM      4  O   UNL     1     -57.174  24.381 -30.035  1.00  0.00    -0.285 OA
ATOM      5  C   UNL     1     -59.380  24.928 -29.499  1.00  0.00     0.111 A 
ATOM      6  C   UNL     1     -59.146  26.285 -29.125  1.00  0.00     0.134 A 
ATOM      7  C   UNL     1     -60.233  27.120 -28.838  1.00  0.00     0.093 A 
ATOM      8  C   UNL     1     -61.541  26.629 -28.851  1.00  0.00     0.123 A 
ATOM      9  C   UNL     1     -61.776  25.292 -29.161  1.00  0.00     0.094 A 
ATOM     10  C   UNL     1     -60.714  24.445 -29.489  1.00  0.00     0.146 A 
ATOM     11  O   UNL     1     -60.985  23.182 -29.799  1.00  0.00    -0.452 OA
ENDROOT
BRANCH   1  12
ATOM     12  C   UNL     1     -60.494  20.922 -30.476  1.00  0.00     0.025 A 
ATOM     13  C   UNL     1     -60.847  20.598 -31.795  1.00  0.00     0.016 A 
ATOM     14  C   UNL     1     -61.242  19.299 -32.125  1.00  0.00     0.051 A 
ATOM     15  C   UNL     1     -61.274  18.301 -31.143  1.00  0.00     0.157 A 
ATOM     16  C   UNL     1     -60.507  19.911 -29.497  1.00  0.00     0.062 A 
ATOM     17  C   UNL     1     -60.900  18.607 -29.828  1.00  0.00     0.158 A 
BRANCH  15  18
ATOM     18  O   UNL     1     -61.668  17.004 -31.467  1.00  0.00    -0.504 OA
ATOM     19  H   UNL     1     -61.781  16.709 -32.429  1.00  0.00     0.293 HD
ENDBRANCH  15  18
BRANCH  17  20
ATOM     20  O   UNL     1     -60.920  17.608 -28.855  1.00  0.00    -0.504 OA
ATOM     21  H   UNL     1     -61.776  17.129 -28.603  1.00  0.00     0.293 HD
ENDBRANCH  17  20
ENDBRANCH   1  12
BRANCH   2  22
ATOM     22  O   UNL     1     -57.722  21.761 -30.545  1.00  0.00    -0.502 OA
ATOM     23  H   UNL     1     -57.141  21.311 -29.847  1.00  0.00     0.293 HD
ENDBRANCH   2  22
BRANCH   6  24
ATOM     24  O   UNL     1     -57.875  26.854 -28.995  1.00  0.00    -0.507 OA
ATOM     25  H   UNL     1     -57.072  26.608 -29.552  1.00  0.00     0.293 HD
ENDBRANCH   6  24
BRANCH   8  26
ATOM     26  O   UNL     1     -62.616  27.462 -28.547  1.00  0.00    -0.508 OA
ATOM     27  H   UNL     1     -62.577  28.461 -28.716  1.00  0.00     0.293 HD
ENDBRANCH   8  26
TORSDOF 6
ENDMDL
MODEL 6
REMARK VINA RESULT:    -5.803      2.664      8.111
REMARK INTER + INTRA:          -7.321
REMARK INTER:                  -7.581
REMARK INTRA:                   0.259
REMARK UNBOUND:                -0.331
REMARK SMILES O=c1c(O)c(-c2ccc(O)c(O)c2)oc2cc(O)cc(O)c12
REMARK SMILES IDX 5 1 3 2 2 3 1 4 22 5 20 6 19 7 17 8 16 9 15 10 14 11 6 12
REMARK SMILES IDX 7 13 8 14 9 15 13 16 11 17 10 18 12 20 4 22 21 24 18 26
REMARK H PARENT 10 19 12 21 4 23 21 25 18 27
REMARK Flexibility Score: inf
ROOT
ATOM      1  C   UNL     1     -60.333  24.535 -29.677  1.00  0.00     0.180 A 
ATOM      2  C   UNL     1     -61.071  24.104 -30.792  1.00  0.00     0.208 A 
ATOM      3  C   UNL     1     -61.129  22.732 -31.082  1.00  0.00     0.238 A 
ATOM      4  O   UNL     1     -61.729  22.361 -32.125  1.00  0.00    -0.285 OA
ATOM      5  C   UNL     1     -60.496  21.801 -30.223  1.00  0.00     0.111 A 
ATOM      6  C   UNL     1     -60.527  20.385 -30.394  1.00  0.00     0.134 A 
ATOM      7  C   UNL     1     -59.775  19.568 -29.540  1.00  0.00     0.093 A 
ATOM      8  C   UNL     1     -59.044  20.113 -28.482  1.00  0.00     0.123 A 
ATOM      9  C   UNL     1     -59.051  21.489 -28.272  1.00  0.00     0.094 A 
ATOM     10  C   UNL     1     -59.761  22.333 -29.131  1.00  0.00     0.146 A 
ATOM     11  O   UNL     1     -59.723  23.642 -28.907  1.00  0.00    -0.452 OA
ENDROOT
BRANCH   1  12
ATOM     12  C   UNL     1     -60.213  25.965 -29.315  1.00  0.00     0.025 A 
ATOM     13  C   UNL     1     -59.018  26.436 -28.748  1.00  0.00     0.016 A 
ATOM     14  C   UNL     1     -58.874  27.786 -28.418  1.00  0.00     0.051 A 
ATOM     15  C   UNL     1     -59.917  28.687 -28.664  1.00  0.00     0.157 A 
ATOM     16  C   UNL     1     -61.250  26.878 -29.580  1.00  0.00     0.062 A 
ATOM     17  C   UNL     1     -61.105  28.233 -29.251  1.00  0.00     0.158 A 
BRANCH  15  18
ATOM     18  O   UNL     1     -59.778  30.034 -28.334  1.00  0.00    -0.504 OA
ATOM     19  H   UNL     1     -60.558  30.578 -27.984  1.00  0.00     0.293 HD
ENDBRANCH  15  18
BRANCH  17  20
ATOM     20  O   UNL     1     -62.136  29.136 -29.507  1.00  0.00    -0.504 OA
ATOM     21  H   UNL     1     -62.016  30.132 -29.367  1.00  0.00     0.293 HD
ENDBRANCH  17  20
ENDBRANCH   1  12
BRANCH   2  22
ATOM     22  O   UNL     1     -61.753  25.032 -31.585  1.00  0.00    -0.502 OA
ATOM     23  H   UNL     1     -61.307  25.530 -32.345  1.00  0.00     0.293 HD
ENDBRANCH   2  22
BRANCH   6  24
ATOM     24  O   UNL     1     -61.294  19.730 -31.364  1.00  0.00    -0.507 OA
ATOM     25  H   UNL     1     -61.050  19.652 -32.339  1.00  0.00     0.293 HD
ENDBRANCH   6  24
BRANCH   8  26
ATOM     26  O   UNL     1     -58.313  19.292 -27.627  1.00  0.00    -0.508 OA
ATOM     27  H   UNL     1     -57.539  19.650 -27.079  1.00  0.00     0.293 HD
ENDBRANCH   8  26
TORSDOF 6
ENDMDL
MODEL 7
REMARK VINA RESULT:    -5.705      1.875      3.742
REMARK INTER + INTRA:          -7.203
REMARK INTER:                  -7.031
REMARK INTRA:                  -0.173
REMARK UNBOUND:                -0.331
REMARK SMILES O=c1c(O)c(-c2ccc(O)c(O)c2)oc2cc(O)cc(O)c12
REMARK SMILES IDX 5 1 3 2 2 3 1 4 22 5 20 6 19 7 17 8 16 9 15 10 14 11 6 12
REMARK SMILES IDX 7 13 8 14 9 15 13 16 11 17 10 18 12 20 4 22 21 24 18 26
REMARK H PARENT 10 19 12 21 4 23 21 25 18 27
REMARK Flexibility Score: inf
ROOT
ATOM      1  C   UNL     1     -61.274  22.047 -30.605  1.00  0.00     0.180 A 
ATOM      2  C   UNL     1     -62.288  22.694 -31.331  1.00  0.00     0.208 A 
ATOM      3  C   UNL     1     -62.389  24.093 -31.260  1.00  0.00     0.238 A 
ATOM      4  O   UNL     1     -63.345  24.659 -31.852  1.00  0.00    -0.285 OA
ATOM      5  C   UNL     1     -61.440  24.832 -30.513  1.00  0.00     0.111 A 
ATOM      6  C   UNL     1     -61.419  26.256 -30.408  1.00  0.00     0.134 A 
ATOM      7  C   UNL     1     -60.497  26.872 -29.554  1.00  0.00     0.093 A 
ATOM      8  C   UNL     1     -59.554  26.120 -28.848  1.00  0.00     0.123 A 
ATOM      9  C   UNL     1     -59.531  24.735 -28.985  1.00  0.00     0.094 A 
ATOM     10  C   UNL     1     -60.463  24.088 -29.801  1.00  0.00     0.146 A 
ATOM     11  O   UNL     1     -60.419  22.763 -29.886  1.00  0.00    -0.452 OA
ENDROOT
BRANCH   1  12
ATOM     12  C   UNL     1     -61.113  20.575 -30.616  1.00  0.00     0.025 A 
ATOM     13  C   UNL     1     -59.917  20.015 -31.093  1.00  0.00     0.016 A 
ATOM     14  C   UNL     1     -59.734  18.630 -31.094  1.00  0.00     0.051 A 
ATOM     15  C   UNL     1     -60.738  17.785 -30.604  1.00  0.00     0.157 A 
ATOM     16  C   UNL     1     -62.110  19.725 -30.104  1.00  0.00     0.062 A 
ATOM     17  C   UNL     1     -61.926  18.335 -30.103  1.00  0.00     0.158 A 
BRANCH  15  18
ATOM     18  O   UNL     1     -60.561  16.403 -30.605  1.00  0.00    -0.504 OA
ATOM     19  H   UNL     1     -59.951  15.947 -31.273  1.00  0.00     0.293 HD
ENDBRANCH  15  18
BRANCH  17  20
ATOM     20  O   UNL     1     -62.918  17.492 -29.602  1.00  0.00    -0.504 OA
ATOM     21  H   UNL     1     -63.533  16.973 -30.217  1.00  0.00     0.293 HD
ENDBRANCH  17  20
ENDBRANCH   1  12
BRANCH   2  22
ATOM     22  O   UNL     1     -63.168  21.953 -32.125  1.00  0.00    -0.502 OA
ATOM     23  H   UNL     1     -62.951  21.018 -32.449  1.00  0.00     0.293 HD
ENDBRANCH   2  22
BRANCH   6  24
ATOM     24  O   UNL     1     -62.257  27.107 -31.136  1.00  0.00    -0.507 OA
ATOM     25  H   UNL     1     -62.049  27.480 -32.049  1.00  0.00     0.293 HD
ENDBRANCH   6  24
BRANCH   8  26
ATOM     26  O   UNL     1     -58.629  26.743 -28.013  1.00  0.00    -0.508 OA
ATOM     27  H   UNL     1     -57.758  27.118 -28.371  1.00  0.00     0.293 HD
ENDBRANCH   8  26
TORSDOF 6
ENDMDL
MODEL 8
REMARK VINA RESULT:    -5.580      2.244      6.778
REMARK INTER + INTRA:          -7.053
REMARK INTER:                  -6.780
REMARK INTRA:                  -0.273
REMARK UNBOUND:                -0.331
REMARK SMILES O=c1c(O)c(-c2ccc(O)c(O)c2)oc2cc(O)cc(O)c12
REMARK SMILES IDX 5 1 3 2 2 3 1 4 22 5 20 6 19 7 17 8 16 9 15 10 14 11 6 12
REMARK SMILES IDX 7 13 8 14 9 15 13 16 11 17 10 18 12 20 4 22 21 24 18 26
REMARK H PARENT 10 19 12 21 4 23 21 25 18 27
REMARK Flexibility Score: inf
ROOT
ATOM      1  C   UNL     1     -59.977  22.154 -29.344  1.00  0.00     0.180 A 
ATOM      2  C   UNL     1     -59.235  21.157 -28.687  1.00  0.00     0.208 A 
ATOM      3  C   UNL     1     -59.609  19.813 -28.847  1.00  0.00     0.238 A 
ATOM      4  O   UNL     1     -58.986  18.933 -28.197  1.00  0.00    -0.285 OA
ATOM      5  C   UNL     1     -60.683  19.477 -29.706  1.00  0.00     0.111 A 
ATOM      6  C   UNL     1     -61.120  18.145 -29.977  1.00  0.00     0.134 A 
ATOM      7  C   UNL     1     -62.262  17.939 -30.760  1.00  0.00     0.093 A 
ATOM      8  C   UNL     1     -62.947  19.013 -31.333  1.00  0.00     0.123 A 
ATOM      9  C   UNL     1     -62.497  20.313 -31.120  1.00  0.00     0.094 A 
ATOM     10  C   UNL     1     -61.383  20.553 -30.311  1.00  0.00     0.146 A 
ATOM     11  O   UNL     1     -61.001  21.810 -30.117  1.00  0.00    -0.452 OA
ENDROOT
BRANCH   1  12
ATOM     12  C   UNL     1     -59.655  23.593 -29.213  1.00  0.00     0.025 A 
ATOM     13  C   UNL     1     -58.578  24.127 -29.938  1.00  0.00     0.016 A 
ATOM     14  C   UNL     1     -58.267  25.486 -29.846  1.00  0.00     0.051 A 
ATOM     15  C   UNL     1     -59.039  26.333 -29.040  1.00  0.00     0.157 A 
ATOM     16  C   UNL     1     -60.440  24.451 -28.422  1.00  0.00     0.062 A 
ATOM     17  C   UNL     1     -60.130  25.815 -28.331  1.00  0.00     0.158 A 
BRANCH  15  18
ATOM     18  O   UNL     1     -58.731  27.689 -28.945  1.00  0.00    -0.504 OA
ATOM     19  H   UNL     1     -58.580  28.258 -29.769  1.00  0.00     0.293 HD
ENDBRANCH  15  18
BRANCH  17  20
ATOM     20  O   UNL     1     -60.905  26.664 -27.542  1.00  0.00    -0.504 OA
ATOM     21  H   UNL     1     -60.901  26.598 -26.531  1.00  0.00     0.293 HD
ENDBRANCH  17  20
ENDBRANCH   1  12
BRANCH   2  22
ATOM     22  O   UNL     1     -58.129  21.504 -27.906  1.00  0.00    -0.502 OA
ATOM     23  H   UNL     1     -58.155  22.260 -27.232  1.00  0.00     0.293 HD
ENDBRANCH   2  22
BRANCH   6  24
ATOM     24  O   UNL     1     -60.459  16.997 -29.528  1.00  0.00    -0.507 OA
ATOM     25  H   UNL     1     -59.615  16.621 -29.932  1.00  0.00     0.293 HD
ENDBRANCH   6  24
BRANCH   8  26
ATOM     26  O   UNL     1     -64.072  18.797 -32.125  1.00  0.00    -0.508 OA
ATOM     27  H   UNL     1     -64.490  17.878 -32.215  1.00  0.00     0.293 HD
ENDBRANCH   8  26
TORSDOF 6
ENDMDL
MODEL 9
REMARK VINA RESULT:    -4.966      2.182      6.799
REMARK INTER + INTRA:          -6.313
REMARK INTER:                  -6.102
REMARK INTRA:                  -0.211
REMARK UNBOUND:                -0.331
REMARK SMILES O=c1c(O)c(-c2ccc(O)c(O)c2)oc2cc(O)cc(O)c12
REMARK SMILES IDX 5 1 3 2 2 3 1 4 22 5 20 6 19 7 17 8 16 9 15 10 14 11 6 12
REMARK SMILES IDX 7 13 8 14 9 15 13 16 11 17 10 18 12 20 4 22 21 24 18 26
REMARK H PARENT 10 19 12 21 4 23 21 25 18 27
REMARK Flexibility Score: inf
ROOT
ATOM      1  C   UNL     1     -60.290  21.271 -30.688  1.00  0.00     0.180 A 
ATOM      2  C   UNL     1     -61.622  21.590 -31.002  1.00  0.00     0.208 A 
ATOM      3  C   UNL     1     -62.619  20.620 -30.810  1.00  0.00     0.238 A 
ATOM      4  O   UNL     1     -63.797  20.888 -31.163  1.00  0.00    -0.285 OA
ATOM      5  C   UNL     1     -62.281  19.363 -30.252  1.00  0.00     0.111 A 
ATOM      6  C   UNL     1     -63.216  18.321 -29.972  1.00  0.00     0.134 A 
ATOM      7  C   UNL     1     -62.752  17.080 -29.519  1.00  0.00     0.093 A 
ATOM      8  C   UNL     1     -61.393  16.863 -29.277  1.00  0.00     0.123 A 
ATOM      9  C   UNL     1     -60.480  17.890 -29.495  1.00  0.00     0.094 A 
ATOM     10  C   UNL     1     -60.908  19.127 -29.983  1.00  0.00     0.146 A 
ATOM     11  O   UNL     1     -59.999  20.072 -30.198  1.00  0.00    -0.452 OA
ENDROOT
BRANCH   1  12
ATOM     12  C   UNL     1     -59.182  22.234 -30.878  1.00  0.00     0.025 A 
ATOM     13  C   UNL     1     -58.258  22.028 -31.914  1.00  0.00     0.016 A 
ATOM     14  C   UNL     1     -57.216  22.935 -32.125  1.00  0.00     0.051 A 
ATOM     15  C   UNL     1     -57.093  24.070 -31.313  1.00  0.00     0.157 A 
ATOM     16  C   UNL     1     -59.068  23.386 -30.079  1.00  0.00     0.062 A 
ATOM     17  C   UNL     1     -58.024  24.298 -30.291  1.00  0.00     0.158 A 
BRANCH  15  18
ATOM     18  O   UNL     1     -56.055  24.976 -31.519  1.00  0.00    -0.504 OA
ATOM     19  H   UNL     1     -56.120  25.937 -31.205  1.00  0.00     0.293 HD
ENDBRANCH  15  18
BRANCH  17  20
ATOM     20  O   UNL     1     -57.908  25.436 -29.494  1.00  0.00    -0.504 OA
ATOM     21  H   UNL     1     -57.005  25.842 -29.278  1.00  0.00     0.293 HD
ENDBRANCH  17  20
ENDBRANCH   1  12
BRANCH   2  22
ATOM     22  O   UNL     1     -61.946  22.864 -31.479  1.00  0.00    -0.502 OA
ATOM     23  H   UNL     1     -61.628  23.711 -31.025  1.00  0.00     0.293 HD
ENDBRANCH   2  22
BRANCH   6  24
ATOM     24  O   UNL     1     -64.603  18.459 -30.094  1.00  0.00    -0.507 OA
ATOM     25  H   UNL     1     -65.165  19.122 -29.582  1.00  0.00     0.293 HD
ENDBRANCH   6  24
BRANCH   8  26
ATOM     26  O   UNL     1     -60.943  15.630 -28.811  1.00  0.00    -0.508 OA
ATOM     27  H   UNL     1     -59.984  15.331 -28.941  1.00  0.00     0.293 HD
ENDBRANCH   8  26
TORSDOF 6
ENDMDL
