MODEL 1
REMARK VINA RESULT:    -7.458      0.000      0.000
REMARK INTER + INTRA:          -7.894
REMARK INTER:                  -7.894
REMARK INTRA:                   0.000
REMARK UNBOUND:                 0.000
REMARK SMILES C[C@H]1CC[C@H]2[N@H+](C1)C[C@@H]1[C@H]3C[C@@H]4[C@H](CC(=O)[C@H]5C[C@H](O)CC[C@@]54C)[C@H]3CC[C@H]1[C@@]2(C)O
REMARK SMILES IDX 5 1 6 2 8 3 7 4 4 5 29 6 3 7 28 8 30 9 2 10 27 11 9 12 1 13
REMARK SMILES IDX 26 14 10 15 25 16 11 17 13 18 12 19 14 20 23 21 15 22 17 23
REMARK SMILES IDX 22 24 24 25 16 26 18 27 21 28 19 29 31 31 20 33
REMARK H PARENT 6 30 31 32 20 34
REMARK Flexibility Score: inf
ROOT
ATOM      1  C   UNL     1      -2.586  -5.462  -2.576  1.00  0.00     0.216 C 
ATOM      2  N   UNL     1      -1.821  -6.554  -1.910  1.00  0.00    -0.330 N 
ATOM      3  C   UNL     1      -2.634  -7.210  -0.866  1.00  0.00     0.266 C 
ATOM      4  C   UNL     1      -1.414  -7.584  -2.901  1.00  0.00     0.265 C 
ATOM      5  C   UNL     1      -1.752  -4.794  -3.720  1.00  0.00     0.069 C 
ATOM      6  C   UNL     1      -3.137  -4.390  -1.559  1.00  0.00     0.117 C 
ATOM      7  C   UNL     1      -0.413  -5.486  -3.989  1.00  0.00     0.015 C 
ATOM      8  C   UNL     1      -3.845  -5.075  -0.334  1.00  0.00     0.036 C 
ATOM      9  C   UNL     1      -4.168  -3.505  -2.305  1.00  0.00     0.049 C 
ATOM     10  C   UNL     1      -0.564  -7.012  -4.070  1.00  0.00     0.041 C 
ATOM     11  C   UNL     1      -4.165  -4.081   0.802  1.00  0.00     0.007 C 
ATOM     12  C   UNL     1      -3.002  -6.225   0.256  1.00  0.00     0.054 C 
ATOM     13  C   UNL     1      -1.131  -7.442  -5.430  1.00  0.00     0.013 C 
ATOM     14  C   UNL     1      -5.039  -4.746   1.859  1.00  0.00     0.004 C 
ATOM     15  C   UNL     1      -3.737  -6.977   1.413  1.00  0.00     0.002 C 
ATOM     16  C   UNL     1      -4.431  -6.039   2.436  1.00  0.00    -0.004 C 
ATOM     17  C   UNL     1      -2.721  -7.804   2.255  1.00  0.00     0.009 C 
ATOM     18  C   UNL     1      -3.369  -5.834   3.510  1.00  0.00     0.003 C 
ATOM     19  C   UNL     1      -2.806  -7.246   3.683  1.00  0.00    -0.000 C 
ATOM     20  C   UNL     1      -3.850  -5.295   4.877  1.00  0.00     0.080 C 
ATOM     21  C   UNL     1      -1.562  -7.338   4.674  1.00  0.00    -0.020 C 
ATOM     22  C   UNL     1      -2.744  -5.457   5.902  1.00  0.00     0.136 C 
ATOM     23  C   UNL     1      -1.398  -5.975   5.433  1.00  0.00     0.065 C 
ATOM     24  C   UNL     1      -0.208  -7.613   3.962  1.00  0.00     0.010 C 
ATOM     25  C   UNL     1      -1.863  -8.501   5.667  1.00  0.00     0.012 C 
ATOM     26  O   UNL     1      -2.950  -5.193   7.077  1.00  0.00    -0.299 OA
ATOM     27  C   UNL     1      -0.281  -6.006   6.490  1.00  0.00     0.043 C 
ATOM     28  C   UNL     1       0.997  -7.608   4.933  1.00  0.00     0.032 C 
ATOM     29  C   UNL     1       1.070  -6.344   5.824  1.00  0.00     0.115 C 
ATOM     30  H   UNL     1      -0.957  -6.173  -1.456  1.00  0.00     0.348 HD
ENDROOT
BRANCH   6  31
ATOM     31  O   UNL     1      -2.099  -3.541  -1.119  1.00  0.00    -0.384 OA
ATOM     32  H   UNL     1      -1.732  -3.899  -0.272  1.00  0.00     0.211 HD
ENDBRANCH   6  31
BRANCH  29  33
ATOM     33  O   UNL     1       1.500  -5.244   5.062  1.00  0.00    -0.393 OA
ATOM     34  H   UNL     1       0.685  -4.739   4.802  1.00  0.00     0.210 HD
ENDBRANCH  29  33
TORSDOF 2
ENDMDL
MODEL 2
REMARK VINA RESULT:    -7.400     10.775     14.448
REMARK INTER + INTRA:          -7.832
REMARK INTER:                  -7.832
REMARK INTRA:                   0.000
REMARK UNBOUND:                 0.000
REMARK SMILES C[C@H]1CC[C@H]2[N@H+](C1)C[C@@H]1[C@H]3C[C@@H]4[C@H](CC(=O)[C@H]5C[C@H](O)CC[C@@]54C)[C@H]3CC[C@H]1[C@@]2(C)O
REMARK SMILES IDX 5 1 6 2 8 3 7 4 4 5 29 6 3 7 28 8 30 9 2 10 27 11 9 12 1 13
REMARK SMILES IDX 26 14 10 15 25 16 11 17 13 18 12 19 14 20 23 21 15 22 17 23
REMARK SMILES IDX 22 24 24 25 16 26 18 27 21 28 19 29 31 31 20 33
REMARK H PARENT 6 30 31 32 20 34
REMARK Flexibility Score: inf
ROOT
ATOM      1  C   UNL     1       8.641  -0.931  -1.113  1.00  0.00     0.216 C 
ATOM      2  N   UNL     1       8.669  -2.421  -1.142  1.00  0.00    -0.330 N 
ATOM      3  C   UNL     1       9.616  -2.913  -2.163  1.00  0.00     0.266 C 
ATOM      4  C   UNL     1       9.083  -2.959   0.179  1.00  0.00     0.265 C 
ATOM      5  C   UNL     1       7.679  -0.397  -0.000  1.00  0.00     0.069 C 
ATOM      6  C   UNL     1       8.310  -0.296  -2.519  1.00  0.00     0.117 C 
ATOM      7  C   UNL     1       7.094  -1.500   0.887  1.00  0.00     0.015 C 
ATOM      8  C   UNL     1       9.178  -0.944  -3.658  1.00  0.00     0.036 C 
ATOM      9  C   UNL     1       8.625   1.220  -2.448  1.00  0.00     0.049 C 
ATOM     10  C   UNL     1       8.170  -2.494   1.348  1.00  0.00     0.041 C 
ATOM     11  C   UNL     1       8.705  -0.540  -5.071  1.00  0.00     0.007 C 
ATOM     12  C   UNL     1       9.188  -2.485  -3.575  1.00  0.00     0.054 C 
ATOM     13  C   UNL     1       9.000  -1.917   2.504  1.00  0.00     0.013 C 
ATOM     14  C   UNL     1       9.705  -1.012  -6.120  1.00  0.00     0.004 C 
ATOM     15  C   UNL     1      10.125  -3.138  -4.644  1.00  0.00     0.002 C 
ATOM     16  C   UNL     1       9.988  -2.526  -6.064  1.00  0.00    -0.004 C 
ATOM     17  C   UNL     1       9.777  -4.645  -4.822  1.00  0.00     0.009 C 
ATOM     18  C   UNL     1       8.939  -3.408  -6.732  1.00  0.00     0.003 C 
ATOM     19  C   UNL     1       9.368  -4.811  -6.293  1.00  0.00    -0.000 C 
ATOM     20  C   UNL     1       8.856  -3.349  -8.274  1.00  0.00     0.080 C 
ATOM     21  C   UNL     1       8.370  -5.969  -6.742  1.00  0.00    -0.020 C 
ATOM     22  C   UNL     1       8.007  -4.500  -8.780  1.00  0.00     0.136 C 
ATOM     23  C   UNL     1       7.326  -5.393  -7.760  1.00  0.00     0.065 C 
ATOM     24  C   UNL     1       7.554  -6.585  -5.572  1.00  0.00     0.010 C 
ATOM     25  C   UNL     1       9.242  -7.081  -7.399  1.00  0.00     0.012 C 
ATOM     26  O   UNL     1       7.897  -4.704  -9.979  1.00  0.00    -0.299 OA
ATOM     27  C   UNL     1       6.384  -6.469  -8.328  1.00  0.00     0.043 C 
ATOM     28  C   UNL     1       6.529  -7.645  -6.043  1.00  0.00     0.032 C 
ATOM     29  C   UNL     1       5.605  -7.149  -7.181  1.00  0.00     0.115 C 
ATOM     30  H   UNL     1       7.719  -2.801  -1.372  1.00  0.00     0.348 HD
ENDROOT
BRANCH   6  31
ATOM     31  O   UNL     1       6.935  -0.424  -2.812  1.00  0.00    -0.384 OA
ATOM     32  H   UNL     1       6.413  -0.118  -2.028  1.00  0.00     0.211 HD
ENDBRANCH   6  31
BRANCH  29  33
ATOM     33  O   UNL     1       4.652  -6.251  -6.670  1.00  0.00    -0.393 OA
ATOM     34  H   UNL     1       4.469  -5.589  -7.388  1.00  0.00     0.210 HD
ENDBRANCH  29  33
TORSDOF 2
ENDMDL
MODEL 3
REMARK VINA RESULT:    -7.327      1.325      1.647
REMARK INTER + INTRA:          -7.756
REMARK INTER:                  -7.756
REMARK INTRA:                   0.000
REMARK UNBOUND:                 0.000
REMARK SMILES C[C@H]1CC[C@H]2[N@H+](C1)C[C@@H]1[C@H]3C[C@@H]4[C@H](CC(=O)[C@H]5C[C@H](O)CC[C@@]54C)[C@H]3CC[C@H]1[C@@]2(C)O
REMARK SMILES IDX 5 1 6 2 8 3 7 4 4 5 29 6 3 7 28 8 30 9 2 10 27 11 9 12 1 13
REMARK SMILES IDX 26 14 10 15 25 16 11 17 13 18 12 19 14 20 23 21 15 22 17 23
REMARK SMILES IDX 22 24 24 25 16 26 18 27 21 28 19 29 31 31 20 33
REMARK H PARENT 6 30 31 32 20 34
REMARK Flexibility Score: inf
ROOT
ATOM      1  C   UNL     1      -1.974  -6.777  -2.798  1.00  0.00     0.216 C 
ATOM      2  N   UNL     1      -1.694  -7.725  -1.683  1.00  0.00    -0.330 N 
ATOM      3  C   UNL     1      -2.770  -7.687  -0.672  1.00  0.00     0.266 C 
ATOM      4  C   UNL     1      -1.584  -9.114  -2.197  1.00  0.00     0.265 C 
ATOM      5  C   UNL     1      -0.867  -6.846  -3.902  1.00  0.00     0.069 C 
ATOM      6  C   UNL     1      -2.206  -5.297  -2.301  1.00  0.00     0.117 C 
ATOM      7  C   UNL     1       0.169  -7.948  -3.664  1.00  0.00     0.015 C 
ATOM      8  C   UNL     1      -3.210  -5.251  -1.092  1.00  0.00     0.036 C 
ATOM      9  C   UNL     1      -2.801  -4.483  -3.480  1.00  0.00     0.049 C 
ATOM     10  C   UNL     1      -0.491  -9.283  -3.290  1.00  0.00     0.041 C 
ATOM     11  C   UNL     1      -3.263  -3.865  -0.415  1.00  0.00     0.007 C 
ATOM     12  C   UNL     1      -2.870  -6.301  -0.015  1.00  0.00     0.054 C 
ATOM     13  C   UNL     1      -1.053  -9.991  -4.532  1.00  0.00     0.013 C 
ATOM     14  C   UNL     1      -4.400  -3.813   0.599  1.00  0.00     0.004 C 
ATOM     15  C   UNL     1      -3.915  -6.330   1.148  1.00  0.00     0.002 C 
ATOM     16  C   UNL     1      -4.328  -4.926   1.663  1.00  0.00    -0.004 C 
ATOM     17  C   UNL     1      -3.323  -7.055   2.393  1.00  0.00     0.009 C 
ATOM     18  C   UNL     1      -3.356  -4.666   2.808  1.00  0.00     0.003 C 
ATOM     19  C   UNL     1      -3.332  -6.018   3.526  1.00  0.00    -0.000 C 
ATOM     20  C   UNL     1      -3.737  -3.552   3.810  1.00  0.00     0.080 C 
ATOM     21  C   UNL     1      -2.286  -6.103   4.724  1.00  0.00    -0.020 C 
ATOM     22  C   UNL     1      -2.848  -3.648   5.035  1.00  0.00     0.136 C 
ATOM     23  C   UNL     1      -1.729  -4.671   5.033  1.00  0.00     0.065 C 
ATOM     24  C   UNL     1      -1.055  -7.003   4.422  1.00  0.00     0.010 C 
ATOM     25  C   UNL     1      -3.055  -6.683   5.950  1.00  0.00     0.012 C 
ATOM     26  O   UNL     1      -3.050  -2.927   6.000  1.00  0.00    -0.299 OA
ATOM     27  C   UNL     1      -0.786  -4.643   6.249  1.00  0.00     0.043 C 
ATOM     28  C   UNL     1      -0.011  -6.999   5.564  1.00  0.00     0.032 C 
ATOM     29  C   UNL     1       0.418  -5.580   6.008  1.00  0.00     0.115 C 
ATOM     30  H   UNL     1      -0.793  -7.476  -1.207  1.00  0.00     0.348 HD
ENDROOT
BRANCH   6  31
ATOM     31  O   UNL     1      -0.981  -4.692  -1.951  1.00  0.00    -0.384 OA
ATOM     32  H   UNL     1      -1.137  -4.068  -1.198  1.00  0.00     0.211 HD
ENDBRANCH   6  31
BRANCH  29  33
ATOM     33  O   UNL     1       1.265  -5.009   5.043  1.00  0.00    -0.393 OA
ATOM     34  H   UNL     1       1.661  -4.196   5.453  1.00  0.00     0.210 HD
ENDBRANCH  29  33
TORSDOF 2
ENDMDL
MODEL 4
REMARK VINA RESULT:    -7.197      2.702      3.397
REMARK INTER + INTRA:          -7.618
REMARK INTER:                  -7.618
REMARK INTRA:                   0.000
REMARK UNBOUND:                 0.000
REMARK SMILES C[C@H]1CC[C@H]2[N@H+](C1)C[C@@H]1[C@H]3C[C@@H]4[C@H](CC(=O)[C@H]5C[C@H](O)CC[C@@]54C)[C@H]3CC[C@H]1[C@@]2(C)O
REMARK SMILES IDX 5 1 6 2 8 3 7 4 4 5 29 6 3 7 28 8 30 9 2 10 27 11 9 12 1 13
REMARK SMILES IDX 26 14 10 15 25 16 11 17 13 18 12 19 14 20 23 21 15 22 17 23
REMARK SMILES IDX 22 24 24 25 16 26 18 27 21 28 19 29 31 31 20 33
REMARK H PARENT 6 30 31 32 20 34
REMARK Flexibility Score: inf
ROOT
ATOM      1  C   UNL     1      -2.920  -5.141  -2.618  1.00  0.00     0.216 C 
ATOM      2  N   UNL     1      -2.133  -5.467  -1.395  1.00  0.00    -0.330 N 
ATOM      3  C   UNL     1      -2.984  -6.112  -0.374  1.00  0.00     0.266 C 
ATOM      4  C   UNL     1      -1.017  -6.390  -1.724  1.00  0.00     0.265 C 
ATOM      5  C   UNL     1      -2.017  -4.504  -3.726  1.00  0.00     0.069 C 
ATOM      6  C   UNL     1      -4.183  -4.246  -2.314  1.00  0.00     0.117 C 
ATOM      7  C   UNL     1      -0.529  -4.482  -3.369  1.00  0.00     0.015 C 
ATOM      8  C   UNL     1      -5.006  -4.812  -1.100  1.00  0.00     0.036 C 
ATOM      9  C   UNL     1      -5.085  -4.245  -3.575  1.00  0.00     0.049 C 
ATOM     10  C   UNL     1      -0.055  -5.831  -2.809  1.00  0.00     0.041 C 
ATOM     11  C   UNL     1      -6.093  -3.832  -0.609  1.00  0.00     0.007 C 
ATOM     12  C   UNL     1      -4.102  -5.169   0.098  1.00  0.00     0.054 C 
ATOM     13  C   UNL     1       0.165  -6.852  -3.935  1.00  0.00     0.013 C 
ATOM     14  C   UNL     1      -6.997  -4.512   0.414  1.00  0.00     0.004 C 
ATOM     15  C   UNL     1      -4.896  -5.821   1.277  1.00  0.00     0.002 C 
ATOM     16  C   UNL     1      -6.232  -5.106   1.613  1.00  0.00    -0.004 C 
ATOM     17  C   UNL     1      -4.066  -5.755   2.593  1.00  0.00     0.009 C 
ATOM     18  C   UNL     1      -5.839  -4.105   2.692  1.00  0.00     0.003 C 
ATOM     19  C   UNL     1      -4.908  -4.934   3.580  1.00  0.00    -0.000 C 
ATOM     20  C   UNL     1      -6.983  -3.514   3.548  1.00  0.00     0.080 C 
ATOM     21  C   UNL     1      -4.220  -4.110   4.757  1.00  0.00    -0.020 C 
ATOM     22  C   UNL     1      -6.398  -2.806   4.756  1.00  0.00     0.136 C 
ATOM     23  C   UNL     1      -4.889  -2.696   4.864  1.00  0.00     0.065 C 
ATOM     24  C   UNL     1      -2.699  -3.865   4.549  1.00  0.00     0.010 C 
ATOM     25  C   UNL     1      -4.432  -4.931   6.064  1.00  0.00     0.012 C 
ATOM     26  O   UNL     1      -7.132  -2.358   5.623  1.00  0.00    -0.299 OA
ATOM     27  C   UNL     1      -4.356  -1.866   6.044  1.00  0.00     0.043 C 
ATOM     28  C   UNL     1      -2.072  -2.987   5.657  1.00  0.00     0.032 C 
ATOM     29  C   UNL     1      -2.832  -1.661   5.903  1.00  0.00     0.115 C 
ATOM     30  H   UNL     1      -1.728  -4.596  -0.975  1.00  0.00     0.348 HD
ENDROOT
BRANCH   6  31
ATOM     31  O   UNL     1      -3.801  -2.909  -2.073  1.00  0.00    -0.384 OA
ATOM     32  H   UNL     1      -3.093  -2.659  -2.718  1.00  0.00     0.211 HD
ENDBRANCH   6  31
BRANCH  29  33
ATOM     33  O   UNL     1      -2.580  -0.762   4.852  1.00  0.00    -0.393 OA
ATOM     34  H   UNL     1      -3.424  -0.680   4.335  1.00  0.00     0.210 HD
ENDBRANCH  29  33
TORSDOF 2
ENDMDL
MODEL 5
REMARK VINA RESULT:    -7.078      2.482      7.894
REMARK INTER + INTRA:          -7.492
REMARK INTER:                  -7.492
REMARK INTRA:                   0.000
REMARK UNBOUND:                 0.000
REMARK SMILES C[C@H]1CC[C@H]2[N@H+](C1)C[C@@H]1[C@H]3C[C@@H]4[C@H](CC(=O)[C@H]5C[C@H](O)CC[C@@]54C)[C@H]3CC[C@H]1[C@@]2(C)O
REMARK SMILES IDX 5 1 6 2 8 3 7 4 4 5 29 6 3 7 28 8 30 9 2 10 27 11 9 12 1 13
REMARK SMILES IDX 26 14 10 15 25 16 11 17 13 18 12 19 14 20 23 21 15 22 17 23
REMARK SMILES IDX 22 24 24 25 16 26 18 27 21 28 19 29 31 31 20 33
REMARK H PARENT 6 30 31 32 20 34
REMARK Flexibility Score: inf
ROOT
ATOM      1  C   UNL     1      -1.652  -7.253   5.965  1.00  0.00     0.216 C 
ATOM      2  N   UNL     1      -1.724  -5.866   5.423  1.00  0.00    -0.330 N 
ATOM      3  C   UNL     1      -3.052  -5.594   4.837  1.00  0.00     0.266 C 
ATOM      4  C   UNL     1      -1.474  -4.873   6.498  1.00  0.00     0.265 C 
ATOM      5  C   UNL     1      -0.266  -7.535   6.635  1.00  0.00     0.069 C 
ATOM      6  C   UNL     1      -2.012  -8.351   4.891  1.00  0.00     0.117 C 
ATOM      7  C   UNL     1       0.644  -6.306   6.705  1.00  0.00     0.015 C 
ATOM      8  C   UNL     1      -3.331  -7.984   4.118  1.00  0.00     0.036 C 
ATOM      9  C   UNL     1      -2.222  -9.697   5.633  1.00  0.00     0.049 C 
ATOM     10  C   UNL     1      -0.107  -5.066   7.211  1.00  0.00     0.041 C 
ATOM     11  C   UNL     1      -3.573  -8.891   2.893  1.00  0.00     0.007 C 
ATOM     12  C   UNL     1      -3.335  -6.517   3.641  1.00  0.00     0.054 C 
ATOM     13  C   UNL     1      -0.277  -5.106   8.737  1.00  0.00     0.013 C 
ATOM     14  C   UNL     1      -4.962  -8.639   2.314  1.00  0.00     0.004 C 
ATOM     15  C   UNL     1      -4.680  -6.112   2.954  1.00  0.00     0.002 C 
ATOM     16  C   UNL     1      -5.218  -7.164   1.947  1.00  0.00    -0.004 C 
ATOM     17  C   UNL     1      -4.491  -4.815   2.113  1.00  0.00     0.009 C 
ATOM     18  C   UNL     1      -4.631  -6.716   0.615  1.00  0.00     0.003 C 
ATOM     19  C   UNL     1      -4.831  -5.199   0.666  1.00  0.00    -0.000 C 
ATOM     20  C   UNL     1      -5.286  -7.284  -0.665  1.00  0.00     0.080 C 
ATOM     21  C   UNL     1      -4.192  -4.413  -0.563  1.00  0.00    -0.020 C 
ATOM     22  C   UNL     1      -4.804  -6.500  -1.872  1.00  0.00     0.136 C 
ATOM     23  C   UNL     1      -3.742  -5.438  -1.661  1.00  0.00     0.065 C 
ATOM     24  C   UNL     1      -2.932  -3.581  -0.192  1.00  0.00     0.010 C 
ATOM     25  C   UNL     1      -5.295  -3.456  -1.107  1.00  0.00     0.012 C 
ATOM     26  O   UNL     1      -5.280  -6.715  -2.976  1.00  0.00    -0.299 OA
ATOM     27  C   UNL     1      -3.205  -4.759  -2.934  1.00  0.00     0.043 C 
ATOM     28  C   UNL     1      -2.277  -2.899  -1.416  1.00  0.00     0.032 C 
ATOM     29  C   UNL     1      -1.991  -3.870  -2.588  1.00  0.00     0.115 C 
ATOM     30  H   UNL     1      -1.005  -5.728   4.672  1.00  0.00     0.348 HD
ENDROOT
BRANCH   6  31
ATOM     31  O   UNL     1      -0.943  -8.534   3.989  1.00  0.00    -0.384 OA
ATOM     32  H   UNL     1      -0.416  -9.322   4.274  1.00  0.00     0.211 HD
ENDBRANCH   6  31
BRANCH  29  33
ATOM     33  O   UNL     1      -0.890  -4.687  -2.277  1.00  0.00    -0.393 OA
ATOM     34  H   UNL     1      -1.165  -5.260  -1.514  1.00  0.00     0.210 HD
ENDBRANCH  29  33
TORSDOF 2
ENDMDL
MODEL 6
REMARK VINA RESULT:    -6.945      1.097      1.286
REMARK INTER + INTRA:          -7.351
REMARK INTER:                  -7.351
REMARK INTRA:                   0.000
REMARK UNBOUND:                 0.000
REMARK SMILES C[C@H]1CC[C@H]2[N@H+](C1)C[C@@H]1[C@H]3C[C@@H]4[C@H](CC(=O)[C@H]5C[C@H](O)CC[C@@]54C)[C@H]3CC[C@H]1[C@@]2(C)O
REMARK SMILES IDX 5 1 6 2 8 3 7 4 4 5 29 6 3 7 28 8 30 9 2 10 27 11 9 12 1 13
REMARK SMILES IDX 26 14 10 15 25 16 11 17 13 18 12 19 14 20 23 21 15 22 17 23
REMARK SMILES IDX 22 24 24 25 16 26 18 27 21 28 19 29 31 31 20 33
REMARK H PARENT 6 30 31 32 20 34
REMARK Flexibility Score: inf
ROOT
ATOM      1  C   UNL     1      -2.796  -5.107  -2.484  1.00  0.00     0.216 C 
ATOM      2  N   UNL     1      -1.882  -5.933  -1.646  1.00  0.00    -0.330 N 
ATOM      3  C   UNL     1      -2.645  -6.789  -0.715  1.00  0.00     0.266 C 
ATOM      4  C   UNL     1      -1.039  -6.808  -2.501  1.00  0.00     0.265 C 
ATOM      5  C   UNL     1      -2.000  -4.234  -3.511  1.00  0.00     0.069 C 
ATOM      6  C   UNL     1      -3.791  -4.232  -1.628  1.00  0.00     0.117 C 
ATOM      7  C   UNL     1      -0.495  -4.516  -3.521  1.00  0.00     0.015 C 
ATOM      8  C   UNL     1      -4.478  -5.086  -0.500  1.00  0.00     0.036 C 
ATOM      9  C   UNL     1      -4.885  -3.681  -2.578  1.00  0.00     0.049 C 
ATOM     10  C   UNL     1      -0.196  -6.022  -3.544  1.00  0.00     0.041 C 
ATOM     11  C   UNL     1      -5.253  -4.219   0.514  1.00  0.00     0.007 C 
ATOM     12  C   UNL     1      -3.460  -5.945   0.278  1.00  0.00     0.054 C 
ATOM     13  C   UNL     1      -0.378  -6.602  -4.955  1.00  0.00     0.013 C 
ATOM     14  C   UNL     1      -6.073  -5.101   1.448  1.00  0.00     0.004 C 
ATOM     15  C   UNL     1      -4.142  -6.871   1.338  1.00  0.00     0.002 C 
ATOM     16  C   UNL     1      -5.235  -6.165   2.184  1.00  0.00    -0.004 C 
ATOM     17  C   UNL     1      -3.094  -7.370   2.377  1.00  0.00     0.009 C 
ATOM     18  C   UNL     1      -4.473  -5.661   3.404  1.00  0.00     0.003 C 
ATOM     19  C   UNL     1      -3.575  -6.854   3.741  1.00  0.00    -0.000 C 
ATOM     20  C   UNL     1      -5.313  -5.277   4.644  1.00  0.00     0.080 C 
ATOM     21  C   UNL     1      -2.544  -6.583   4.925  1.00  0.00    -0.020 C 
ATOM     22  C   UNL     1      -4.399  -5.113   5.843  1.00  0.00     0.136 C 
ATOM     23  C   UNL     1      -2.902  -5.228   5.627  1.00  0.00     0.065 C 
ATOM     24  C   UNL     1      -1.066  -6.463   4.458  1.00  0.00     0.010 C 
ATOM     25  C   UNL     1      -2.673  -7.780   5.914  1.00  0.00     0.012 C 
ATOM     26  O   UNL     1      -4.868  -4.913   6.953  1.00  0.00    -0.299 OA
ATOM     27  C   UNL     1      -2.018  -4.935   6.853  1.00  0.00     0.043 C 
ATOM     28  C   UNL     1      -0.096  -6.112   5.611  1.00  0.00     0.032 C 
ATOM     29  C   UNL     1      -0.533  -4.876   6.434  1.00  0.00     0.115 C 
ATOM     30  H   UNL     1      -1.250  -5.319  -1.078  1.00  0.00     0.348 HD
ENDROOT
BRANCH   6  31
ATOM     31  O   UNL     1      -3.123  -3.121  -1.070  1.00  0.00    -0.384 OA
ATOM     32  H   UNL     1      -3.796  -2.506  -0.684  1.00  0.00     0.211 HD
ENDBRANCH   6  31
BRANCH  29  33
ATOM     33  O   UNL     1      -0.305  -3.702   5.696  1.00  0.00    -0.393 OA
ATOM     34  H   UNL     1       0.351  -3.932   4.986  1.00  0.00     0.210 HD
ENDBRANCH  29  33
TORSDOF 2
ENDMDL
MODEL 7
REMARK VINA RESULT:    -6.874      2.565      8.137
REMARK INTER + INTRA:          -7.276
REMARK INTER:                  -7.276
REMARK INTRA:                   0.000
REMARK UNBOUND:                 0.000
REMARK SMILES C[C@H]1CC[C@H]2[N@H+](C1)C[C@@H]1[C@H]3C[C@@H]4[C@H](CC(=O)[C@H]5C[C@H](O)CC[C@@]54C)[C@H]3CC[C@H]1[C@@]2(C)O
REMARK SMILES IDX 5 1 6 2 8 3 7 4 4 5 29 6 3 7 28 8 30 9 2 10 27 11 9 12 1 13
REMARK SMILES IDX 26 14 10 15 25 16 11 17 13 18 12 19 14 20 23 21 15 22 17 23
REMARK SMILES IDX 22 24 24 25 16 26 18 27 21 28 19 29 31 31 20 33
REMARK H PARENT 6 30 31 32 20 34
REMARK Flexibility Score: inf
ROOT
ATOM      1  C   UNL     1      -0.344  -9.292   4.709  1.00  0.00     0.216 C 
ATOM      2  N   UNL     1      -1.666  -8.646   4.474  1.00  0.00    -0.330 N 
ATOM      3  C   UNL     1      -2.304  -9.172   3.250  1.00  0.00     0.266 C 
ATOM      4  C   UNL     1      -2.577  -8.894   5.620  1.00  0.00     0.265 C 
ATOM      5  C   UNL     1       0.318  -8.779   6.031  1.00  0.00     0.069 C 
ATOM      6  C   UNL     1       0.634  -9.153   3.478  1.00  0.00     0.117 C 
ATOM      7  C   UNL     1      -0.581  -7.847   6.847  1.00  0.00     0.015 C 
ATOM      8  C   UNL     1      -0.084  -9.529   2.131  1.00  0.00     0.036 C 
ATOM      9  C   UNL     1       1.825 -10.121   3.700  1.00  0.00     0.049 C 
ATOM     10  C   UNL     1      -2.008  -8.399   6.979  1.00  0.00     0.041 C 
ATOM     11  C   UNL     1       0.751  -9.159   0.888  1.00  0.00     0.007 C 
ATOM     12  C   UNL     1      -1.466  -8.854   2.002  1.00  0.00     0.054 C 
ATOM     13  C   UNL     1      -2.078  -9.503   8.045  1.00  0.00     0.013 C 
ATOM     14  C   UNL     1       0.115  -9.739  -0.370  1.00  0.00     0.004 C 
ATOM     15  C   UNL     1      -2.231  -9.294   0.712  1.00  0.00     0.002 C 
ATOM     16  C   UNL     1      -1.354  -9.316  -0.568  1.00  0.00    -0.004 C 
ATOM     17  C   UNL     1      -3.379  -8.291   0.393  1.00  0.00     0.009 C 
ATOM     18  C   UNL     1      -1.555  -7.927  -1.162  1.00  0.00     0.003 C 
ATOM     19  C   UNL     1      -3.062  -7.718  -0.996  1.00  0.00    -0.000 C 
ATOM     20  C   UNL     1      -1.164  -7.737  -2.645  1.00  0.00     0.080 C 
ATOM     21  C   UNL     1      -3.573  -6.270  -1.422  1.00  0.00    -0.020 C 
ATOM     22  C   UNL     1      -1.720  -6.419  -3.150  1.00  0.00     0.136 C 
ATOM     23  C   UNL     1      -2.420  -5.507  -2.161  1.00  0.00     0.065 C 
ATOM     24  C   UNL     1      -3.999  -5.376  -0.224  1.00  0.00     0.010 C 
ATOM     25  C   UNL     1      -4.797  -6.485  -2.362  1.00  0.00     0.012 C 
ATOM     26  O   UNL     1      -1.618  -6.118  -4.330  1.00  0.00    -0.299 OA
ATOM     27  C   UNL     1      -2.857  -4.134  -2.700  1.00  0.00     0.043 C 
ATOM     28  C   UNL     1      -4.406  -3.946  -0.653  1.00  0.00     0.032 C 
ATOM     29  C   UNL     1      -3.351  -3.242  -1.541  1.00  0.00     0.115 C 
ATOM     30  H   UNL     1      -1.553  -7.610   4.360  1.00  0.00     0.348 HD
ENDROOT
BRANCH   6  31
ATOM     31  O   UNL     1       1.164  -7.847   3.409  1.00  0.00    -0.384 OA
ATOM     32  H   UNL     1       0.924  -7.452   2.533  1.00  0.00     0.211 HD
ENDBRANCH   6  31
BRANCH  29  33
ATOM     33  O   UNL     1      -2.253  -2.846  -0.759  1.00  0.00    -0.393 OA
ATOM     34  H   UNL     1      -1.589  -2.443  -1.379  1.00  0.00     0.210 HD
ENDBRANCH  29  33
TORSDOF 2
ENDMDL
MODEL 8
REMARK VINA RESULT:    -6.734      4.806      8.087
REMARK INTER + INTRA:          -7.128
REMARK INTER:                  -7.128
REMARK INTRA:                   0.000
REMARK UNBOUND:                 0.000
REMARK SMILES C[C@H]1CC[C@H]2[N@H+](C1)C[C@@H]1[C@H]3C[C@@H]4[C@H](CC(=O)[C@H]5C[C@H](O)CC[C@@]54C)[C@H]3CC[C@H]1[C@@]2(C)O
REMARK SMILES IDX 5 1 6 2 8 3 7 4 4 5 29 6 3 7 28 8 30 9 2 10 27 11 9 12 1 13
REMARK SMILES IDX 26 14 10 15 25 16 11 17 13 18 12 19 14 20 23 21 15 22 17 23
REMARK SMILES IDX 22 24 24 25 16 26 18 27 21 28 19 29 31 31 20 33
REMARK H PARENT 6 30 31 32 20 34
REMARK Flexibility Score: inf
ROOT
ATOM      1  C   UNL     1      -7.285  -1.907   6.482  1.00  0.00     0.216 C 
ATOM      2  N   UNL     1      -5.938  -1.651   7.066  1.00  0.00    -0.330 N 
ATOM      3  C   UNL     1      -4.882  -1.788   6.042  1.00  0.00     0.266 C 
ATOM      4  C   UNL     1      -5.867  -0.279   7.631  1.00  0.00     0.265 C 
ATOM      5  C   UNL     1      -8.416  -1.714   7.546  1.00  0.00     0.069 C 
ATOM      6  C   UNL     1      -7.389  -3.312   5.772  1.00  0.00     0.117 C 
ATOM      7  C   UNL     1      -7.912  -1.183   8.891  1.00  0.00     0.015 C 
ATOM      8  C   UNL     1      -6.168  -3.561   4.814  1.00  0.00     0.036 C 
ATOM      9  C   UNL     1      -8.695  -3.332   4.937  1.00  0.00     0.049 C 
ATOM     10  C   UNL     1      -6.947  -0.002   8.713  1.00  0.00     0.041 C 
ATOM     11  C   UNL     1      -6.097  -5.016   4.305  1.00  0.00     0.007 C 
ATOM     12  C   UNL     1      -4.822  -3.220   5.488  1.00  0.00     0.054 C 
ATOM     13  C   UNL     1      -7.711   1.297   8.415  1.00  0.00     0.013 C 
ATOM     14  C   UNL     1      -5.036  -5.147   3.218  1.00  0.00     0.004 C 
ATOM     15  C   UNL     1      -3.607  -3.372   4.516  1.00  0.00     0.002 C 
ATOM     16  C   UNL     1      -3.640  -4.667   3.661  1.00  0.00    -0.004 C 
ATOM     17  C   UNL     1      -2.276  -3.457   5.319  1.00  0.00     0.009 C 
ATOM     18  C   UNL     1      -2.844  -5.664   4.494  1.00  0.00     0.003 C 
ATOM     19  C   UNL     1      -1.660  -4.819   4.969  1.00  0.00    -0.000 C 
ATOM     20  C   UNL     1      -2.324  -6.926   3.767  1.00  0.00     0.080 C 
ATOM     21  C   UNL     1      -0.689  -5.566   5.987  1.00  0.00    -0.020 C 
ATOM     22  C   UNL     1      -1.303  -7.629   4.641  1.00  0.00     0.136 C 
ATOM     23  C   UNL     1      -1.058  -7.089   6.037  1.00  0.00     0.065 C 
ATOM     24  C   UNL     1      -0.782  -5.040   7.447  1.00  0.00     0.010 C 
ATOM     25  C   UNL     1       0.762  -5.357   5.460  1.00  0.00     0.012 C 
ATOM     26  O   UNL     1      -0.685  -8.592   4.214  1.00  0.00    -0.299 OA
ATOM     27  C   UNL     1      -0.103  -7.911   6.921  1.00  0.00     0.043 C 
ATOM     28  C   UNL     1       0.102  -5.839   8.434  1.00  0.00     0.032 C 
ATOM     29  C   UNL     1      -0.121  -7.369   8.367  1.00  0.00     0.115 C 
ATOM     30  H   UNL     1      -5.734  -2.335   7.834  1.00  0.00     0.348 HD
ENDROOT
BRANCH   6  31
ATOM     31  O   UNL     1      -7.488  -4.346   6.727  1.00  0.00    -0.384 OA
ATOM     32  H   UNL     1      -7.291  -5.209   6.284  1.00  0.00     0.211 HD
ENDBRANCH   6  31
BRANCH  29  33
ATOM     33  O   UNL     1      -1.344  -7.703   8.973  1.00  0.00    -0.393 OA
ATOM     34  H   UNL     1      -1.646  -6.900   9.474  1.00  0.00     0.210 HD
ENDBRANCH  29  33
TORSDOF 2
ENDMDL
MODEL 9
REMARK VINA RESULT:    -6.715      2.332      4.042
REMARK INTER + INTRA:          -7.108
REMARK INTER:                  -7.108
REMARK INTRA:                   0.000
REMARK UNBOUND:                 0.000
REMARK SMILES C[C@H]1CC[C@H]2[N@H+](C1)C[C@@H]1[C@H]3C[C@@H]4[C@H](CC(=O)[C@H]5C[C@H](O)CC[C@@]54C)[C@H]3CC[C@H]1[C@@]2(C)O
REMARK SMILES IDX 5 1 6 2 8 3 7 4 4 5 29 6 3 7 28 8 30 9 2 10 27 11 9 12 1 13
REMARK SMILES IDX 26 14 10 15 25 16 11 17 13 18 12 19 14 20 23 21 15 22 17 23
REMARK SMILES IDX 22 24 24 25 16 26 18 27 21 28 19 29 31 31 20 33
REMARK H PARENT 6 30 31 32 20 34
REMARK Flexibility Score: inf
ROOT
ATOM      1  C   UNL     1      -0.256  -6.326  -4.254  1.00  0.00     0.216 C 
ATOM      2  N   UNL     1      -0.665  -7.474  -3.397  1.00  0.00    -0.330 N 
ATOM      3  C   UNL     1      -2.132  -7.519  -3.235  1.00  0.00     0.266 C 
ATOM      4  C   UNL     1      -0.221  -8.757  -4.000  1.00  0.00     0.265 C 
ATOM      5  C   UNL     1       1.293  -6.298  -4.475  1.00  0.00     0.069 C 
ATOM      6  C   UNL     1      -0.791  -4.941  -3.719  1.00  0.00     0.117 C 
ATOM      7  C   UNL     1       2.019  -7.511  -3.887  1.00  0.00     0.015 C 
ATOM      8  C   UNL     1      -2.319  -5.018  -3.358  1.00  0.00     0.036 C 
ATOM      9  C   UNL     1      -0.591  -3.885  -4.837  1.00  0.00     0.049 C 
ATOM     10  C   UNL     1       1.313  -8.827  -4.241  1.00  0.00     0.041 C 
ATOM     11  C   UNL     1      -2.814  -3.772  -2.594  1.00  0.00     0.007 C 
ATOM     12  C   UNL     1      -2.653  -6.266  -2.515  1.00  0.00     0.054 C 
ATOM     13  C   UNL     1       1.629  -9.256  -5.682  1.00  0.00     0.013 C 
ATOM     14  C   UNL     1      -4.333  -3.798  -2.464  1.00  0.00     0.004 C 
ATOM     15  C   UNL     1      -4.185  -6.406  -2.230  1.00  0.00     0.002 C 
ATOM     16  C   UNL     1      -4.872  -5.081  -1.802  1.00  0.00    -0.004 C 
ATOM     17  C   UNL     1      -4.429  -7.385  -1.043  1.00  0.00     0.009 C 
ATOM     18  C   UNL     1      -4.787  -5.111  -0.280  1.00  0.00     0.003 C 
ATOM     19  C   UNL     1      -5.150  -6.564   0.036  1.00  0.00    -0.000 C 
ATOM     20  C   UNL     1      -5.730  -4.160   0.492  1.00  0.00     0.080 C 
ATOM     21  C   UNL     1      -5.025  -6.948   1.578  1.00  0.00    -0.020 C 
ATOM     22  C   UNL     1      -5.746  -4.545   1.959  1.00  0.00     0.136 C 
ATOM     23  C   UNL     1      -4.813  -5.646   2.424  1.00  0.00     0.065 C 
ATOM     24  C   UNL     1      -3.827  -7.885   1.898  1.00  0.00     0.010 C 
ATOM     25  C   UNL     1      -6.353  -7.663   1.970  1.00  0.00     0.012 C 
ATOM     26  O   UNL     1      -6.509  -3.988   2.733  1.00  0.00    -0.299 OA
ATOM     27  C   UNL     1      -4.785  -5.912   3.940  1.00  0.00     0.043 C 
ATOM     28  C   UNL     1      -3.673  -8.172   3.411  1.00  0.00     0.032 C 
ATOM     29  C   UNL     1      -3.644  -6.894   4.284  1.00  0.00     0.115 C 
ATOM     30  H   UNL     1      -0.236  -7.392  -2.444  1.00  0.00     0.348 HD
ENDROOT
BRANCH   6  31
ATOM     31  O   UNL     1      -0.039  -4.515  -2.603  1.00  0.00    -0.384 OA
ATOM     32  H   UNL     1       0.923  -4.544  -2.837  1.00  0.00     0.211 HD
ENDBRANCH   6  31
BRANCH  29  33
ATOM     33  O   UNL     1      -2.409  -6.241   4.139  1.00  0.00    -0.393 OA
ATOM     34  H   UNL     1      -2.002  -6.191   5.045  1.00  0.00     0.210 HD
ENDBRANCH  29  33
TORSDOF 2
ENDMDL
