MODEL 1
REMARK VINA RESULT:    -3.169      0.000      0.000
REMARK INTER + INTRA:         -14.725
REMARK INTER:                  -8.263
REMARK INTRA:                  -6.463
REMARK UNBOUND:                -6.463
REMARK SMILES CCCCCCCCCCCCCCCCCCCCCCCCCCCCCO
REMARK SMILES IDX 16 1 15 2 14 3 13 4 12 5 11 6 10 7 9 8 8 9 7 10 6 11 5 12
REMARK SMILES IDX 4 13 3 14 2 15 1 16 17 17 18 18 19 19 20 20 21 21 22 22
REMARK SMILES IDX 23 23 24 24 25 25 26 26 27 27 28 28 29 29 30 30
REMARK H PARENT 30 31
REMARK Flexibility Score: inf
ROOT
ATOM      1  C   UNL     1     130.582 142.377 120.551  1.00  0.00     0.000 C 
ENDROOT
BRANCH   1   2
ATOM      2  C   UNL     1     129.633 141.167 120.547  1.00  0.00     0.000 C 
BRANCH   2   3
ATOM      3  C   UNL     1     129.053 140.857 121.939  1.00  0.00     0.000 C 
BRANCH   3   4
ATOM      4  C   UNL     1     128.476 142.075 122.691  1.00  0.00     0.000 C 
BRANCH   4   5
ATOM      5  C   UNL     1     128.333 141.903 124.215  1.00  0.00     0.000 C 
BRANCH   5   6
ATOM      6  C   UNL     1     128.302 143.211 125.031  1.00  0.00     0.000 C 
BRANCH   6   7
ATOM      7  C   UNL     1     129.414 143.325 126.096  1.00  0.00     0.000 C 
BRANCH   7   8
ATOM      8  C   UNL     1     129.300 144.603 126.945  1.00  0.00    -0.000 C 
BRANCH   8   9
ATOM      9  C   UNL     1     129.591 145.883 126.139  1.00  0.00    -0.000 C 
BRANCH   9  10
ATOM     10  C   UNL     1     130.709 146.769 126.723  1.00  0.00    -0.000 C 
BRANCH  10  11
ATOM     11  C   UNL     1     132.089 146.087 126.689  1.00  0.00    -0.000 C 
BRANCH  11  12
ATOM     12  C   UNL     1     132.802 146.244 125.334  1.00  0.00    -0.000 C 
BRANCH  12  13
ATOM     13  C   UNL     1     133.531 144.983 124.831  1.00  0.00    -0.000 C 
BRANCH  13  14
ATOM     14  C   UNL     1     132.776 143.668 125.121  1.00  0.00    -0.000 C 
BRANCH  14  15
ATOM     15  C   UNL     1     132.416 142.908 123.835  1.00  0.00    -0.003 C 
ATOM     16  C   UNL     1     132.062 141.454 124.136  1.00  0.00     0.004 C 
ENDBRANCH  14  15
ENDBRANCH  13  14
ENDBRANCH  12  13
ENDBRANCH  11  12
ENDBRANCH  10  11
ENDBRANCH   9  10
ENDBRANCH   8   9
ENDBRANCH   7   8
ENDBRANCH   6   7
ENDBRANCH   5   6
ENDBRANCH   4   5
ENDBRANCH   3   4
ENDBRANCH   2   3
ENDBRANCH   1   2
BRANCH   1  17
ATOM     17  C   UNL     1     130.251 143.381 119.433  1.00  0.00     0.000 C 
BRANCH  17  18
ATOM     18  C   UNL     1     128.747 143.705 119.365  1.00  0.00     0.000 C 
BRANCH  18  19
ATOM     19  C   UNL     1     128.481 145.153 118.904  1.00  0.00     0.000 C 
BRANCH  19  20
ATOM     20  C   UNL     1     127.716 146.006 119.932  1.00  0.00     0.000 C 
BRANCH  20  21
ATOM     21  C   UNL     1     127.159 145.178 121.101  1.00  0.00     0.000 C 
BRANCH  21  22
ATOM     22  C   UNL     1     127.617 145.686 122.483  1.00  0.00     0.000 C 
BRANCH  22  23
ATOM     23  C   UNL     1     128.993 146.379 122.517  1.00  0.00     0.000 C 
BRANCH  23  24
ATOM     24  C   UNL     1     130.172 145.392 122.561  1.00  0.00     0.000 C 
BRANCH  24  25
ATOM     25  C   UNL     1     131.452 145.962 121.922  1.00  0.00     0.000 C 
BRANCH  25  26
ATOM     26  C   UNL     1     131.216 146.960 120.774  1.00  0.00     0.000 C 
BRANCH  26  27
ATOM     27  C   UNL     1     132.019 146.614 119.507  1.00  0.00     0.002 C 
BRANCH  27  28
ATOM     28  C   UNL     1     133.303 145.827 119.818  1.00  0.00     0.028 C 
BRANCH  28  29
ATOM     29  C   UNL     1     134.508 146.316 119.011  1.00  0.00     0.156 C 
BRANCH  29  30
ATOM     30  O   UNL     1     135.529 145.358 119.077  1.00  0.00    -0.396 OA
ATOM     31  H   UNL     1     135.381 144.743 118.313  1.00  0.00     0.210 HD
ENDBRANCH  29  30
ENDBRANCH  28  29
ENDBRANCH  27  28
ENDBRANCH  26  27
ENDBRANCH  25  26
ENDBRANCH  24  25
ENDBRANCH  23  24
ENDBRANCH  22  23
ENDBRANCH  21  22
ENDBRANCH  20  21
ENDBRANCH  19  20
ENDBRANCH  18  19
ENDBRANCH  17  18
ENDBRANCH   1  17
TORSDOF 28
ENDMDL
MODEL 2
REMARK VINA RESULT:    -3.070      1.626      3.171
REMARK INTER + INTRA:         -14.469
REMARK INTER:                  -8.878
REMARK INTRA:                  -5.592
REMARK UNBOUND:                -6.463
REMARK SMILES CCCCCCCCCCCCCCCCCCCCCCCCCCCCCO
REMARK SMILES IDX 16 1 15 2 14 3 13 4 12 5 11 6 10 7 9 8 8 9 7 10 6 11 5 12
REMARK SMILES IDX 4 13 3 14 2 15 1 16 17 17 18 18 19 19 20 20 21 21 22 22
REMARK SMILES IDX 23 23 24 24 25 25 26 26 27 27 28 28 29 29 30 30
REMARK H PARENT 30 31
REMARK Flexibility Score: inf
ROOT
ATOM      1  C   UNL     1     131.182 142.708 119.932  1.00  0.00     0.000 C 
ENDROOT
BRANCH   1   2
ATOM      2  C   UNL     1     130.263 141.547 120.348  1.00  0.00     0.000 C 
BRANCH   2   3
ATOM      3  C   UNL     1     128.774 141.939 120.357  1.00  0.00     0.000 C 
BRANCH   3   4
ATOM      4  C   UNL     1     127.983 141.469 121.596  1.00  0.00     0.000 C 
BRANCH   4   5
ATOM      5  C   UNL     1     127.982 142.445 122.788  1.00  0.00     0.000 C 
BRANCH   5   6
ATOM      6  C   UNL     1     128.345 141.826 124.153  1.00  0.00     0.000 C 
BRANCH   6   7
ATOM      7  C   UNL     1     129.370 142.641 124.970  1.00  0.00     0.000 C 
BRANCH   7   8
ATOM      8  C   UNL     1     130.807 142.502 124.436  1.00  0.00    -0.000 C 
BRANCH   8   9
ATOM      9  C   UNL     1     131.837 143.267 125.287  1.00  0.00    -0.000 C 
BRANCH   9  10
ATOM     10  C   UNL     1     131.294 143.800 126.628  1.00  0.00    -0.000 C 
BRANCH  10  11
ATOM     11  C   UNL     1     132.209 144.864 127.260  1.00  0.00    -0.000 C 
BRANCH  11  12
ATOM     12  C   UNL     1     131.598 146.277 127.225  1.00  0.00    -0.000 C 
BRANCH  12  13
ATOM     13  C   UNL     1     130.063 146.326 127.349  1.00  0.00    -0.000 C 
BRANCH  13  14
ATOM     14  C   UNL     1     129.538 145.947 128.750  1.00  0.00    -0.000 C 
BRANCH  14  15
ATOM     15  C   UNL     1     128.398 144.918 128.685  1.00  0.00    -0.003 C 
ATOM     16  C   UNL     1     127.491 145.178 127.484  1.00  0.00     0.004 C 
ENDBRANCH  14  15
ENDBRANCH  13  14
ENDBRANCH  12  13
ENDBRANCH  11  12
ENDBRANCH  10  11
ENDBRANCH   9  10
ENDBRANCH   8   9
ENDBRANCH   7   8
ENDBRANCH   6   7
ENDBRANCH   5   6
ENDBRANCH   4   5
ENDBRANCH   3   4
ENDBRANCH   2   3
ENDBRANCH   1   2
BRANCH   1  17
ATOM     17  C   UNL     1     130.851 144.010 120.682  1.00  0.00     0.000 C 
BRANCH  17  18
ATOM     18  C   UNL     1     131.030 145.257 119.797  1.00  0.00     0.000 C 
BRANCH  18  19
ATOM     19  C   UNL     1     129.769 146.146 119.776  1.00  0.00     0.000 C 
BRANCH  19  20
ATOM     20  C   UNL     1     128.539 145.473 119.143  1.00  0.00     0.000 C 
BRANCH  20  21
ATOM     21  C   UNL     1     127.222 145.857 119.837  1.00  0.00     0.000 C 
BRANCH  21  22
ATOM     22  C   UNL     1     127.127 145.351 121.291  1.00  0.00     0.000 C 
BRANCH  22  23
ATOM     23  C   UNL     1     126.942 146.439 122.366  1.00  0.00     0.000 C 
BRANCH  23  24
ATOM     24  C   UNL     1     127.538 146.054 123.731  1.00  0.00     0.000 C 
BRANCH  24  25
ATOM     25  C   UNL     1     128.865 146.776 124.028  1.00  0.00     0.000 C 
BRANCH  25  26
ATOM     26  C   UNL     1     130.132 146.012 123.602  1.00  0.00     0.000 C 
BRANCH  26  27
ATOM     27  C   UNL     1     131.407 146.867 123.701  1.00  0.00     0.002 C 
BRANCH  27  28
ATOM     28  C   UNL     1     132.650 146.139 123.162  1.00  0.00     0.028 C 
BRANCH  28  29
ATOM     29  C   UNL     1     133.271 146.844 121.954  1.00  0.00     0.156 C 
BRANCH  29  30
ATOM     30  O   UNL     1     134.630 147.078 122.202  1.00  0.00    -0.396 OA
ATOM     31  H   UNL     1     134.795 148.028 121.968  1.00  0.00     0.210 HD
ENDBRANCH  29  30
ENDBRANCH  28  29
ENDBRANCH  27  28
ENDBRANCH  26  27
ENDBRANCH  25  26
ENDBRANCH  24  25
ENDBRANCH  23  24
ENDBRANCH  22  23
ENDBRANCH  21  22
ENDBRANCH  20  21
ENDBRANCH  19  20
ENDBRANCH  18  19
ENDBRANCH  17  18
ENDBRANCH   1  17
TORSDOF 28
ENDMDL
MODEL 3
REMARK VINA RESULT:    -3.068      1.761      5.112
REMARK INTER + INTRA:         -14.463
REMARK INTER:                  -9.240
REMARK INTRA:                  -5.223
REMARK UNBOUND:                -6.463
REMARK SMILES CCCCCCCCCCCCCCCCCCCCCCCCCCCCCO
REMARK SMILES IDX 16 1 15 2 14 3 13 4 12 5 11 6 10 7 9 8 8 9 7 10 6 11 5 12
REMARK SMILES IDX 4 13 3 14 2 15 1 16 17 17 18 18 19 19 20 20 21 21 22 22
REMARK SMILES IDX 23 23 24 24 25 25 26 26 27 27 28 28 29 29 30 30
REMARK H PARENT 30 31
REMARK Flexibility Score: inf
ROOT
ATOM      1  C   UNL     1     130.896 141.971 122.883  1.00  0.00     0.000 C 
ENDROOT
BRANCH   1   2
ATOM      2  C   UNL     1     130.435 142.813 121.680  1.00  0.00     0.000 C 
BRANCH   2   3
ATOM      3  C   UNL     1     129.893 141.955 120.523  1.00  0.00     0.000 C 
BRANCH   3   4
ATOM      4  C   UNL     1     128.421 142.220 120.147  1.00  0.00     0.000 C 
BRANCH   4   5
ATOM      5  C   UNL     1     127.636 143.103 121.136  1.00  0.00     0.000 C 
BRANCH   5   6
ATOM      6  C   UNL     1     127.186 144.474 120.590  1.00  0.00     0.000 C 
BRANCH   6   7
ATOM      7  C   UNL     1     128.044 145.008 119.423  1.00  0.00     0.000 C 
BRANCH   7   8
ATOM      8  C   UNL     1     128.995 146.140 119.849  1.00  0.00    -0.000 C 
BRANCH   8   9
ATOM      9  C   UNL     1     130.480 145.762 119.698  1.00  0.00    -0.000 C 
BRANCH   9  10
ATOM     10  C   UNL     1     131.452 146.958 119.698  1.00  0.00    -0.000 C 
BRANCH  10  11
ATOM     11  C   UNL     1     132.784 146.642 120.402  1.00  0.00    -0.000 C 
BRANCH  11  12
ATOM     12  C   UNL     1     133.408 145.314 119.936  1.00  0.00    -0.000 C 
BRANCH  12  13
ATOM     13  C   UNL     1     134.588 145.458 118.955  1.00  0.00    -0.000 C 
BRANCH  13  14
ATOM     14  C   UNL     1     135.530 146.637 119.279  1.00  0.00    -0.000 C 
BRANCH  14  15
ATOM     15  C   UNL     1     136.331 146.403 120.569  1.00  0.00    -0.003 C 
ATOM     16  C   UNL     1     137.280 145.217 120.420  1.00  0.00     0.004 C 
ENDBRANCH  14  15
ENDBRANCH  13  14
ENDBRANCH  12  13
ENDBRANCH  11  12
ENDBRANCH  10  11
ENDBRANCH   9  10
ENDBRANCH   8   9
ENDBRANCH   7   8
ENDBRANCH   6   7
ENDBRANCH   5   6
ENDBRANCH   4   5
ENDBRANCH   3   4
ENDBRANCH   2   3
ENDBRANCH   1   2
BRANCH   1  17
ATOM     17  C   UNL     1     129.909 140.838 123.211  1.00  0.00     0.000 C 
BRANCH  17  18
ATOM     18  C   UNL     1     128.761 141.309 124.123  1.00  0.00     0.000 C 
BRANCH  18  19
ATOM     19  C   UNL     1     129.157 142.530 124.980  1.00  0.00     0.000 C 
BRANCH  19  20
ATOM     20  C   UNL     1     127.977 143.449 125.342  1.00  0.00     0.000 C 
BRANCH  20  21
ATOM     21  C   UNL     1     128.343 144.941 125.289  1.00  0.00     0.000 C 
BRANCH  21  22
ATOM     22  C   UNL     1     127.963 145.616 123.956  1.00  0.00     0.000 C 
BRANCH  22  23
ATOM     23  C   UNL     1     128.999 146.606 123.389  1.00  0.00     0.000 C 
BRANCH  23  24
ATOM     24  C   UNL     1     130.425 146.031 123.335  1.00  0.00     0.000 C 
BRANCH  24  25
ATOM     25  C   UNL     1     131.351 146.630 124.408  1.00  0.00     0.000 C 
BRANCH  25  26
ATOM     26  C   UNL     1     132.404 145.659 124.974  1.00  0.00     0.000 C 
BRANCH  26  27
ATOM     27  C   UNL     1     133.006 144.736 123.899  1.00  0.00     0.002 C 
BRANCH  27  28
ATOM     28  C   UNL     1     134.436 145.141 123.507  1.00  0.00     0.028 C 
BRANCH  28  29
ATOM     29  C   UNL     1     135.473 144.745 124.561  1.00  0.00     0.156 C 
BRANCH  29  30
ATOM     30  O   UNL     1     136.518 145.678 124.555  1.00  0.00    -0.396 OA
ATOM     31  H   UNL     1     136.095 146.567 124.430  1.00  0.00     0.210 HD
ENDBRANCH  29  30
ENDBRANCH  28  29
ENDBRANCH  27  28
ENDBRANCH  26  27
ENDBRANCH  25  26
ENDBRANCH  24  25
ENDBRANCH  23  24
ENDBRANCH  22  23
ENDBRANCH  21  22
ENDBRANCH  20  21
ENDBRANCH  19  20
ENDBRANCH  18  19
ENDBRANCH  17  18
ENDBRANCH   1  17
TORSDOF 28
ENDMDL
MODEL 4
REMARK VINA RESULT:    -3.047      1.967      5.261
REMARK INTER + INTRA:         -14.408
REMARK INTER:                  -8.769
REMARK INTRA:                  -5.639
REMARK UNBOUND:                -6.463
REMARK SMILES CCCCCCCCCCCCCCCCCCCCCCCCCCCCCO
REMARK SMILES IDX 16 1 15 2 14 3 13 4 12 5 11 6 10 7 9 8 8 9 7 10 6 11 5 12
REMARK SMILES IDX 4 13 3 14 2 15 1 16 17 17 18 18 19 19 20 20 21 21 22 22
REMARK SMILES IDX 23 23 24 24 25 25 26 26 27 27 28 28 29 29 30 30
REMARK H PARENT 30 31
REMARK Flexibility Score: inf
ROOT
ATOM      1  C   UNL     1     131.057 143.090 122.597  1.00  0.00     0.000 C 
ENDROOT
BRANCH   1   2
ATOM      2  C   UNL     1     129.602 142.590 122.599  1.00  0.00     0.000 C 
BRANCH   2   3
ATOM      3  C   UNL     1     129.083 142.255 121.189  1.00  0.00     0.000 C 
BRANCH   3   4
ATOM      4  C   UNL     1     127.598 142.594 120.941  1.00  0.00     0.000 C 
BRANCH   4   5
ATOM      5  C   UNL     1     127.307 143.377 119.647  1.00  0.00     0.000 C 
BRANCH   5   6
ATOM      6  C   UNL     1     128.532 144.034 118.978  1.00  0.00     0.000 C 
BRANCH   6   7
ATOM      7  C   UNL     1     128.677 145.545 119.260  1.00  0.00     0.000 C 
BRANCH   7   8
ATOM      8  C   UNL     1     130.017 145.904 119.925  1.00  0.00    -0.000 C 
BRANCH   8   9
ATOM      9  C   UNL     1     129.880 146.180 121.434  1.00  0.00    -0.000 C 
BRANCH   9  10
ATOM     10  C   UNL     1     128.432 146.155 121.962  1.00  0.00    -0.000 C 
BRANCH  10  11
ATOM     11  C   UNL     1     128.361 146.082 123.499  1.00  0.00    -0.000 C 
BRANCH  11  12
ATOM     12  C   UNL     1     129.616 146.650 124.184  1.00  0.00    -0.000 C 
BRANCH  12  13
ATOM     13  C   UNL     1     129.983 145.987 125.526  1.00  0.00    -0.000 C 
BRANCH  13  14
ATOM     14  C   UNL     1     129.333 144.603 125.736  1.00  0.00    -0.000 C 
BRANCH  14  15
ATOM     15  C   UNL     1     129.021 144.325 127.215  1.00  0.00    -0.003 C 
ATOM     16  C   UNL     1     127.723 145.005 127.640  1.00  0.00     0.004 C 
ENDBRANCH  14  15
ENDBRANCH  13  14
ENDBRANCH  12  13
ENDBRANCH  11  12
ENDBRANCH  10  11
ENDBRANCH   9  10
ENDBRANCH   8   9
ENDBRANCH   7   8
ENDBRANCH   6   7
ENDBRANCH   5   6
ENDBRANCH   4   5
ENDBRANCH   3   4
ENDBRANCH   2   3
ENDBRANCH   1   2
BRANCH   1  17
ATOM     17  C   UNL     1     131.723 142.932 121.219  1.00  0.00     0.000 C 
BRANCH  17  18
ATOM     18  C   UNL     1     133.026 142.116 121.291  1.00  0.00     0.000 C 
BRANCH  18  19
ATOM     19  C   UNL     1     133.938 142.360 120.069  1.00  0.00     0.000 C 
BRANCH  19  20
ATOM     20  C   UNL     1     133.433 143.463 119.122  1.00  0.00     0.000 C 
BRANCH  20  21
ATOM     21  C   UNL     1     134.564 144.130 118.324  1.00  0.00     0.000 C 
BRANCH  21  22
ATOM     22  C   UNL     1     134.750 145.624 118.661  1.00  0.00     0.000 C 
BRANCH  22  23
ATOM     23  C   UNL     1     135.863 145.946 119.677  1.00  0.00     0.000 C 
BRANCH  23  24
ATOM     24  C   UNL     1     135.329 146.476 121.019  1.00  0.00     0.000 C 
BRANCH  24  25
ATOM     25  C   UNL     1     133.791 146.511 121.076  1.00  0.00     0.000 C 
BRANCH  25  26
ATOM     26  C   UNL     1     133.184 146.215 122.460  1.00  0.00     0.000 C 
BRANCH  26  27
ATOM     27  C   UNL     1     133.977 145.154 123.244  1.00  0.00     0.002 C 
BRANCH  27  28
ATOM     28  C   UNL     1     133.468 144.982 124.685  1.00  0.00     0.028 C 
BRANCH  28  29
ATOM     29  C   UNL     1     134.603 144.893 125.708  1.00  0.00     0.156 C 
BRANCH  29  30
ATOM     30  O   UNL     1     135.791 145.350 125.122  1.00  0.00    -0.396 OA
ATOM     31  H   UNL     1     136.059 146.158 125.632  1.00  0.00     0.210 HD
ENDBRANCH  29  30
ENDBRANCH  28  29
ENDBRANCH  27  28
ENDBRANCH  26  27
ENDBRANCH  25  26
ENDBRANCH  24  25
ENDBRANCH  23  24
ENDBRANCH  22  23
ENDBRANCH  21  22
ENDBRANCH  20  21
ENDBRANCH  19  20
ENDBRANCH  18  19
ENDBRANCH  17  18
ENDBRANCH   1  17
TORSDOF 28
ENDMDL
MODEL 5
REMARK VINA RESULT:    -3.025      1.648      3.215
REMARK INTER + INTRA:         -14.351
REMARK INTER:                  -8.181
REMARK INTRA:                  -6.170
REMARK UNBOUND:                -6.463
REMARK SMILES CCCCCCCCCCCCCCCCCCCCCCCCCCCCCO
REMARK SMILES IDX 16 1 15 2 14 3 13 4 12 5 11 6 10 7 9 8 8 9 7 10 6 11 5 12
REMARK SMILES IDX 4 13 3 14 2 15 1 16 17 17 18 18 19 19 20 20 21 21 22 22
REMARK SMILES IDX 23 23 24 24 25 25 26 26 27 27 28 28 29 29 30 30
REMARK H PARENT 30 31
REMARK Flexibility Score: inf
ROOT
ATOM      1  C   UNL     1     129.018 146.026 120.062  1.00  0.00     0.000 C 
ENDROOT
BRANCH   1   2
ATOM      2  C   UNL     1     129.160 146.000 121.594  1.00  0.00     0.000 C 
BRANCH   2   3
ATOM      3  C   UNL     1     127.899 146.506 122.319  1.00  0.00     0.000 C 
BRANCH   3   4
ATOM      4  C   UNL     1     127.479 145.679 123.551  1.00  0.00     0.000 C 
BRANCH   4   5
ATOM      5  C   UNL     1     128.163 144.305 123.689  1.00  0.00     0.000 C 
BRANCH   5   6
ATOM      6  C   UNL     1     128.178 143.710 125.112  1.00  0.00     0.000 C 
BRANCH   6   7
ATOM      7  C   UNL     1     128.244 144.762 126.241  1.00  0.00     0.000 C 
BRANCH   7   8
ATOM      8  C   UNL     1     129.471 144.584 127.153  1.00  0.00    -0.000 C 
BRANCH   8   9
ATOM      9  C   UNL     1     130.437 145.782 127.093  1.00  0.00    -0.000 C 
BRANCH   9  10
ATOM     10  C   UNL     1     130.306 146.650 125.826  1.00  0.00    -0.000 C 
BRANCH  10  11
ATOM     11  C   UNL     1     131.253 146.202 124.697  1.00  0.00    -0.000 C 
BRANCH  11  12
ATOM     12  C   UNL     1     132.584 145.633 125.222  1.00  0.00    -0.000 C 
BRANCH  12  13
ATOM     13  C   UNL     1     132.812 144.136 124.934  1.00  0.00    -0.000 C 
BRANCH  13  14
ATOM     14  C   UNL     1     131.791 143.528 123.949  1.00  0.00    -0.000 C 
BRANCH  14  15
ATOM     15  C   UNL     1     131.571 142.027 124.193  1.00  0.00    -0.003 C 
ATOM     16  C   UNL     1     131.304 141.743 125.669  1.00  0.00     0.004 C 
ENDBRANCH  14  15
ENDBRANCH  13  14
ENDBRANCH  12  13
ENDBRANCH  11  12
ENDBRANCH  10  11
ENDBRANCH   9  10
ENDBRANCH   8   9
ENDBRANCH   7   8
ENDBRANCH   6   7
ENDBRANCH   5   6
ENDBRANCH   4   5
ENDBRANCH   3   4
ENDBRANCH   2   3
ENDBRANCH   1   2
BRANCH   1  17
ATOM     17  C   UNL     1     127.638 145.530 119.597  1.00  0.00     0.000 C 
BRANCH  17  18
ATOM     18  C   UNL     1     127.676 144.071 119.109  1.00  0.00     0.000 C 
BRANCH  18  19
ATOM     19  C   UNL     1     127.389 143.066 120.245  1.00  0.00     0.000 C 
BRANCH  19  20
ATOM     20  C   UNL     1     128.392 141.902 120.320  1.00  0.00     0.000 C 
BRANCH  20  21
ATOM     21  C   UNL     1     129.701 142.285 121.029  1.00  0.00     0.000 C 
BRANCH  21  22
ATOM     22  C   UNL     1     130.949 142.126 120.138  1.00  0.00     0.000 C 
BRANCH  22  23
ATOM     23  C   UNL     1     131.466 143.417 119.474  1.00  0.00     0.000 C 
BRANCH  23  24
ATOM     24  C   UNL     1     132.265 144.317 120.432  1.00  0.00     0.000 C 
BRANCH  24  25
ATOM     25  C   UNL     1     132.810 145.583 119.746  1.00  0.00     0.000 C 
BRANCH  25  26
ATOM     26  C   UNL     1     133.796 146.408 120.593  1.00  0.00     0.000 C 
BRANCH  26  27
ATOM     27  C   UNL     1     134.157 145.726 121.925  1.00  0.00     0.002 C 
BRANCH  27  28
ATOM     28  C   UNL     1     135.585 145.157 121.929  1.00  0.00     0.028 C 
BRANCH  28  29
ATOM     29  C   UNL     1     136.249 145.232 123.307  1.00  0.00     0.156 C 
BRANCH  29  30
ATOM     30  O   UNL     1     137.051 146.379 123.372  1.00  0.00    -0.396 OA
ATOM     31  H   UNL     1     137.424 146.404 124.291  1.00  0.00     0.210 HD
ENDBRANCH  29  30
ENDBRANCH  28  29
ENDBRANCH  27  28
ENDBRANCH  26  27
ENDBRANCH  25  26
ENDBRANCH  24  25
ENDBRANCH  23  24
ENDBRANCH  22  23
ENDBRANCH  21  22
ENDBRANCH  20  21
ENDBRANCH  19  20
ENDBRANCH  18  19
ENDBRANCH  17  18
ENDBRANCH   1  17
TORSDOF 28
ENDMDL
MODEL 6
REMARK VINA RESULT:    -2.994      1.976      5.531
REMARK INTER + INTRA:         -14.270
REMARK INTER:                  -8.108
REMARK INTRA:                  -6.162
REMARK UNBOUND:                -6.463
REMARK SMILES CCCCCCCCCCCCCCCCCCCCCCCCCCCCCO
REMARK SMILES IDX 16 1 15 2 14 3 13 4 12 5 11 6 10 7 9 8 8 9 7 10 6 11 5 12
REMARK SMILES IDX 4 13 3 14 2 15 1 16 17 17 18 18 19 19 20 20 21 21 22 22
REMARK SMILES IDX 23 23 24 24 25 25 26 26 27 27 28 28 29 29 30 30
REMARK H PARENT 30 31
REMARK Flexibility Score: inf
ROOT
ATOM      1  C   UNL     1     130.635 144.331 125.591  1.00  0.00     0.000 C 
ENDROOT
BRANCH   1   2
ATOM      2  C   UNL     1     131.918 144.594 124.784  1.00  0.00     0.000 C 
BRANCH   2   3
ATOM      3  C   UNL     1     132.342 146.075 124.802  1.00  0.00     0.000 C 
BRANCH   3   4
ATOM      4  C   UNL     1     132.399 146.755 123.419  1.00  0.00     0.000 C 
BRANCH   4   5
ATOM      5  C   UNL     1     131.849 145.916 122.248  1.00  0.00     0.000 C 
BRANCH   5   6
ATOM      6  C   UNL     1     131.330 146.723 121.040  1.00  0.00     0.000 C 
BRANCH   6   7
ATOM      7  C   UNL     1     131.929 146.294 119.683  1.00  0.00     0.000 C 
BRANCH   7   8
ATOM      8  C   UNL     1     132.831 145.052 119.793  1.00  0.00    -0.000 C 
BRANCH   8   9
ATOM      9  C   UNL     1     134.103 145.161 118.931  1.00  0.00    -0.000 C 
BRANCH   9  10
ATOM     10  C   UNL     1     134.914 146.454 119.143  1.00  0.00    -0.000 C 
BRANCH  10  11
ATOM     11  C   UNL     1     136.091 146.266 120.117  1.00  0.00    -0.000 C 
BRANCH  11  12
ATOM     12  C   UNL     1     135.674 146.397 121.593  1.00  0.00    -0.000 C 
BRANCH  12  13
ATOM     13  C   UNL     1     136.688 145.837 122.609  1.00  0.00    -0.000 C 
BRANCH  13  14
ATOM     14  C   UNL     1     136.285 144.472 123.207  1.00  0.00    -0.000 C 
BRANCH  14  15
ATOM     15  C   UNL     1     134.956 143.956 122.634  1.00  0.00    -0.003 C 
ATOM     16  C   UNL     1     135.182 142.759 121.714  1.00  0.00     0.004 C 
ENDBRANCH  14  15
ENDBRANCH  13  14
ENDBRANCH  12  13
ENDBRANCH  11  12
ENDBRANCH  10  11
ENDBRANCH   9  10
ENDBRANCH   8   9
ENDBRANCH   7   8
ENDBRANCH   6   7
ENDBRANCH   5   6
ENDBRANCH   4   5
ENDBRANCH   3   4
ENDBRANCH   2   3
ENDBRANCH   1   2
BRANCH   1  17
ATOM     17  C   UNL     1     129.380 144.323 124.701  1.00  0.00     0.000 C 
BRANCH  17  18
ATOM     18  C   UNL     1     128.556 145.616 124.841  1.00  0.00     0.000 C 
BRANCH  18  19
ATOM     19  C   UNL     1     128.455 146.394 123.512  1.00  0.00     0.000 C 
BRANCH  19  20
ATOM     20  C   UNL     1     127.405 145.832 122.537  1.00  0.00     0.000 C 
BRANCH  20  21
ATOM     21  C   UNL     1     127.487 146.466 121.139  1.00  0.00     0.000 C 
BRANCH  21  22
ATOM     22  C   UNL     1     127.157 145.479 120.001  1.00  0.00     0.000 C 
BRANCH  22  23
ATOM     23  C   UNL     1     128.309 145.180 119.021  1.00  0.00     0.000 C 
BRANCH  23  24
ATOM     24  C   UNL     1     128.852 143.745 119.139  1.00  0.00     0.000 C 
BRANCH  24  25
ATOM     25  C   UNL     1     128.054 142.886 120.138  1.00  0.00     0.000 C 
BRANCH  25  26
ATOM     26  C   UNL     1     128.804 142.533 121.436  1.00  0.00     0.000 C 
BRANCH  26  27
ATOM     27  C   UNL     1     130.258 143.037 121.442  1.00  0.00     0.002 C 
BRANCH  27  28
ATOM     28  C   UNL     1     131.254 141.960 121.901  1.00  0.00     0.028 C 
BRANCH  28  29
ATOM     29  C   UNL     1     131.657 141.006 120.774  1.00  0.00     0.156 C 
BRANCH  29  30
ATOM     30  O   UNL     1     131.750 141.721 119.573  1.00  0.00    -0.396 OA
ATOM     31  H   UNL     1     131.412 141.116 118.863  1.00  0.00     0.210 HD
ENDBRANCH  29  30
ENDBRANCH  28  29
ENDBRANCH  27  28
ENDBRANCH  26  27
ENDBRANCH  25  26
ENDBRANCH  24  25
ENDBRANCH  23  24
ENDBRANCH  22  23
ENDBRANCH  21  22
ENDBRANCH  20  21
ENDBRANCH  19  20
ENDBRANCH  18  19
ENDBRANCH  17  18
ENDBRANCH   1  17
TORSDOF 28
ENDMDL
MODEL 7
REMARK VINA RESULT:    -2.971      2.430      5.037
REMARK INTER + INTRA:         -14.209
REMARK INTER:                  -8.621
REMARK INTRA:                  -5.588
REMARK UNBOUND:                -6.463
REMARK SMILES CCCCCCCCCCCCCCCCCCCCCCCCCCCCCO
REMARK SMILES IDX 16 1 15 2 14 3 13 4 12 5 11 6 10 7 9 8 8 9 7 10 6 11 5 12
REMARK SMILES IDX 4 13 3 14 2 15 1 16 17 17 18 18 19 19 20 20 21 21 22 22
REMARK SMILES IDX 23 23 24 24 25 25 26 26 27 27 28 28 29 29 30 30
REMARK H PARENT 30 31
REMARK Flexibility Score: inf
ROOT
ATOM      1  C   UNL     1     129.721 142.715 122.153  1.00  0.00     0.000 C 
ENDROOT
BRANCH   1   2
ATOM      2  C   UNL     1     130.423 141.455 121.618  1.00  0.00     0.000 C 
BRANCH   2   3
ATOM      3  C   UNL     1     131.668 141.779 120.771  1.00  0.00     0.000 C 
BRANCH   3   4
ATOM      4  C   UNL     1     131.407 142.675 119.543  1.00  0.00     0.000 C 
BRANCH   4   5
ATOM      5  C   UNL     1     132.401 143.836 119.348  1.00  0.00     0.000 C 
BRANCH   5   6
ATOM      6  C   UNL     1     132.025 145.157 120.050  1.00  0.00     0.000 C 
BRANCH   6   7
ATOM      7  C   UNL     1     132.936 146.351 119.693  1.00  0.00     0.000 C 
BRANCH   7   8
ATOM      8  C   UNL     1     134.305 145.914 119.142  1.00  0.00    -0.000 C 
BRANCH   8   9
ATOM      9  C   UNL     1     135.472 146.732 119.725  1.00  0.00    -0.000 C 
BRANCH   9  10
ATOM     10  C   UNL     1     136.449 145.923 120.601  1.00  0.00    -0.000 C 
BRANCH  10  11
ATOM     11  C   UNL     1     136.100 145.989 122.099  1.00  0.00    -0.000 C 
BRANCH  11  12
ATOM     12  C   UNL     1     135.895 144.599 122.728  1.00  0.00    -0.000 C 
BRANCH  12  13
ATOM     13  C   UNL     1     134.768 143.758 122.098  1.00  0.00    -0.000 C 
BRANCH  13  14
ATOM     14  C   UNL     1     135.212 142.345 121.662  1.00  0.00    -0.000 C 
BRANCH  14  15
ATOM     15  C   UNL     1     136.196 142.383 120.482  1.00  0.00    -0.003 C 
ATOM     16  C   UNL     1     135.522 141.930 119.189  1.00  0.00     0.004 C 
ENDBRANCH  14  15
ENDBRANCH  13  14
ENDBRANCH  12  13
ENDBRANCH  11  12
ENDBRANCH  10  11
ENDBRANCH   9  10
ENDBRANCH   8   9
ENDBRANCH   7   8
ENDBRANCH   6   7
ENDBRANCH   5   6
ENDBRANCH   4   5
ENDBRANCH   3   4
ENDBRANCH   2   3
ENDBRANCH   1   2
BRANCH   1  17
ATOM     17  C   UNL     1     128.197 142.661 121.952  1.00  0.00     0.000 C 
BRANCH  17  18
ATOM     18  C   UNL     1     127.810 142.218 120.529  1.00  0.00     0.000 C 
BRANCH  18  19
ATOM     19  C   UNL     1     127.195 143.368 119.704  1.00  0.00     0.000 C 
BRANCH  19  20
ATOM     20  C   UNL     1     128.234 144.299 119.056  1.00  0.00     0.000 C 
BRANCH  20  21
ATOM     21  C   UNL     1     128.262 145.699 119.689  1.00  0.00     0.000 C 
BRANCH  21  22
ATOM     22  C   UNL     1     127.010 146.013 120.533  1.00  0.00     0.000 C 
BRANCH  22  23
ATOM     23  C   UNL     1     127.249 146.183 122.046  1.00  0.00     0.000 C 
BRANCH  23  24
ATOM     24  C   UNL     1     128.731 146.378 122.410  1.00  0.00     0.000 C 
BRANCH  24  25
ATOM     25  C   UNL     1     128.939 146.720 123.897  1.00  0.00     0.000 C 
BRANCH  25  26
ATOM     26  C   UNL     1     130.189 146.092 124.540  1.00  0.00     0.000 C 
BRANCH  26  27
ATOM     27  C   UNL     1     131.297 145.784 123.517  1.00  0.00     0.002 C 
BRANCH  27  28
ATOM     28  C   UNL     1     132.696 146.162 124.029  1.00  0.00     0.028 C 
BRANCH  28  29
ATOM     29  C   UNL     1     132.920 145.762 125.490  1.00  0.00     0.156 C 
BRANCH  29  30
ATOM     30  O   UNL     1     134.206 146.154 125.885  1.00  0.00    -0.396 OA
ATOM     31  H   UNL     1     134.231 146.066 126.874  1.00  0.00     0.210 HD
ENDBRANCH  29  30
ENDBRANCH  28  29
ENDBRANCH  27  28
ENDBRANCH  26  27
ENDBRANCH  25  26
ENDBRANCH  24  25
ENDBRANCH  23  24
ENDBRANCH  22  23
ENDBRANCH  21  22
ENDBRANCH  20  21
ENDBRANCH  19  20
ENDBRANCH  18  19
ENDBRANCH  17  18
ENDBRANCH   1  17
TORSDOF 28
ENDMDL
MODEL 8
REMARK VINA RESULT:    -2.950      2.291      5.246
REMARK INTER + INTRA:         -14.157
REMARK INTER:                  -8.313
REMARK INTRA:                  -5.843
REMARK UNBOUND:                -6.463
REMARK SMILES CCCCCCCCCCCCCCCCCCCCCCCCCCCCCO
REMARK SMILES IDX 16 1 15 2 14 3 13 4 12 5 11 6 10 7 9 8 8 9 7 10 6 11 5 12
REMARK SMILES IDX 4 13 3 14 2 15 1 16 17 17 18 18 19 19 20 20 21 21 22 22
REMARK SMILES IDX 23 23 24 24 25 25 26 26 27 27 28 28 29 29 30 30
REMARK H PARENT 30 31
REMARK Flexibility Score: inf
ROOT
ATOM      1  C   UNL     1     131.159 141.906 121.066  1.00  0.00     0.000 C 
ENDROOT
BRANCH   1   2
ATOM      2  C   UNL     1     130.717 140.470 121.397  1.00  0.00     0.000 C 
BRANCH   2   3
ATOM      3  C   UNL     1     129.380 140.089 120.734  1.00  0.00     0.000 C 
BRANCH   3   4
ATOM      4  C   UNL     1     128.139 140.231 121.639  1.00  0.00     0.000 C 
BRANCH   4   5
ATOM      5  C   UNL     1     127.187 141.387 121.279  1.00  0.00     0.000 C 
BRANCH   5   6
ATOM      6  C   UNL     1     127.676 142.324 120.155  1.00  0.00     0.000 C 
BRANCH   6   7
ATOM      7  C   UNL     1     127.277 143.804 120.340  1.00  0.00     0.000 C 
BRANCH   7   8
ATOM      8  C   UNL     1     127.601 144.669 119.109  1.00  0.00    -0.000 C 
BRANCH   8   9
ATOM      9  C   UNL     1     128.823 145.581 119.325  1.00  0.00    -0.000 C 
BRANCH   9  10
ATOM     10  C   UNL     1     129.077 145.979 120.792  1.00  0.00    -0.000 C 
BRANCH  10  11
ATOM     11  C   UNL     1     130.527 146.429 121.044  1.00  0.00    -0.000 C 
BRANCH  11  12
ATOM     12  C   UNL     1     131.361 146.513 119.753  1.00  0.00    -0.000 C 
BRANCH  12  13
ATOM     13  C   UNL     1     132.885 146.397 119.953  1.00  0.00    -0.000 C 
BRANCH  13  14
ATOM     14  C   UNL     1     133.293 145.844 121.335  1.00  0.00    -0.000 C 
BRANCH  14  15
ATOM     15  C   UNL     1     134.374 144.756 121.230  1.00  0.00    -0.003 C 
ATOM     16  C   UNL     1     134.150 143.875 120.004  1.00  0.00     0.004 C 
ENDBRANCH  14  15
ENDBRANCH  13  14
ENDBRANCH  12  13
ENDBRANCH  11  12
ENDBRANCH  10  11
ENDBRANCH   9  10
ENDBRANCH   8   9
ENDBRANCH   7   8
ENDBRANCH   6   7
ENDBRANCH   5   6
ENDBRANCH   4   5
ENDBRANCH   3   4
ENDBRANCH   2   3
ENDBRANCH   1   2
BRANCH   1  17
ATOM     17  C   UNL     1     131.384 142.751 122.332  1.00  0.00     0.000 C 
BRANCH  17  18
ATOM     18  C   UNL     1     130.065 143.277 122.926  1.00  0.00     0.000 C 
BRANCH  18  19
ATOM     19  C   UNL     1     129.641 142.500 124.190  1.00  0.00     0.000 C 
BRANCH  19  20
ATOM     20  C   UNL     1     128.230 142.848 124.695  1.00  0.00     0.000 C 
BRANCH  20  21
ATOM     21  C   UNL     1     128.195 144.137 125.531  1.00  0.00     0.000 C 
BRANCH  21  22
ATOM     22  C   UNL     1     127.653 145.354 124.754  1.00  0.00     0.000 C 
BRANCH  22  23
ATOM     23  C   UNL     1     128.697 146.423 124.373  1.00  0.00     0.000 C 
BRANCH  23  24
ATOM     24  C   UNL     1     129.926 146.431 125.299  1.00  0.00     0.000 C 
BRANCH  24  25
ATOM     25  C   UNL     1     131.256 146.451 124.524  1.00  0.00     0.000 C 
BRANCH  25  26
ATOM     26  C   UNL     1     132.346 145.517 125.079  1.00  0.00     0.000 C 
BRANCH  26  27
ATOM     27  C   UNL     1     131.862 144.678 126.275  1.00  0.00     0.002 C 
BRANCH  27  28
ATOM     28  C   UNL     1     132.653 144.971 127.561  1.00  0.00     0.028 C 
BRANCH  28  29
ATOM     29  C   UNL     1     133.289 146.363 127.561  1.00  0.00     0.156 C 
BRANCH  29  30
ATOM     30  O   UNL     1     134.353 146.386 128.472  1.00  0.00    -0.396 OA
ATOM     31  H   UNL     1     134.043 145.887 129.272  1.00  0.00     0.210 HD
ENDBRANCH  29  30
ENDBRANCH  28  29
ENDBRANCH  27  28
ENDBRANCH  26  27
ENDBRANCH  25  26
ENDBRANCH  24  25
ENDBRANCH  23  24
ENDBRANCH  22  23
ENDBRANCH  21  22
ENDBRANCH  20  21
ENDBRANCH  19  20
ENDBRANCH  18  19
ENDBRANCH  17  18
ENDBRANCH   1  17
TORSDOF 28
ENDMDL
MODEL 9
REMARK VINA RESULT:    -2.932      2.314      6.281
REMARK INTER + INTRA:         -14.108
REMARK INTER:                  -7.564
REMARK INTRA:                  -6.544
REMARK UNBOUND:                -6.463
REMARK SMILES CCCCCCCCCCCCCCCCCCCCCCCCCCCCCO
REMARK SMILES IDX 16 1 15 2 14 3 13 4 12 5 11 6 10 7 9 8 8 9 7 10 6 11 5 12
REMARK SMILES IDX 4 13 3 14 2 15 1 16 17 17 18 18 19 19 20 20 21 21 22 22
REMARK SMILES IDX 23 23 24 24 25 25 26 26 27 27 28 28 29 29 30 30
REMARK H PARENT 30 31
REMARK Flexibility Score: inf
ROOT
ATOM      1  C   UNL     1     133.242 143.376 124.393  1.00  0.00     0.000 C 
ENDROOT
BRANCH   1   2
ATOM      2  C   UNL     1     133.903 143.185 123.017  1.00  0.00     0.000 C 
BRANCH   2   3
ATOM      3  C   UNL     1     132.970 142.509 121.995  1.00  0.00     0.000 C 
BRANCH   3   4
ATOM      4  C   UNL     1     132.804 143.267 120.662  1.00  0.00     0.000 C 
BRANCH   4   5
ATOM      5  C   UNL     1     133.320 144.719 120.659  1.00  0.00     0.000 C 
BRANCH   5   6
ATOM      6  C   UNL     1     132.295 145.787 120.224  1.00  0.00     0.000 C 
BRANCH   6   7
ATOM      7  C   UNL     1     130.930 145.217 119.782  1.00  0.00     0.000 C 
BRANCH   7   8
ATOM      8  C   UNL     1     129.816 146.278 119.763  1.00  0.00    -0.000 C 
BRANCH   8   9
ATOM      9  C   UNL     1     128.424 145.678 119.492  1.00  0.00    -0.000 C 
BRANCH   9  10
ATOM     10  C   UNL     1     128.423 144.165 119.196  1.00  0.00    -0.000 C 
BRANCH  10  11
ATOM     11  C   UNL     1     127.242 143.430 119.856  1.00  0.00    -0.000 C 
BRANCH  11  12
ATOM     12  C   UNL     1     127.692 142.273 120.768  1.00  0.00    -0.000 C 
BRANCH  12  13
ATOM     13  C   UNL     1     129.210 142.010 120.786  1.00  0.00    -0.000 C 
BRANCH  13  14
ATOM     14  C   UNL     1     129.615 140.746 121.575  1.00  0.00    -0.000 C 
BRANCH  14  15
ATOM     15  C   UNL     1     129.835 141.038 123.068  1.00  0.00    -0.003 C 
ATOM     16  C   UNL     1     128.667 140.526 123.907  1.00  0.00     0.004 C 
ENDBRANCH  14  15
ENDBRANCH  13  14
ENDBRANCH  12  13
ENDBRANCH  11  12
ENDBRANCH  10  11
ENDBRANCH   9  10
ENDBRANCH   8   9
ENDBRANCH   7   8
ENDBRANCH   6   7
ENDBRANCH   5   6
ENDBRANCH   4   5
ENDBRANCH   3   4
ENDBRANCH   2   3
ENDBRANCH   1   2
BRANCH   1  17
ATOM     17  C   UNL     1     131.806 143.916 124.279  1.00  0.00     0.000 C 
BRANCH  17  18
ATOM     18  C   UNL     1     131.770 145.445 124.104  1.00  0.00     0.000 C 
BRANCH  18  19
ATOM     19  C   UNL     1     130.461 145.928 123.444  1.00  0.00     0.000 C 
BRANCH  19  20
ATOM     20  C   UNL     1     129.492 144.792 123.071  1.00  0.00     0.000 C 
BRANCH  20  21
ATOM     21  C   UNL     1     128.021 145.149 123.336  1.00  0.00     0.000 C 
BRANCH  21  22
ATOM     22  C   UNL     1     127.619 145.026 124.820  1.00  0.00     0.000 C 
BRANCH  22  23
ATOM     23  C   UNL     1     128.162 143.787 125.558  1.00  0.00     0.000 C 
BRANCH  23  24
ATOM     24  C   UNL     1     128.951 144.134 126.832  1.00  0.00     0.000 C 
BRANCH  24  25
ATOM     25  C   UNL     1     129.302 145.630 126.927  1.00  0.00     0.000 C 
BRANCH  25  26
ATOM     26  C   UNL     1     130.617 145.944 127.663  1.00  0.00     0.000 C 
BRANCH  26  27
ATOM     27  C   UNL     1     131.450 144.685 127.963  1.00  0.00     0.002 C 
BRANCH  27  28
ATOM     28  C   UNL     1     132.954 144.901 127.730  1.00  0.00     0.028 C 
BRANCH  28  29
ATOM     29  C   UNL     1     133.369 146.369 127.864  1.00  0.00     0.156 C 
BRANCH  29  30
ATOM     30  O   UNL     1     134.342 146.485 128.865  1.00  0.00    -0.396 OA
ATOM     31  H   UNL     1     133.860 146.752 129.691  1.00  0.00     0.210 HD
ENDBRANCH  29  30
ENDBRANCH  28  29
ENDBRANCH  27  28
ENDBRANCH  26  27
ENDBRANCH  25  26
ENDBRANCH  24  25
ENDBRANCH  23  24
ENDBRANCH  22  23
ENDBRANCH  21  22
ENDBRANCH  20  21
ENDBRANCH  19  20
ENDBRANCH  18  19
ENDBRANCH  17  18
ENDBRANCH   1  17
TORSDOF 28
ENDMDL
