MODEL 1
REMARK VINA RESULT:    -4.365      0.000      0.000
REMARK INTER + INTRA:          -5.307
REMARK INTER:                  -6.152
REMARK INTRA:                   0.845
REMARK UNBOUND:                 0.845
REMARK SMILES CC1=CCC(=C(C)C)C(=O)CC(C)=CCC1
REMARK SMILES IDX 12 1 14 2 13 3 15 4 16 5 2 6 1 7 3 8 11 10 9 11 10 12 5 13
REMARK SMILES IDX 6 14 7 15 8 16 4 17
REMARK H PARENT
REMARK Flexibility Score: 60.00
ROOT
ATOM      1  C   UNL     1     -16.098  14.532 -30.186  1.00  0.00    -0.070 C 
ATOM      2  C   UNL     1     -16.707  14.379 -28.986  1.00  0.00    -0.027 C 
ATOM      3  C   UNL     1     -14.953  15.512 -30.265  1.00  0.00     0.039 C 
ENDROOT
BRANCH   2   4
ATOM      4  C   UNL     1     -17.795  13.386 -28.656  1.00  0.00     0.032 C 
BRANCH   4   5
ATOM      5  C   UNL     1     -17.357  11.928 -28.890  1.00  0.00     0.034 C 
BRANCH   5   6
ATOM      6  C   UNL     1     -15.991  11.638 -28.301  1.00  0.00    -0.077 C 
ATOM      7  C   UNL     1     -15.798  11.824 -26.816  1.00  0.00     0.039 C 
ATOM      8  C   UNL     1     -14.925  11.247 -29.034  1.00  0.00    -0.023 CG0
ATOM      9  G   UNL     1     -14.909  11.041 -30.529  1.00  0.00     0.000 G0
ENDBRANCH   5   6
ENDBRANCH   4   5
ENDBRANCH   2   4
BRANCH   1  10
ATOM     10  C   UNL     1     -16.461  13.731 -31.426  1.00  0.00     0.111 C 
BRANCH  10  11
ATOM     11  C   UNL     1     -15.247  13.084 -32.044  1.00  0.00     0.163 C 
ATOM     12  O   UNL     1     -15.055  13.243 -33.280  1.00  0.00    -0.294 OA
BRANCH  11  13
ATOM     13  C   UNL     1     -14.314  12.229 -31.247  1.00  0.00    -0.002 C 
ATOM     14  C   UNL     1     -12.990  12.544 -31.111  1.00  0.00    -0.069 C 
ATOM     15  C   UNL     1     -12.043  11.654 -30.334  1.00  0.00     0.039 C 
ATOM     16  C   UNL     1     -12.413  13.813 -31.697  1.00  0.00     0.039 C 
BRANCH  13  17
ATOM     17  C   UNL     1     -14.914  11.033 -30.530  1.00  0.00     0.066 CG0
ATOM     18  G   UNL     1     -14.913  11.276 -29.040  1.00  0.00     0.000 G0
ENDBRANCH  13  17
ENDBRANCH  11  13
ENDBRANCH  10  11
ENDBRANCH   1  10
TORSDOF 0
ENDMDL
MODEL 2
REMARK VINA RESULT:    -4.143      1.611      2.669
REMARK INTER + INTRA:          -4.994
REMARK INTER:                  -5.955
REMARK INTRA:                   0.961
REMARK UNBOUND:                 0.845
REMARK SMILES CC1=CCC(=C(C)C)C(=O)CC(C)=CCC1
REMARK SMILES IDX 12 1 14 2 13 3 15 4 16 5 2 6 1 7 3 8 11 10 9 11 10 12 5 13
REMARK SMILES IDX 6 14 7 15 8 16 4 17
REMARK H PARENT
REMARK Flexibility Score: 60.00
ROOT
ATOM      1  C   UNL     1     -14.720  14.125 -30.738  1.00  0.00    -0.070 C 
ATOM      2  C   UNL     1     -16.064  14.253 -30.624  1.00  0.00    -0.027 C 
ATOM      3  C   UNL     1     -13.872  15.301 -30.320  1.00  0.00     0.039 C 
ENDROOT
BRANCH   2   4
ATOM      4  C   UNL     1     -17.089  13.176 -30.882  1.00  0.00     0.032 C 
BRANCH   4   5
ATOM      5  C   UNL     1     -18.030  12.954 -29.683  1.00  0.00     0.034 C 
BRANCH   5   6
ATOM      6  C   UNL     1     -17.771  11.632 -28.988  1.00  0.00    -0.077 C 
ATOM      7  C   UNL     1     -18.836  10.566 -29.060  1.00  0.00     0.039 C 
ATOM      8  C   UNL     1     -16.649  11.360 -28.284  1.00  0.00    -0.023 CG0
ATOM      9  G   UNL     1     -15.492  12.305 -28.069  1.00  0.00     0.000 G0
ENDBRANCH   5   6
ENDBRANCH   4   5
ENDBRANCH   2   4
BRANCH   1  10
ATOM     10  C   UNL     1     -14.029  12.852 -31.196  1.00  0.00     0.111 C 
BRANCH  10  11
ATOM     11  C   UNL     1     -14.369  11.683 -30.304  1.00  0.00     0.163 C 
ATOM     12  O   UNL     1     -14.797  10.628 -30.846  1.00  0.00    -0.294 OA
BRANCH  11  13
ATOM     13  C   UNL     1     -14.261  11.767 -28.815  1.00  0.00    -0.002 C 
ATOM     14  C   UNL     1     -13.100  11.463 -28.160  1.00  0.00    -0.069 C 
ATOM     15  C   UNL     1     -13.009  11.513 -26.650  1.00  0.00     0.039 C 
ATOM     16  C   UNL     1     -11.840  11.095 -28.911  1.00  0.00     0.039 C 
BRANCH  13  17
ATOM     17  C   UNL     1     -15.476  12.279 -28.062  1.00  0.00     0.066 CG0
ATOM     18  G   UNL     1     -16.647  11.353 -28.289  1.00  0.00     0.000 G0
ENDBRANCH  13  17
ENDBRANCH  11  13
ENDBRANCH  10  11
ENDBRANCH   1  10
TORSDOF 0
ENDMDL
MODEL 3
REMARK VINA RESULT:    -4.119      2.128      4.052
REMARK INTER + INTRA:          -4.960
REMARK INTER:                  -5.735
REMARK INTRA:                   0.775
REMARK UNBOUND:                 0.845
REMARK SMILES CC1=CCC(=C(C)C)C(=O)CC(C)=CCC1
REMARK SMILES IDX 12 1 14 2 13 3 15 4 16 5 2 6 1 7 3 8 11 10 9 11 10 12 5 13
REMARK SMILES IDX 6 14 7 15 8 16 4 17
REMARK H PARENT
REMARK Flexibility Score: 60.00
ROOT
ATOM      1  C   UNL     1     -17.739  12.399 -30.047  1.00  0.00    -0.070 C 
ATOM      2  C   UNL     1     -17.116  12.921 -31.131  1.00  0.00    -0.027 C 
ATOM      3  C   UNL     1     -19.138  12.885 -29.750  1.00  0.00     0.039 C 
ENDROOT
BRANCH   2   4
ATOM      4  C   UNL     1     -15.769  12.507 -31.672  1.00  0.00     0.032 C 
BRANCH   4   5
ATOM      5  C   UNL     1     -14.823  13.704 -31.884  1.00  0.00     0.034 C 
BRANCH   5   6
ATOM      6  C   UNL     1     -14.372  14.317 -30.573  1.00  0.00    -0.077 C 
ATOM      7  C   UNL     1     -14.302  15.821 -30.474  1.00  0.00     0.039 C 
ATOM      8  C   UNL     1     -14.001  13.594 -29.493  1.00  0.00    -0.023 CG0
ATOM      9  G   UNL     1     -13.969  12.086 -29.410  1.00  0.00     0.000 G0
ENDBRANCH   5   6
ENDBRANCH   4   5
ENDBRANCH   2   4
BRANCH   1  10
ATOM     10  C   UNL     1     -17.138  11.319 -29.165  1.00  0.00     0.111 C 
BRANCH  10  11
ATOM     11  C   UNL     1     -16.180  11.897 -28.152  1.00  0.00     0.163 C 
ATOM     12  O   UNL     1     -16.641  12.687 -27.284  1.00  0.00    -0.294 OA
BRANCH  11  13
ATOM     13  C   UNL     1     -14.715  11.601 -28.190  1.00  0.00    -0.002 C 
ATOM     14  C   UNL     1     -14.103  10.875 -27.205  1.00  0.00    -0.069 C 
ATOM     15  C   UNL     1     -12.613  10.611 -27.230  1.00  0.00     0.039 C 
ATOM     16  C   UNL     1     -14.888  10.270 -26.063  1.00  0.00     0.039 C 
BRANCH  13  17
ATOM     17  C   UNL     1     -13.945  12.076 -29.408  1.00  0.00     0.066 CG0
ATOM     18  G   UNL     1     -14.007  13.582 -29.498  1.00  0.00     0.000 G0
ENDBRANCH  13  17
ENDBRANCH  11  13
ENDBRANCH  10  11
ENDBRANCH   1  10
TORSDOF 0
ENDMDL
MODEL 4
REMARK VINA RESULT:    -3.985      1.829      3.297
REMARK INTER + INTRA:          -4.772
REMARK INTER:                  -5.771
REMARK INTRA:                   0.999
REMARK UNBOUND:                 0.845
REMARK SMILES CC1=CCC(=C(C)C)C(=O)CC(C)=CCC1
REMARK SMILES IDX 12 1 14 2 13 3 15 4 16 5 2 6 1 7 3 8 11 10 9 11 10 12 5 13
REMARK SMILES IDX 6 14 7 15 8 16 4 17
REMARK H PARENT
REMARK Flexibility Score: 60.00
ROOT
ATOM      1  C   UNL     1     -13.731  11.920 -27.845  1.00  0.00    -0.070 C 
ATOM      2  C   UNL     1     -14.980  11.732 -27.355  1.00  0.00    -0.027 C 
ATOM      3  C   UNL     1     -12.700  12.505 -26.911  1.00  0.00     0.039 C 
ENDROOT
BRANCH   2   4
ATOM      4  C   UNL     1     -16.130  11.069 -28.073  1.00  0.00     0.032 C 
BRANCH   4   5
ATOM      5  C   UNL     1     -17.398  11.944 -28.095  1.00  0.00     0.034 C 
BRANCH   5   6
ATOM      6  C   UNL     1     -17.692  12.492 -29.478  1.00  0.00    -0.077 C 
ATOM      7  C   UNL     1     -18.873  11.935 -30.231  1.00  0.00     0.039 C 
ATOM      8  C   UNL     1     -16.939  13.435 -30.087  1.00  0.00    -0.023 CG0
ATOM      9  G   UNL     1     -15.703  14.085 -29.513  1.00  0.00     0.000 G0
ENDBRANCH   5   6
ENDBRANCH   4   5
ENDBRANCH   2   4
BRANCH   1  10
ATOM     10  C   UNL     1     -13.303  11.518 -29.246  1.00  0.00     0.111 C 
BRANCH  10  11
ATOM     11  C   UNL     1     -14.168  12.166 -30.299  1.00  0.00     0.163 C 
ATOM     12  O   UNL     1     -14.613  11.442 -31.230  1.00  0.00    -0.294 OA
BRANCH  11  13
ATOM     13  C   UNL     1     -14.459  13.634 -30.290  1.00  0.00    -0.002 C 
ATOM     14  C   UNL     1     -13.696  14.521 -30.997  1.00  0.00    -0.069 C 
ATOM     15  C   UNL     1     -13.973  16.009 -30.953  1.00  0.00     0.039 C 
ATOM     16  C   UNL     1     -12.562  14.061 -31.885  1.00  0.00     0.039 C 
BRANCH  13  17
ATOM     17  C   UNL     1     -15.686  14.090 -29.521  1.00  0.00     0.066 CG0
ATOM     18  G   UNL     1     -16.922  13.444 -30.099  1.00  0.00     0.000 G0
ENDBRANCH  13  17
ENDBRANCH  11  13
ENDBRANCH  10  11
ENDBRANCH   1  10
TORSDOF 0
ENDMDL
MODEL 5
REMARK VINA RESULT:    -3.837      1.701      2.596
REMARK INTER + INTRA:          -4.562
REMARK INTER:                  -5.503
REMARK INTRA:                   0.941
REMARK UNBOUND:                 0.845
REMARK SMILES CC1=CCC(=C(C)C)C(=O)CC(C)=CCC1
REMARK SMILES IDX 12 1 14 2 13 3 15 4 16 5 2 6 1 7 3 8 11 10 9 11 10 12 5 13
REMARK SMILES IDX 6 14 7 15 8 16 4 17
REMARK H PARENT
REMARK Flexibility Score: 60.00
ROOT
ATOM      1  C   UNL     1     -17.284  12.339 -29.985  1.00  0.00    -0.070 C 
ATOM      2  C   UNL     1     -16.935  11.096 -29.576  1.00  0.00    -0.027 C 
ATOM      3  C   UNL     1     -18.521  12.950 -29.374  1.00  0.00     0.039 C 
ENDROOT
BRANCH   2   4
ATOM      4  C   UNL     1     -15.690  10.341 -29.972  1.00  0.00     0.032 C 
BRANCH   4   5
ATOM      5  C   UNL     1     -14.867   9.876 -28.755  1.00  0.00     0.034 C 
BRANCH   5   6
ATOM      6  C   UNL     1     -14.133  11.022 -28.088  1.00  0.00    -0.077 C 
ATOM      7  C   UNL     1     -14.197  11.133 -26.585  1.00  0.00     0.039 C 
ATOM      8  C   UNL     1     -13.445  11.969 -28.764  1.00  0.00    -0.023 CG0
ATOM      9  G   UNL     1     -13.296  12.049 -30.264  1.00  0.00     0.000 G0
ENDBRANCH   5   6
ENDBRANCH   4   5
ENDBRANCH   2   4
BRANCH   1  10
ATOM     10  C   UNL     1     -16.468  13.164 -30.966  1.00  0.00     0.111 C 
BRANCH  10  11
ATOM     11  C   UNL     1     -15.234  13.739 -30.317  1.00  0.00     0.163 C 
ATOM     12  O   UNL     1     -15.388  14.586 -29.395  1.00  0.00    -0.294 OA
BRANCH  11  13
ATOM     13  C   UNL     1     -13.857  13.373 -30.772  1.00  0.00    -0.002 C 
ATOM     14  C   UNL     1     -13.114  14.208 -31.559  1.00  0.00    -0.069 C 
ATOM     15  C   UNL     1     -11.736  13.814 -32.047  1.00  0.00     0.039 C 
ATOM     16  C   UNL     1     -13.614  15.580 -31.952  1.00  0.00     0.039 C 
BRANCH  13  17
ATOM     17  C   UNL     1     -13.286  12.063 -30.260  1.00  0.00     0.066 CG0
ATOM     18  G   UNL     1     -13.459  11.979 -28.762  1.00  0.00     0.000 G0
ENDBRANCH  13  17
ENDBRANCH  11  13
ENDBRANCH  10  11
ENDBRANCH   1  10
TORSDOF 0
ENDMDL
MODEL 6
REMARK VINA RESULT:    -3.700      2.057      4.631
REMARK INTER + INTRA:          -4.370
REMARK INTER:                  -5.735
REMARK INTRA:                   1.365
REMARK UNBOUND:                 0.845
REMARK SMILES CC1=CCC(=C(C)C)C(=O)CC(C)=CCC1
REMARK SMILES IDX 12 1 14 2 13 3 15 4 16 5 2 6 1 7 3 8 11 10 9 11 10 12 5 13
REMARK SMILES IDX 6 14 7 15 8 16 4 17
REMARK H PARENT
REMARK Flexibility Score: 60.00
ROOT
ATOM      1  C   UNL     1     -13.933  11.758 -30.377  1.00  0.00    -0.070 C 
ATOM      2  C   UNL     1     -14.165  12.609 -31.404  1.00  0.00    -0.027 C 
ATOM      3  C   UNL     1     -12.560  11.782 -29.751  1.00  0.00     0.039 C 
ENDROOT
BRANCH   2   4
ATOM      4  C   UNL     1     -15.485  12.827 -32.104  1.00  0.00     0.032 C 
BRANCH   4   5
ATOM      5  C   UNL     1     -16.308  13.967 -31.474  1.00  0.00     0.034 C 
BRANCH   5   6
ATOM      6  C   UNL     1     -15.614  14.579 -30.273  1.00  0.00    -0.077 C 
ATOM      7  C   UNL     1     -14.359  15.383 -30.506  1.00  0.00     0.039 C 
ATOM      8  C   UNL     1     -16.039  14.424 -29.000  1.00  0.00    -0.023 CG0
ATOM      9  G   UNL     1     -17.247  13.630 -28.563  1.00  0.00     0.000 G0
ENDBRANCH   5   6
ENDBRANCH   4   5
ENDBRANCH   2   4
BRANCH   1  10
ATOM     10  C   UNL     1     -14.989  10.839 -29.787  1.00  0.00     0.111 C 
BRANCH  10  11
ATOM     11  C   UNL     1     -15.770  11.521 -28.690  1.00  0.00     0.163 C 
ATOM     12  O   UNL     1     -15.294  11.499 -27.522  1.00  0.00    -0.294 OA
BRANCH  11  13
ATOM     13  C   UNL     1     -17.096  12.165 -28.945  1.00  0.00    -0.002 C 
ATOM     14  C   UNL     1     -18.149  11.460 -29.458  1.00  0.00    -0.069 C 
ATOM     15  C   UNL     1     -19.477  12.127 -29.749  1.00  0.00     0.039 C 
ATOM     16  C   UNL     1     -18.054   9.975 -29.728  1.00  0.00     0.039 C 
BRANCH  13  17
ATOM     17  C   UNL     1     -17.247  13.619 -28.538  1.00  0.00     0.066 CG0
ATOM     18  G   UNL     1     -16.046  14.409 -29.000  1.00  0.00     0.000 G0
ENDBRANCH  13  17
ENDBRANCH  11  13
ENDBRANCH  10  11
ENDBRANCH   1  10
TORSDOF 0
ENDMDL
MODEL 7
REMARK VINA RESULT:    -3.531      1.581      3.903
REMARK INTER + INTRA:          -4.132
REMARK INTER:                  -4.874
REMARK INTRA:                   0.743
REMARK UNBOUND:                 0.845
REMARK SMILES CC1=CCC(=C(C)C)C(=O)CC(C)=CCC1
REMARK SMILES IDX 12 1 14 2 13 3 15 4 16 5 2 6 1 7 3 8 11 10 9 11 10 12 5 13
REMARK SMILES IDX 6 14 7 15 8 16 4 17
REMARK H PARENT
REMARK Flexibility Score: 60.00
ROOT
ATOM      1  C   UNL     1     -16.387  13.606 -29.893  1.00  0.00    -0.070 C 
ATOM      2  C   UNL     1     -15.712  14.768 -30.060  1.00  0.00    -0.027 C 
ATOM      3  C   UNL     1     -17.386  13.539 -28.763  1.00  0.00     0.039 C 
ENDROOT
BRANCH   2   4
ATOM      4  C   UNL     1     -14.752  15.090 -31.179  1.00  0.00     0.032 C 
BRANCH   4   5
ATOM      5  C   UNL     1     -13.280  14.885 -30.774  1.00  0.00     0.034 C 
BRANCH   5   6
ATOM      6  C   UNL     1     -12.746  13.537 -31.219  1.00  0.00    -0.077 C 
ATOM      7  C   UNL     1     -12.226  13.404 -32.628  1.00  0.00     0.039 C 
ATOM      8  C   UNL     1     -12.732  12.438 -30.432  1.00  0.00    -0.023 CG0
ATOM      9  G   UNL     1     -13.239  12.362 -29.012  1.00  0.00     0.000 G0
ENDBRANCH   5   6
ENDBRANCH   4   5
ENDBRANCH   2   4
BRANCH   1  10
ATOM     10  C   UNL     1     -16.240  12.403 -30.810  1.00  0.00     0.111 C 
BRANCH  10  11
ATOM     11  C   UNL     1     -15.273  11.390 -30.248  1.00  0.00     0.163 C 
ATOM     12  O   UNL     1     -15.102  10.317 -30.886  1.00  0.00    -0.294 OA
BRANCH  11  13
ATOM     13  C   UNL     1     -14.568  11.607 -28.947  1.00  0.00    -0.002 C 
ATOM     14  C   UNL     1     -15.051  11.096 -27.774  1.00  0.00    -0.069 C 
ATOM     15  C   UNL     1     -14.353  11.351 -26.455  1.00  0.00     0.039 C 
ATOM     16  C   UNL     1     -16.285  10.222 -27.739  1.00  0.00     0.039 C 
BRANCH  13  17
ATOM     17  C   UNL     1     -13.249  12.356 -28.992  1.00  0.00     0.066 CG0
ATOM     18  G   UNL     1     -12.750  12.430 -30.415  1.00  0.00     0.000 G0
ENDBRANCH  13  17
ENDBRANCH  11  13
ENDBRANCH  10  11
ENDBRANCH   1  10
TORSDOF 0
ENDMDL
MODEL 8
REMARK VINA RESULT:    -3.333      2.077      5.008
REMARK INTER + INTRA:          -3.853
REMARK INTER:                  -4.504
REMARK INTRA:                   0.651
REMARK UNBOUND:                 0.845
REMARK SMILES CC1=CCC(=C(C)C)C(=O)CC(C)=CCC1
REMARK SMILES IDX 12 1 14 2 13 3 15 4 16 5 2 6 1 7 3 8 11 10 9 11 10 12 5 13
REMARK SMILES IDX 6 14 7 15 8 16 4 17
REMARK H PARENT
REMARK Flexibility Score: 60.00
ROOT
ATOM      1  C   UNL     1     -13.630  11.494 -29.436  1.00  0.00    -0.070 C 
ATOM      2  C   UNL     1     -12.728  11.047 -30.342  1.00  0.00    -0.027 C 
ATOM      3  C   UNL     1     -14.739  10.550 -29.037  1.00  0.00     0.039 C 
ENDROOT
BRANCH   2   4
ATOM      4  C   UNL     1     -11.489  11.776 -30.802  1.00  0.00     0.032 C 
BRANCH   4   5
ATOM      5  C   UNL     1     -11.581  12.233 -32.270  1.00  0.00     0.034 C 
BRANCH   5   6
ATOM      6  C   UNL     1     -11.860  13.718 -32.391  1.00  0.00    -0.077 C 
ATOM      7  C   UNL     1     -10.688  14.656 -32.539  1.00  0.00     0.039 C 
ATOM      8  C   UNL     1     -13.100  14.255 -32.348  1.00  0.00    -0.023 CG0
ATOM      9  G   UNL     1     -14.388  13.489 -32.171  1.00  0.00     0.000 G0
ENDBRANCH   5   6
ENDBRANCH   4   5
ENDBRANCH   2   4
BRANCH   1  10
ATOM     10  C   UNL     1     -13.549  12.853 -28.762  1.00  0.00     0.111 C 
BRANCH  10  11
ATOM     11  C   UNL     1     -14.024  13.956 -29.676  1.00  0.00     0.163 C 
ATOM     12  O   UNL     1     -13.618  15.128 -29.451  1.00  0.00    -0.294 OA
BRANCH  11  13
ATOM     13  C   UNL     1     -14.990  13.700 -30.789  1.00  0.00    -0.002 C 
ATOM     14  C   UNL     1     -16.342  13.730 -30.587  1.00  0.00    -0.069 C 
ATOM     15  C   UNL     1     -17.314  13.433 -31.710  1.00  0.00     0.039 C 
ATOM     16  C   UNL     1     -16.936  14.095 -29.245  1.00  0.00     0.039 C 
BRANCH  13  17
ATOM     17  C   UNL     1     -14.408  13.480 -32.173  1.00  0.00     0.066 CG0
ATOM     18  G   UNL     1     -13.126  14.265 -32.320  1.00  0.00     0.000 G0
ENDBRANCH  13  17
ENDBRANCH  11  13
ENDBRANCH  10  11
ENDBRANCH   1  10
TORSDOF 0
ENDMDL
MODEL 9
REMARK VINA RESULT:    -3.112     10.736     12.549
REMARK INTER + INTRA:          -3.541
REMARK INTER:                  -4.029
REMARK INTRA:                   0.487
REMARK UNBOUND:                 0.845
REMARK SMILES CC1=CCC(=C(C)C)C(=O)CC(C)=CCC1
REMARK SMILES IDX 12 1 14 2 13 3 15 4 16 5 2 6 1 7 3 8 11 10 9 11 10 12 5 13
REMARK SMILES IDX 6 14 7 15 8 16 4 17
REMARK H PARENT
REMARK Flexibility Score: 60.00
ROOT
ATOM      1  C   UNL     1     -25.868  17.081 -30.821  1.00  0.00    -0.070 C 
ATOM      2  C   UNL     1     -27.026  17.367 -31.462  1.00  0.00    -0.027 C 
ATOM      3  C   UNL     1     -25.616  15.639 -30.452  1.00  0.00     0.039 C 
ENDROOT
BRANCH   2   4
ATOM      4  C   UNL     1     -27.433  18.712 -32.014  1.00  0.00     0.032 C 
BRANCH   4   5
ATOM      5  C   UNL     1     -27.004  18.906 -33.480  1.00  0.00     0.034 C 
BRANCH   5   6
ATOM      6  C   UNL     1     -26.497  20.309 -33.748  1.00  0.00    -0.077 C 
ATOM      7  C   UNL     1     -27.508  21.417 -33.908  1.00  0.00     0.039 C 
ATOM      8  C   UNL     1     -25.188  20.622 -33.879  1.00  0.00    -0.023 CG0
ATOM      9  G   UNL     1     -24.035  19.652 -33.789  1.00  0.00     0.000 G0
ENDBRANCH   5   6
ENDBRANCH   4   5
ENDBRANCH   2   4
BRANCH   1  10
ATOM     10  C   UNL     1     -24.795  18.112 -30.515  1.00  0.00     0.111 C 
BRANCH  10  11
ATOM     11  C   UNL     1     -23.803  18.234 -31.646  1.00  0.00     0.163 C 
ATOM     12  O   UNL     1     -23.143  17.210 -31.969  1.00  0.00    -0.294 OA
BRANCH  11  13
ATOM     13  C   UNL     1     -23.555  19.534 -32.343  1.00  0.00    -0.002 C 
ATOM     14  C   UNL     1     -22.872  20.554 -31.739  1.00  0.00    -0.069 C 
ATOM     15  C   UNL     1     -22.657  21.881 -32.436  1.00  0.00     0.039 C 
ATOM     16  C   UNL     1     -22.268  20.397 -30.362  1.00  0.00     0.039 C 
BRANCH  13  17
ATOM     17  C   UNL     1     -24.027  19.649 -33.781  1.00  0.00     0.066 CG0
ATOM     18  G   UNL     1     -25.168  20.634 -33.869  1.00  0.00     0.000 G0
ENDBRANCH  13  17
ENDBRANCH  11  13
ENDBRANCH  10  11
ENDBRANCH   1  10
TORSDOF 0
ENDMDL
