MODEL 1
REMARK VINA RESULT:    -4.949      0.000      0.000
REMARK INTER + INTRA:          -6.458
REMARK INTER:                  -6.396
REMARK INTRA:                  -0.062
REMARK UNBOUND:                -0.062
REMARK SMILES CO[C@@]1(CO)O[C@@H](CO)[C@H](O)[C@H]1O
REMARK SMILES IDX 3 1 12 2 10 3 7 4 6 5 2 6 1 7 4 8 5 9 13 11 11 13 8 15 9 16
REMARK H PARENT 5 10 13 12 11 14 9 17
REMARK Flexibility Score: inf
ROOT
ATOM      1  C   UNL     1    -142.840 101.966  33.819  1.00  0.00     0.221 C 
ATOM      2  C   UNL     1    -143.890 101.178  34.651  1.00  0.00     0.207 C 
ATOM      3  C   UNL     1    -143.423  99.731  34.600  1.00  0.00     0.180 C 
ATOM      4  C   UNL     1    -142.089  99.786  33.846  1.00  0.00     0.179 C 
ATOM      5  O   UNL     1    -141.703 101.135  33.677  1.00  0.00    -0.337 OA
ENDROOT
BRANCH   1   6
ATOM      6  O   UNL     1    -142.400 103.137  34.508  1.00  0.00    -0.349 OA
ATOM      7  C   UNL     1    -142.463 104.318  33.727  1.00  0.00     0.198 C 
ENDBRANCH   1   6
BRANCH   1   8
ATOM      8  C   UNL     1    -143.354 102.313  32.389  1.00  0.00     0.224 C 
BRANCH   8   9
ATOM      9  O   UNL     1    -144.743 102.495  32.376  1.00  0.00    -0.391 OA
ATOM     10  H   UNL     1    -145.083 102.103  33.222  1.00  0.00     0.210 HD
ENDBRANCH   8   9
ENDBRANCH   1   8
BRANCH   2  11
ATOM     11  O   UNL     1    -143.960 101.623  35.987  1.00  0.00    -0.385 OA
ATOM     12  H   UNL     1    -143.032 101.742  36.322  1.00  0.00     0.211 HD
ENDBRANCH   2  11
BRANCH   3  13
ATOM     13  O   UNL     1    -144.355  98.894  33.958  1.00  0.00    -0.387 OA
ATOM     14  H   UNL     1    -144.029  97.959  34.020  1.00  0.00     0.211 HD
ENDBRANCH   3  13
BRANCH   4  15
ATOM     15  C   UNL     1    -140.969  99.035  34.578  1.00  0.00     0.191 C 
BRANCH  15  16
ATOM     16  O   UNL     1    -139.750  99.182  33.900  1.00  0.00    -0.394 OA
ATOM     17  H   UNL     1    -139.613  98.357  33.365  1.00  0.00     0.210 HD
ENDBRANCH  15  16
ENDBRANCH   4  15
TORSDOF 7
ENDMDL
MODEL 2
REMARK VINA RESULT:    -4.927      1.283      4.088
REMARK INTER + INTRA:          -6.429
REMARK INTER:                  -6.158
REMARK INTRA:                  -0.271
REMARK UNBOUND:                -0.062
REMARK SMILES CO[C@@]1(CO)O[C@@H](CO)[C@H](O)[C@H]1O
REMARK SMILES IDX 3 1 12 2 10 3 7 4 6 5 2 6 1 7 4 8 5 9 13 11 11 13 8 15 9 16
REMARK H PARENT 5 10 13 12 11 14 9 17
REMARK Flexibility Score: inf
ROOT
ATOM      1  C   UNL     1    -142.540 100.468  33.730  1.00  0.00     0.221 C 
ATOM      2  C   UNL     1    -143.272 100.682  32.376  1.00  0.00     0.207 C 
ATOM      3  C   UNL     1    -143.712 102.139  32.398  1.00  0.00     0.180 C 
ATOM      4  C   UNL     1    -143.119 102.699  33.696  1.00  0.00     0.179 C 
ATOM      5  O   UNL     1    -142.239 101.747  34.256  1.00  0.00    -0.337 OA
ENDROOT
BRANCH   1   6
ATOM      6  O   UNL     1    -141.290  99.802  33.548  1.00  0.00    -0.349 OA
ATOM      7  C   UNL     1    -140.980  98.875  34.574  1.00  0.00     0.198 C 
ENDBRANCH   1   6
BRANCH   1   8
ATOM      8  C   UNL     1    -143.428  99.724  34.774  1.00  0.00     0.224 C 
BRANCH   8   9
ATOM      9  O   UNL     1    -144.358  98.886  34.147  1.00  0.00    -0.391 OA
ATOM     10  H   UNL     1    -144.080  97.956  34.354  1.00  0.00     0.210 HD
ENDBRANCH   8   9
ENDBRANCH   1   8
BRANCH   2  11
ATOM     11  O   UNL     1    -142.433 100.441  31.268  1.00  0.00    -0.385 OA
ATOM     12  H   UNL     1    -141.496 100.622  31.546  1.00  0.00     0.211 HD
ENDBRANCH   2  11
BRANCH   3  13
ATOM     13  O   UNL     1    -145.114 102.271  32.360  1.00  0.00    -0.387 OA
ATOM     14  H   UNL     1    -145.380 102.518  31.437  1.00  0.00     0.211 HD
ENDBRANCH   3  13
BRANCH   4  15
ATOM     15  C   UNL     1    -142.359 104.013  33.475  1.00  0.00     0.191 C 
BRANCH  15  16
ATOM     16  O   UNL     1    -143.064 104.850  32.596  1.00  0.00    -0.394 OA
ATOM     17  H   UNL     1    -142.484 105.634  32.414  1.00  0.00     0.210 HD
ENDBRANCH  15  16
ENDBRANCH   4  15
TORSDOF 7
ENDMDL
MODEL 3
REMARK VINA RESULT:    -4.613     14.353     15.785
REMARK INTER + INTRA:          -6.023
REMARK INTER:                  -5.917
REMARK INTRA:                  -0.106
REMARK UNBOUND:                -0.062
REMARK SMILES CO[C@@]1(CO)O[C@@H](CO)[C@H](O)[C@H]1O
REMARK SMILES IDX 3 1 12 2 10 3 7 4 6 5 2 6 1 7 4 8 5 9 13 11 11 13 8 15 9 16
REMARK H PARENT 5 10 13 12 11 14 9 17
REMARK Flexibility Score: inf
ROOT
ATOM      1  C   UNL     1    -129.722 106.505  39.467  1.00  0.00     0.221 C 
ATOM      2  C   UNL     1    -129.249 107.534  40.530  1.00  0.00     0.207 C 
ATOM      3  C   UNL     1    -129.849 108.859  40.085  1.00  0.00     0.180 C 
ATOM      4  C   UNL     1    -130.712 108.499  38.869  1.00  0.00     0.179 C 
ATOM      5  O   UNL     1    -130.794 107.093  38.755  1.00  0.00    -0.337 OA
ENDROOT
BRANCH   1   6
ATOM      6  O   UNL     1    -130.243 105.324  40.078  1.00  0.00    -0.349 OA
ATOM      7  C   UNL     1    -129.317 104.253  40.136  1.00  0.00     0.198 C 
ENDBRANCH   1   6
BRANCH   1   8
ATOM      8  C   UNL     1    -128.603 106.159  38.437  1.00  0.00     0.224 C 
BRANCH   8   9
ATOM      9  O   UNL     1    -129.143 105.652  37.247  1.00  0.00    -0.391 OA
ATOM     10  H   UNL     1    -129.690 106.382  36.857  1.00  0.00     0.210 HD
ENDBRANCH   8   9
ENDBRANCH   1   8
BRANCH   2  11
ATOM     11  O   UNL     1    -129.693 107.208  41.828  1.00  0.00    -0.385 OA
ATOM     12  H   UNL     1    -130.679 107.333  41.857  1.00  0.00     0.211 HD
ENDBRANCH   2  11
BRANCH   3  13
ATOM     13  O   UNL     1    -128.861 109.810  39.764  1.00  0.00    -0.387 OA
ATOM     14  H   UNL     1    -128.747 110.416  40.540  1.00  0.00     0.211 HD
ENDBRANCH   3  13
BRANCH   4  15
ATOM     15  C   UNL     1    -132.130 109.076  38.964  1.00  0.00     0.191 C 
BRANCH  15  16
ATOM     16  O   UNL     1    -132.165 110.154  39.861  1.00  0.00    -0.394 OA
ATOM     17  H   UNL     1    -133.119 110.320  40.080  1.00  0.00     0.210 HD
ENDBRANCH  15  16
ENDBRANCH   4  15
TORSDOF 7
ENDMDL
MODEL 4
REMARK VINA RESULT:    -4.570     15.175     16.936
REMARK INTER + INTRA:          -5.967
REMARK INTER:                  -5.640
REMARK INTRA:                  -0.327
REMARK UNBOUND:                -0.062
REMARK SMILES CO[C@@]1(CO)O[C@@H](CO)[C@H](O)[C@H]1O
REMARK SMILES IDX 3 1 12 2 10 3 7 4 6 5 2 6 1 7 4 8 5 9 13 11 11 13 8 15 9 16
REMARK H PARENT 5 10 13 12 11 14 9 17
REMARK Flexibility Score: inf
ROOT
ATOM      1  C   UNL     1    -129.981 108.575  39.680  1.00  0.00     0.221 C 
ATOM      2  C   UNL     1    -130.931 109.742  40.069  1.00  0.00     0.207 C 
ATOM      3  C   UNL     1    -130.090 111.000  39.906  1.00  0.00     0.180 C 
ATOM      4  C   UNL     1    -128.758 110.498  39.336  1.00  0.00     0.179 C 
ATOM      5  O   UNL     1    -128.884 109.136  38.985  1.00  0.00    -0.337 OA
ENDROOT
BRANCH   1   6
ATOM      6  O   UNL     1    -130.611 107.668  38.776  1.00  0.00    -0.349 OA
ATOM      7  C   UNL     1    -130.084 106.354  38.822  1.00  0.00     0.198 C 
ENDBRANCH   1   6
BRANCH   1   8
ATOM      8  C   UNL     1    -129.419 107.828  40.928  1.00  0.00     0.224 C 
BRANCH   8   9
ATOM      9  O   UNL     1    -129.716 108.515  42.112  1.00  0.00    -0.391 OA
ATOM     10  H   UNL     1    -130.154 107.858  42.713  1.00  0.00     0.210 HD
ENDBRANCH   8   9
ENDBRANCH   1   8
BRANCH   2  11
ATOM     11  O   UNL     1    -132.070 109.806  39.240  1.00  0.00    -0.385 OA
ATOM     12  H   UNL     1    -132.229 110.759  39.006  1.00  0.00     0.211 HD
ENDBRANCH   2  11
BRANCH   3  13
ATOM     13  O   UNL     1    -129.915 111.684  41.125  1.00  0.00    -0.387 OA
ATOM     14  H   UNL     1    -129.858 112.655  40.933  1.00  0.00     0.211 HD
ENDBRANCH   3  13
BRANCH   4  15
ATOM     15  C   UNL     1    -128.312 111.293  38.101  1.00  0.00     0.191 C 
BRANCH  15  16
ATOM     16  O   UNL     1    -128.690 112.639  38.217  1.00  0.00    -0.394 OA
ATOM     17  H   UNL     1    -127.906 113.185  37.948  1.00  0.00     0.210 HD
ENDBRANCH  15  16
ENDBRANCH   4  15
TORSDOF 7
ENDMDL
MODEL 5
REMARK VINA RESULT:    -4.344     15.061     16.557
REMARK INTER + INTRA:          -5.675
REMARK INTER:                  -5.487
REMARK INTRA:                  -0.188
REMARK UNBOUND:                -0.062
REMARK SMILES CO[C@@]1(CO)O[C@@H](CO)[C@H](O)[C@H]1O
REMARK SMILES IDX 3 1 12 2 10 3 7 4 6 5 2 6 1 7 4 8 5 9 13 11 11 13 8 15 9 16
REMARK H PARENT 5 10 13 12 11 14 9 17
REMARK Flexibility Score: inf
ROOT
ATOM      1  C   UNL     1    -129.823 108.615  39.636  1.00  0.00     0.221 C 
ATOM      2  C   UNL     1    -129.382 107.143  39.867  1.00  0.00     0.207 C 
ATOM      3  C   UNL     1    -129.205 107.021  41.374  1.00  0.00     0.180 C 
ATOM      4  C   UNL     1    -129.654 108.381  41.923  1.00  0.00     0.179 C 
ATOM      5  O   UNL     1    -130.247 109.131  40.883  1.00  0.00    -0.337 OA
ENDROOT
BRANCH   1   6
ATOM      6  O   UNL     1    -130.950 108.692  38.763  1.00  0.00    -0.349 OA
ATOM      7  C   UNL     1    -131.993 109.520  39.246  1.00  0.00     0.198 C 
ENDBRANCH   1   6
BRANCH   1   8
ATOM      8  C   UNL     1    -128.653 109.511  39.126  1.00  0.00     0.224 C 
BRANCH   8   9
ATOM      9  O   UNL     1    -128.832 110.849  39.502  1.00  0.00    -0.391 OA
ATOM     10  H   UNL     1    -129.547 111.209  38.917  1.00  0.00     0.210 HD
ENDBRANCH   8   9
ENDBRANCH   1   8
BRANCH   2  11
ATOM     11  O   UNL     1    -130.343 106.217  39.412  1.00  0.00    -0.385 OA
ATOM     12  H   UNL     1    -130.284 105.405  39.983  1.00  0.00     0.211 HD
ENDBRANCH   2  11
BRANCH   3  13
ATOM     13  O   UNL     1    -127.875 106.725  41.730  1.00  0.00    -0.387 OA
ATOM     14  H   UNL     1    -127.390 106.434  40.915  1.00  0.00     0.211 HD
ENDBRANCH   3  13
BRANCH   4  15
ATOM     15  C   UNL     1    -130.659 108.245  43.075  1.00  0.00     0.191 C 
BRANCH  15  16
ATOM     16  O   UNL     1    -130.372 109.169  44.092  1.00  0.00    -0.394 OA
ATOM     17  H   UNL     1    -129.703 108.744  44.690  1.00  0.00     0.210 HD
ENDBRANCH  15  16
ENDBRANCH   4  15
TORSDOF 7
ENDMDL
MODEL 6
REMARK VINA RESULT:    -4.224     15.300     16.884
REMARK INTER + INTRA:          -5.520
REMARK INTER:                  -5.311
REMARK INTRA:                  -0.209
REMARK UNBOUND:                -0.062
REMARK SMILES CO[C@@]1(CO)O[C@@H](CO)[C@H](O)[C@H]1O
REMARK SMILES IDX 3 1 12 2 10 3 7 4 6 5 2 6 1 7 4 8 5 9 13 11 11 13 8 15 9 16
REMARK H PARENT 5 10 13 12 11 14 9 17
REMARK Flexibility Score: inf
ROOT
ATOM      1  C   UNL     1    -130.122 108.837  39.500  1.00  0.00     0.221 C 
ATOM      2  C   UNL     1    -129.454 110.240  39.514  1.00  0.00     0.207 C 
ATOM      3  C   UNL     1    -129.360 110.612  40.986  1.00  0.00     0.180 C 
ATOM      4  C   UNL     1    -129.871 109.372  41.728  1.00  0.00     0.179 C 
ATOM      5  O   UNL     1    -130.028 108.310  40.809  1.00  0.00    -0.337 OA
ENDROOT
BRANCH   1   6
ATOM      6  O   UNL     1    -129.418 107.932  38.649  1.00  0.00    -0.349 OA
ATOM      7  C   UNL     1    -129.758 106.571  38.854  1.00  0.00     0.198 C 
ENDBRANCH   1   6
BRANCH   1   8
ATOM      8  C   UNL     1    -131.634 108.903  39.124  1.00  0.00     0.224 C 
BRANCH   8   9
ATOM      9  O   UNL     1    -132.203 110.123  39.511  1.00  0.00    -0.391 OA
ATOM     10  H   UNL     1    -131.446 110.740  39.686  1.00  0.00     0.210 HD
ENDBRANCH   8   9
ENDBRANCH   1   8
BRANCH   2  11
ATOM     11  O   UNL     1    -128.171 110.229  38.929  1.00  0.00    -0.385 OA
ATOM     12  H   UNL     1    -127.500 110.155  39.659  1.00  0.00     0.211 HD
ENDBRANCH   2  11
BRANCH   3  13
ATOM     13  O   UNL     1    -130.119 111.758  41.294  1.00  0.00    -0.387 OA
ATOM     14  H   UNL     1    -130.086 112.373  40.516  1.00  0.00     0.211 HD
ENDBRANCH   3  13
BRANCH   4  15
ATOM     15  C   UNL     1    -128.923 108.926  42.849  1.00  0.00     0.191 C 
BRANCH  15  16
ATOM     16  O   UNL     1    -127.875 108.151  42.330  1.00  0.00    -0.394 OA
ATOM     17  H   UNL     1    -128.270 107.547  41.649  1.00  0.00     0.210 HD
ENDBRANCH  15  16
ENDBRANCH   4  15
TORSDOF 7
ENDMDL
MODEL 7
REMARK VINA RESULT:    -4.130     14.746     15.960
REMARK INTER + INTRA:          -5.399
REMARK INTER:                  -5.328
REMARK INTRA:                  -0.071
REMARK UNBOUND:                -0.062
REMARK SMILES CO[C@@]1(CO)O[C@@H](CO)[C@H](O)[C@H]1O
REMARK SMILES IDX 3 1 12 2 10 3 7 4 6 5 2 6 1 7 4 8 5 9 13 11 11 13 8 15 9 16
REMARK H PARENT 5 10 13 12 11 14 9 17
REMARK Flexibility Score: inf
ROOT
ATOM      1  C   UNL     1    -129.785 108.971  39.609  1.00  0.00     0.221 C 
ATOM      2  C   UNL     1    -129.247 108.491  40.986  1.00  0.00     0.207 C 
ATOM      3  C   UNL     1    -129.305 106.972  40.920  1.00  0.00     0.180 C 
ATOM      4  C   UNL     1    -129.762 106.669  39.487  1.00  0.00     0.179 C 
ATOM      5  O   UNL     1    -129.749 107.862  38.731  1.00  0.00    -0.337 OA
ENDROOT
BRANCH   1   6
ATOM      6  O   UNL     1    -128.938 109.967  39.037  1.00  0.00    -0.349 OA
ATOM      7  C   UNL     1    -129.416 111.291  39.204  1.00  0.00     0.198 C 
ENDBRANCH   1   6
BRANCH   1   8
ATOM      8  C   UNL     1    -131.262 109.465  39.689  1.00  0.00     0.224 C 
BRANCH   8   9
ATOM      9  O   UNL     1    -132.042 108.910  38.667  1.00  0.00    -0.391 OA
ATOM     10  H   UNL     1    -132.197 107.963  38.918  1.00  0.00     0.210 HD
ENDBRANCH   8   9
ENDBRANCH   1   8
BRANCH   2  11
ATOM     11  O   UNL     1    -127.925 108.920  41.225  1.00  0.00    -0.385 OA
ATOM     12  H   UNL     1    -127.554 108.375  41.970  1.00  0.00     0.211 HD
ENDBRANCH   2  11
BRANCH   3  13
ATOM     13  O   UNL     1    -130.184 106.431  41.877  1.00  0.00    -0.387 OA
ATOM     14  H   UNL     1    -129.724 105.681  42.335  1.00  0.00     0.211 HD
ENDBRANCH   3  13
BRANCH   4  15
ATOM     15  C   UNL     1    -128.871 105.630  38.794  1.00  0.00     0.191 C 
BRANCH  15  16
ATOM     16  O   UNL     1    -129.383 105.307  37.528  1.00  0.00    -0.394 OA
ATOM     17  H   UNL     1    -129.826 106.122  37.177  1.00  0.00     0.210 HD
ENDBRANCH  15  16
ENDBRANCH   4  15
TORSDOF 7
ENDMDL
MODEL 8
REMARK VINA RESULT:    -4.099     15.649     17.364
REMARK INTER + INTRA:          -5.358
REMARK INTER:                  -5.131
REMARK INTRA:                  -0.227
REMARK UNBOUND:                -0.062
REMARK SMILES CO[C@@]1(CO)O[C@@H](CO)[C@H](O)[C@H]1O
REMARK SMILES IDX 3 1 12 2 10 3 7 4 6 5 2 6 1 7 4 8 5 9 13 11 11 13 8 15 9 16
REMARK H PARENT 5 10 13 12 11 14 9 17
REMARK Flexibility Score: inf
ROOT
ATOM      1  C   UNL     1    -129.332 109.039  42.070  1.00  0.00     0.221 C 
ATOM      2  C   UNL     1    -129.052 110.453  41.489  1.00  0.00     0.207 C 
ATOM      3  C   UNL     1    -129.545 110.388  40.051  1.00  0.00     0.180 C 
ATOM      4  C   UNL     1    -130.171 108.994  39.924  1.00  0.00     0.179 C 
ATOM      5  O   UNL     1    -130.247 108.398  41.202  1.00  0.00    -0.337 OA
ENDROOT
BRANCH   1   6
ATOM      6  O   UNL     1    -129.970 109.116  43.345  1.00  0.00    -0.349 OA
ATOM      7  C   UNL     1    -130.953 108.116  43.554  1.00  0.00     0.198 C 
ENDBRANCH   1   6
BRANCH   1   8
ATOM      8  C   UNL     1    -128.046 108.160  42.135  1.00  0.00     0.224 C 
BRANCH   8   9
ATOM      9  O   UNL     1    -128.316 106.833  41.778  1.00  0.00    -0.391 OA
ATOM     10  H   UNL     1    -127.919 106.267  42.491  1.00  0.00     0.210 HD
ENDBRANCH   8   9
ENDBRANCH   1   8
BRANCH   2  11
ATOM     11  O   UNL     1    -129.733 111.468  42.194  1.00  0.00    -0.385 OA
ATOM     12  H   UNL     1    -129.176 111.728  42.975  1.00  0.00     0.211 HD
ENDBRANCH   2  11
BRANCH   3  13
ATOM     13  O   UNL     1    -128.504 110.583  39.123  1.00  0.00    -0.387 OA
ATOM     14  H   UNL     1    -128.374 111.558  38.999  1.00  0.00     0.211 HD
ENDBRANCH   3  13
BRANCH   4  15
ATOM     15  C   UNL     1    -131.577 109.037  39.309  1.00  0.00     0.191 C 
BRANCH  15  16
ATOM     16  O   UNL     1    -132.298 110.135  39.801  1.00  0.00    -0.394 OA
ATOM     17  H   UNL     1    -131.702 110.925  39.740  1.00  0.00     0.210 HD
ENDBRANCH  15  16
ENDBRANCH   4  15
TORSDOF 7
ENDMDL
MODEL 9
REMARK VINA RESULT:    -4.059     15.102     16.788
REMARK INTER + INTRA:          -5.307
REMARK INTER:                  -5.473
REMARK INTRA:                   0.166
REMARK UNBOUND:                -0.062
REMARK SMILES CO[C@@]1(CO)O[C@@H](CO)[C@H](O)[C@H]1O
REMARK SMILES IDX 3 1 12 2 10 3 7 4 6 5 2 6 1 7 4 8 5 9 13 11 11 13 8 15 9 16
REMARK H PARENT 5 10 13 12 11 14 9 17
REMARK Flexibility Score: inf
ROOT
ATOM      1  C   UNL     1    -129.651 108.321  40.749  1.00  0.00     0.221 C 
ATOM      2  C   UNL     1    -130.827 108.218  39.738  1.00  0.00     0.207 C 
ATOM      3  C   UNL     1    -131.054 109.644  39.258  1.00  0.00     0.180 C 
ATOM      4  C   UNL     1    -129.938 110.455  39.927  1.00  0.00     0.179 C 
ATOM      5  O   UNL     1    -129.023 109.571  40.542  1.00  0.00    -0.337 OA
ENDROOT
BRANCH   1   6
ATOM      6  O   UNL     1    -128.659 107.325  40.497  1.00  0.00    -0.349 OA
ATOM      7  C   UNL     1    -128.996 106.042  40.999  1.00  0.00     0.198 C 
ENDBRANCH   1   6
BRANCH   1   8
ATOM      8  C   UNL     1    -130.136 108.272  42.230  1.00  0.00     0.224 C 
BRANCH   8   9
ATOM      9  O   UNL     1    -129.725 109.408  42.939  1.00  0.00    -0.391 OA
ATOM     10  H   UNL     1    -129.069 109.876  42.359  1.00  0.00     0.210 HD
ENDBRANCH   8   9
ENDBRANCH   1   8
BRANCH   2  11
ATOM     11  O   UNL     1    -130.527 107.377  38.647  1.00  0.00    -0.385 OA
ATOM     12  H   UNL     1    -131.327 106.817  38.459  1.00  0.00     0.211 HD
ENDBRANCH   2  11
BRANCH   3  13
ATOM     13  O   UNL     1    -132.332 110.125  39.603  1.00  0.00    -0.387 OA
ATOM     14  H   UNL     1    -133.010 109.506  39.229  1.00  0.00     0.211 HD
ENDBRANCH   3  13
BRANCH   4  15
ATOM     15  C   UNL     1    -129.180 111.344  38.932  1.00  0.00     0.191 C 
BRANCH  15  16
ATOM     16  O   UNL     1    -127.875 110.866  38.737  1.00  0.00    -0.394 OA
ATOM     17  H   UNL     1    -127.792 110.027  39.261  1.00  0.00     0.210 HD
ENDBRANCH  15  16
ENDBRANCH   4  15
TORSDOF 7
ENDMDL
