MODEL 1
REMARK VINA RESULT:     2.656      0.000      0.000
REMARK INTER + INTRA:           3.912
REMARK INTER:                   3.278
REMARK INTRA:                   0.634
REMARK UNBOUND:                 0.634
REMARK SMILES C=C1[C@@H]2CC[C@H]3[C@@H]2C(C)(C)CCC[C@@]13C
REMARK SMILES IDX 14 1 6 2 7 3 3 4 2 5 1 6 4 7 5 8 15 9 8 10 9 11 10 12 11 13
REMARK SMILES IDX 13 15 12 16
REMARK H PARENT
REMARK Flexibility Score: 80.00
ROOT
ATOM      1  C   UNL     1     136.445 152.011 162.652  1.00  0.00    -0.008 C 
ATOM      2  C   UNL     1     136.036 153.285 161.814  1.00  0.00     0.003 C 
ATOM      3  C   UNL     1     137.188 154.287 162.040  1.00  0.00     0.006 C 
ATOM      4  C   UNL     1     137.119 154.174 163.563  1.00  0.00     0.019 C 
ATOM      5  C   UNL     1     137.195 152.688 163.773  1.00  0.00    -0.068 C 
ATOM      6  C   UNL     1     137.756 152.087 164.829  1.00  0.00     0.009 C 
ATOM      7  C   UNL     1     135.649 154.582 163.822  1.00  0.00     0.008 C 
ATOM      8  C   UNL     1     134.915 154.060 162.561  1.00  0.00     0.005 C 
ATOM      9  C   UNL     1     135.230 151.218 163.207  1.00  0.00     0.016 C 
ENDROOT
BRANCH   3  10
ATOM     10  C   UNL     1     138.576 154.079 161.293  1.00  0.00    -0.032 C 
ATOM     11  C   UNL     1     139.775 154.370 162.231  1.00  0.00     0.011 C 
ATOM     12  C   UNL     1     138.661 155.125 160.147  1.00  0.00     0.011 C 
BRANCH  10  13
ATOM     13  C   UNL     1     138.747 152.697 160.600  1.00  0.00     0.007 CG0
ATOM     14  G   UNL     1     138.736 151.483 161.525  1.00  0.00     0.000 G0
ENDBRANCH  10  13
ENDBRANCH   3  10
BRANCH   1  15
ATOM     15  C   UNL     1     137.318 151.014 161.845  1.00  0.00     0.011 C 
BRANCH  15  16
ATOM     16  C   UNL     1     138.732 151.481 161.515  1.00  0.00     0.001 CG0
ATOM     17  G   UNL     1     138.745 152.698 160.593  1.00  0.00     0.000 G0
ENDBRANCH  15  16
ENDBRANCH   1  15
TORSDOF 0
ENDMDL
MODEL 2
REMARK VINA RESULT:     3.213     20.940     22.309
REMARK INTER + INTRA:           4.599
REMARK INTER:                   3.329
REMARK INTRA:                   1.270
REMARK UNBOUND:                 0.634
REMARK SMILES C=C1[C@@H]2CC[C@H]3[C@@H]2C(C)(C)CCC[C@@]13C
REMARK SMILES IDX 14 1 6 2 7 3 3 4 2 5 1 6 4 7 5 8 15 9 8 10 9 11 10 12 11 13
REMARK SMILES IDX 13 15 12 16
REMARK H PARENT
REMARK Flexibility Score: 80.00
ROOT
ATOM      1  C   UNL     1     152.285 137.595 160.790  1.00  0.00    -0.008 C 
ATOM      2  C   UNL     1     151.654 137.257 162.197  1.00  0.00     0.003 C 
ATOM      3  C   UNL     1     152.822 136.675 163.020  1.00  0.00     0.006 C 
ATOM      4  C   UNL     1     153.192 135.647 161.950  1.00  0.00     0.019 C 
ATOM      5  C   UNL     1     153.325 136.504 160.723  1.00  0.00    -0.068 C 
ATOM      6  C   UNL     1     154.165 136.269 159.707  1.00  0.00     0.009 C 
ATOM      7  C   UNL     1     151.857 134.877 161.808  1.00  0.00     0.008 C 
ATOM      8  C   UNL     1     150.793 135.968 162.084  1.00  0.00     0.005 C 
ATOM      9  C   UNL     1     151.280 137.468 159.613  1.00  0.00     0.016 C 
ENDROOT
BRANCH   3  10
ATOM     10  C   UNL     1     153.937 137.643 163.606  1.00  0.00    -0.032 C 
ATOM     11  C   UNL     1     155.124 136.846 164.206  1.00  0.00     0.011 C 
ATOM     12  C   UNL     1     153.308 138.433 164.788  1.00  0.00     0.011 C 
BRANCH  10  13
ATOM     13  C   UNL     1     154.452 138.727 162.617  1.00  0.00     0.007 CG0
ATOM     14  G   UNL     1     153.385 139.642 162.021  1.00  0.00     0.000 G0
ENDBRANCH  10  13
ENDBRANCH   3  10
BRANCH   1  15
ATOM     15  C   UNL     1     152.891 139.022 160.729  1.00  0.00     0.011 C 
BRANCH  15  16
ATOM     16  C   UNL     1     153.406 139.586 162.050  1.00  0.00     0.001 CG0
ATOM     17  G   UNL     1     154.497 138.716 162.670  1.00  0.00     0.000 G0
ENDBRANCH  15  16
ENDBRANCH   1  15
TORSDOF 0
ENDMDL
MODEL 3
REMARK VINA RESULT:     4.040     20.821     22.509
REMARK INTER + INTRA:           5.619
REMARK INTER:                   4.342
REMARK INTRA:                   1.277
REMARK UNBOUND:                 0.634
REMARK SMILES C=C1[C@@H]2CC[C@H]3[C@@H]2C(C)(C)CCC[C@@]13C
REMARK SMILES IDX 14 1 6 2 7 3 3 4 2 5 1 6 4 7 5 8 15 9 8 10 9 11 10 12 11 13
REMARK SMILES IDX 13 15 12 16
REMARK H PARENT
REMARK Flexibility Score: 80.00
ROOT
ATOM      1  C   UNL     1     153.771 137.855 162.357  1.00  0.00    -0.008 C 
ATOM      2  C   UNL     1     154.038 136.496 161.598  1.00  0.00     0.003 C 
ATOM      3  C   UNL     1     152.820 135.612 161.939  1.00  0.00     0.006 C 
ATOM      4  C   UNL     1     152.965 135.823 163.446  1.00  0.00     0.019 C 
ATOM      5  C   UNL     1     153.019 137.321 163.551  1.00  0.00    -0.068 C 
ATOM      6  C   UNL     1     152.556 138.038 164.583  1.00  0.00     0.009 C 
ATOM      7  C   UNL     1     154.407 135.313 163.677  1.00  0.00     0.008 C 
ATOM      8  C   UNL     1     155.125 135.683 162.355  1.00  0.00     0.005 C 
ATOM      9  C   UNL     1     155.069 138.580 162.806  1.00  0.00     0.016 C 
ENDROOT
BRANCH   3  10
ATOM     10  C   UNL     1     151.422 135.884 161.234  1.00  0.00    -0.032 C 
ATOM     11  C   UNL     1     150.289 135.040 161.872  1.00  0.00     0.011 C 
ATOM     12  C   UNL     1     151.534 135.409 159.758  1.00  0.00     0.011 C 
BRANCH  10  13
ATOM     13  C   UNL     1     151.008 137.381 161.151  1.00  0.00     0.007 CG0
ATOM     14  G   UNL     1     152.010 138.311 160.472  1.00  0.00     0.000 G0
ENDBRANCH  10  13
ENDBRANCH   3  10
BRANCH   1  15
ATOM     15  C   UNL     1     152.946 138.863 161.514  1.00  0.00     0.011 C 
BRANCH  15  16
ATOM     16  C   UNL     1     151.993 138.254 160.490  1.00  0.00     0.001 CG0
ATOM     17  G   UNL     1     150.948 137.345 161.132  1.00  0.00     0.000 G0
ENDBRANCH  15  16
ENDBRANCH   1  15
TORSDOF 0
ENDMDL
MODEL 4
REMARK VINA RESULT:     5.126     15.087     17.078
REMARK INTER + INTRA:           6.959
REMARK INTER:                   6.315
REMARK INTRA:                   0.644
REMARK UNBOUND:                 0.634
REMARK SMILES C=C1[C@@H]2CC[C@H]3[C@@H]2C(C)(C)CCC[C@@]13C
REMARK SMILES IDX 14 1 6 2 7 3 3 4 2 5 1 6 4 7 5 8 15 9 8 10 9 11 10 12 11 13
REMARK SMILES IDX 13 15 12 16
REMARK H PARENT
REMARK Flexibility Score: 80.00
ROOT
ATOM      1  C   UNL     1     136.342 136.041 163.260  1.00  0.00    -0.008 C 
ATOM      2  C   UNL     1     136.729 134.984 162.152  1.00  0.00     0.003 C 
ATOM      3  C   UNL     1     137.765 135.707 161.266  1.00  0.00     0.006 C 
ATOM      4  C   UNL     1     136.872 136.927 161.047  1.00  0.00     0.019 C 
ATOM      5  C   UNL     1     136.503 137.306 162.454  1.00  0.00    -0.068 C 
ATOM      6  C   UNL     1     136.269 138.553 162.879  1.00  0.00     0.009 C 
ATOM      7  C   UNL     1     135.618 136.266 160.425  1.00  0.00     0.008 C 
ATOM      8  C   UNL     1     135.579 134.878 161.111  1.00  0.00     0.005 C 
ATOM      9  C   UNL     1     134.883 135.898 163.770  1.00  0.00     0.016 C 
ENDROOT
BRANCH   3  10
ATOM     10  C   UNL     1     139.254 135.900 161.788  1.00  0.00    -0.032 C 
ATOM     11  C   UNL     1     139.791 137.318 161.463  1.00  0.00     0.011 C 
ATOM     12  C   UNL     1     140.163 134.907 161.011  1.00  0.00     0.011 C 
BRANCH  10  13
ATOM     13  C   UNL     1     139.472 135.565 163.291  1.00  0.00     0.007 CG0
ATOM     14  G   UNL     1     138.712 136.439 164.285  1.00  0.00     0.000 G0
ENDBRANCH  10  13
ENDBRANCH   3  10
BRANCH   1  15
ATOM     15  C   UNL     1     137.274 135.981 164.499  1.00  0.00     0.011 C 
BRANCH  15  16
ATOM     16  C   UNL     1     138.709 136.451 164.279  1.00  0.00     0.001 CG0
ATOM     17  G   UNL     1     139.459 135.583 163.271  1.00  0.00     0.000 G0
ENDBRANCH  15  16
ENDBRANCH   1  15
TORSDOF 0
ENDMDL
MODEL 5
REMARK VINA RESULT:     5.151     14.544     16.651
REMARK INTER + INTRA:           6.990
REMARK INTER:                   6.374
REMARK INTRA:                   0.616
REMARK UNBOUND:                 0.634
REMARK SMILES C=C1[C@@H]2CC[C@H]3[C@@H]2C(C)(C)CCC[C@@]13C
REMARK SMILES IDX 14 1 6 2 7 3 3 4 2 5 1 6 4 7 5 8 15 9 8 10 9 11 10 12 11 13
REMARK SMILES IDX 13 15 12 16
REMARK H PARENT
REMARK Flexibility Score: 80.00
ROOT
ATOM      1  C   UNL     1     136.183 137.592 162.457  1.00  0.00    -0.008 C 
ATOM      2  C   UNL     1     136.668 136.386 163.354  1.00  0.00     0.003 C 
ATOM      3  C   UNL     1     137.382 135.432 162.373  1.00  0.00     0.006 C 
ATOM      4  C   UNL     1     136.203 135.389 161.402  1.00  0.00     0.019 C 
ATOM      5  C   UNL     1     135.935 136.849 161.167  1.00  0.00    -0.068 C 
ATOM      6  C   UNL     1     135.465 137.372 160.027  1.00  0.00     0.009 C 
ATOM      7  C   UNL     1     135.076 134.877 162.329  1.00  0.00     0.008 C 
ATOM      8  C   UNL     1     135.455 135.480 163.705  1.00  0.00     0.005 C 
ATOM      9  C   UNL     1     134.875 138.257 162.966  1.00  0.00     0.016 C 
ENDROOT
BRANCH   3  10
ATOM     10  C   UNL     1     138.835 135.790 161.838  1.00  0.00    -0.032 C 
ATOM     11  C   UNL     1     138.989 135.444 160.335  1.00  0.00     0.011 C 
ATOM     12  C   UNL     1     139.855 134.892 162.594  1.00  0.00     0.011 C 
BRANCH  10  13
ATOM     13  C   UNL     1     139.295 137.250 162.113  1.00  0.00     0.007 CG0
ATOM     14  G   UNL     1     138.463 138.345 161.450  1.00  0.00     0.000 G0
ENDBRANCH  10  13
ENDBRANCH   3  10
BRANCH   1  15
ATOM     15  C   UNL     1     137.250 138.710 162.324  1.00  0.00     0.011 C 
BRANCH  15  16
ATOM     16  C   UNL     1     138.479 138.364 161.489  1.00  0.00     0.001 CG0
ATOM     17  G   UNL     1     139.310 137.244 162.110  1.00  0.00     0.000 G0
ENDBRANCH  15  16
ENDBRANCH   1  15
TORSDOF 0
ENDMDL
