MODEL 1
REMARK VINA RESULT:    -2.449      0.000      0.000
REMARK INTER + INTRA:          -3.556
REMARK INTER:                  -3.236
REMARK INTRA:                  -0.320
REMARK UNBOUND:                -0.320
REMARK SMILES CCCCCCCO
REMARK SMILES IDX 5 1 4 2 3 3 2 4 1 5 6 6 7 7 8 8
REMARK H PARENT 8 9
REMARK Flexibility Score: inf
ROOT
ATOM      1  C   UNL     1     122.742 120.352 118.002  1.00  0.00     0.002 C 
ENDROOT
BRANCH   1   2
ATOM      2  C   UNL     1     124.231 120.258 117.615  1.00  0.00     0.000 C 
BRANCH   2   3
ATOM      3  C   UNL     1     124.863 121.577 117.132  1.00  0.00    -0.000 C 
BRANCH   3   4
ATOM      4  C   UNL     1     125.315 121.576 115.661  1.00  0.00    -0.003 C 
ATOM      5  C   UNL     1     124.766 120.389 114.869  1.00  0.00     0.004 C 
ENDBRANCH   3   4
ENDBRANCH   2   3
ENDBRANCH   1   2
BRANCH   1   6
ATOM      6  C   UNL     1     122.004 121.539 117.343  1.00  0.00     0.028 C 
BRANCH   6   7
ATOM      7  C   UNL     1     120.853 121.100 116.429  1.00  0.00     0.156 C 
BRANCH   7   8
ATOM      8  O   UNL     1     121.342 120.493 115.263  1.00  0.00    -0.396 OA
ATOM      9  H   UNL     1     120.576 120.023 114.843  1.00  0.00     0.210 HD
ENDBRANCH   7   8
ENDBRANCH   6   7
ENDBRANCH   1   6
TORSDOF 6
ENDMDL
MODEL 2
REMARK VINA RESULT:    -2.435     14.282     16.370
REMARK INTER + INTRA:          -3.537
REMARK INTER:                  -3.223
REMARK INTRA:                  -0.315
REMARK UNBOUND:                -0.320
REMARK SMILES CCCCCCCO
REMARK SMILES IDX 5 1 4 2 3 3 2 4 1 5 6 6 7 7 8 8
REMARK H PARENT 8 9
REMARK Flexibility Score: inf
ROOT
ATOM      1  C   UNL     1     110.166 112.726 117.992  1.00  0.00     0.002 C 
ENDROOT
BRANCH   1   2
ATOM      2  C   UNL     1     108.837 113.005 117.264  1.00  0.00     0.000 C 
BRANCH   2   3
ATOM      3  C   UNL     1     108.029 111.751 116.881  1.00  0.00    -0.000 C 
BRANCH   3   4
ATOM      4  C   UNL     1     107.744 111.601 115.375  1.00  0.00    -0.003 C 
ATOM      5  C   UNL     1     108.281 112.769 114.548  1.00  0.00     0.004 C 
ENDBRANCH   3   4
ENDBRANCH   2   3
ENDBRANCH   1   2
BRANCH   1   6
ATOM      6  C   UNL     1     111.103 111.765 117.227  1.00  0.00     0.028 C 
BRANCH   6   7
ATOM      7  C   UNL     1     112.136 112.495 116.359  1.00  0.00     0.156 C 
BRANCH   7   8
ATOM      8  O   UNL     1     111.674 112.640 115.043  1.00  0.00    -0.396 OA
ATOM      9  H   UNL     1     112.436 112.417 114.447  1.00  0.00     0.210 HD
ENDBRANCH   7   8
ENDBRANCH   6   7
ENDBRANCH   1   6
TORSDOF 6
ENDMDL
MODEL 3
REMARK VINA RESULT:    -2.391     10.582     12.305
REMARK INTER + INTRA:          -3.480
REMARK INTER:                  -3.133
REMARK INTRA:                  -0.347
REMARK UNBOUND:                -0.320
REMARK SMILES CCCCCCCO
REMARK SMILES IDX 5 1 4 2 3 3 2 4 1 5 6 6 7 7 8 8
REMARK H PARENT 8 9
REMARK Flexibility Score: inf
ROOT
ATOM      1  C   UNL     1     110.469 124.720 116.351  1.00  0.00     0.002 C 
ENDROOT
BRANCH   1   2
ATOM      2  C   UNL     1     110.515 124.814 117.888  1.00  0.00     0.000 C 
BRANCH   2   3
ATOM      3  C   UNL     1     111.675 125.655 118.453  1.00  0.00    -0.000 C 
BRANCH   3   4
ATOM      4  C   UNL     1     112.693 124.867 119.298  1.00  0.00    -0.003 C 
ATOM      5  C   UNL     1     113.467 123.830 118.485  1.00  0.00     0.004 C 
ENDBRANCH   3   4
ENDBRANCH   2   3
ENDBRANCH   1   2
BRANCH   1   6
ATOM      6  C   UNL     1     111.403 125.722 115.638  1.00  0.00     0.028 C 
BRANCH   6   7
ATOM      7  C   UNL     1     112.445 125.041 114.741  1.00  0.00     0.156 C 
BRANCH   7   8
ATOM      8  O   UNL     1     113.731 125.161 115.286  1.00  0.00    -0.396 OA
ATOM      9  H   UNL     1     114.008 124.250 115.567  1.00  0.00     0.210 HD
ENDBRANCH   7   8
ENDBRANCH   6   7
ENDBRANCH   1   6
TORSDOF 6
ENDMDL
MODEL 4
REMARK VINA RESULT:    -2.351     12.533     13.418
REMARK INTER + INTRA:          -3.426
REMARK INTER:                  -3.276
REMARK INTRA:                  -0.150
REMARK UNBOUND:                -0.320
REMARK SMILES CCCCCCCO
REMARK SMILES IDX 5 1 4 2 3 3 2 4 1 5 6 6 7 7 8 8
REMARK H PARENT 8 9
REMARK Flexibility Score: inf
ROOT
ATOM      1  C   UNL     1     124.049 107.093 115.810  1.00  0.00     0.002 C 
ENDROOT
BRANCH   1   2
ATOM      2  C   UNL     1     122.510 107.026 115.762  1.00  0.00     0.000 C 
BRANCH   2   3
ATOM      3  C   UNL     1     121.787 107.957 116.753  1.00  0.00    -0.000 C 
BRANCH   3   4
ATOM      4  C   UNL     1     120.569 108.698 116.172  1.00  0.00    -0.003 C 
ATOM      5  C   UNL     1     120.246 108.280 114.737  1.00  0.00     0.004 C 
ENDBRANCH   3   4
ENDBRANCH   2   3
ENDBRANCH   1   2
BRANCH   1   6
ATOM      6  C   UNL     1     124.689 107.623 114.508  1.00  0.00     0.028 C 
BRANCH   6   7
ATOM      7  C   UNL     1     125.876 108.562 114.758  1.00  0.00     0.156 C 
BRANCH   7   8
ATOM      8  O   UNL     1     125.573 109.871 114.357  1.00  0.00    -0.396 OA
ATOM      9  H   UNL     1     125.300 110.364 115.175  1.00  0.00     0.210 HD
ENDBRANCH   7   8
ENDBRANCH   6   7
ENDBRANCH   1   6
TORSDOF 6
ENDMDL
MODEL 5
REMARK VINA RESULT:    -2.324      2.494      4.178
REMARK INTER + INTRA:          -3.391
REMARK INTER:                  -3.155
REMARK INTRA:                  -0.235
REMARK UNBOUND:                -0.320
REMARK SMILES CCCCCCCO
REMARK SMILES IDX 5 1 4 2 3 3 2 4 1 5 6 6 7 7 8 8
REMARK H PARENT 8 9
REMARK Flexibility Score: inf
ROOT
ATOM      1  C   UNL     1     125.169 121.341 115.561  1.00  0.00     0.002 C 
ENDROOT
BRANCH   1   2
ATOM      2  C   UNL     1     123.940 120.852 116.351  1.00  0.00     0.000 C 
BRANCH   2   3
ATOM      3  C   UNL     1     124.263 120.079 117.644  1.00  0.00    -0.000 C 
BRANCH   3   4
ATOM      4  C   UNL     1     123.930 120.829 118.946  1.00  0.00    -0.003 C 
ATOM      5  C   UNL     1     125.153 121.058 119.833  1.00  0.00     0.004 C 
ENDBRANCH   3   4
ENDBRANCH   2   3
ENDBRANCH   1   2
BRANCH   1   6
ATOM      6  C   UNL     1     125.937 122.488 116.254  1.00  0.00     0.028 C 
BRANCH   6   7
ATOM      7  C   UNL     1     126.269 123.649 115.308  1.00  0.00     0.156 C 
BRANCH   7   8
ATOM      8  O   UNL     1     125.634 123.484 114.069  1.00  0.00    -0.396 OA
ATOM      9  H   UNL     1     126.145 122.790 113.576  1.00  0.00     0.210 HD
ENDBRANCH   7   8
ENDBRANCH   6   7
ENDBRANCH   1   6
TORSDOF 6
ENDMDL
MODEL 6
REMARK VINA RESULT:    -2.317     10.924     11.571
REMARK INTER + INTRA:          -3.382
REMARK INTER:                  -3.145
REMARK INTRA:                  -0.236
REMARK UNBOUND:                -0.320
REMARK SMILES CCCCCCCO
REMARK SMILES IDX 5 1 4 2 3 3 2 4 1 5 6 6 7 7 8 8
REMARK H PARENT 8 9
REMARK Flexibility Score: inf
ROOT
ATOM      1  C   UNL     1     111.708 122.914 117.529  1.00  0.00     0.002 C 
ENDROOT
BRANCH   1   2
ATOM      2  C   UNL     1     112.549 124.199 117.407  1.00  0.00     0.000 C 
BRANCH   2   3
ATOM      3  C   UNL     1     111.783 125.431 116.887  1.00  0.00    -0.000 C 
BRANCH   3   4
ATOM      4  C   UNL     1     111.618 125.490 115.358  1.00  0.00    -0.003 C 
ATOM      5  C   UNL     1     112.813 124.904 114.606  1.00  0.00     0.004 C 
ENDBRANCH   3   4
ENDBRANCH   2   3
ENDBRANCH   1   2
BRANCH   1   6
ATOM      6  C   UNL     1     112.532 121.616 117.383  1.00  0.00     0.028 C 
BRANCH   6   7
ATOM      7  C   UNL     1     112.206 120.835 116.104  1.00  0.00     0.156 C 
BRANCH   7   8
ATOM      8  O   UNL     1     112.823 121.419 114.988  1.00  0.00    -0.396 OA
ATOM      9  H   UNL     1     113.767 121.592 115.243  1.00  0.00     0.210 HD
ENDBRANCH   7   8
ENDBRANCH   6   7
ENDBRANCH   1   6
TORSDOF 6
ENDMDL
MODEL 7
REMARK VINA RESULT:    -2.307     12.319     14.458
REMARK INTER + INTRA:          -3.368
REMARK INTER:                  -3.244
REMARK INTRA:                  -0.124
REMARK UNBOUND:                -0.320
REMARK SMILES CCCCCCCO
REMARK SMILES IDX 5 1 4 2 3 3 2 4 1 5 6 6 7 7 8 8
REMARK H PARENT 8 9
REMARK Flexibility Score: inf
ROOT
ATOM      1  C   UNL     1     108.708 124.825 116.002  1.00  0.00     0.002 C 
ENDROOT
BRANCH   1   2
ATOM      2  C   UNL     1     109.679 125.641 115.126  1.00  0.00     0.000 C 
BRANCH   2   3
ATOM      3  C   UNL     1     110.991 126.053 115.819  1.00  0.00    -0.000 C 
BRANCH   3   4
ATOM      4  C   UNL     1     112.075 124.961 115.851  1.00  0.00    -0.003 C 
ATOM      5  C   UNL     1     112.825 124.826 114.526  1.00  0.00     0.004 C 
ENDBRANCH   3   4
ENDBRANCH   2   3
ENDBRANCH   1   2
BRANCH   1   6
ATOM      6  C   UNL     1     107.258 124.807 115.472  1.00  0.00     0.028 C 
BRANCH   6   7
ATOM      7  C   UNL     1     107.168 124.505 113.971  1.00  0.00     0.156 C 
BRANCH   7   8
ATOM      8  O   UNL     1     107.376 123.141 113.720  1.00  0.00    -0.396 OA
ATOM      9  H   UNL     1     107.468 122.699 114.604  1.00  0.00     0.210 HD
ENDBRANCH   7   8
ENDBRANCH   6   7
ENDBRANCH   1   6
TORSDOF 6
ENDMDL
MODEL 8
REMARK VINA RESULT:    -2.293     17.023     18.772
REMARK INTER + INTRA:          -3.349
REMARK INTER:                  -3.096
REMARK INTRA:                  -0.253
REMARK UNBOUND:                -0.320
REMARK SMILES CCCCCCCO
REMARK SMILES IDX 5 1 4 2 3 3 2 4 1 5 6 6 7 7 8 8
REMARK H PARENT 8 9
REMARK Flexibility Score: inf
ROOT
ATOM      1  C   UNL     1     107.408 109.149 116.710  1.00  0.00     0.002 C 
ENDROOT
BRANCH   1   2
ATOM      2  C   UNL     1     107.049 110.633 116.500  1.00  0.00     0.000 C 
BRANCH   2   3
ATOM      3  C   UNL     1     107.592 111.256 115.200  1.00  0.00    -0.000 C 
BRANCH   3   4
ATOM      4  C   UNL     1     108.358 112.578 115.388  1.00  0.00    -0.003 C 
ATOM      5  C   UNL     1     108.775 112.824 116.838  1.00  0.00     0.004 C 
ENDBRANCH   3   4
ENDBRANCH   2   3
ENDBRANCH   1   2
BRANCH   1   6
ATOM      6  C   UNL     1     108.762 108.743 116.086  1.00  0.00     0.028 C 
BRANCH   6   7
ATOM      7  C   UNL     1     108.630 107.646 115.022  1.00  0.00     0.156 C 
BRANCH   7   8
ATOM      8  O   UNL     1     109.719 107.671 114.138  1.00  0.00    -0.396 OA
ATOM      9  H   UNL     1     109.653 108.520 113.628  1.00  0.00     0.210 HD
ENDBRANCH   7   8
ENDBRANCH   6   7
ENDBRANCH   1   6
TORSDOF 6
ENDMDL
MODEL 9
REMARK VINA RESULT:    -2.286      1.435      3.329
REMARK INTER + INTRA:          -3.340
REMARK INTER:                  -3.038
REMARK INTRA:                  -0.302
REMARK UNBOUND:                -0.320
REMARK SMILES CCCCCCCO
REMARK SMILES IDX 5 1 4 2 3 3 2 4 1 5 6 6 7 7 8 8
REMARK H PARENT 8 9
REMARK Flexibility Score: inf
ROOT
ATOM      1  C   UNL     1     124.125 120.002 117.756  1.00  0.00     0.002 C 
ENDROOT
BRANCH   1   2
ATOM      2  C   UNL     1     122.724 120.413 118.249  1.00  0.00     0.000 C 
BRANCH   2   3
ATOM      3  C   UNL     1     122.345 121.881 117.982  1.00  0.00    -0.000 C 
BRANCH   3   4
ATOM      4  C   UNL     1     121.150 122.077 117.031  1.00  0.00    -0.003 C 
ATOM      5  C   UNL     1     120.874 120.851 116.161  1.00  0.00     0.004 C 
ENDBRANCH   3   4
ENDBRANCH   2   3
ENDBRANCH   1   2
BRANCH   1   6
ATOM      6  C   UNL     1     124.893 121.141 117.050  1.00  0.00     0.028 C 
BRANCH   6   7
ATOM      7  C   UNL     1     124.985 120.954 115.530  1.00  0.00     0.156 C 
BRANCH   7   8
ATOM      8  O   UNL     1     124.932 119.595 115.187  1.00  0.00    -0.396 OA
ATOM      9  H   UNL     1     124.381 119.530 114.364  1.00  0.00     0.210 HD
ENDBRANCH   7   8
ENDBRANCH   6   7
ENDBRANCH   1   6
TORSDOF 6
ENDMDL
