MODEL 1
REMARK VINA RESULT:     1.593      0.000      0.000
REMARK INTER + INTRA:           1.543
REMARK INTER:                   1.686
REMARK INTRA:                  -0.143
REMARK UNBOUND:                -0.143
REMARK SMILES CC1=CCC(C(C)C)=CC1
REMARK SMILES IDX 1 1 2 2 3 3 4 4 5 5 9 6 10 7 6 8 7 9 8 10
REMARK H PARENT
REMARK Flexibility Score: inf
ROOT
ATOM      1  C   UNL     1       0.552   7.035  -7.326  1.00  0.00     0.039 C 
ATOM      2  C   UNL     1       0.017   6.357  -8.556  1.00  0.00    -0.073 C 
ATOM      3  C   UNL     1       0.867   5.896  -9.494  1.00  0.00    -0.023 C 
ATOM      4  C   UNL     1       0.348   5.180 -10.716  1.00  0.00     0.058 C 
ATOM      5  C   UNL     1      -1.005   5.726 -11.143  1.00  0.00    -0.068 C 
ATOM      6  C   UNL     1      -1.850   6.190 -10.198  1.00  0.00    -0.023 C 
ATOM      7  C   UNL     1      -1.474   6.160  -8.738  1.00  0.00     0.057 C 
ENDROOT
BRANCH   5   8
ATOM      8  C   UNL     1      -1.396   5.779 -12.612  1.00  0.00     0.009 C 
ATOM      9  C   UNL     1      -0.232   5.326 -13.500  1.00  0.00     0.012 C 
ATOM     10  C   UNL     1      -2.652   4.945 -12.884  1.00  0.00     0.012 C 
ENDBRANCH   5   8
TORSDOF 1
ENDMDL
MODEL 2
REMARK VINA RESULT:     2.413      0.865      4.657
REMARK INTER + INTRA:           2.411
REMARK INTER:                   2.554
REMARK INTRA:                  -0.143
REMARK UNBOUND:                -0.143
REMARK SMILES CC1=CCC(C(C)C)=CC1
REMARK SMILES IDX 1 1 2 2 3 3 4 4 5 5 9 6 10 7 6 8 7 9 8 10
REMARK H PARENT
REMARK Flexibility Score: inf
ROOT
ATOM      1  C   UNL     1      -0.714   5.306 -13.052  1.00  0.00     0.039 C 
ATOM      2  C   UNL     1      -0.629   5.479 -11.561  1.00  0.00    -0.073 C 
ATOM      3  C   UNL     1      -1.678   5.984 -10.882  1.00  0.00    -0.023 C 
ATOM      4  C   UNL     1      -1.624   6.128  -9.382  1.00  0.00     0.058 C 
ATOM      5  C   UNL     1      -0.213   6.438  -8.907  1.00  0.00    -0.068 C 
ATOM      6  C   UNL     1       0.833   5.932  -9.595  1.00  0.00    -0.023 C 
ATOM      7  C   UNL     1       0.617   5.062 -10.808  1.00  0.00     0.057 C 
ENDROOT
BRANCH   5   8
ATOM      8  C   UNL     1       0.025   7.324  -7.695  1.00  0.00     0.009 C 
ATOM      9  C   UNL     1      -1.303   7.839  -7.130  1.00  0.00     0.012 C 
ATOM     10  C   UNL     1       0.835   6.592  -6.620  1.00  0.00     0.012 C 
ENDBRANCH   5   8
TORSDOF 1
ENDMDL
MODEL 3
REMARK VINA RESULT:     2.479      0.601      2.010
REMARK INTER + INTRA:           2.481
REMARK INTER:                   2.624
REMARK INTRA:                  -0.143
REMARK UNBOUND:                -0.143
REMARK SMILES CC1=CCC(C(C)C)=CC1
REMARK SMILES IDX 1 1 2 2 3 3 4 4 5 5 9 6 10 7 6 8 7 9 8 10
REMARK H PARENT
REMARK Flexibility Score: inf
ROOT
ATOM      1  C   UNL     1       0.583   6.039  -7.388  1.00  0.00     0.039 C 
ATOM      2  C   UNL     1       0.108   6.102  -8.813  1.00  0.00    -0.073 C 
ATOM      3  C   UNL     1      -1.206   6.222  -9.079  1.00  0.00    -0.023 C 
ATOM      4  C   UNL     1      -1.696   6.325 -10.501  1.00  0.00     0.058 C 
ATOM      5  C   UNL     1      -0.817   5.523 -11.447  1.00  0.00    -0.068 C 
ATOM      6  C   UNL     1       0.499   5.403 -11.173  1.00  0.00    -0.023 C 
ATOM      7  C   UNL     1       1.101   6.061  -9.956  1.00  0.00     0.057 C 
ENDROOT
BRANCH   5   8
ATOM      8  C   UNL     1      -1.408   4.840 -12.670  1.00  0.00     0.009 C 
ATOM      9  C   UNL     1      -2.910   5.125 -12.779  1.00  0.00     0.012 C 
ATOM     10  C   UNL     1      -0.675   5.256 -13.950  1.00  0.00     0.012 C 
ENDBRANCH   5   8
TORSDOF 1
ENDMDL
MODEL 4
REMARK VINA RESULT:     3.064      9.844     12.020
REMARK INTER + INTRA:           3.100
REMARK INTER:                   3.278
REMARK INTRA:                  -0.177
REMARK UNBOUND:                -0.143
REMARK SMILES CC1=CCC(C(C)C)=CC1
REMARK SMILES IDX 1 1 2 2 3 3 4 4 5 5 9 6 10 7 6 8 7 9 8 10
REMARK H PARENT
REMARK Flexibility Score: inf
ROOT
ATOM      1  C   UNL     1      13.013   7.368  -9.077  1.00  0.00     0.039 C 
ATOM      2  C   UNL     1      11.993   7.714  -8.028  1.00  0.00    -0.073 C 
ATOM      3  C   UNL     1      11.799   6.888  -6.982  1.00  0.00    -0.023 C 
ATOM      4  C   UNL     1      10.808   7.238  -5.900  1.00  0.00     0.058 C 
ATOM      5  C   UNL     1       9.628   8.015  -6.463  1.00  0.00    -0.068 C 
ATOM      6  C   UNL     1       9.829   8.838  -7.515  1.00  0.00    -0.023 C 
ATOM      7  C   UNL     1      11.201   9.001  -8.121  1.00  0.00     0.057 C 
ENDROOT
BRANCH   5   8
ATOM      8  C   UNL     1       8.236   7.852  -5.875  1.00  0.00     0.009 C 
ATOM      9  C   UNL     1       7.224   8.728  -6.623  1.00  0.00     0.012 C 
ATOM     10  C   UNL     1       7.799   6.383  -5.877  1.00  0.00     0.012 C 
ENDBRANCH   5   8
TORSDOF 1
ENDMDL
MODEL 5
REMARK VINA RESULT:     3.130      1.041      4.211
REMARK INTER + INTRA:           3.170
REMARK INTER:                   3.341
REMARK INTRA:                  -0.172
REMARK UNBOUND:                -0.143
REMARK SMILES CC1=CCC(C(C)C)=CC1
REMARK SMILES IDX 1 1 2 2 3 3 4 4 5 5 9 6 10 7 6 8 7 9 8 10
REMARK H PARENT
REMARK Flexibility Score: inf
ROOT
ATOM      1  C   UNL     1      -3.196   4.756 -13.380  1.00  0.00     0.039 C 
ATOM      2  C   UNL     1      -2.109   5.341 -12.522  1.00  0.00    -0.073 C 
ATOM      3  C   UNL     1      -0.828   5.294 -12.936  1.00  0.00    -0.023 C 
ATOM      4  C   UNL     1       0.270   5.911 -12.106  1.00  0.00     0.058 C 
ATOM      5  C   UNL     1      -0.035   5.806 -10.620  1.00  0.00    -0.068 C 
ATOM      6  C   UNL     1      -1.321   5.850 -10.213  1.00  0.00    -0.023 C 
ATOM      7  C   UNL     1      -2.445   6.012 -11.207  1.00  0.00     0.057 C 
ENDROOT
BRANCH   5   8
ATOM      8  C   UNL     1       1.083   5.627  -9.605  1.00  0.00     0.009 C 
ATOM      9  C   UNL     1       0.616   6.040  -8.205  1.00  0.00     0.012 C 
ATOM     10  C   UNL     1       1.612   4.189  -9.608  1.00  0.00     0.012 C 
ENDBRANCH   5   8
TORSDOF 1
ENDMDL
MODEL 6
REMARK VINA RESULT:     3.329      1.112      4.225
REMARK INTER + INTRA:           3.381
REMARK INTER:                   3.526
REMARK INTRA:                  -0.145
REMARK UNBOUND:                -0.143
REMARK SMILES CC1=CCC(C(C)C)=CC1
REMARK SMILES IDX 1 1 2 2 3 3 4 4 5 5 9 6 10 7 6 8 7 9 8 10
REMARK H PARENT
REMARK Flexibility Score: inf
ROOT
ATOM      1  C   UNL     1      -1.498   4.775 -13.699  1.00  0.00     0.039 C 
ATOM      2  C   UNL     1      -1.132   5.456 -12.409  1.00  0.00    -0.073 C 
ATOM      3  C   UNL     1       0.162   5.584 -12.060  1.00  0.00    -0.023 C 
ATOM      4  C   UNL     1       0.549   6.298 -10.789  1.00  0.00     0.058 C 
ATOM      5  C   UNL     1      -0.497   6.097  -9.704  1.00  0.00    -0.068 C 
ATOM      6  C   UNL     1      -1.792   5.966 -10.061  1.00  0.00    -0.023 C 
ATOM      7  C   UNL     1      -2.208   6.027 -11.510  1.00  0.00     0.057 C 
ENDROOT
BRANCH   5   8
ATOM      8  C   UNL     1      -0.095   6.017  -8.240  1.00  0.00     0.009 C 
ATOM      9  C   UNL     1       1.381   5.630  -8.102  1.00  0.00     0.012 C 
ATOM     10  C   UNL     1      -0.390   7.331  -7.508  1.00  0.00     0.012 C 
ENDBRANCH   5   8
TORSDOF 1
ENDMDL
MODEL 7
REMARK VINA RESULT:     3.959      9.259     11.566
REMARK INTER + INTRA:           4.048
REMARK INTER:                   4.190
REMARK INTRA:                  -0.142
REMARK UNBOUND:                -0.143
REMARK SMILES CC1=CCC(C(C)C)=CC1
REMARK SMILES IDX 1 1 2 2 3 3 4 4 5 5 9 6 10 7 6 8 7 9 8 10
REMARK H PARENT
REMARK Flexibility Score: inf
ROOT
ATOM      1  C   UNL     1       6.215   9.654  -6.374  1.00  0.00     0.039 C 
ATOM      2  C   UNL     1       7.462   8.878  -6.697  1.00  0.00    -0.073 C 
ATOM      3  C   UNL     1       7.873   7.893  -5.875  1.00  0.00    -0.023 C 
ATOM      4  C   UNL     1       9.100   7.080  -6.203  1.00  0.00     0.058 C 
ATOM      5  C   UNL     1      10.136   7.916  -6.937  1.00  0.00    -0.068 C 
ATOM      6  C   UNL     1       9.718   8.904  -7.756  1.00  0.00    -0.023 C 
ATOM      7  C   UNL     1       8.247   9.175  -7.957  1.00  0.00     0.057 C 
ENDROOT
BRANCH   5   8
ATOM      8  C   UNL     1      11.623   7.668  -6.735  1.00  0.00     0.009 C 
ATOM      9  C   UNL     1      11.854   6.405  -5.900  1.00  0.00     0.012 C 
ATOM     10  C   UNL     1      12.361   7.585  -8.076  1.00  0.00     0.012 C 
ENDBRANCH   5   8
TORSDOF 1
ENDMDL
MODEL 8
REMARK VINA RESULT:     4.384     11.901     13.970
REMARK INTER + INTRA:           4.497
REMARK INTER:                   4.636
REMARK INTRA:                  -0.139
REMARK UNBOUND:                -0.143
REMARK SMILES CC1=CCC(C(C)C)=CC1
REMARK SMILES IDX 1 1 2 2 3 3 4 4 5 5 9 6 10 7 6 8 7 9 8 10
REMARK H PARENT
REMARK Flexibility Score: inf
ROOT
ATOM      1  C   UNL     1      14.482   8.987 -11.497  1.00  0.00     0.039 C 
ATOM      2  C   UNL     1      13.485   8.484 -10.490  1.00  0.00    -0.073 C 
ATOM      3  C   UNL     1      12.371   9.196 -10.233  1.00  0.00    -0.023 C 
ATOM      4  C   UNL     1      11.343   8.687  -9.254  1.00  0.00     0.058 C 
ATOM      5  C   UNL     1      11.994   7.893  -8.132  1.00  0.00    -0.068 C 
ATOM      6  C   UNL     1      13.113   7.185  -8.396  1.00  0.00    -0.023 C 
ATOM      7  C   UNL     1      13.709   7.164  -9.782  1.00  0.00     0.057 C 
ENDROOT
BRANCH   5   8
ATOM      8  C   UNL     1      11.417   7.915  -6.725  1.00  0.00     0.009 C 
ATOM      9  C   UNL     1       9.886   7.869  -6.766  1.00  0.00     0.012 C 
ATOM     10  C   UNL     1      11.980   6.771  -5.875  1.00  0.00     0.012 C 
ENDBRANCH   5   8
TORSDOF 1
ENDMDL
