MODEL 1
REMARK VINA RESULT:    -4.275      0.000      0.000
REMARK INTER + INTRA:          -4.547
REMARK INTER:                  -4.525
REMARK INTRA:                  -0.021
REMARK UNBOUND:                -0.021
REMARK SMILES O=C([O-])c1cccnc1
REMARK SMILES IDX 4 1 5 2 9 3 6 4 8 5 7 6 2 7 1 8 3 9
REMARK H PARENT
REMARK Flexibility Score: inf
ROOT
ATOM      1  C   UNL     1       9.797  49.359  21.122  1.00  0.00     0.016 A 
ATOM      2  C   UNL     1       9.228  50.439  20.426  1.00  0.00     0.013 A 
ATOM      3  C   UNL     1       9.570  49.262  22.505  1.00  0.00     0.120 A 
ATOM      4  C   UNL     1       8.458  51.383  21.107  1.00  0.00     0.021 A 
ATOM      5  N   UNL     1       8.815  50.196  23.145  1.00  0.00    -0.264 NA
ATOM      6  C   UNL     1       8.260  51.243  22.480  1.00  0.00     0.111 A 
ENDROOT
BRANCH   1   7
ATOM      7  C   UNL     1      10.616  48.352  20.412  1.00  0.00     0.073 C 
ATOM      8  O   UNL     1      10.653  47.159  20.813  1.00  0.00    -0.545 OA
ATOM      9  O   UNL     1      11.356  48.710  19.291  1.00  0.00    -0.545 OA
ENDBRANCH   1   7
TORSDOF 1
ENDMDL
MODEL 2
REMARK VINA RESULT:    -4.271      2.751      3.694
REMARK INTER + INTRA:          -4.542
REMARK INTER:                  -4.519
REMARK INTRA:                  -0.023
REMARK UNBOUND:                -0.021
REMARK SMILES O=C([O-])c1cccnc1
REMARK SMILES IDX 4 1 5 2 9 3 6 4 8 5 7 6 2 7 1 8 3 9
REMARK H PARENT
REMARK Flexibility Score: inf
ROOT
ATOM      1  C   UNL     1       9.269  50.162  21.039  1.00  0.00     0.016 A 
ATOM      2  C   UNL     1       9.768  50.132  19.726  1.00  0.00     0.013 A 
ATOM      3  C   UNL     1       9.724  49.193  21.949  1.00  0.00     0.120 A 
ATOM      4  C   UNL     1      10.693  49.157  19.351  1.00  0.00     0.021 A 
ATOM      5  N   UNL     1      10.627  48.254  21.558  1.00  0.00    -0.264 NA
ATOM      6  C   UNL     1      11.117  48.217  20.291  1.00  0.00     0.111 A 
ENDROOT
BRANCH   1   7
ATOM      7  C   UNL     1       8.287  51.190  21.449  1.00  0.00     0.073 C 
ATOM      8  O   UNL     1       7.581  51.780  20.590  1.00  0.00    -0.545 OA
ATOM      9  O   UNL     1       8.131  51.518  22.791  1.00  0.00    -0.545 OA
ENDBRANCH   1   7
TORSDOF 1
ENDMDL
MODEL 3
REMARK VINA RESULT:    -4.180      3.718      4.804
REMARK INTER + INTRA:          -4.446
REMARK INTER:                  -4.423
REMARK INTRA:                  -0.022
REMARK UNBOUND:                -0.021
REMARK SMILES O=C([O-])c1cccnc1
REMARK SMILES IDX 4 1 5 2 9 3 6 4 8 5 7 6 2 7 1 8 3 9
REMARK H PARENT
REMARK Flexibility Score: inf
ROOT
ATOM      1  C   UNL     1       8.756  46.100  23.205  1.00  0.00     0.016 A 
ATOM      2  C   UNL     1       8.573  46.002  24.594  1.00  0.00     0.013 A 
ATOM      3  C   UNL     1       9.680  47.039  22.717  1.00  0.00     0.120 A 
ATOM      4  C   UNL     1       9.302  46.824  25.456  1.00  0.00     0.021 A 
ATOM      5  N   UNL     1      10.378  47.828  23.578  1.00  0.00    -0.264 NA
ATOM      6  C   UNL     1      10.209  47.740  24.924  1.00  0.00     0.111 A 
ENDROOT
BRANCH   1   7
ATOM      7  C   UNL     1       7.990  45.235  22.281  1.00  0.00     0.073 C 
ATOM      8  O   UNL     1       8.428  44.983  21.128  1.00  0.00    -0.545 OA
ATOM      9  O   UNL     1       6.774  44.688  22.675  1.00  0.00    -0.545 OA
ENDBRANCH   1   7
TORSDOF 1
ENDMDL
MODEL 4
REMARK VINA RESULT:    -4.173      5.260      5.982
REMARK INTER + INTRA:          -4.439
REMARK INTER:                  -4.415
REMARK INTRA:                  -0.024
REMARK UNBOUND:                -0.021
REMARK SMILES O=C([O-])c1cccnc1
REMARK SMILES IDX 4 1 5 2 9 3 6 4 8 5 7 6 2 7 1 8 3 9
REMARK H PARENT
REMARK Flexibility Score: inf
ROOT
ATOM      1  C   UNL     1       6.892  45.401  23.493  1.00  0.00     0.016 A 
ATOM      2  C   UNL     1       5.933  44.512  22.983  1.00  0.00     0.013 A 
ATOM      3  C   UNL     1       6.559  46.167  24.623  1.00  0.00     0.120 A 
ATOM      4  C   UNL     1       4.683  44.401  23.595  1.00  0.00     0.021 A 
ATOM      5  N   UNL     1       5.334  46.040  25.202  1.00  0.00    -0.264 NA
ATOM      6  C   UNL     1       4.400  45.181  24.717  1.00  0.00     0.111 A 
ENDROOT
BRANCH   1   7
ATOM      7  C   UNL     1       8.219  45.527  22.852  1.00  0.00     0.073 C 
ATOM      8  O   UNL     1       8.519  44.820  21.855  1.00  0.00    -0.545 OA
ATOM      9  O   UNL     1       9.154  46.432  23.343  1.00  0.00    -0.545 OA
ENDBRANCH   1   7
TORSDOF 1
ENDMDL
MODEL 5
REMARK VINA RESULT:    -4.146      1.619      1.873
REMARK INTER + INTRA:          -4.410
REMARK INTER:                  -4.394
REMARK INTRA:                  -0.016
REMARK UNBOUND:                -0.021
REMARK SMILES O=C([O-])c1cccnc1
REMARK SMILES IDX 4 1 5 2 9 3 6 4 8 5 7 6 2 7 1 8 3 9
REMARK H PARENT
REMARK Flexibility Score: inf
ROOT
ATOM      1  C   UNL     1       9.744  49.118  22.197  1.00  0.00     0.016 A 
ATOM      2  C   UNL     1       9.776  49.483  20.842  1.00  0.00     0.013 A 
ATOM      3  C   UNL     1       9.022  49.927  23.091  1.00  0.00     0.120 A 
ATOM      4  C   UNL     1       9.100  50.625  20.407  1.00  0.00     0.021 A 
ATOM      5  N   UNL     1       8.371  51.035  22.642  1.00  0.00    -0.264 NA
ATOM      6  C   UNL     1       8.394  51.396  21.332  1.00  0.00     0.111 A 
ENDROOT
BRANCH   1   7
ATOM      7  C   UNL     1      10.457  47.911  22.670  1.00  0.00     0.073 C 
ATOM      8  O   UNL     1       9.821  46.863  22.958  1.00  0.00    -0.545 OA
ATOM      9  O   UNL     1      11.841  47.919  22.802  1.00  0.00    -0.545 OA
ENDBRANCH   1   7
TORSDOF 1
ENDMDL
MODEL 6
REMARK VINA RESULT:    -4.136     17.409     17.936
REMARK INTER + INTRA:          -4.399
REMARK INTER:                  -4.375
REMARK INTRA:                  -0.024
REMARK UNBOUND:                -0.021
REMARK SMILES O=C([O-])c1cccnc1
REMARK SMILES IDX 4 1 5 2 9 3 6 4 8 5 7 6 2 7 1 8 3 9
REMARK H PARENT
REMARK Flexibility Score: inf
ROOT
ATOM      1  C   UNL     1      22.652  55.761  31.438  1.00  0.00     0.016 A 
ATOM      2  C   UNL     1      22.041  54.634  30.864  1.00  0.00     0.013 A 
ATOM      3  C   UNL     1      23.451  55.579  32.580  1.00  0.00     0.120 A 
ATOM      4  C   UNL     1      22.234  53.370  31.425  1.00  0.00     0.021 A 
ATOM      5  N   UNL     1      23.623  54.337  33.107  1.00  0.00    -0.264 NA
ATOM      6  C   UNL     1      23.038  53.240  32.558  1.00  0.00     0.111 A 
ENDROOT
BRANCH   1   7
ATOM      7  C   UNL     1      22.455  57.105  30.853  1.00  0.00     0.073 C 
ATOM      8  O   UNL     1      23.023  58.111  31.354  1.00  0.00    -0.545 OA
ATOM      9  O   UNL     1      21.639  57.276  29.740  1.00  0.00    -0.545 OA
ENDBRANCH   1   7
TORSDOF 1
ENDMDL
MODEL 7
REMARK VINA RESULT:    -4.121      4.043      5.208
REMARK INTER + INTRA:          -4.383
REMARK INTER:                  -4.363
REMARK INTRA:                  -0.020
REMARK UNBOUND:                -0.021
REMARK SMILES O=C([O-])c1cccnc1
REMARK SMILES IDX 4 1 5 2 9 3 6 4 8 5 7 6 2 7 1 8 3 9
REMARK H PARENT
REMARK Flexibility Score: inf
ROOT
ATOM      1  C   UNL     1       9.241  46.749  23.714  1.00  0.00     0.016 A 
ATOM      2  C   UNL     1       8.326  45.700  23.902  1.00  0.00     0.013 A 
ATOM      3  C   UNL     1       9.706  47.005  22.413  1.00  0.00     0.120 A 
ATOM      4  C   UNL     1       7.898  44.939  22.813  1.00  0.00     0.021 A 
ATOM      5  N   UNL     1       9.273  46.248  21.368  1.00  0.00    -0.264 NA
ATOM      6  C   UNL     1       8.387  45.232  21.540  1.00  0.00     0.111 A 
ENDROOT
BRANCH   1   7
ATOM      7  C   UNL     1       9.702  47.563  24.860  1.00  0.00     0.073 C 
ATOM      8  O   UNL     1      10.909  47.909  24.955  1.00  0.00    -0.545 OA
ATOM      9  O   UNL     1       8.807  47.956  25.849  1.00  0.00    -0.545 OA
ENDBRANCH   1   7
TORSDOF 1
ENDMDL
MODEL 8
REMARK VINA RESULT:    -4.085      1.867      2.495
REMARK INTER + INTRA:          -4.346
REMARK INTER:                  -4.329
REMARK INTRA:                  -0.017
REMARK UNBOUND:                -0.021
REMARK SMILES O=C([O-])c1cccnc1
REMARK SMILES IDX 4 1 5 2 9 3 6 4 8 5 7 6 2 7 1 8 3 9
REMARK H PARENT
REMARK Flexibility Score: inf
ROOT
ATOM      1  C   UNL     1       9.696  49.164  22.227  1.00  0.00     0.016 A 
ATOM      2  C   UNL     1       8.897  49.964  23.060  1.00  0.00     0.013 A 
ATOM      3  C   UNL     1       9.801  49.509  20.869  1.00  0.00     0.120 A 
ATOM      4  C   UNL     1       8.229  51.073  22.536  1.00  0.00     0.021 A 
ATOM      5  N   UNL     1       9.140  50.595  20.383  1.00  0.00    -0.264 NA
ATOM      6  C   UNL     1       8.365  51.376  21.181  1.00  0.00     0.111 A 
ENDROOT
BRANCH   1   7
ATOM      7  C   UNL     1      10.408  47.987  22.770  1.00  0.00     0.073 C 
ATOM      8  O   UNL     1      11.661  47.996  22.894  1.00  0.00    -0.545 OA
ATOM      9  O   UNL     1       9.701  46.852  23.153  1.00  0.00    -0.545 OA
ENDBRANCH   1   7
TORSDOF 1
ENDMDL
MODEL 9
REMARK VINA RESULT:    -4.060      3.169      4.134
REMARK INTER + INTRA:          -4.319
REMARK INTER:                  -4.295
REMARK INTRA:                  -0.024
REMARK UNBOUND:                -0.021
REMARK SMILES O=C([O-])c1cccnc1
REMARK SMILES IDX 4 1 5 2 9 3 6 4 8 5 7 6 2 7 1 8 3 9
REMARK H PARENT
REMARK Flexibility Score: inf
ROOT
ATOM      1  C   UNL     1       9.242  46.545  22.903  1.00  0.00     0.016 A 
ATOM      2  C   UNL     1       8.603  45.796  23.904  1.00  0.00     0.013 A 
ATOM      3  C   UNL     1      10.014  47.654  23.288  1.00  0.00     0.120 A 
ATOM      4  C   UNL     1       8.740  46.157  25.246  1.00  0.00     0.021 A 
ATOM      5  N   UNL     1      10.133  47.985  24.603  1.00  0.00    -0.264 NA
ATOM      6  C   UNL     1       9.518  47.266  25.579  1.00  0.00     0.111 A 
ENDROOT
BRANCH   1   7
ATOM      7  C   UNL     1       9.103  46.172  21.478  1.00  0.00     0.073 C 
ATOM      8  O   UNL     1       8.306  45.263  21.129  1.00  0.00    -0.545 OA
ATOM      9  O   UNL     1       9.853  46.823  20.505  1.00  0.00    -0.545 OA
ENDBRANCH   1   7
TORSDOF 1
ENDMDL
