MODEL 1
REMARK VINA RESULT:    75.287      0.000      0.000
REMARK INTER + INTRA:         109.039
REMARK INTER:                 108.297
REMARK INTRA:                   0.742
REMARK UNBOUND:                 0.742
REMARK SMILES O=c1c(O[C@@H]2O[C@H](CO)[C@@H](O)[C@@H](O)[C@H]2O)c(-c2ccc(O)cc2)oc2cc(O)cc(O)c12
REMARK SMILES IDX 4 1 3 2 16 3 24 4 2 5 25 6 1 7 32 8 26 9 30 10 27 11 29 12
REMARK SMILES IDX 17 13 18 14 19 15 20 16 23 17 22 18 21 19 31 21 28 23 5 25
REMARK SMILES IDX 14 26 6 27 12 28 7 29 10 30 15 31 13 33 8 35 9 36 11 38
REMARK H PARENT 21 20 31 22 28 24 15 32 13 34 9 37 11 39
REMARK Flexibility Score: inf
ROOT
ATOM      1  O   UNL     1     -38.429  30.539 -23.984  1.00  0.00    -0.454 OA
ENDROOT
BRANCH   1   2
ATOM      2  C   UNL     1     -39.550  30.531 -23.146  1.00  0.00     0.214 A 
ATOM      3  C   UNL     1     -39.669  29.626 -22.069  1.00  0.00     0.180 A 
ATOM      4  O   UNL     1     -40.788  29.601 -21.351  1.00  0.00    -0.452 OA
ATOM      5  C   UNL     1     -40.588  31.439 -23.384  1.00  0.00     0.239 A 
ATOM      6  C   UNL     1     -41.811  30.422 -21.566  1.00  0.00     0.146 A 
ATOM      7  O   UNL     1     -40.468  32.277 -24.320  1.00  0.00    -0.285 OA
ATOM      8  C   UNL     1     -41.751  31.394 -22.591  1.00  0.00     0.111 A 
ATOM      9  C   UNL     1     -42.947  30.319 -20.757  1.00  0.00     0.094 A 
ATOM     10  C   UNL     1     -42.853  32.263 -22.782  1.00  0.00     0.134 A 
ATOM     11  C   UNL     1     -44.033  31.179 -20.952  1.00  0.00     0.123 A 
ATOM     12  C   UNL     1     -43.982  32.145 -21.960  1.00  0.00     0.093 A 
BRANCH   3  13
ATOM     13  C   UNL     1     -38.578  28.701 -21.690  1.00  0.00     0.021 A 
ATOM     14  C   UNL     1     -37.602  29.070 -20.748  1.00  0.00     0.016 A 
ATOM     15  C   UNL     1     -36.583  28.179 -20.400  1.00  0.00     0.047 A 
ATOM     16  C   UNL     1     -36.537  26.902 -20.976  1.00  0.00     0.115 A 
ATOM     17  C   UNL     1     -38.538  27.411 -22.247  1.00  0.00     0.016 A 
ATOM     18  C   UNL     1     -37.518  26.521 -21.896  1.00  0.00     0.047 A 
BRANCH  16  19
ATOM     19  O   UNL     1     -35.526  26.006 -20.638  1.00  0.00    -0.508 OA
ATOM     20  H   UNL     1     -35.339  25.758 -19.673  1.00  0.00     0.293 HD
ENDBRANCH  16  19
ENDBRANCH   3  13
BRANCH  10  21
ATOM     21  O   UNL     1     -42.834  33.237 -23.782  1.00  0.00    -0.507 OA
ATOM     22  H   UNL     1     -43.620  33.377 -24.405  1.00  0.00     0.293 HD
ENDBRANCH  10  21
BRANCH  11  23
ATOM     23  O   UNL     1     -45.167  31.082 -20.150  1.00  0.00    -0.508 OA
ATOM     24  H   UNL     1     -45.530  30.184 -19.851  1.00  0.00     0.293 HD
ENDBRANCH  11  23
ENDBRANCH   1   2
BRANCH   1  25
ATOM     25  C   UNL     1     -38.307  31.412 -25.111  1.00  0.00     0.339 C 
ATOM     26  C   UNL     1     -38.035  32.861 -24.668  1.00  0.00     0.214 C 
ATOM     27  O   UNL     1     -37.333  30.925 -26.025  1.00  0.00    -0.332 OA
ATOM     28  C   UNL     1     -36.617  32.986 -24.091  1.00  0.00     0.180 C 
ATOM     29  C   UNL     1     -35.996  30.966 -25.535  1.00  0.00     0.179 C 
ATOM     30  C   UNL     1     -35.571  32.375 -25.041  1.00  0.00     0.177 C 
BRANCH  26  31
ATOM     31  O   UNL     1     -38.211  33.720 -25.766  1.00  0.00    -0.384 OA
ATOM     32  H   UNL     1     -39.180  33.931 -25.821  1.00  0.00     0.211 HD
ENDBRANCH  26  31
BRANCH  28  33
ATOM     33  O   UNL     1     -36.324  34.336 -23.832  1.00  0.00    -0.387 OA
ATOM     34  H   UNL     1     -36.223  34.424 -22.848  1.00  0.00     0.211 HD
ENDBRANCH  28  33
BRANCH  29  35
ATOM     35  C   UNL     1     -35.708  29.847 -24.508  1.00  0.00     0.191 C 
BRANCH  35  36
ATOM     36  O   UNL     1     -36.536  28.738 -24.742  1.00  0.00    -0.394 OA
ATOM     37  H   UNL     1     -36.903  28.843 -25.658  1.00  0.00     0.210 HD
ENDBRANCH  35  36
ENDBRANCH  29  35
BRANCH  30  38
ATOM     38  O   UNL     1     -35.304  33.240 -26.122  1.00  0.00    -0.387 OA
ATOM     39  H   UNL     1     -36.165  33.500 -26.536  1.00  0.00     0.211 HD
ENDBRANCH  30  38
ENDBRANCH   1  25
TORSDOF 11
ENDMDL
MODEL 2
REMARK VINA RESULT:    77.662      1.692      5.742
REMARK INTER + INTRA:         112.455
REMARK INTER:                 111.131
REMARK INTRA:                   1.323
REMARK UNBOUND:                 0.742
REMARK SMILES O=c1c(O[C@@H]2O[C@H](CO)[C@@H](O)[C@@H](O)[C@H]2O)c(-c2ccc(O)cc2)oc2cc(O)cc(O)c12
REMARK SMILES IDX 4 1 3 2 16 3 24 4 2 5 25 6 1 7 32 8 26 9 30 10 27 11 29 12
REMARK SMILES IDX 17 13 18 14 19 15 20 16 23 17 22 18 21 19 31 21 28 23 5 25
REMARK SMILES IDX 14 26 6 27 12 28 7 29 10 30 15 31 13 33 8 35 9 36 11 38
REMARK H PARENT 21 20 31 22 28 24 15 32 13 34 9 37 11 39
REMARK Flexibility Score: inf
ROOT
ATOM      1  O   UNL     1     -40.636  29.391 -22.406  1.00  0.00    -0.454 OA
ENDROOT
BRANCH   1   2
ATOM      2  C   UNL     1     -39.511  29.901 -23.067  1.00  0.00     0.214 A 
ATOM      3  C   UNL     1     -38.259  29.254 -23.013  1.00  0.00     0.180 A 
ATOM      4  O   UNL     1     -37.201  29.819 -23.588  1.00  0.00    -0.452 OA
ATOM      5  C   UNL     1     -39.628  31.090 -23.796  1.00  0.00     0.239 A 
ATOM      6  C   UNL     1     -37.261  30.964 -24.260  1.00  0.00     0.146 A 
ATOM      7  O   UNL     1     -40.755  31.650 -23.880  1.00  0.00    -0.285 OA
ATOM      8  C   UNL     1     -38.489  31.650 -24.406  1.00  0.00     0.111 A 
ATOM      9  C   UNL     1     -36.093  31.480 -24.830  1.00  0.00     0.094 A 
ATOM     10  C   UNL     1     -38.520  32.860 -25.141  1.00  0.00     0.134 A 
ATOM     11  C   UNL     1     -36.129  32.677 -25.554  1.00  0.00     0.123 A 
ATOM     12  C   UNL     1     -37.338  33.360 -25.707  1.00  0.00     0.093 A 
BRANCH   3  13
ATOM     13  C   UNL     1     -38.072  27.946 -22.347  1.00  0.00     0.021 A 
ATOM     14  C   UNL     1     -36.978  27.709 -21.496  1.00  0.00     0.016 A 
ATOM     15  C   UNL     1     -36.824  26.467 -20.873  1.00  0.00     0.047 A 
ATOM     16  C   UNL     1     -37.769  25.453 -21.079  1.00  0.00     0.115 A 
ATOM     17  C   UNL     1     -39.027  26.931 -22.532  1.00  0.00     0.016 A 
ATOM     18  C   UNL     1     -38.871  25.691 -21.906  1.00  0.00     0.047 A 
BRANCH  16  19
ATOM     19  O   UNL     1     -37.625  24.212 -20.464  1.00  0.00    -0.508 OA
ATOM     20  H   UNL     1     -38.400  23.562 -20.397  1.00  0.00     0.293 HD
ENDBRANCH  16  19
ENDBRANCH   3  13
BRANCH  10  21
ATOM     21  O   UNL     1     -39.711  33.567 -25.311  1.00  0.00    -0.507 OA
ATOM     22  H   UNL     1     -39.783  34.552 -25.088  1.00  0.00     0.293 HD
ENDBRANCH  10  21
BRANCH  11  23
ATOM     23  O   UNL     1     -34.970  33.196 -26.125  1.00  0.00    -0.508 OA
ATOM     24  H   UNL     1     -34.052  32.862 -25.856  1.00  0.00     0.293 HD
ENDBRANCH  11  23
ENDBRANCH   1   2
BRANCH   1  25
ATOM     25  C   UNL     1     -40.734  29.319 -20.981  1.00  0.00     0.339 C 
ATOM     26  C   UNL     1     -39.620  30.135 -20.302  1.00  0.00     0.214 C 
ATOM     27  O   UNL     1     -42.034  29.693 -20.544  1.00  0.00    -0.332 OA
ATOM     28  C   UNL     1     -39.863  31.639 -20.501  1.00  0.00     0.180 C 
ATOM     29  C   UNL     1     -42.346  31.068 -20.744  1.00  0.00     0.179 C 
ATOM     30  C   UNL     1     -41.301  32.029 -20.114  1.00  0.00     0.177 C 
BRANCH  26  31
ATOM     31  O   UNL     1     -39.574  29.808 -18.936  1.00  0.00    -0.384 OA
ATOM     32  H   UNL     1     -38.623  29.626 -18.712  1.00  0.00     0.211 HD
ENDBRANCH  26  31
BRANCH  28  33
ATOM     33  O   UNL     1     -38.930  32.377 -19.752  1.00  0.00    -0.387 OA
ATOM     34  H   UNL     1     -38.085  31.857 -19.755  1.00  0.00     0.211 HD
ENDBRANCH  28  33
BRANCH  29  35
ATOM     35  C   UNL     1     -42.662  31.394 -22.221  1.00  0.00     0.191 C 
BRANCH  35  36
ATOM     36  O   UNL     1     -43.942  31.957 -22.340  1.00  0.00    -0.394 OA
ATOM     37  H   UNL     1     -43.814  32.917 -22.556  1.00  0.00     0.210 HD
ENDBRANCH  35  36
ENDBRANCH  29  35
BRANCH  30  38
ATOM     38  O   UNL     1     -41.446  32.099 -18.714  1.00  0.00    -0.387 OA
ATOM     39  H   UNL     1     -40.558  32.285 -18.315  1.00  0.00     0.211 HD
ENDBRANCH  30  38
ENDBRANCH   1  25
TORSDOF 11
ENDMDL
