MODEL 1
REMARK VINA RESULT:    -3.442      0.000      0.000
REMARK INTER + INTRA:          -5.344
REMARK INTER:                  -5.052
REMARK INTRA:                  -0.292
REMARK UNBOUND:                -0.292
REMARK SMILES O=C([O-])CCCCCCCC(=O)[O-]
REMARK SMILES IDX 7 1 6 2 5 3 4 4 2 5 1 6 3 7 8 8 9 9 10 10 11 11 12 12 13 13
REMARK H PARENT
REMARK Flexibility Score: inf
ROOT
ATOM      1  C   UNL     1      33.158   7.910 -30.001  1.00  0.00     0.000 C 
ENDROOT
BRANCH   1   2
ATOM      2  C   UNL     1      34.130   7.742 -31.181  1.00  0.00     0.000 C 
BRANCH   2   3
ATOM      3  C   UNL     1      35.207   6.681 -30.912  1.00  0.00     0.006 C 
BRANCH   3   4
ATOM      4  C   UNL     1      34.697   5.280 -31.262  1.00  0.00     0.053 C 
BRANCH   4   5
ATOM      5  C   UNL     1      34.772   5.049 -32.739  1.00  0.00     0.041 C 
ATOM      6  O   UNL     1      35.707   5.558 -33.412  1.00  0.00    -0.550 OA
ATOM      7  O   UNL     1      33.839   4.230 -33.363  1.00  0.00    -0.550 OA
ENDBRANCH   4   5
ENDBRANCH   3   4
ENDBRANCH   2   3
ENDBRANCH   1   2
BRANCH   1   8
ATOM      8  C   UNL     1      32.410   9.254 -30.038  1.00  0.00     0.000 C 
BRANCH   8   9
ATOM      9  C   UNL     1      31.661   9.549 -28.730  1.00  0.00     0.006 C 
BRANCH   9  10
ATOM     10  C   UNL     1      32.448   9.106 -27.488  1.00  0.00     0.053 C 
BRANCH  10  11
ATOM     11  C   UNL     1      32.723  10.278 -26.599  1.00  0.00     0.041 C 
ATOM     12  O   UNL     1      32.003  10.489 -25.588  1.00  0.00    -0.550 OA
ATOM     13  O   UNL     1      33.806  11.108 -26.860  1.00  0.00    -0.550 OA
ENDBRANCH  10  11
ENDBRANCH   9  10
ENDBRANCH   8   9
ENDBRANCH   1   8
TORSDOF 8
ENDMDL
MODEL 2
REMARK VINA RESULT:    -3.384      3.885      8.696
REMARK INTER + INTRA:          -5.259
REMARK INTER:                  -4.923
REMARK INTRA:                  -0.336
REMARK UNBOUND:                -0.292
REMARK SMILES O=C([O-])CCCCCCCC(=O)[O-]
REMARK SMILES IDX 7 1 6 2 5 3 4 4 2 5 1 6 3 7 8 8 9 9 10 10 11 11 12 12 13 13
REMARK H PARENT
REMARK Flexibility Score: inf
ROOT
ATOM      1  C   UNL     1      32.659   4.080 -32.991  1.00  0.00     0.000 C 
ENDROOT
BRANCH   1   2
ATOM      2  C   UNL     1      34.192   4.099 -32.884  1.00  0.00     0.000 C 
BRANCH   2   3
ATOM      3  C   UNL     1      34.782   5.500 -33.107  1.00  0.00     0.006 C 
BRANCH   3   4
ATOM      4  C   UNL     1      35.482   6.007 -31.843  1.00  0.00     0.053 C 
BRANCH   4   5
ATOM      5  C   UNL     1      34.529   6.790 -30.994  1.00  0.00     0.041 C 
ATOM      6  O   UNL     1      34.109   6.311 -29.908  1.00  0.00    -0.550 OA
ATOM      7  O   UNL     1      34.144   8.068 -31.379  1.00  0.00    -0.550 OA
ENDBRANCH   4   5
ENDBRANCH   3   4
ENDBRANCH   2   3
ENDBRANCH   1   2
BRANCH   1   8
ATOM      8  C   UNL     1      32.124   2.766 -33.589  1.00  0.00     0.000 C 
BRANCH   8   9
ATOM      9  C   UNL     1      33.192   1.663 -33.639  1.00  0.00     0.006 C 
BRANCH   9  10
ATOM     10  C   UNL     1      32.592   0.272 -33.886  1.00  0.00     0.053 C 
BRANCH  10  11
ATOM     11  C   UNL     1      32.838  -0.159 -35.297  1.00  0.00     0.041 C 
ATOM     12  O   UNL     1      33.958   0.044 -35.835  1.00  0.00    -0.550 OA
ATOM     13  O   UNL     1      31.846  -0.830 -36.002  1.00  0.00    -0.550 OA
ENDBRANCH  10  11
ENDBRANCH   9  10
ENDBRANCH   8   9
ENDBRANCH   1   8
TORSDOF 8
ENDMDL
MODEL 3
REMARK VINA RESULT:    -3.373      3.356      4.390
REMARK INTER + INTRA:          -5.242
REMARK INTER:                  -4.527
REMARK INTRA:                  -0.715
REMARK UNBOUND:                -0.292
REMARK SMILES O=C([O-])CCCCCCCC(=O)[O-]
REMARK SMILES IDX 7 1 6 2 5 3 4 4 2 5 1 6 3 7 8 8 9 9 10 10 11 11 12 12 13 13
REMARK H PARENT
REMARK Flexibility Score: inf
ROOT
ATOM      1  C   UNL     1      35.717   5.877 -32.205  1.00  0.00     0.000 C 
ENDROOT
BRANCH   1   2
ATOM      2  C   UNL     1      34.625   5.267 -33.100  1.00  0.00     0.000 C 
BRANCH   2   3
ATOM      3  C   UNL     1      33.856   4.135 -32.403  1.00  0.00     0.006 C 
BRANCH   3   4
ATOM      4  C   UNL     1      32.452   3.982 -32.995  1.00  0.00     0.053 C 
BRANCH   4   5
ATOM      5  C   UNL     1      32.321   2.669 -33.702  1.00  0.00     0.041 C 
ATOM      6  O   UNL     1      31.300   2.424 -34.396  1.00  0.00    -0.550 OA
ATOM      7  O   UNL     1      33.349   1.737 -33.634  1.00  0.00    -0.550 OA
ENDBRANCH   4   5
ENDBRANCH   3   4
ENDBRANCH   2   3
ENDBRANCH   1   2
BRANCH   1   8
ATOM      8  C   UNL     1      35.147   6.496 -30.916  1.00  0.00     0.000 C 
BRANCH   8   9
ATOM      9  C   UNL     1      34.197   7.671 -31.196  1.00  0.00     0.006 C 
BRANCH   9  10
ATOM     10  C   UNL     1      33.086   7.794 -30.143  1.00  0.00     0.053 C 
BRANCH  10  11
ATOM     11  C   UNL     1      32.044   6.742 -30.359  1.00  0.00     0.041 C 
ATOM     12  O   UNL     1      31.226   6.847 -31.311  1.00  0.00    -0.550 OA
ATOM     13  O   UNL     1      32.008   5.621 -29.540  1.00  0.00    -0.550 OA
ENDBRANCH  10  11
ENDBRANCH   9  10
ENDBRANCH   8   9
ENDBRANCH   1   8
TORSDOF 8
ENDMDL
MODEL 4
REMARK VINA RESULT:    -3.345      2.607      6.054
REMARK INTER + INTRA:          -5.201
REMARK INTER:                  -4.550
REMARK INTRA:                  -0.651
REMARK UNBOUND:                -0.292
REMARK SMILES O=C([O-])CCCCCCCC(=O)[O-]
REMARK SMILES IDX 7 1 6 2 5 3 4 4 2 5 1 6 3 7 8 8 9 9 10 10 11 11 12 12 13 13
REMARK H PARENT
REMARK Flexibility Score: inf
ROOT
ATOM      1  C   UNL     1      35.445   5.739 -31.915  1.00  0.00     0.000 C 
ENDROOT
BRANCH   1   2
ATOM      2  C   UNL     1      35.011   7.106 -31.361  1.00  0.00     0.000 C 
BRANCH   2   3
ATOM      3  C   UNL     1      33.950   6.986 -30.258  1.00  0.00     0.006 C 
BRANCH   3   4
ATOM      4  C   UNL     1      32.683   7.762 -30.631  1.00  0.00     0.053 C 
BRANCH   4   5
ATOM      5  C   UNL     1      32.836   9.212 -30.292  1.00  0.00     0.041 C 
ATOM      6  O   UNL     1      32.722   9.598 -29.099  1.00  0.00    -0.550 OA
ATOM      7  O   UNL     1      33.154  10.128 -31.287  1.00  0.00    -0.550 OA
ENDBRANCH   4   5
ENDBRANCH   3   4
ENDBRANCH   2   3
ENDBRANCH   1   2
BRANCH   1   8
ATOM      8  C   UNL     1      34.741   5.387 -33.238  1.00  0.00     0.000 C 
BRANCH   8   9
ATOM      9  C   UNL     1      33.358   4.756 -33.021  1.00  0.00     0.006 C 
BRANCH   9  10
ATOM     10  C   UNL     1      33.428   3.432 -32.246  1.00  0.00     0.053 C 
BRANCH  10  11
ATOM     11  C   UNL     1      32.729   3.560 -30.930  1.00  0.00     0.041 C 
ATOM     12  O   UNL     1      33.337   3.290 -29.861  1.00  0.00    -0.550 OA
ATOM     13  O   UNL     1      31.421   4.026 -30.881  1.00  0.00    -0.550 OA
ENDBRANCH  10  11
ENDBRANCH   9  10
ENDBRANCH   8   9
ENDBRANCH   1   8
TORSDOF 8
ENDMDL
MODEL 5
REMARK VINA RESULT:    -3.331      0.699      6.975
REMARK INTER + INTRA:          -5.181
REMARK INTER:                  -4.874
REMARK INTRA:                  -0.307
REMARK UNBOUND:                -0.292
REMARK SMILES O=C([O-])CCCCCCCC(=O)[O-]
REMARK SMILES IDX 7 1 6 2 5 3 4 4 2 5 1 6 3 7 8 8 9 9 10 10 11 11 12 12 13 13
REMARK H PARENT
REMARK Flexibility Score: inf
ROOT
ATOM      1  C   UNL     1      32.615   8.134 -30.257  1.00  0.00     0.000 C 
ENDROOT
BRANCH   1   2
ATOM      2  C   UNL     1      32.740   9.515 -29.593  1.00  0.00     0.000 C 
BRANCH   2   3
ATOM      3  C   UNL     1      31.769   9.694 -28.417  1.00  0.00     0.006 C 
BRANCH   3   4
ATOM      4  C   UNL     1      32.420   9.261 -27.099  1.00  0.00     0.053 C 
BRANCH   4   5
ATOM      5  C   UNL     1      32.837  10.457 -26.302  1.00  0.00     0.041 C 
ATOM      6  O   UNL     1      33.771  11.195 -26.711  1.00  0.00    -0.550 OA
ATOM      7  O   UNL     1      32.161  10.783 -25.133  1.00  0.00    -0.550 OA
ENDBRANCH   4   5
ENDBRANCH   3   4
ENDBRANCH   2   3
ENDBRANCH   1   2
BRANCH   1   8
ATOM      8  C   UNL     1      33.827   7.793 -31.143  1.00  0.00     0.000 C 
BRANCH   8   9
ATOM      9  C   UNL     1      34.764   6.766 -30.490  1.00  0.00     0.006 C 
BRANCH   9  10
ATOM     10  C   UNL     1      35.682   6.073 -31.508  1.00  0.00     0.053 C 
BRANCH  10  11
ATOM     11  C   UNL     1      34.874   5.258 -32.468  1.00  0.00     0.041 C 
ATOM     12  O   UNL     1      34.151   4.317 -32.047  1.00  0.00    -0.550 OA
ATOM     13  O   UNL     1      34.883   5.569 -33.822  1.00  0.00    -0.550 OA
ENDBRANCH  10  11
ENDBRANCH   9  10
ENDBRANCH   8   9
ENDBRANCH   1   8
TORSDOF 8
ENDMDL
MODEL 6
REMARK VINA RESULT:    -3.298      5.072      7.815
REMARK INTER + INTRA:          -5.133
REMARK INTER:                  -4.732
REMARK INTRA:                  -0.401
REMARK UNBOUND:                -0.292
REMARK SMILES O=C([O-])CCCCCCCC(=O)[O-]
REMARK SMILES IDX 7 1 6 2 5 3 4 4 2 5 1 6 3 7 8 8 9 9 10 10 11 11 12 12 13 13
REMARK H PARENT
REMARK Flexibility Score: inf
ROOT
ATOM      1  C   UNL     1      32.436   1.205 -33.971  1.00  0.00     0.000 C 
ENDROOT
BRANCH   1   2
ATOM      2  C   UNL     1      31.257   1.939 -34.631  1.00  0.00     0.000 C 
BRANCH   2   3
ATOM      3  C   UNL     1      30.790   1.260 -35.926  1.00  0.00     0.006 C 
BRANCH   3   4
ATOM      4  C   UNL     1      31.773   0.167 -36.357  1.00  0.00     0.053 C 
BRANCH   4   5
ATOM      5  C   UNL     1      32.080   0.285 -37.817  1.00  0.00     0.041 C 
ATOM      6  O   UNL     1      33.113  -0.257 -38.292  1.00  0.00    -0.550 OA
ATOM      7  O   UNL     1      31.200   0.950 -38.662  1.00  0.00    -0.550 OA
ENDBRANCH   4   5
ENDBRANCH   3   4
ENDBRANCH   2   3
ENDBRANCH   1   2
BRANCH   1   8
ATOM      8  C   UNL     1      33.482   2.171 -33.386  1.00  0.00     0.000 C 
BRANCH   8   9
ATOM      9  C   UNL     1      32.963   3.614 -33.291  1.00  0.00     0.006 C 
BRANCH   9  10
ATOM     10  C   UNL     1      33.478   4.344 -32.042  1.00  0.00     0.053 C 
BRANCH  10  11
ATOM     11  C   UNL     1      34.670   5.182 -32.381  1.00  0.00     0.041 C 
ATOM     12  O   UNL     1      35.444   5.580 -31.470  1.00  0.00    -0.550 OA
ATOM     13  O   UNL     1      34.954   5.482 -33.707  1.00  0.00    -0.550 OA
ENDBRANCH  10  11
ENDBRANCH   9  10
ENDBRANCH   8   9
ENDBRANCH   1   8
TORSDOF 8
ENDMDL
MODEL 7
REMARK VINA RESULT:    -3.295      2.433      3.272
REMARK INTER + INTRA:          -5.128
REMARK INTER:                  -4.432
REMARK INTRA:                  -0.697
REMARK UNBOUND:                -0.292
REMARK SMILES O=C([O-])CCCCCCCC(=O)[O-]
REMARK SMILES IDX 7 1 6 2 5 3 4 4 2 5 1 6 3 7 8 8 9 9 10 10 11 11 12 12 13 13
REMARK H PARENT
REMARK Flexibility Score: inf
ROOT
ATOM      1  C   UNL     1      34.988   6.469 -30.611  1.00  0.00     0.000 C 
ENDROOT
BRANCH   1   2
ATOM      2  C   UNL     1      35.402   5.393 -31.629  1.00  0.00     0.000 C 
BRANCH   2   3
ATOM      3  C   UNL     1      34.527   5.407 -32.891  1.00  0.00     0.006 C 
BRANCH   3   4
ATOM      4  C   UNL     1      33.775   4.082 -33.050  1.00  0.00     0.053 C 
BRANCH   4   5
ATOM      5  C   UNL     1      32.409   4.178 -32.445  1.00  0.00     0.041 C 
ATOM      6  O   UNL     1      31.601   5.056 -32.845  1.00  0.00    -0.550 OA
ATOM      7  O   UNL     1      32.013   3.267 -31.474  1.00  0.00    -0.550 OA
ENDBRANCH   4   5
ENDBRANCH   3   4
ENDBRANCH   2   3
ENDBRANCH   1   2
BRANCH   1   8
ATOM      8  C   UNL     1      33.937   5.960 -29.608  1.00  0.00     0.000 C 
BRANCH   8   9
ATOM      9  C   UNL     1      32.767   6.940 -29.433  1.00  0.00     0.006 C 
BRANCH   9  10
ATOM     10  C   UNL     1      32.553   7.830 -30.666  1.00  0.00     0.053 C 
BRANCH  10  11
ATOM     11  C   UNL     1      32.753   9.269 -30.311  1.00  0.00     0.041 C 
ATOM     12  O   UNL     1      32.603   9.655 -29.121  1.00  0.00    -0.550 OA
ATOM     13  O   UNL     1      33.154  10.176 -31.284  1.00  0.00    -0.550 OA
ENDBRANCH  10  11
ENDBRANCH   9  10
ENDBRANCH   8   9
ENDBRANCH   1   8
TORSDOF 8
ENDMDL
MODEL 8
REMARK VINA RESULT:    -3.287      3.724      5.697
REMARK INTER + INTRA:          -5.117
REMARK INTER:                  -4.845
REMARK INTRA:                  -0.272
REMARK UNBOUND:                -0.292
REMARK SMILES O=C([O-])CCCCCCCC(=O)[O-]
REMARK SMILES IDX 7 1 6 2 5 3 4 4 2 5 1 6 3 7 8 8 9 9 10 10 11 11 12 12 13 13
REMARK H PARENT
REMARK Flexibility Score: inf
ROOT
ATOM      1  C   UNL     1      33.276   4.216 -32.983  1.00  0.00     0.000 C 
ENDROOT
BRANCH   1   2
ATOM      2  C   UNL     1      33.559   2.734 -33.281  1.00  0.00     0.000 C 
BRANCH   2   3
ATOM      3  C   UNL     1      32.303   1.973 -33.731  1.00  0.00     0.006 C 
BRANCH   3   4
ATOM      4  C   UNL     1      32.552   0.461 -33.733  1.00  0.00     0.053 C 
BRANCH   4   5
ATOM      5  C   UNL     1      32.841  -0.021 -35.119  1.00  0.00     0.041 C 
ATOM      6  O   UNL     1      33.995   0.108 -35.606  1.00  0.00    -0.550 OA
ATOM      7  O   UNL     1      31.850  -0.658 -35.855  1.00  0.00    -0.550 OA
ENDBRANCH   4   5
ENDBRANCH   3   4
ENDBRANCH   2   3
ENDBRANCH   1   2
BRANCH   1   8
ATOM      8  C   UNL     1      34.562   5.055 -32.882  1.00  0.00     0.000 C 
BRANCH   8   9
ATOM      9  C   UNL     1      34.966   5.343 -31.428  1.00  0.00     0.006 C 
BRANCH   9  10
ATOM     10  C   UNL     1      35.201   6.838 -31.166  1.00  0.00     0.053 C 
BRANCH  10  11
ATOM     11  C   UNL     1      33.898   7.539 -30.944  1.00  0.00     0.041 C 
ATOM     12  O   UNL     1      33.763   8.745 -31.281  1.00  0.00    -0.550 OA
ATOM     13  O   UNL     1      32.819   6.847 -30.410  1.00  0.00    -0.550 OA
ENDBRANCH  10  11
ENDBRANCH   9  10
ENDBRANCH   8   9
ENDBRANCH   1   8
TORSDOF 8
ENDMDL
