MODEL 1
REMARK VINA RESULT:    -2.512      0.000      0.000
REMARK INTER + INTRA:          -5.336
REMARK INTER:                  -4.714
REMARK INTRA:                  -0.622
REMARK UNBOUND:                -0.622
REMARK SMILES O=C([O-])CCCCCCCCCCCCCCC(=O)[O-]
REMARK SMILES IDX 10 1 9 2 8 3 7 4 6 5 5 6 4 7 2 8 1 9 3 10 11 11 12 12 13 13
REMARK SMILES IDX 14 14 15 15 16 16 17 17 18 18 19 19 20 20
REMARK H PARENT
REMARK Flexibility Score: inf
ROOT
ATOM      1  C   UNL     1      45.452  13.359 -32.561  1.00  0.00     0.000 C 
ENDROOT
BRANCH   1   2
ATOM      2  C   UNL     1      45.002  13.325 -34.033  1.00  0.00     0.000 C 
BRANCH   2   3
ATOM      3  C   UNL     1      44.105  12.117 -34.347  1.00  0.00     0.000 C 
BRANCH   3   4
ATOM      4  C   UNL     1      43.283  12.313 -35.633  1.00  0.00     0.000 C 
BRANCH   4   5
ATOM      5  C   UNL     1      41.786  12.030 -35.425  1.00  0.00     0.000 C 
BRANCH   5   6
ATOM      6  C   UNL     1      40.907  12.678 -36.504  1.00  0.00     0.006 C 
BRANCH   6   7
ATOM      7  C   UNL     1      39.438  12.709 -36.069  1.00  0.00     0.053 C 
BRANCH   7   8
ATOM      8  C   UNL     1      39.060  14.078 -35.596  1.00  0.00     0.041 C 
ATOM      9  O   UNL     1      39.948  14.950 -35.407  1.00  0.00    -0.550 OA
ATOM     10  O   UNL     1      37.723  14.403 -35.411  1.00  0.00    -0.550 OA
ENDBRANCH   7   8
ENDBRANCH   6   7
ENDBRANCH   5   6
ENDBRANCH   4   5
ENDBRANCH   3   4
ENDBRANCH   2   3
ENDBRANCH   1   2
BRANCH   1  11
ATOM     11  C   UNL     1      46.452  12.242 -32.225  1.00  0.00     0.000 C 
BRANCH  11  12
ATOM     12  C   UNL     1      46.451  11.879 -30.730  1.00  0.00     0.000 C 
BRANCH  12  13
ATOM     13  C   UNL     1      45.605  12.844 -29.885  1.00  0.00     0.000 C 
BRANCH  13  14
ATOM     14  C   UNL     1      45.394  12.339 -28.447  1.00  0.00     0.000 C 
BRANCH  14  15
ATOM     15  C   UNL     1      46.712  11.953 -27.758  1.00  0.00     0.000 C 
BRANCH  15  16
ATOM     16  C   UNL     1      46.582  11.877 -26.227  1.00  0.00     0.006 C 
BRANCH  16  17
ATOM     17  C   UNL     1      45.122  11.970 -25.765  1.00  0.00     0.053 C 
BRANCH  17  18
ATOM     18  C   UNL     1      45.005  12.607 -24.414  1.00  0.00     0.041 C 
ATOM     19  O   UNL     1      43.928  13.156 -24.064  1.00  0.00    -0.550 OA
ATOM     20  O   UNL     1      46.098  12.626 -23.557  1.00  0.00    -0.550 OA
ENDBRANCH  17  18
ENDBRANCH  16  17
ENDBRANCH  15  16
ENDBRANCH  14  15
ENDBRANCH  13  14
ENDBRANCH  12  13
ENDBRANCH  11  12
ENDBRANCH   1  11
TORSDOF 15
ENDMDL
MODEL 2
REMARK VINA RESULT:    -2.257      4.042      8.521
REMARK INTER + INTRA:          -4.859
REMARK INTER:                  -5.232
REMARK INTRA:                   0.374
REMARK UNBOUND:                -0.622
REMARK SMILES O=C([O-])CCCCCCCCCCCCCCC(=O)[O-]
REMARK SMILES IDX 10 1 9 2 8 3 7 4 6 5 5 6 4 7 2 8 1 9 3 10 11 11 12 12 13 13
REMARK SMILES IDX 14 14 15 15 16 16 17 17 18 18 19 19 20 20
REMARK H PARENT
REMARK Flexibility Score: inf
ROOT
ATOM      1  C   UNL     1      40.142  14.393 -36.161  1.00  0.00     0.000 C 
ENDROOT
BRANCH   1   2
ATOM      2  C   UNL     1      41.671  14.238 -36.084  1.00  0.00     0.000 C 
BRANCH   2   3
ATOM      3  C   UNL     1      42.097  12.901 -35.457  1.00  0.00     0.000 C 
BRANCH   3   4
ATOM      4  C   UNL     1      43.348  12.307 -36.129  1.00  0.00     0.000 C 
BRANCH   4   5
ATOM      5  C   UNL     1      44.425  11.898 -35.112  1.00  0.00     0.000 C 
BRANCH   5   6
ATOM      6  C   UNL     1      44.236  12.574 -33.746  1.00  0.00     0.006 C 
BRANCH   6   7
ATOM      7  C   UNL     1      45.535  13.236 -33.277  1.00  0.00     0.053 C 
BRANCH   7   8
ATOM      8  C   UNL     1      45.866  12.811 -31.881  1.00  0.00     0.041 C 
ATOM      9  O   UNL     1      46.696  11.885 -31.681  1.00  0.00    -0.550 OA
ATOM     10  O   UNL     1      45.296  13.471 -30.800  1.00  0.00    -0.550 OA
ENDBRANCH   7   8
ENDBRANCH   6   7
ENDBRANCH   5   6
ENDBRANCH   4   5
ENDBRANCH   3   4
ENDBRANCH   2   3
ENDBRANCH   1   2
BRANCH   1  11
ATOM     11  C   UNL     1      39.420  13.046 -36.319  1.00  0.00     0.000 C 
BRANCH  11  12
ATOM     12  C   UNL     1      38.286  13.101 -37.357  1.00  0.00     0.000 C 
BRANCH  12  13
ATOM     13  C   UNL     1      36.892  13.166 -36.712  1.00  0.00     0.000 C 
BRANCH  13  14
ATOM     14  C   UNL     1      36.894  12.669 -35.255  1.00  0.00     0.000 C 
BRANCH  14  15
ATOM     15  C   UNL     1      37.704  13.583 -34.322  1.00  0.00     0.000 C 
BRANCH  15  16
ATOM     16  C   UNL     1      36.876  14.104 -33.134  1.00  0.00     0.006 C 
BRANCH  16  17
ATOM     17  C   UNL     1      36.903  13.137 -31.943  1.00  0.00     0.053 C 
BRANCH  17  18
ATOM     18  C   UNL     1      37.183  13.850 -30.655  1.00  0.00     0.041 C 
ATOM     19  O   UNL     1      37.479  15.074 -30.660  1.00  0.00    -0.550 OA
ATOM     20  O   UNL     1      37.151  13.154 -29.453  1.00  0.00    -0.550 OA
ENDBRANCH  17  18
ENDBRANCH  16  17
ENDBRANCH  15  16
ENDBRANCH  14  15
ENDBRANCH  13  14
ENDBRANCH  12  13
ENDBRANCH  11  12
ENDBRANCH   1  11
TORSDOF 15
ENDMDL
MODEL 3
REMARK VINA RESULT:    -1.585      4.364     10.663
REMARK INTER + INTRA:          -3.598
REMARK INTER:                  -2.948
REMARK INTRA:                  -0.650
REMARK UNBOUND:                -0.622
REMARK SMILES O=C([O-])CCCCCCCCCCCCCCC(=O)[O-]
REMARK SMILES IDX 10 1 9 2 8 3 7 4 6 5 5 6 4 7 2 8 1 9 3 10 11 11 12 12 13 13
REMARK SMILES IDX 14 14 15 15 16 16 17 17 18 18 19 19 20 20
REMARK H PARENT
REMARK Flexibility Score: inf
ROOT
ATOM      1  C   UNL     1      44.703  13.399 -24.632  1.00  0.00     0.000 C 
ENDROOT
BRANCH   1   2
ATOM      2  C   UNL     1      45.794  13.664 -23.577  1.00  0.00     0.000 C 
BRANCH   2   3
ATOM      3  C   UNL     1      45.904  15.151 -23.205  1.00  0.00     0.000 C 
BRANCH   3   4
ATOM      4  C   UNL     1      47.230  15.484 -22.499  1.00  0.00     0.000 C 
BRANCH   4   5
ATOM      5  C   UNL     1      47.289  16.941 -22.012  1.00  0.00     0.000 C 
BRANCH   5   6
ATOM      6  C   UNL     1      46.412  17.880 -22.852  1.00  0.00     0.006 C 
BRANCH   6   7
ATOM      7  C   UNL     1      47.203  19.113 -23.301  1.00  0.00     0.053 C 
BRANCH   7   8
ATOM      8  C   UNL     1      46.873  19.461 -24.719  1.00  0.00     0.041 C 
ATOM      9  O   UNL     1      45.790  19.073 -25.231  1.00  0.00    -0.550 OA
ATOM     10  O   UNL     1      47.741  20.254 -25.458  1.00  0.00    -0.550 OA
ENDBRANCH   7   8
ENDBRANCH   6   7
ENDBRANCH   5   6
ENDBRANCH   4   5
ENDBRANCH   3   4
ENDBRANCH   2   3
ENDBRANCH   1   2
BRANCH   1  11
ATOM     11  C   UNL     1      44.757  11.968 -25.187  1.00  0.00     0.000 C 
BRANCH  11  12
ATOM     12  C   UNL     1      45.160  11.926 -26.672  1.00  0.00     0.000 C 
BRANCH  12  13
ATOM     13  C   UNL     1      46.684  11.911 -26.875  1.00  0.00     0.000 C 
BRANCH  13  14
ATOM     14  C   UNL     1      47.080  11.880 -28.361  1.00  0.00     0.000 C 
BRANCH  14  15
ATOM     15  C   UNL     1      45.870  12.024 -29.297  1.00  0.00     0.000 C 
BRANCH  15  16
ATOM     16  C   UNL     1      46.272  12.094 -30.781  1.00  0.00     0.006 C 
BRANCH  16  17
ATOM     17  C   UNL     1      45.055  12.252 -31.702  1.00  0.00     0.053 C 
BRANCH  17  18
ATOM     18  C   UNL     1      45.456  12.657 -33.088  1.00  0.00     0.041 C 
ATOM     19  O   UNL     1      46.650  12.970 -33.336  1.00  0.00    -0.550 OA
ATOM     20  O   UNL     1      44.504  12.722 -34.097  1.00  0.00    -0.550 OA
ENDBRANCH  17  18
ENDBRANCH  16  17
ENDBRANCH  15  16
ENDBRANCH  14  15
ENDBRANCH  13  14
ENDBRANCH  12  13
ENDBRANCH  11  12
ENDBRANCH   1  11
TORSDOF 15
ENDMDL
MODEL 4
REMARK VINA RESULT:    -0.869      3.039      4.911
REMARK INTER + INTRA:          -2.254
REMARK INTER:                  -1.790
REMARK INTRA:                  -0.464
REMARK UNBOUND:                -0.622
REMARK SMILES O=C([O-])CCCCCCCCCCCCCCC(=O)[O-]
REMARK SMILES IDX 10 1 9 2 8 3 7 4 6 5 5 6 4 7 2 8 1 9 3 10 11 11 12 12 13 13
REMARK SMILES IDX 14 14 15 15 16 16 17 17 18 18 19 19 20 20
REMARK H PARENT
REMARK Flexibility Score: inf
ROOT
ATOM      1  C   UNL     1      45.878  12.729 -28.427  1.00  0.00     0.000 C 
ENDROOT
BRANCH   1   2
ATOM      2  C   UNL     1      46.391  11.876 -29.602  1.00  0.00     0.000 C 
BRANCH   2   3
ATOM      3  C   UNL     1      46.341  12.627 -30.942  1.00  0.00     0.000 C 
BRANCH   3   4
ATOM      4  C   UNL     1      45.099  12.264 -31.774  1.00  0.00     0.000 C 
BRANCH   4   5
ATOM      5  C   UNL     1      44.980  13.105 -33.055  1.00  0.00     0.000 C 
BRANCH   5   6
ATOM      6  C   UNL     1      44.560  12.271 -34.273  1.00  0.00     0.006 C 
BRANCH   6   7
ATOM      7  C   UNL     1      43.035  12.243 -34.419  1.00  0.00     0.053 C 
BRANCH   7   8
ATOM      8  C   UNL     1      42.646  12.260 -35.864  1.00  0.00     0.041 C 
ATOM      9  O   UNL     1      41.439  12.407 -36.194  1.00  0.00    -0.550 OA
ATOM     10  O   UNL     1      43.623  12.164 -36.847  1.00  0.00    -0.550 OA
ENDBRANCH   7   8
ENDBRANCH   6   7
ENDBRANCH   5   6
ENDBRANCH   4   5
ENDBRANCH   3   4
ENDBRANCH   2   3
ENDBRANCH   1   2
BRANCH   1  11
ATOM     11  C   UNL     1      45.299  11.876 -27.289  1.00  0.00     0.000 C 
BRANCH  11  12
ATOM     12  C   UNL     1      46.104  12.008 -25.984  1.00  0.00     0.000 C 
BRANCH  12  13
ATOM     13  C   UNL     1      45.208  12.055 -24.735  1.00  0.00     0.000 C 
BRANCH  13  14
ATOM     14  C   UNL     1      45.727  13.043 -23.675  1.00  0.00     0.000 C 
BRANCH  14  15
ATOM     15  C   UNL     1      45.215  14.474 -23.903  1.00  0.00     0.000 C 
BRANCH  15  16
ATOM     16  C   UNL     1      46.244  15.544 -23.498  1.00  0.00     0.006 C 
BRANCH  16  17
ATOM     17  C   UNL     1      45.576  16.861 -23.083  1.00  0.00     0.053 C 
BRANCH  17  18
ATOM     18  C   UNL     1      46.582  17.950 -22.866  1.00  0.00     0.041 C 
ATOM     19  O   UNL     1      47.067  18.146 -21.721  1.00  0.00    -0.550 OA
ATOM     20  O   UNL     1      46.955  18.773 -23.921  1.00  0.00    -0.550 OA
ENDBRANCH  17  18
ENDBRANCH  16  17
ENDBRANCH  15  16
ENDBRANCH  14  15
ENDBRANCH  13  14
ENDBRANCH  12  13
ENDBRANCH  11  12
ENDBRANCH   1  11
TORSDOF 15
ENDMDL
MODEL 5
REMARK VINA RESULT:     0.450     11.183     12.418
REMARK INTER + INTRA:           0.223
REMARK INTER:                   0.846
REMARK INTRA:                  -0.623
REMARK UNBOUND:                -0.622
REMARK SMILES O=C([O-])CCCCCCCCCCCCCCC(=O)[O-]
REMARK SMILES IDX 10 1 9 2 8 3 7 4 6 5 5 6 4 7 2 8 1 9 3 10 11 11 12 12 13 13
REMARK SMILES IDX 14 14 15 15 16 16 17 17 18 18 19 19 20 20
REMARK H PARENT
REMARK Flexibility Score: inf
ROOT
ATOM      1  C   UNL     1      47.662  19.523 -24.011  1.00  0.00     0.000 C 
ENDROOT
BRANCH   1   2
ATOM      2  C   UNL     1      47.613  20.535 -25.171  1.00  0.00     0.000 C 
BRANCH   2   3
ATOM      3  C   UNL     1      46.228  20.606 -25.832  1.00  0.00     0.000 C 
BRANCH   3   4
ATOM      4  C   UNL     1      45.885  22.021 -26.330  1.00  0.00     0.000 C 
BRANCH   4   5
ATOM      5  C   UNL     1      45.965  23.074 -25.212  1.00  0.00     0.000 C 
BRANCH   5   6
ATOM      6  C   UNL     1      44.967  24.224 -25.412  1.00  0.00     0.006 C 
BRANCH   6   7
ATOM      7  C   UNL     1      44.748  24.992 -24.104  1.00  0.00     0.053 C 
BRANCH   7   8
ATOM      8  C   UNL     1      43.728  26.071 -24.294  1.00  0.00     0.041 C 
ATOM      9  O   UNL     1      43.259  26.682 -23.298  1.00  0.00    -0.550 OA
ATOM     10  O   UNL     1      43.333  26.434 -25.576  1.00  0.00    -0.550 OA
ENDBRANCH   7   8
ENDBRANCH   6   7
ENDBRANCH   5   6
ENDBRANCH   4   5
ENDBRANCH   3   4
ENDBRANCH   2   3
ENDBRANCH   1   2
BRANCH   1  11
ATOM     11  C   UNL     1      46.444  18.587 -23.995  1.00  0.00     0.000 C 
BRANCH  11  12
ATOM     12  C   UNL     1      46.152  18.023 -22.593  1.00  0.00     0.000 C 
BRANCH  12  13
ATOM     13  C   UNL     1      47.427  17.812 -21.760  1.00  0.00     0.000 C 
BRANCH  13  14
ATOM     14  C   UNL     1      48.127  16.480 -22.081  1.00  0.00     0.000 C 
BRANCH  14  15
ATOM     15  C   UNL     1      48.814  15.865 -20.851  1.00  0.00     0.000 C 
BRANCH  15  16
ATOM     16  C   UNL     1      50.271  15.454 -21.128  1.00  0.00     0.006 C 
BRANCH  16  17
ATOM     17  C   UNL     1      50.713  14.269 -20.260  1.00  0.00     0.053 C 
BRANCH  17  18
ATOM     18  C   UNL     1      52.178  14.321 -19.952  1.00  0.00     0.041 C 
ATOM     19  O   UNL     1      52.728  15.418 -19.671  1.00  0.00    -0.550 OA
ATOM     20  O   UNL     1      52.943  13.163 -20.013  1.00  0.00    -0.550 OA
ENDBRANCH  17  18
ENDBRANCH  16  17
ENDBRANCH  15  16
ENDBRANCH  14  15
ENDBRANCH  13  14
ENDBRANCH  12  13
ENDBRANCH  11  12
ENDBRANCH   1  11
TORSDOF 15
ENDMDL
MODEL 6
REMARK VINA RESULT:     0.480      3.169      9.274
REMARK INTER + INTRA:           0.278
REMARK INTER:                   0.981
REMARK INTRA:                  -0.703
REMARK UNBOUND:                -0.622
REMARK SMILES O=C([O-])CCCCCCCCCCCCCCC(=O)[O-]
REMARK SMILES IDX 10 1 9 2 8 3 7 4 6 5 5 6 4 7 2 8 1 9 3 10 11 11 12 12 13 13
REMARK SMILES IDX 14 14 15 15 16 16 17 17 18 18 19 19 20 20
REMARK H PARENT
REMARK Flexibility Score: inf
ROOT
ATOM      1  C   UNL     1      41.360  13.729 -36.689  1.00  0.00     0.000 C 
ENDROOT
BRANCH   1   2
ATOM      2  C   UNL     1      42.791  13.708 -36.123  1.00  0.00     0.000 C 
BRANCH   2   3
ATOM      3  C   UNL     1      43.024  12.541 -35.151  1.00  0.00     0.000 C 
BRANCH   3   4
ATOM      4  C   UNL     1      44.404  11.886 -35.337  1.00  0.00     0.000 C 
BRANCH   4   5
ATOM      5  C   UNL     1      45.495  12.561 -34.491  1.00  0.00     0.000 C 
BRANCH   5   6
ATOM      6  C   UNL     1      45.369  12.237 -32.996  1.00  0.00     0.006 C 
BRANCH   6   7
ATOM      7  C   UNL     1      45.587  13.491 -32.143  1.00  0.00     0.053 C 
BRANCH   7   8
ATOM      8  C   UNL     1      45.803  13.120 -30.709  1.00  0.00     0.041 C 
ATOM      9  O   UNL     1      45.010  13.533 -29.822  1.00  0.00    -0.550 OA
ATOM     10  O   UNL     1      46.850  12.278 -30.360  1.00  0.00    -0.550 OA
ENDBRANCH   7   8
ENDBRANCH   6   7
ENDBRANCH   5   6
ENDBRANCH   4   5
ENDBRANCH   3   4
ENDBRANCH   2   3
ENDBRANCH   1   2
BRANCH   1  11
ATOM     11  C   UNL     1      40.455  12.671 -36.040  1.00  0.00     0.000 C 
BRANCH  11  12
ATOM     12  C   UNL     1      39.640  11.876 -37.076  1.00  0.00     0.000 C 
BRANCH  12  13
ATOM     13  C   UNL     1      38.128  11.921 -36.803  1.00  0.00     0.000 C 
BRANCH  13  14
ATOM     14  C   UNL     1      37.472  13.208 -37.332  1.00  0.00     0.000 C 
BRANCH  14  15
ATOM     15  C   UNL     1      36.907  14.088 -36.205  1.00  0.00     0.000 C 
BRANCH  15  16
ATOM     16  C   UNL     1      36.875  13.365 -34.847  1.00  0.00     0.006 C 
BRANCH  16  17
ATOM     17  C   UNL     1      37.949  13.891 -33.886  1.00  0.00     0.053 C 
BRANCH  17  18
ATOM     18  C   UNL     1      38.391  15.275 -34.251  1.00  0.00     0.041 C 
ATOM     19  O   UNL     1      39.454  15.450 -34.903  1.00  0.00    -0.550 OA
ATOM     20  O   UNL     1      37.649  16.375 -33.839  1.00  0.00    -0.550 OA
ENDBRANCH  17  18
ENDBRANCH  16  17
ENDBRANCH  15  16
ENDBRANCH  14  15
ENDBRANCH  13  14
ENDBRANCH  12  13
ENDBRANCH  11  12
ENDBRANCH   1  11
TORSDOF 15
ENDMDL
