MODEL 1
REMARK VINA RESULT:    -5.113      0.000      0.000
REMARK INTER + INTRA:          -5.665
REMARK INTER:                  -5.561
REMARK INTRA:                  -0.103
REMARK UNBOUND:                -0.103
REMARK SMILES Cc1ccc(C(C)C)cc1O
REMARK SMILES IDX 1 1 2 2 10 3 9 4 5 5 4 6 3 7 11 8 6 10 7 11 8 12
REMARK H PARENT 11 9
REMARK Flexibility Score: inf
ROOT
ATOM      1  C   UNL     1      -2.118   0.106   3.966  1.00  0.00     0.048 C 
ATOM      2  C   UNL     1      -1.514  -0.057   2.598  1.00  0.00    -0.009 A 
ATOM      3  C   UNL     1      -2.153  -0.833   1.604  1.00  0.00     0.118 A 
ATOM      4  C   UNL     1      -1.565  -0.965   0.341  1.00  0.00     0.050 A 
ATOM      5  C   UNL     1      -0.342  -0.337   0.043  1.00  0.00    -0.042 A 
ATOM      6  C   UNL     1       0.285   0.431   1.037  1.00  0.00     0.004 A 
ATOM      7  C   UNL     1      -0.294   0.569   2.299  1.00  0.00     0.007 A 
ENDROOT
BRANCH   3   8
ATOM      8  O   UNL     1      -3.367  -1.480   1.840  1.00  0.00    -0.508 OA
ATOM      9  H   UNL     1      -4.251  -0.990   1.901  1.00  0.00     0.293 HD
ENDBRANCH   3   8
BRANCH   5  10
ATOM     10  C   UNL     1       0.299  -0.478  -1.324  1.00  0.00     0.013 C 
ATOM     11  C   UNL     1       0.035  -1.866  -1.919  1.00  0.00     0.012 C 
ATOM     12  C   UNL     1      -0.176   0.628  -2.275  1.00  0.00     0.012 C 
ENDBRANCH   5  10
TORSDOF 2
ENDMDL
MODEL 2
REMARK VINA RESULT:    -4.976      1.630      2.185
REMARK INTER + INTRA:          -5.515
REMARK INTER:                  -5.388
REMARK INTRA:                  -0.128
REMARK UNBOUND:                -0.103
REMARK SMILES Cc1ccc(C(C)C)cc1O
REMARK SMILES IDX 1 1 2 2 10 3 9 4 5 5 4 6 3 7 11 8 6 10 7 11 8 12
REMARK H PARENT 11 9
REMARK Flexibility Score: inf
ROOT
ATOM      1  C   UNL     1      -1.953  -1.568   3.825  1.00  0.00     0.048 C 
ATOM      2  C   UNL     1      -1.429  -1.425   2.422  1.00  0.00    -0.009 A 
ATOM      3  C   UNL     1      -0.456  -0.452   2.101  1.00  0.00     0.118 A 
ATOM      4  C   UNL     1       0.010  -0.344   0.785  1.00  0.00     0.050 A 
ATOM      5  C   UNL     1      -0.476  -1.191  -0.227  1.00  0.00    -0.042 A 
ATOM      6  C   UNL     1      -1.443  -2.155   0.103  1.00  0.00     0.004 A 
ATOM      7  C   UNL     1      -1.913  -2.269   1.411  1.00  0.00     0.007 A 
ENDROOT
BRANCH   3   8
ATOM      8  O   UNL     1       0.066   0.417   3.060  1.00  0.00    -0.508 OA
ATOM      9  H   UNL     1       0.175   1.411   2.904  1.00  0.00     0.293 HD
ENDBRANCH   3   8
BRANCH   5  10
ATOM     10  C   UNL     1       0.027  -1.078  -1.654  1.00  0.00     0.013 C 
ATOM     11  C   UNL     1      -0.748  -2.012  -2.589  1.00  0.00     0.012 C 
ATOM     12  C   UNL     1      -0.036   0.373  -2.148  1.00  0.00     0.012 C 
ENDBRANCH   5  10
TORSDOF 2
ENDMDL
MODEL 3
REMARK VINA RESULT:    -4.859      2.187      4.764
REMARK INTER + INTRA:          -5.388
REMARK INTER:                  -5.260
REMARK INTRA:                  -0.128
REMARK UNBOUND:                -0.103
REMARK SMILES Cc1ccc(C(C)C)cc1O
REMARK SMILES IDX 1 1 2 2 10 3 9 4 5 5 4 6 3 7 11 8 6 10 7 11 8 12
REMARK H PARENT 11 9
REMARK Flexibility Score: inf
ROOT
ATOM      1  C   UNL     1       0.396   0.261  -1.860  1.00  0.00     0.048 C 
ATOM      2  C   UNL     1       0.057  -0.008  -0.419  1.00  0.00    -0.009 A 
ATOM      3  C   UNL     1       0.907   0.421   0.625  1.00  0.00     0.118 A 
ATOM      4  C   UNL     1       0.563   0.154   1.955  1.00  0.00     0.050 A 
ATOM      5  C   UNL     1      -0.620  -0.538   2.272  1.00  0.00    -0.042 A 
ATOM      6  C   UNL     1      -1.458  -0.960   1.227  1.00  0.00     0.004 A 
ATOM      7  C   UNL     1      -1.123  -0.699  -0.102  1.00  0.00     0.007 A 
ENDROOT
BRANCH   3   8
ATOM      8  O   UNL     1       2.094   1.112   0.374  1.00  0.00    -0.508 OA
ATOM      9  H   UNL     1       2.590   1.055  -0.506  1.00  0.00     0.293 HD
ENDBRANCH   3   8
BRANCH   5  10
ATOM     10  C   UNL     1      -0.996  -0.829   3.712  1.00  0.00     0.013 C 
ATOM     11  C   UNL     1      -2.250  -0.049   4.125  1.00  0.00     0.012 C 
ATOM     12  C   UNL     1      -1.183  -2.335   3.940  1.00  0.00     0.012 C 
ENDBRANCH   5  10
TORSDOF 2
ENDMDL
MODEL 4
REMARK VINA RESULT:    -4.824      1.540      4.146
REMARK INTER + INTRA:          -5.350
REMARK INTER:                  -5.235
REMARK INTRA:                  -0.115
REMARK UNBOUND:                -0.103
REMARK SMILES Cc1ccc(C(C)C)cc1O
REMARK SMILES IDX 1 1 2 2 10 3 9 4 5 5 4 6 3 7 11 8 6 10 7 11 8 12
REMARK H PARENT 11 9
REMARK Flexibility Score: inf
ROOT
ATOM      1  C   UNL     1      -0.687  -2.538  -3.270  1.00  0.00     0.048 C 
ATOM      2  C   UNL     1      -0.490  -1.648  -2.074  1.00  0.00    -0.009 A 
ATOM      3  C   UNL     1      -0.893  -2.059  -0.783  1.00  0.00     0.118 A 
ATOM      4  C   UNL     1      -0.696  -1.206   0.310  1.00  0.00     0.050 A 
ATOM      5  C   UNL     1      -0.102   0.057   0.144  1.00  0.00    -0.042 A 
ATOM      6  C   UNL     1       0.295   0.456  -1.143  1.00  0.00     0.004 A 
ATOM      7  C   UNL     1       0.102  -0.387  -2.238  1.00  0.00     0.007 A 
ENDROOT
BRANCH   3   8
ATOM      8  O   UNL     1      -1.488  -3.300  -0.555  1.00  0.00    -0.508 OA
ATOM      9  H   UNL     1      -2.230  -3.672  -1.134  1.00  0.00     0.293 HD
ENDBRANCH   3   8
BRANCH   5  10
ATOM     10  C   UNL     1       0.113   0.984   1.326  1.00  0.00     0.013 C 
ATOM     11  C   UNL     1      -0.556   0.433   2.590  1.00  0.00     0.012 C 
ATOM     12  C   UNL     1       1.607   1.243   1.560  1.00  0.00     0.012 C 
ENDBRANCH   5  10
TORSDOF 2
ENDMDL
MODEL 5
REMARK VINA RESULT:    -4.816      1.802      4.495
REMARK INTER + INTRA:          -5.342
REMARK INTER:                  -5.214
REMARK INTRA:                  -0.128
REMARK UNBOUND:                -0.103
REMARK SMILES Cc1ccc(C(C)C)cc1O
REMARK SMILES IDX 1 1 2 2 10 3 9 4 5 5 4 6 3 7 11 8 6 10 7 11 8 12
REMARK H PARENT 11 9
REMARK Flexibility Score: inf
ROOT
ATOM      1  C   UNL     1       0.573  -1.347  -3.400  1.00  0.00     0.048 C 
ATOM      2  C   UNL     1       0.004  -1.311  -2.008  1.00  0.00    -0.009 A 
ATOM      3  C   UNL     1      -0.766  -2.384  -1.505  1.00  0.00     0.118 A 
ATOM      4  C   UNL     1      -1.282  -2.319  -0.205  1.00  0.00     0.050 A 
ATOM      5  C   UNL     1      -1.045  -1.199   0.612  1.00  0.00    -0.042 A 
ATOM      6  C   UNL     1      -0.278  -0.139   0.103  1.00  0.00     0.004 A 
ATOM      7  C   UNL     1       0.240  -0.194  -1.192  1.00  0.00     0.007 A 
ENDROOT
BRANCH   3   8
ATOM      8  O   UNL     1      -1.035  -3.522  -2.267  1.00  0.00    -0.508 OA
ATOM      9  H   UNL     1      -1.110  -3.505  -3.277  1.00  0.00     0.293 HD
ENDBRANCH   3   8
BRANCH   5  10
ATOM     10  C   UNL     1      -1.602  -1.125   2.021  1.00  0.00     0.013 C 
ATOM     11  C   UNL     1      -1.481   0.293   2.590  1.00  0.00     0.012 C 
ATOM     12  C   UNL     1      -3.055  -1.616   2.068  1.00  0.00     0.012 C 
ENDBRANCH   5  10
TORSDOF 2
ENDMDL
MODEL 6
REMARK VINA RESULT:    -4.769      8.879      9.845
REMARK INTER + INTRA:          -5.290
REMARK INTER:                  -5.162
REMARK INTRA:                  -0.128
REMARK UNBOUND:                -0.103
REMARK SMILES Cc1ccc(C(C)C)cc1O
REMARK SMILES IDX 1 1 2 2 10 3 9 4 5 5 4 6 3 7 11 8 6 10 7 11 8 12
REMARK H PARENT 11 9
REMARK Flexibility Score: inf
ROOT
ATOM      1  C   UNL     1      -4.058   4.890  -5.301  1.00  0.00     0.048 C 
ATOM      2  C   UNL     1      -5.217   3.943  -5.445  1.00  0.00    -0.009 A 
ATOM      3  C   UNL     1      -5.170   2.860  -6.352  1.00  0.00     0.118 A 
ATOM      4  C   UNL     1      -6.266   1.998  -6.462  1.00  0.00     0.050 A 
ATOM      5  C   UNL     1      -7.420   2.190  -5.682  1.00  0.00    -0.042 A 
ATOM      6  C   UNL     1      -7.458   3.269  -4.783  1.00  0.00     0.004 A 
ATOM      7  C   UNL     1      -6.370   4.134  -4.667  1.00  0.00     0.007 A 
ENDROOT
BRANCH   3   8
ATOM      8  O   UNL     1      -4.053   2.617  -7.153  1.00  0.00    -0.508 OA
ATOM      9  H   UNL     1      -3.133   2.982  -6.943  1.00  0.00     0.293 HD
ENDBRANCH   3   8
BRANCH   5  10
ATOM     10  C   UNL     1      -8.611   1.258  -5.799  1.00  0.00     0.013 C 
ATOM     11  C   UNL     1      -8.992   0.674  -4.434  1.00  0.00     0.012 C 
ATOM     12  C   UNL     1      -9.806   1.966  -6.449  1.00  0.00     0.012 C 
ENDBRANCH   5  10
TORSDOF 2
ENDMDL
MODEL 7
REMARK VINA RESULT:    -4.740      2.299      4.859
REMARK INTER + INTRA:          -5.259
REMARK INTER:                  -5.160
REMARK INTRA:                  -0.099
REMARK UNBOUND:                -0.103
REMARK SMILES Cc1ccc(C(C)C)cc1O
REMARK SMILES IDX 1 1 2 2 10 3 9 4 5 5 4 6 3 7 11 8 6 10 7 11 8 12
REMARK H PARENT 11 9
REMARK Flexibility Score: inf
ROOT
ATOM      1  C   UNL     1       0.645  -1.269  -3.391  1.00  0.00     0.048 C 
ATOM      2  C   UNL     1      -0.035  -1.621  -2.097  1.00  0.00    -0.009 A 
ATOM      3  C   UNL     1      -0.004  -0.741  -0.992  1.00  0.00     0.118 A 
ATOM      4  C   UNL     1      -0.647  -1.099   0.199  1.00  0.00     0.050 A 
ATOM      5  C   UNL     1      -1.327  -2.325   0.314  1.00  0.00    -0.042 A 
ATOM      6  C   UNL     1      -1.352  -3.193  -0.789  1.00  0.00     0.004 A 
ATOM      7  C   UNL     1      -0.714  -2.844  -1.980  1.00  0.00     0.007 A 
ENDROOT
BRANCH   3   8
ATOM      8  O   UNL     1       0.653   0.489  -1.044  1.00  0.00    -0.508 OA
ATOM      9  H   UNL     1       0.397   1.277  -0.463  1.00  0.00     0.293 HD
ENDBRANCH   3   8
BRANCH   5  10
ATOM     10  C   UNL     1      -2.025  -2.717   1.603  1.00  0.00     0.013 C 
ATOM     11  C   UNL     1      -1.012  -3.124   2.679  1.00  0.00     0.012 C 
ATOM     12  C   UNL     1      -2.936  -1.589   2.103  1.00  0.00     0.012 C 
ENDBRANCH   5  10
TORSDOF 2
ENDMDL
MODEL 8
REMARK VINA RESULT:    -4.738      1.179      2.048
REMARK INTER + INTRA:          -5.257
REMARK INTER:                  -5.130
REMARK INTRA:                  -0.128
REMARK UNBOUND:                -0.103
REMARK SMILES Cc1ccc(C(C)C)cc1O
REMARK SMILES IDX 1 1 2 2 10 3 9 4 5 5 4 6 3 7 11 8 6 10 7 11 8 12
REMARK H PARENT 11 9
REMARK Flexibility Score: inf
ROOT
ATOM      1  C   UNL     1      -1.193   0.500   2.582  1.00  0.00     0.048 C 
ATOM      2  C   UNL     1      -0.922  -0.197   1.277  1.00  0.00    -0.009 A 
ATOM      3  C   UNL     1      -1.430  -1.491   1.020  1.00  0.00     0.118 A 
ATOM      4  C   UNL     1      -1.158  -2.112  -0.205  1.00  0.00     0.050 A 
ATOM      5  C   UNL     1      -0.385  -1.469  -1.188  1.00  0.00    -0.042 A 
ATOM      6  C   UNL     1       0.115  -0.185  -0.923  1.00  0.00     0.004 A 
ATOM      7  C   UNL     1      -0.150   0.443   0.295  1.00  0.00     0.007 A 
ENDROOT
BRANCH   3   8
ATOM      8  O   UNL     1      -2.203  -2.180   1.955  1.00  0.00    -0.508 OA
ATOM      9  H   UNL     1      -1.933  -3.074   2.343  1.00  0.00     0.293 HD
ENDBRANCH   3   8
BRANCH   5  10
ATOM     10  C   UNL     1      -0.089  -2.140  -2.516  1.00  0.00     0.013 C 
ATOM     11  C   UNL     1       0.730  -1.221  -3.429  1.00  0.00     0.012 C 
ATOM     12  C   UNL     1       0.618  -3.486  -2.309  1.00  0.00     0.012 C 
ENDBRANCH   5  10
TORSDOF 2
ENDMDL
MODEL 9
REMARK VINA RESULT:    -4.604      2.156      4.665
REMARK INTER + INTRA:          -5.111
REMARK INTER:                  -4.983
REMARK INTRA:                  -0.128
REMARK UNBOUND:                -0.103
REMARK SMILES Cc1ccc(C(C)C)cc1O
REMARK SMILES IDX 1 1 2 2 10 3 9 4 5 5 4 6 3 7 11 8 6 10 7 11 8 12
REMARK H PARENT 11 9
REMARK Flexibility Score: inf
ROOT
ATOM      1  C   UNL     1      -0.705  -2.248  -3.028  1.00  0.00     0.048 C 
ATOM      2  C   UNL     1      -0.570  -1.715  -1.628  1.00  0.00    -0.009 A 
ATOM      3  C   UNL     1      -0.039  -0.429  -1.383  1.00  0.00     0.118 A 
ATOM      4  C   UNL     1       0.075   0.037  -0.068  1.00  0.00     0.050 A 
ATOM      5  C   UNL     1      -0.332  -0.757   1.019  1.00  0.00    -0.042 A 
ATOM      6  C   UNL     1      -0.858  -2.034   0.766  1.00  0.00     0.004 A 
ATOM      7  C   UNL     1      -0.975  -2.507  -0.542  1.00  0.00     0.007 A 
ENDROOT
BRANCH   3   8
ATOM      8  O   UNL     1       0.382   0.406  -2.419  1.00  0.00    -0.508 OA
ATOM      9  H   UNL     1       1.293   0.330  -2.855  1.00  0.00     0.293 HD
ENDBRANCH   3   8
BRANCH   5  10
ATOM     10  C   UNL     1      -0.211  -0.255   2.445  1.00  0.00     0.013 C 
ATOM     11  C   UNL     1      -1.530   0.355   2.931  1.00  0.00     0.012 C 
ATOM     12  C   UNL     1       0.259  -1.373   3.386  1.00  0.00     0.012 C 
ENDBRANCH   5  10
TORSDOF 2
ENDMDL
