MODEL 1
REMARK VINA RESULT:    13.106      0.000      0.000
REMARK INTER + INTRA:          19.734
REMARK INTER:                  20.001
REMARK INTRA:                  -0.267
REMARK UNBOUND:                -0.267
REMARK SMILES O=C([O-])CCCCCCCCC(=O)[O-]
REMARK SMILES IDX 7 1 6 2 5 3 4 4 2 5 1 6 3 7 8 8 9 9 10 10 11 11 12 12 13 13
REMARK SMILES IDX 14 14
REMARK H PARENT
REMARK Flexibility Score: inf
ROOT
ATOM      1  C   UNL     1     -25.411  -4.424 -12.425  1.00  0.00     0.000 C 
ENDROOT
BRANCH   1   2
ATOM      2  C   UNL     1     -26.470  -3.640 -11.635  1.00  0.00     0.000 C 
BRANCH   2   3
ATOM      3  C   UNL     1     -27.780  -4.426 -11.459  1.00  0.00     0.006 C 
BRANCH   3   4
ATOM      4  C   UNL     1     -28.923  -3.556 -10.921  1.00  0.00     0.053 C 
BRANCH   4   5
ATOM      5  C   UNL     1     -29.832  -4.369 -10.053  1.00  0.00     0.041 C 
ATOM      6  O   UNL     1     -30.911  -4.823 -10.517  1.00  0.00    -0.550 OA
ATOM      7  O   UNL     1     -29.464  -4.666  -8.747  1.00  0.00    -0.550 OA
ENDBRANCH   4   5
ENDBRANCH   3   4
ENDBRANCH   2   3
ENDBRANCH   1   2
BRANCH   1   8
ATOM      8  C   UNL     1     -24.373  -3.473 -13.042  1.00  0.00     0.000 C 
BRANCH   8   9
ATOM      9  C   UNL     1     -24.805  -2.936 -14.416  1.00  0.00     0.000 C 
BRANCH   9  10
ATOM     10  C   UNL     1     -24.736  -4.003 -15.518  1.00  0.00     0.006 C 
BRANCH  10  11
ATOM     11  C   UNL     1     -24.618  -3.355 -16.900  1.00  0.00     0.053 C 
BRANCH  11  12
ATOM     12  C   UNL     1     -23.597  -4.069 -17.729  1.00  0.00     0.041 C 
ATOM     13  O   UNL     1     -22.512  -3.504 -18.027  1.00  0.00    -0.550 OA
ATOM     14  O   UNL     1     -23.865  -5.343 -18.217  1.00  0.00    -0.550 OA
ENDBRANCH  11  12
ENDBRANCH  10  11
ENDBRANCH   9  10
ENDBRANCH   8   9
ENDBRANCH   1   8
TORSDOF 9
ENDMDL
MODEL 2
REMARK VINA RESULT:    14.184     15.033     16.131
REMARK INTER + INTRA:          21.379
REMARK INTER:                  21.704
REMARK INTRA:                  -0.325
REMARK UNBOUND:                -0.267
REMARK SMILES O=C([O-])CCCCCCCCC(=O)[O-]
REMARK SMILES IDX 7 1 6 2 5 3 4 4 2 5 1 6 3 7 8 8 9 9 10 10 11 11 12 12 13 13
REMARK SMILES IDX 14 14
REMARK H PARENT
REMARK Flexibility Score: inf
ROOT
ATOM      1  C   UNL     1     -13.145  -8.120 -22.240  1.00  0.00     0.000 C 
ENDROOT
BRANCH   1   2
ATOM      2  C   UNL     1     -12.122  -9.195 -21.846  1.00  0.00     0.000 C 
BRANCH   2   3
ATOM      3  C   UNL     1     -12.038  -9.404 -20.325  1.00  0.00     0.006 C 
BRANCH   3   4
ATOM      4  C   UNL     1     -12.444  -8.154 -19.533  1.00  0.00     0.053 C 
BRANCH   4   5
ATOM      5  C   UNL     1     -12.834  -8.526 -18.138  1.00  0.00     0.041 C 
ATOM      6  O   UNL     1     -13.383  -7.678 -17.386  1.00  0.00    -0.550 OA
ATOM      7  O   UNL     1     -12.638  -9.824 -17.683  1.00  0.00    -0.550 OA
ENDBRANCH   4   5
ENDBRANCH   3   4
ENDBRANCH   2   3
ENDBRANCH   1   2
BRANCH   1   8
ATOM      8  C   UNL     1     -14.213  -8.698 -23.182  1.00  0.00     0.000 C 
BRANCH   8   9
ATOM      9  C   UNL     1     -15.452  -7.797 -23.298  1.00  0.00     0.000 C 
BRANCH   9  10
ATOM     10  C   UNL     1     -15.561  -7.113 -24.669  1.00  0.00     0.006 C 
BRANCH  10  11
ATOM     11  C   UNL     1     -14.199  -6.583 -25.125  1.00  0.00     0.053 C 
BRANCH  11  12
ATOM     12  C   UNL     1     -14.153  -5.091 -25.018  1.00  0.00     0.041 C 
ATOM     13  O   UNL     1     -15.221  -4.425 -24.981  1.00  0.00    -0.550 OA
ATOM     14  O   UNL     1     -12.930  -4.432 -25.010  1.00  0.00    -0.550 OA
ENDBRANCH  11  12
ENDBRANCH  10  11
ENDBRANCH   9  10
ENDBRANCH   8   9
ENDBRANCH   1   8
TORSDOF 9
ENDMDL
MODEL 3
REMARK VINA RESULT:    14.589     15.194     16.694
REMARK INTER + INTRA:          21.998
REMARK INTER:                  22.467
REMARK INTRA:                  -0.469
REMARK UNBOUND:                -0.267
REMARK SMILES O=C([O-])CCCCCCCCC(=O)[O-]
REMARK SMILES IDX 7 1 6 2 5 3 4 4 2 5 1 6 3 7 8 8 9 9 10 10 11 11 12 12 13 13
REMARK SMILES IDX 14 14
REMARK H PARENT
REMARK Flexibility Score: inf
ROOT
ATOM      1  C   UNL     1     -13.893  -9.803 -23.250  1.00  0.00     0.000 C 
ENDROOT
BRANCH   1   2
ATOM      2  C   UNL     1     -14.003 -10.879 -24.342  1.00  0.00     0.000 C 
BRANCH   2   3
ATOM      3  C   UNL     1     -14.301 -12.275 -23.771  1.00  0.00     0.006 C 
BRANCH   3   4
ATOM      4  C   UNL     1     -15.189 -12.224 -22.520  1.00  0.00     0.053 C 
BRANCH   4   5
ATOM      5  C   UNL     1     -16.165 -13.358 -22.528  1.00  0.00     0.041 C 
ATOM      6  O   UNL     1     -16.502 -13.911 -21.449  1.00  0.00    -0.550 OA
ATOM      7  O   UNL     1     -16.739 -13.772 -23.724  1.00  0.00    -0.550 OA
ENDBRANCH   4   5
ENDBRANCH   3   4
ENDBRANCH   2   3
ENDBRANCH   1   2
BRANCH   1   8
ATOM      8  C   UNL     1     -14.652  -8.530 -23.657  1.00  0.00     0.000 C 
BRANCH   8   9
ATOM      9  C   UNL     1     -14.512  -7.401 -22.624  1.00  0.00     0.000 C 
BRANCH   9  10
ATOM     10  C   UNL     1     -13.255  -7.546 -21.754  1.00  0.00     0.006 C 
BRANCH  10  11
ATOM     11  C   UNL     1     -13.556  -7.191 -20.295  1.00  0.00     0.053 C 
BRANCH  11  12
ATOM     12  C   UNL     1     -12.853  -8.133 -19.370  1.00  0.00     0.041 C 
ATOM     13  O   UNL     1     -12.023  -8.965 -19.821  1.00  0.00    -0.550 OA
ATOM     14  O   UNL     1     -13.151  -8.126 -18.012  1.00  0.00    -0.550 OA
ENDBRANCH  11  12
ENDBRANCH  10  11
ENDBRANCH   9  10
ENDBRANCH   8   9
ENDBRANCH   1   8
TORSDOF 9
ENDMDL
MODEL 4
REMARK VINA RESULT:    14.646     15.363     16.688
REMARK INTER + INTRA:          22.084
REMARK INTER:                  22.579
REMARK INTRA:                  -0.494
REMARK UNBOUND:                -0.267
REMARK SMILES O=C([O-])CCCCCCCCC(=O)[O-]
REMARK SMILES IDX 7 1 6 2 5 3 4 4 2 5 1 6 3 7 8 8 9 9 10 10 11 11 12 12 13 13
REMARK SMILES IDX 14 14
REMARK H PARENT
REMARK Flexibility Score: inf
ROOT
ATOM      1  C   UNL     1     -14.676  -8.541 -23.663  1.00  0.00     0.000 C 
ENDROOT
BRANCH   1   2
ATOM      2  C   UNL     1     -14.324  -7.379 -22.722  1.00  0.00     0.000 C 
BRANCH   2   3
ATOM      3  C   UNL     1     -13.152  -7.709 -21.784  1.00  0.00     0.006 C 
BRANCH   3   4
ATOM      4  C   UNL     1     -13.431  -7.312 -20.328  1.00  0.00     0.053 C 
BRANCH   4   5
ATOM      5  C   UNL     1     -12.761  -8.266 -19.391  1.00  0.00     0.041 C 
ATOM      6  O   UNL     1     -12.041  -9.196 -19.840  1.00  0.00    -0.550 OA
ATOM      7  O   UNL     1     -12.891  -8.098 -18.018  1.00  0.00    -0.550 OA
ENDBRANCH   4   5
ENDBRANCH   3   4
ENDBRANCH   2   3
ENDBRANCH   1   2
BRANCH   1   8
ATOM      8  C   UNL     1     -13.922  -9.819 -23.262  1.00  0.00     0.000 C 
BRANCH   8   9
ATOM      9  C   UNL     1     -13.940 -10.889 -24.365  1.00  0.00     0.000 C 
BRANCH   9  10
ATOM     10  C   UNL     1     -14.290 -12.285 -23.830  1.00  0.00     0.006 C 
BRANCH  10  11
ATOM     11  C   UNL     1     -15.203 -12.188 -22.604  1.00  0.00     0.053 C 
BRANCH  11  12
ATOM     12  C   UNL     1     -16.153 -13.344 -22.564  1.00  0.00     0.041 C 
ATOM     13  O   UNL     1     -16.694 -13.757 -23.623  1.00  0.00    -0.550 OA
ATOM     14  O   UNL     1     -16.480 -13.933 -21.349  1.00  0.00    -0.550 OA
ENDBRANCH  11  12
ENDBRANCH  10  11
ENDBRANCH   9  10
ENDBRANCH   8   9
ENDBRANCH   1   8
TORSDOF 9
ENDMDL
MODEL 5
REMARK VINA RESULT:    14.724     14.980     16.980
REMARK INTER + INTRA:          22.204
REMARK INTER:                  22.457
REMARK INTRA:                  -0.253
REMARK UNBOUND:                -0.267
REMARK SMILES O=C([O-])CCCCCCCCC(=O)[O-]
REMARK SMILES IDX 7 1 6 2 5 3 4 4 2 5 1 6 3 7 8 8 9 9 10 10 11 11 12 12 13 13
REMARK SMILES IDX 14 14
REMARK H PARENT
REMARK Flexibility Score: inf
ROOT
ATOM      1  C   UNL     1     -16.256 -13.231 -22.919  1.00  0.00     0.000 C 
ENDROOT
BRANCH   1   2
ATOM      2  C   UNL     1     -15.014 -12.644 -23.606  1.00  0.00     0.000 C 
BRANCH   2   3
ATOM      3  C   UNL     1     -14.474 -11.395 -22.889  1.00  0.00     0.006 C 
BRANCH   3   4
ATOM      4  C   UNL     1     -13.945 -10.336 -23.865  1.00  0.00     0.053 C 
BRANCH   4   5
ATOM      5  C   UNL     1     -14.022  -8.975 -23.248  1.00  0.00     0.041 C 
ATOM      6  O   UNL     1     -13.126  -8.588 -22.454  1.00  0.00    -0.550 OA
ATOM      7  O   UNL     1     -15.059  -8.115 -23.589  1.00  0.00    -0.550 OA
ENDBRANCH   4   5
ENDBRANCH   3   4
ENDBRANCH   2   3
ENDBRANCH   1   2
BRANCH   1   8
ATOM      8  C   UNL     1     -17.272 -13.732 -23.957  1.00  0.00     0.000 C 
BRANCH   8   9
ATOM      9  C   UNL     1     -18.488 -12.802 -24.092  1.00  0.00     0.000 C 
BRANCH   9  10
ATOM     10  C   UNL     1     -19.654 -13.459 -24.845  1.00  0.00     0.006 C 
BRANCH  10  11
ATOM     11  C   UNL     1     -20.996 -12.875 -24.393  1.00  0.00     0.053 C 
BRANCH  11  12
ATOM     12  C   UNL     1     -21.757 -13.876 -23.581  1.00  0.00     0.041 C 
ATOM     13  O   UNL     1     -22.349 -14.832 -24.146  1.00  0.00    -0.550 OA
ATOM     14  O   UNL     1     -21.855 -13.723 -22.203  1.00  0.00    -0.550 OA
ENDBRANCH  11  12
ENDBRANCH  10  11
ENDBRANCH   9  10
ENDBRANCH   8   9
ENDBRANCH   1   8
TORSDOF 9
ENDMDL
MODEL 6
REMARK VINA RESULT:    14.908     15.374     16.225
REMARK INTER + INTRA:          22.484
REMARK INTER:                  22.844
REMARK INTRA:                  -0.360
REMARK UNBOUND:                -0.267
REMARK SMILES O=C([O-])CCCCCCCCC(=O)[O-]
REMARK SMILES IDX 7 1 6 2 5 3 4 4 2 5 1 6 3 7 8 8 9 9 10 10 11 11 12 12 13 13
REMARK SMILES IDX 14 14
REMARK H PARENT
REMARK Flexibility Score: inf
ROOT
ATOM      1  C   UNL     1     -17.372 -13.134 -22.749  1.00  0.00     0.000 C 
ENDROOT
BRANCH   1   2
ATOM      2  C   UNL     1     -17.859 -13.385 -24.184  1.00  0.00     0.000 C 
BRANCH   2   3
ATOM      3  C   UNL     1     -19.141 -12.605 -24.520  1.00  0.00     0.006 C 
BRANCH   3   4
ATOM      4  C   UNL     1     -20.234 -13.496 -25.124  1.00  0.00     0.053 C 
BRANCH   4   5
ATOM      5  C   UNL     1     -21.325 -13.731 -24.129  1.00  0.00     0.041 C 
ATOM      6  O   UNL     1     -21.369 -13.057 -23.067  1.00  0.00    -0.550 OA
ATOM      7  O   UNL     1     -22.322 -14.661 -24.396  1.00  0.00    -0.550 OA
ENDBRANCH   4   5
ENDBRANCH   3   4
ENDBRANCH   2   3
ENDBRANCH   1   2
BRANCH   1   8
ATOM      8  C   UNL     1     -15.861 -13.385 -22.631  1.00  0.00     0.000 C 
BRANCH   8   9
ATOM      9  C   UNL     1     -15.038 -12.509 -23.589  1.00  0.00     0.000 C 
BRANCH   9  10
ATOM     10  C   UNL     1     -14.346 -11.339 -22.876  1.00  0.00     0.006 C 
BRANCH  10  11
ATOM     11  C   UNL     1     -13.904 -10.270 -23.880  1.00  0.00     0.053 C 
BRANCH  11  12
ATOM     12  C   UNL     1     -13.995  -8.907 -23.269  1.00  0.00     0.041 C 
ATOM     13  O   UNL     1     -13.070  -8.479 -22.530  1.00  0.00    -0.550 OA
ATOM     14  O   UNL     1     -15.128  -8.128 -23.475  1.00  0.00    -0.550 OA
ENDBRANCH  11  12
ENDBRANCH  10  11
ENDBRANCH   9  10
ENDBRANCH   8   9
ENDBRANCH   1   8
TORSDOF 9
ENDMDL
