MODEL 1
REMARK VINA RESULT:    -4.372      0.000      0.000
REMARK INTER + INTRA:          -8.900
REMARK INTER:                  -7.694
REMARK INTRA:                  -1.206
REMARK UNBOUND:                -1.206
REMARK SMILES CCCCCCC=CCCCCCCCC(=O)[O-]
REMARK SMILES IDX 10 1 11 2 12 3 13 4 14 5 15 6 16 7 17 8 18 9 9 10 8 11 7 12
REMARK SMILES IDX 6 13 5 14 4 15 3 16 2 17 1 18
REMARK H PARENT
REMARK Flexibility Score: inf
ROOT
ATOM      1  C   UNL     1      97.950 -67.904   3.830  1.00  0.00     0.004 C 
ENDROOT
BRANCH   1   2
ATOM      2  C   UNL     1      97.422 -66.473   3.623  1.00  0.00     0.000 C 
BRANCH   2   3
ATOM      3  C   UNL     1      98.380 -65.592   2.807  1.00  0.00     0.000 C 
BRANCH   3   4
ATOM      4  C   UNL     1      98.493 -66.101   1.362  1.00  0.00     0.000 C 
BRANCH   4   5
ATOM      5  C   UNL     1      99.952 -66.315   0.917  1.00  0.00     0.006 C 
BRANCH   5   6
ATOM      6  C   UNL     1     100.391 -67.787   0.876  1.00  0.00     0.053 C 
BRANCH   6   7
ATOM      7  C   UNL     1      99.383 -68.656   0.187  1.00  0.00     0.041 C 
ATOM      8  O   UNL     1      98.846 -69.613   0.803  1.00  0.00    -0.550 OA
ATOM      9  O   UNL     1      99.064 -68.429  -1.145  1.00  0.00    -0.550 OA
ENDBRANCH   6   7
ENDBRANCH   5   6
ENDBRANCH   4   5
ENDBRANCH   3   4
ENDBRANCH   2   3
ENDBRANCH   1   2
BRANCH   1  10
ATOM     10  C   UNL     1      99.311 -67.995   4.543  1.00  0.00     0.027 C 
BRANCH  10  11
ATOM     11  C   UNL     1      99.577 -69.380   5.083  1.00  0.00    -0.031 C 
ATOM     12  C   UNL     1     100.616 -69.726   5.867  1.00  0.00    -0.031 C 
BRANCH  12  13
ATOM     13  C   UNL     1     101.683 -68.786   6.368  1.00  0.00     0.027 C 
BRANCH  13  14
ATOM     14  C   UNL     1     101.889 -68.923   7.882  1.00  0.00     0.004 C 
BRANCH  14  15
ATOM     15  C   UNL     1     100.820 -68.140   8.654  1.00  0.00     0.000 C 
BRANCH  15  16
ATOM     16  C   UNL     1     100.531 -68.794  10.010  1.00  0.00    -0.000 C 
BRANCH  16  17
ATOM     17  C   UNL     1     100.258 -67.735  11.084  1.00  0.00    -0.003 C 
ATOM     18  C   UNL     1     100.142 -66.343  10.468  1.00  0.00     0.004 C 
ENDBRANCH  16  17
ENDBRANCH  15  16
ENDBRANCH  14  15
ENDBRANCH  13  14
ENDBRANCH  12  13
ENDBRANCH  10  11
ENDBRANCH   1  10
TORSDOF 13
ENDMDL
MODEL 2
REMARK VINA RESULT:    -4.345      0.988      1.800
REMARK INTER + INTRA:          -8.854
REMARK INTER:                  -7.648
REMARK INTRA:                  -1.205
REMARK UNBOUND:                -1.206
REMARK SMILES CCCCCCC=CCCCCCCCC(=O)[O-]
REMARK SMILES IDX 10 1 11 2 12 3 13 4 14 5 15 6 16 7 17 8 18 9 9 10 8 11 7 12
REMARK SMILES IDX 6 13 5 14 4 15 3 16 2 17 1 18
REMARK H PARENT
REMARK Flexibility Score: inf
ROOT
ATOM      1  C   UNL     1      99.712 -68.936   4.324  1.00  0.00     0.004 C 
ENDROOT
BRANCH   1   2
ATOM      2  C   UNL     1      99.162 -67.500   4.398  1.00  0.00     0.000 C 
BRANCH   2   3
ATOM      3  C   UNL     1      97.731 -67.376   3.854  1.00  0.00     0.000 C 
BRANCH   3   4
ATOM      4  C   UNL     1      97.649 -66.287   2.773  1.00  0.00     0.000 C 
BRANCH   4   5
ATOM      5  C   UNL     1      98.935 -66.181   1.933  1.00  0.00     0.006 C 
BRANCH   5   6
ATOM      6  C   UNL     1      98.880 -66.932   0.593  1.00  0.00     0.053 C 
BRANCH   6   7
ATOM      7  C   UNL     1      99.647 -68.218   0.637  1.00  0.00     0.041 C 
ATOM      8  O   UNL     1     100.896 -68.216   0.484  1.00  0.00    -0.550 OA
ATOM      9  O   UNL     1      98.977 -69.422   0.813  1.00  0.00    -0.550 OA
ENDBRANCH   6   7
ENDBRANCH   5   6
ENDBRANCH   4   5
ENDBRANCH   3   4
ENDBRANCH   2   3
ENDBRANCH   1   2
BRANCH   1  10
ATOM     10  C   UNL     1      99.948 -69.608   5.688  1.00  0.00     0.027 C 
BRANCH  10  11
ATOM     11  C   UNL     1     101.418 -69.707   6.024  1.00  0.00    -0.031 C 
ATOM     12  C   UNL     1     102.068 -68.942   6.922  1.00  0.00    -0.031 C 
BRANCH  12  13
ATOM     13  C   UNL     1     101.437 -67.868   7.773  1.00  0.00     0.027 C 
BRANCH  13  14
ATOM     14  C   UNL     1     101.726 -68.087   9.263  1.00  0.00     0.004 C 
BRANCH  14  15
ATOM     15  C   UNL     1     100.559 -68.810   9.947  1.00  0.00     0.000 C 
BRANCH  15  16
ATOM     16  C   UNL     1     100.158 -68.100  11.245  1.00  0.00    -0.000 C 
BRANCH  16  17
ATOM     17  C   UNL     1     100.806 -66.714  11.337  1.00  0.00    -0.003 C 
ATOM     18  C   UNL     1      99.760 -65.608  11.224  1.00  0.00     0.004 C 
ENDBRANCH  16  17
ENDBRANCH  15  16
ENDBRANCH  14  15
ENDBRANCH  13  14
ENDBRANCH  12  13
ENDBRANCH  10  11
ENDBRANCH   1  10
TORSDOF 13
ENDMDL
MODEL 3
REMARK VINA RESULT:    -4.255      1.561      2.366
REMARK INTER + INTRA:          -8.695
REMARK INTER:                  -7.947
REMARK INTRA:                  -0.748
REMARK UNBOUND:                -1.206
REMARK SMILES CCCCCCC=CCCCCCCCC(=O)[O-]
REMARK SMILES IDX 10 1 11 2 12 3 13 4 14 5 15 6 16 7 17 8 18 9 9 10 8 11 7 12
REMARK SMILES IDX 6 13 5 14 4 15 3 16 2 17 1 18
REMARK H PARENT
REMARK Flexibility Score: inf
ROOT
ATOM      1  C   UNL     1      98.537 -68.409   2.887  1.00  0.00     0.004 C 
ENDROOT
BRANCH   1   2
ATOM      2  C   UNL     1      98.953 -67.462   1.748  1.00  0.00     0.000 C 
BRANCH   2   3
ATOM      3  C   UNL     1     100.334 -67.795   1.163  1.00  0.00     0.000 C 
BRANCH   3   4
ATOM      4  C   UNL     1     100.233 -68.102  -0.338  1.00  0.00     0.000 C 
BRANCH   4   5
ATOM      5  C   UNL     1      98.884 -68.734  -0.729  1.00  0.00     0.006 C 
BRANCH   5   6
ATOM      6  C   UNL     1      98.503 -68.549  -2.206  1.00  0.00     0.053 C 
BRANCH   6   7
ATOM      7  C   UNL     1      97.682 -67.315  -2.425  1.00  0.00     0.041 C 
ATOM      8  O   UNL     1      97.066 -67.148  -3.511  1.00  0.00    -0.550 OA
ATOM      9  O   UNL     1      97.627 -66.334  -1.444  1.00  0.00    -0.550 OA
ENDBRANCH   6   7
ENDBRANCH   5   6
ENDBRANCH   4   5
ENDBRANCH   3   4
ENDBRANCH   2   3
ENDBRANCH   1   2
BRANCH   1  10
ATOM     10  C   UNL     1      99.133 -68.066   4.264  1.00  0.00     0.027 C 
BRANCH  10  11
ATOM     11  C   UNL     1      99.518 -69.304   5.039  1.00  0.00    -0.031 C 
ATOM     12  C   UNL     1     100.573 -69.408   5.869  1.00  0.00    -0.031 C 
BRANCH  12  13
ATOM     13  C   UNL     1     101.543 -68.299   6.193  1.00  0.00     0.027 C 
BRANCH  13  14
ATOM     14  C   UNL     1     101.992 -68.353   7.659  1.00  0.00     0.004 C 
BRANCH  14  15
ATOM     15  C   UNL     1     100.798 -68.175   8.605  1.00  0.00     0.000 C 
BRANCH  15  16
ATOM     16  C   UNL     1     101.039 -68.897   9.936  1.00  0.00    -0.000 C 
BRANCH  16  17
ATOM     17  C   UNL     1     100.192 -68.282  11.055  1.00  0.00    -0.003 C 
ATOM     18  C   UNL     1     100.106 -66.764  10.912  1.00  0.00     0.004 C 
ENDBRANCH  16  17
ENDBRANCH  15  16
ENDBRANCH  14  15
ENDBRANCH  13  14
ENDBRANCH  12  13
ENDBRANCH  10  11
ENDBRANCH   1  10
TORSDOF 13
ENDMDL
MODEL 4
REMARK VINA RESULT:    -4.213      1.129      2.212
REMARK INTER + INTRA:          -8.622
REMARK INTER:                  -7.277
REMARK INTRA:                  -1.344
REMARK UNBOUND:                -1.206
REMARK SMILES CCCCCCC=CCCCCCCCC(=O)[O-]
REMARK SMILES IDX 10 1 11 2 12 3 13 4 14 5 15 6 16 7 17 8 18 9 9 10 8 11 7 12
REMARK SMILES IDX 6 13 5 14 4 15 3 16 2 17 1 18
REMARK H PARENT
REMARK Flexibility Score: inf
ROOT
ATOM      1  C   UNL     1      97.455 -65.418   2.993  1.00  0.00     0.004 C 
ENDROOT
BRANCH   1   2
ATOM      2  C   UNL     1      98.887 -64.876   2.827  1.00  0.00     0.000 C 
BRANCH   2   3
ATOM      3  C   UNL     1      99.613 -65.464   1.608  1.00  0.00     0.000 C 
BRANCH   3   4
ATOM      4  C   UNL     1      98.617 -65.809   0.491  1.00  0.00     0.000 C 
BRANCH   4   5
ATOM      5  C   UNL     1      99.264 -66.597  -0.664  1.00  0.00     0.006 C 
BRANCH   5   6
ATOM      6  C   UNL     1      98.697 -68.012  -0.861  1.00  0.00     0.053 C 
BRANCH   6   7
ATOM      7  C   UNL     1      99.204 -68.970   0.173  1.00  0.00     0.041 C 
ATOM      8  O   UNL     1     100.273 -68.727   0.791  1.00  0.00    -0.550 OA
ATOM      9  O   UNL     1      98.512 -70.146   0.429  1.00  0.00    -0.550 OA
ENDBRANCH   6   7
ENDBRANCH   5   6
ENDBRANCH   4   5
ENDBRANCH   3   4
ENDBRANCH   2   3
ENDBRANCH   1   2
BRANCH   1  10
ATOM     10  C   UNL     1      97.297 -66.509   4.066  1.00  0.00     0.027 C 
BRANCH  10  11
ATOM     11  C   UNL     1      97.660 -67.878   3.539  1.00  0.00    -0.031 C 
ATOM     12  C   UNL     1      98.735 -68.598   3.912  1.00  0.00    -0.031 C 
BRANCH  12  13
ATOM     13  C   UNL     1      99.754 -68.178   4.942  1.00  0.00     0.027 C 
BRANCH  13  14
ATOM     14  C   UNL     1     100.186 -69.357   5.823  1.00  0.00     0.004 C 
BRANCH  14  15
ATOM     15  C   UNL     1     101.386 -68.978   6.698  1.00  0.00     0.000 C 
BRANCH  15  16
ATOM     16  C   UNL     1     100.947 -68.684   8.137  1.00  0.00    -0.000 C 
BRANCH  16  17
ATOM     17  C   UNL     1     100.930 -67.176   8.409  1.00  0.00    -0.003 C 
ATOM     18  C   UNL     1     100.356 -66.871   9.790  1.00  0.00     0.004 C 
ENDBRANCH  16  17
ENDBRANCH  15  16
ENDBRANCH  14  15
ENDBRANCH  13  14
ENDBRANCH  12  13
ENDBRANCH  10  11
ENDBRANCH   1  10
TORSDOF 13
ENDMDL
MODEL 5
REMARK VINA RESULT:    -4.070      4.062      7.838
REMARK INTER + INTRA:          -8.370
REMARK INTER:                  -6.477
REMARK INTRA:                  -1.893
REMARK UNBOUND:                -1.206
REMARK SMILES CCCCCCC=CCCCCCCCC(=O)[O-]
REMARK SMILES IDX 10 1 11 2 12 3 13 4 14 5 15 6 16 7 17 8 18 9 9 10 8 11 7 12
REMARK SMILES IDX 6 13 5 14 4 15 3 16 2 17 1 18
REMARK H PARENT
REMARK Flexibility Score: inf
ROOT
ATOM      1  C   UNL     1      99.859 -69.398   5.474  1.00  0.00     0.004 C 
ENDROOT
BRANCH   1   2
ATOM      2  C   UNL     1     101.396 -69.474   5.434  1.00  0.00     0.000 C 
BRANCH   2   3
ATOM      3  C   UNL     1     102.065 -68.717   6.592  1.00  0.00     0.000 C 
BRANCH   3   4
ATOM      4  C   UNL     1     101.189 -67.544   7.057  1.00  0.00     0.000 C 
BRANCH   4   5
ATOM      5  C   UNL     1     101.079 -67.453   8.591  1.00  0.00     0.006 C 
BRANCH   5   6
ATOM      6  C   UNL     1     100.676 -68.768   9.276  1.00  0.00     0.053 C 
BRANCH   6   7
ATOM      7  C   UNL     1     100.565 -68.617  10.762  1.00  0.00     0.041 C 
ATOM      8  O   UNL     1     101.101 -69.461  11.526  1.00  0.00    -0.550 OA
ATOM      9  O   UNL     1      99.840 -67.562  11.302  1.00  0.00    -0.550 OA
ENDBRANCH   6   7
ENDBRANCH   5   6
ENDBRANCH   4   5
ENDBRANCH   3   4
ENDBRANCH   2   3
ENDBRANCH   1   2
BRANCH   1  10
ATOM     10  C   UNL     1      99.198 -68.995   4.144  1.00  0.00     0.027 C 
BRANCH  10  11
ATOM     11  C   UNL     1      98.470 -67.676   4.250  1.00  0.00    -0.031 C 
ATOM     12  C   UNL     1      99.015 -66.463   4.036  1.00  0.00    -0.031 C 
BRANCH  12  13
ATOM     13  C   UNL     1     100.443 -66.208   3.625  1.00  0.00     0.027 C 
BRANCH  13  14
ATOM     14  C   UNL     1     100.590 -66.151   2.099  1.00  0.00     0.004 C 
BRANCH  14  15
ATOM     15  C   UNL     1     101.272 -67.416   1.565  1.00  0.00     0.000 C 
BRANCH  15  16
ATOM     16  C   UNL     1     100.710 -67.807   0.194  1.00  0.00    -0.000 C 
BRANCH  16  17
ATOM     17  C   UNL     1      99.181 -67.904   0.234  1.00  0.00    -0.003 C 
ATOM     18  C   UNL     1      98.716 -69.352   0.092  1.00  0.00     0.004 C 
ENDBRANCH  16  17
ENDBRANCH  15  16
ENDBRANCH  14  15
ENDBRANCH  13  14
ENDBRANCH  12  13
ENDBRANCH  10  11
ENDBRANCH   1  10
TORSDOF 13
ENDMDL
MODEL 6
REMARK VINA RESULT:    -4.049      2.301      3.325
REMARK INTER + INTRA:          -8.333
REMARK INTER:                  -7.553
REMARK INTRA:                  -0.780
REMARK UNBOUND:                -1.206
REMARK SMILES CCCCCCC=CCCCCCCCC(=O)[O-]
REMARK SMILES IDX 10 1 11 2 12 3 13 4 14 5 15 6 16 7 17 8 18 9 9 10 8 11 7 12
REMARK SMILES IDX 6 13 5 14 4 15 3 16 2 17 1 18
REMARK H PARENT
REMARK Flexibility Score: inf
ROOT
ATOM      1  C   UNL     1      98.831 -67.839   1.854  1.00  0.00     0.004 C 
ENDROOT
BRANCH   1   2
ATOM      2  C   UNL     1      99.469 -68.295   0.530  1.00  0.00     0.000 C 
BRANCH   2   3
ATOM      3  C   UNL     1      98.721 -69.466  -0.126  1.00  0.00     0.000 C 
BRANCH   3   4
ATOM      4  C   UNL     1      98.295 -69.109  -1.558  1.00  0.00     0.000 C 
BRANCH   4   5
ATOM      5  C   UNL     1      98.965 -67.823  -2.078  1.00  0.00     0.006 C 
BRANCH   5   6
ATOM      6  C   UNL     1      97.980 -66.716  -2.482  1.00  0.00     0.053 C 
BRANCH   6   7
ATOM      7  C   UNL     1      97.595 -66.805  -3.927  1.00  0.00     0.041 C 
ATOM      8  O   UNL     1      98.287 -67.490  -4.726  1.00  0.00    -0.550 OA
ATOM      9  O   UNL     1      96.492 -66.105  -4.398  1.00  0.00    -0.550 OA
ENDBRANCH   6   7
ENDBRANCH   5   6
ENDBRANCH   4   5
ENDBRANCH   3   4
ENDBRANCH   2   3
ENDBRANCH   1   2
BRANCH   1  10
ATOM     10  C   UNL     1      99.726 -68.006   3.094  1.00  0.00     0.027 C 
BRANCH  10  11
ATOM     11  C   UNL     1      98.982 -68.630   4.251  1.00  0.00    -0.031 C 
ATOM     12  C   UNL     1      99.546 -69.321   5.261  1.00  0.00    -0.031 C 
BRANCH  12  13
ATOM     13  C   UNL     1     101.023 -69.572   5.429  1.00  0.00     0.027 C 
BRANCH  13  14
ATOM     14  C   UNL     1     101.666 -68.547   6.372  1.00  0.00     0.004 C 
BRANCH  14  15
ATOM     15  C   UNL     1     101.032 -68.611   7.767  1.00  0.00     0.000 C 
BRANCH  15  16
ATOM     16  C   UNL     1     100.978 -67.221   8.411  1.00  0.00    -0.000 C 
BRANCH  16  17
ATOM     17  C   UNL     1     100.578 -67.315   9.887  1.00  0.00    -0.003 C 
ATOM     18  C   UNL     1     100.400 -68.768  10.319  1.00  0.00     0.004 C 
ENDBRANCH  16  17
ENDBRANCH  15  16
ENDBRANCH  14  15
ENDBRANCH  13  14
ENDBRANCH  12  13
ENDBRANCH  10  11
ENDBRANCH   1  10
TORSDOF 13
ENDMDL
MODEL 7
REMARK VINA RESULT:    -4.004      1.733      4.086
REMARK INTER + INTRA:          -8.253
REMARK INTER:                  -7.072
REMARK INTRA:                  -1.181
REMARK UNBOUND:                -1.206
REMARK SMILES CCCCCCC=CCCCCCCCC(=O)[O-]
REMARK SMILES IDX 10 1 11 2 12 3 13 4 14 5 15 6 16 7 17 8 18 9 9 10 8 11 7 12
REMARK SMILES IDX 6 13 5 14 4 15 3 16 2 17 1 18
REMARK H PARENT
REMARK Flexibility Score: inf
ROOT
ATOM      1  C   UNL     1      97.855 -65.130   0.564  1.00  0.00     0.004 C 
ENDROOT
BRANCH   1   2
ATOM      2  C   UNL     1      98.285 -64.957  -0.904  1.00  0.00     0.000 C 
BRANCH   2   3
ATOM      3  C   UNL     1      98.036 -66.212  -1.754  1.00  0.00     0.000 C 
BRANCH   3   4
ATOM      4  C   UNL     1      99.353 -66.755  -2.329  1.00  0.00     0.000 C 
BRANCH   4   5
ATOM      5  C   UNL     1      99.466 -68.287  -2.220  1.00  0.00     0.006 C 
BRANCH   5   6
ATOM      6  C   UNL     1      98.324 -68.951  -1.436  1.00  0.00     0.053 C 
BRANCH   6   7
ATOM      7  C   UNL     1      98.780 -69.465  -0.105  1.00  0.00     0.041 C 
ATOM      8  O   UNL     1      99.798 -68.974   0.448  1.00  0.00    -0.550 OA
ATOM      9  O   UNL     1      98.100 -70.510   0.507  1.00  0.00    -0.550 OA
ENDBRANCH   6   7
ENDBRANCH   5   6
ENDBRANCH   4   5
ENDBRANCH   3   4
ENDBRANCH   2   3
ENDBRANCH   1   2
BRANCH   1  10
ATOM     10  C   UNL     1      98.904 -65.799   1.470  1.00  0.00     0.027 C 
BRANCH  10  11
ATOM     11  C   UNL     1      98.740 -65.399   2.918  1.00  0.00    -0.031 C 
ATOM     12  C   UNL     1      98.166 -66.152   3.876  1.00  0.00    -0.031 C 
BRANCH  12  13
ATOM     13  C   UNL     1      97.610 -67.540   3.679  1.00  0.00     0.027 C 
BRANCH  13  14
ATOM     14  C   UNL     1      98.707 -68.607   3.775  1.00  0.00     0.004 C 
BRANCH  14  15
ATOM     15  C   UNL     1      99.612 -68.356   4.988  1.00  0.00     0.000 C 
BRANCH  15  16
ATOM     16  C   UNL     1     100.290 -69.652   5.446  1.00  0.00    -0.000 C 
BRANCH  16  17
ATOM     17  C   UNL     1     101.440 -69.357   6.415  1.00  0.00    -0.003 C 
ATOM     18  C   UNL     1     101.010 -68.373   7.499  1.00  0.00     0.004 C 
ENDBRANCH  16  17
ENDBRANCH  15  16
ENDBRANCH  14  15
ENDBRANCH  13  14
ENDBRANCH  12  13
ENDBRANCH  10  11
ENDBRANCH   1  10
TORSDOF 13
ENDMDL
MODEL 8
REMARK VINA RESULT:    -3.979      2.343      3.827
REMARK INTER + INTRA:          -8.209
REMARK INTER:                  -5.955
REMARK INTRA:                  -2.255
REMARK UNBOUND:                -1.206
REMARK SMILES CCCCCCC=CCCCCCCCC(=O)[O-]
REMARK SMILES IDX 10 1 11 2 12 3 13 4 14 5 15 6 16 7 17 8 18 9 9 10 8 11 7 12
REMARK SMILES IDX 6 13 5 14 4 15 3 16 2 17 1 18
REMARK H PARENT
REMARK Flexibility Score: inf
ROOT
ATOM      1  C   UNL     1      98.759 -68.232   2.015  1.00  0.00     0.004 C 
ENDROOT
BRANCH   1   2
ATOM      2  C   UNL     1     100.258 -67.952   1.800  1.00  0.00     0.000 C 
BRANCH   2   3
ATOM      3  C   UNL     1     100.518 -66.687   0.969  1.00  0.00     0.000 C 
BRANCH   3   4
ATOM      4  C   UNL     1      99.211 -66.145   0.371  1.00  0.00     0.000 C 
BRANCH   4   5
ATOM      5  C   UNL     1      99.268 -66.004  -1.161  1.00  0.00     0.006 C 
BRANCH   5   6
ATOM      6  C   UNL     1      99.408 -67.336  -1.914  1.00  0.00     0.053 C 
BRANCH   6   7
ATOM      7  C   UNL     1      98.114 -68.089  -1.972  1.00  0.00     0.041 C 
ATOM      8  O   UNL     1      97.079 -67.534  -2.426  1.00  0.00    -0.550 OA
ATOM      9  O   UNL     1      98.044 -69.390  -1.494  1.00  0.00    -0.550 OA
ENDBRANCH   6   7
ENDBRANCH   5   6
ENDBRANCH   4   5
ENDBRANCH   3   4
ENDBRANCH   2   3
ENDBRANCH   1   2
BRANCH   1  10
ATOM     10  C   UNL     1      98.295 -68.178   3.481  1.00  0.00     0.027 C 
BRANCH  10  11
ATOM     11  C   UNL     1      97.339 -67.035   3.731  1.00  0.00    -0.031 C 
ATOM     12  C   UNL     1      97.694 -65.756   3.960  1.00  0.00    -0.031 C 
BRANCH  12  13
ATOM     13  C   UNL     1      99.108 -65.232   3.981  1.00  0.00     0.027 C 
BRANCH  13  14
ATOM     14  C   UNL     1      99.767 -65.443   5.349  1.00  0.00     0.004 C 
BRANCH  14  15
ATOM     15  C   UNL     1     101.005 -66.341   5.229  1.00  0.00     0.000 C 
BRANCH  15  16
ATOM     16  C   UNL     1     100.856 -67.601   6.089  1.00  0.00    -0.000 C 
BRANCH  16  17
ATOM     17  C   UNL     1     101.357 -68.840   5.339  1.00  0.00    -0.003 C 
ATOM     18  C   UNL     1     100.494 -70.060   5.653  1.00  0.00     0.004 C 
ENDBRANCH  16  17
ENDBRANCH  15  16
ENDBRANCH  14  15
ENDBRANCH  13  14
ENDBRANCH  12  13
ENDBRANCH  10  11
ENDBRANCH   1  10
TORSDOF 13
ENDMDL
MODEL 9
REMARK VINA RESULT:    -3.941      3.619      7.889
REMARK INTER + INTRA:          -8.143
REMARK INTER:                  -6.427
REMARK INTRA:                  -1.716
REMARK UNBOUND:                -1.206
REMARK SMILES CCCCCCC=CCCCCCCCC(=O)[O-]
REMARK SMILES IDX 10 1 11 2 12 3 13 4 14 5 15 6 16 7 17 8 18 9 9 10 8 11 7 12
REMARK SMILES IDX 6 13 5 14 4 15 3 16 2 17 1 18
REMARK H PARENT
REMARK Flexibility Score: inf
ROOT
ATOM      1  C   UNL     1     100.199 -68.285   4.072  1.00  0.00     0.004 C 
ENDROOT
BRANCH   1   2
ATOM      2  C   UNL     1      99.801 -69.406   5.049  1.00  0.00     0.000 C 
BRANCH   2   3
ATOM      3  C   UNL     1     100.960 -69.855   5.951  1.00  0.00     0.000 C 
BRANCH   3   4
ATOM      4  C   UNL     1     101.822 -68.656   6.373  1.00  0.00     0.000 C 
BRANCH   4   5
ATOM      5  C   UNL     1     101.281 -67.943   7.627  1.00  0.00     0.006 C 
BRANCH   5   6
ATOM      6  C   UNL     1     101.404 -68.760   8.922  1.00  0.00     0.053 C 
BRANCH   6   7
ATOM      7  C   UNL     1     100.512 -68.235  10.005  1.00  0.00     0.041 C 
ATOM      8  O   UNL     1     100.153 -67.029  10.000  1.00  0.00    -0.550 OA
ATOM      9  O   UNL     1     100.107 -69.070  11.038  1.00  0.00    -0.550 OA
ENDBRANCH   6   7
ENDBRANCH   5   6
ENDBRANCH   4   5
ENDBRANCH   3   4
ENDBRANCH   2   3
ENDBRANCH   1   2
BRANCH   1  10
ATOM     10  C   UNL     1      99.315 -67.027   4.138  1.00  0.00     0.027 C 
BRANCH  10  11
ATOM     11  C   UNL     1      97.848 -67.356   3.994  1.00  0.00    -0.031 C 
ATOM     12  C   UNL     1      96.901 -66.517   3.532  1.00  0.00    -0.031 C 
BRANCH  12  13
ATOM     13  C   UNL     1      97.142 -65.108   3.051  1.00  0.00     0.027 C 
BRANCH  13  14
ATOM     14  C   UNL     1      97.141 -65.028   1.519  1.00  0.00     0.004 C 
BRANCH  14  15
ATOM     15  C   UNL     1      98.568 -65.112   0.964  1.00  0.00     0.000 C 
BRANCH  15  16
ATOM     16  C   UNL     1      98.694 -66.246  -0.059  1.00  0.00    -0.000 C 
BRANCH  16  17
ATOM     17  C   UNL     1      99.698 -67.303   0.413  1.00  0.00    -0.003 C 
ATOM     18  C   UNL     1      99.014 -68.649   0.642  1.00  0.00     0.004 C 
ENDBRANCH  16  17
ENDBRANCH  15  16
ENDBRANCH  14  15
ENDBRANCH  13  14
ENDBRANCH  12  13
ENDBRANCH  10  11
ENDBRANCH   1  10
TORSDOF 13
ENDMDL
