MODEL 1
REMARK VINA RESULT:    -3.912      0.000      0.000
REMARK INTER + INTRA:          -7.729
REMARK INTER:                  -5.285
REMARK INTRA:                  -2.445
REMARK UNBOUND:                -2.445
REMARK SMILES C=CC(C)=CCC=C(C)CCC=C(C)C
REMARK SMILES IDX 8 1 7 2 9 3 10 4 11 5 12 6 14 7 13 8 15 9 6 10 5 11 3 12
REMARK SMILES IDX 4 13 2 14 1 15
REMARK H PARENT
REMARK Flexibility Score: inf
ROOT
ATOM      1  C   UNL     1     134.601 139.285 130.971  1.00  0.00    -0.077 C 
ATOM      2  C   UNL     1     134.027 138.816 132.103  1.00  0.00    -0.024 C 
ATOM      3  C   UNL     1     135.471 140.512 131.063  1.00  0.00     0.039 C 
ENDROOT
BRANCH   1   4
ATOM      4  C   UNL     1     134.458 138.595 129.629  1.00  0.00     0.034 C 
BRANCH   4   5
ATOM      5  C   UNL     1     135.826 138.414 128.965  1.00  0.00     0.032 C 
BRANCH   5   6
ATOM      6  C   UNL     1     136.153 136.951 128.807  1.00  0.00    -0.028 C 
ATOM      7  C   UNL     1     137.168 134.785 129.372  1.00  0.00     0.039 C 
ATOM      8  C   UNL     1     136.886 136.231 129.686  1.00  0.00    -0.080 C 
ATOM      9  C   UNL     1     137.412 136.832 130.969  1.00  0.00     0.039 C 
ENDBRANCH   5   6
ENDBRANCH   4   5
ENDBRANCH   1   4
BRANCH   2  10
ATOM     10  C   UNL     1     133.138 137.600 132.169  1.00  0.00     0.055 C 
BRANCH  10  11
ATOM     11  C   UNL     1     133.939 136.350 132.435  1.00  0.00    -0.020 C 
ATOM     12  C   UNL     1     133.925 135.265 131.636  1.00  0.00    -0.055 C 
ATOM     13  C   UNL     1     134.760 134.068 132.023  1.00  0.00     0.044 C 
BRANCH  12  14
ATOM     14  C   UNL     1     133.102 135.226 130.392  1.00  0.00    -0.005 C 
ATOM     15  C   UNL     1     133.403 134.469 129.336  1.00  0.00     0.009 C 
ENDBRANCH  12  14
ENDBRANCH  10  11
ENDBRANCH   2  10
TORSDOF 6
ENDMDL
MODEL 2
REMARK VINA RESULT:    -3.908      3.357      5.850
REMARK INTER + INTRA:          -7.724
REMARK INTER:                  -5.340
REMARK INTRA:                  -2.384
REMARK UNBOUND:                -2.445
REMARK SMILES C=CC(C)=CCC=C(C)CCC=C(C)C
REMARK SMILES IDX 8 1 7 2 9 3 10 4 11 5 12 6 14 7 13 8 15 9 6 10 5 11 3 12
REMARK SMILES IDX 4 13 2 14 1 15
REMARK H PARENT
REMARK Flexibility Score: inf
ROOT
ATOM      1  C   UNL     1     140.039 138.960 130.144  1.00  0.00    -0.077 C 
ATOM      2  C   UNL     1     140.966 137.998 130.360  1.00  0.00    -0.024 C 
ATOM      3  C   UNL     1     139.701 139.325 128.721  1.00  0.00     0.039 C 
ENDROOT
BRANCH   1   4
ATOM      4  C   UNL     1     139.283 139.642 131.267  1.00  0.00     0.034 C 
BRANCH   4   5
ATOM      5  C   UNL     1     137.773 139.587 131.014  1.00  0.00     0.032 C 
BRANCH   5   6
ATOM      6  C   UNL     1     137.084 138.765 132.071  1.00  0.00    -0.028 C 
ATOM      7  C   UNL     1     136.050 136.772 133.071  1.00  0.00     0.039 C 
ATOM      8  C   UNL     1     136.782 137.453 131.944  1.00  0.00    -0.080 C 
ATOM      9  C   UNL     1     137.166 136.659 130.717  1.00  0.00     0.039 C 
ENDBRANCH   5   6
ENDBRANCH   4   5
ENDBRANCH   1   4
BRANCH   2  10
ATOM     10  C   UNL     1     141.404 137.525 131.723  1.00  0.00     0.055 C 
BRANCH  10  11
ATOM     11  C   UNL     1     140.557 136.372 132.199  1.00  0.00    -0.020 C 
ATOM     12  C   UNL     1     140.036 136.286 133.440  1.00  0.00    -0.055 C 
ATOM     13  C   UNL     1     139.218 135.069 133.800  1.00  0.00     0.044 C 
BRANCH  12  14
ATOM     14  C   UNL     1     140.257 137.359 134.451  1.00  0.00    -0.005 C 
ATOM     15  C   UNL     1     139.326 138.252 134.791  1.00  0.00     0.009 C 
ENDBRANCH  12  14
ENDBRANCH  10  11
ENDBRANCH   2  10
TORSDOF 6
ENDMDL
MODEL 3
REMARK VINA RESULT:    -3.898      2.177      4.591
REMARK INTER + INTRA:          -7.710
REMARK INTER:                  -5.307
REMARK INTRA:                  -2.403
REMARK UNBOUND:                -2.445
REMARK SMILES C=CC(C)=CCC=C(C)CCC=C(C)C
REMARK SMILES IDX 8 1 7 2 9 3 10 4 11 5 12 6 14 7 13 8 15 9 6 10 5 11 3 12
REMARK SMILES IDX 4 13 2 14 1 15
REMARK H PARENT
REMARK Flexibility Score: inf
ROOT
ATOM      1  C   UNL     1     134.812 139.917 130.127  1.00  0.00    -0.077 C 
ATOM      2  C   UNL     1     135.765 140.861 130.300  1.00  0.00    -0.024 C 
ATOM      3  C   UNL     1     134.486 139.475 128.723  1.00  0.00     0.039 C 
ENDROOT
BRANCH   1   4
ATOM      4  C   UNL     1     134.102 139.241 131.284  1.00  0.00     0.034 C 
BRANCH   4   5
ATOM      5  C   UNL     1     134.131 137.718 131.120  1.00  0.00     0.032 C 
BRANCH   5   6
ATOM      6  C   UNL     1     134.924 137.077 132.230  1.00  0.00    -0.028 C 
ATOM      7  C   UNL     1     136.886 136.084 133.328  1.00  0.00     0.039 C 
ATOM      8  C   UNL     1     136.237 136.763 132.150  1.00  0.00    -0.080 C 
ATOM      9  C   UNL     1     137.063 137.084 130.927  1.00  0.00     0.039 C 
ENDBRANCH   5   6
ENDBRANCH   4   5
ENDBRANCH   1   4
BRANCH   2  10
ATOM     10  C   UNL     1     136.201 141.398 131.640  1.00  0.00     0.055 C 
BRANCH  10  11
ATOM     11  C   UNL     1     137.344 140.594 132.206  1.00  0.00    -0.020 C 
ATOM     12  C   UNL     1     137.361 140.092 133.457  1.00  0.00    -0.055 C 
ATOM     13  C   UNL     1     138.575 139.318 133.911  1.00  0.00     0.044 C 
BRANCH  12  14
ATOM     14  C   UNL     1     136.216 140.292 134.390  1.00  0.00    -0.005 C 
ATOM     15  C   UNL     1     135.516 139.288 134.921  1.00  0.00     0.009 C 
ENDBRANCH  12  14
ENDBRANCH  10  11
ENDBRANCH   2  10
TORSDOF 6
ENDMDL
MODEL 4
REMARK VINA RESULT:    -3.896      2.063      4.213
REMARK INTER + INTRA:          -7.707
REMARK INTER:                  -5.293
REMARK INTRA:                  -2.414
REMARK UNBOUND:                -2.445
REMARK SMILES C=CC(C)=CCC=C(C)CCC=C(C)C
REMARK SMILES IDX 8 1 7 2 9 3 10 4 11 5 12 6 14 7 13 8 15 9 6 10 5 11 3 12
REMARK SMILES IDX 4 13 2 14 1 15
REMARK H PARENT
REMARK Flexibility Score: inf
ROOT
ATOM      1  C   UNL     1     139.319 139.158 130.809  1.00  0.00    -0.077 C 
ATOM      2  C   UNL     1     138.801 139.722 131.924  1.00  0.00    -0.024 C 
ATOM      3  C   UNL     1     140.603 138.378 130.929  1.00  0.00     0.039 C 
ENDROOT
BRANCH   1   4
ATOM      4  C   UNL     1     138.633 139.222 129.459  1.00  0.00     0.034 C 
BRANCH   4   5
ATOM      5  C   UNL     1     138.468 137.819 128.868  1.00  0.00     0.032 C 
BRANCH   5   6
ATOM      6  C   UNL     1     137.010 137.457 128.749  1.00  0.00    -0.028 C 
ATOM      7  C   UNL     1     134.879 136.410 129.384  1.00  0.00     0.039 C 
ATOM      8  C   UNL     1     136.325 136.731 129.661  1.00  0.00    -0.080 C 
ATOM      9  C   UNL     1     136.964 136.249 130.942  1.00  0.00     0.039 C 
ENDBRANCH   5   6
ENDBRANCH   4   5
ENDBRANCH   1   4
BRANCH   2  10
ATOM     10  C   UNL     1     137.526 140.525 131.961  1.00  0.00     0.055 C 
BRANCH  10  11
ATOM     11  C   UNL     1     136.341 139.654 132.297  1.00  0.00    -0.020 C 
ATOM     12  C   UNL     1     135.175 139.680 131.621  1.00  0.00    -0.055 C 
ATOM     13  C   UNL     1     134.057 138.769 132.069  1.00  0.00     0.044 C 
BRANCH  12  14
ATOM     14  C   UNL     1     134.973 140.588 130.456  1.00  0.00    -0.005 C 
ATOM     15  C   UNL     1     134.544 140.169 129.264  1.00  0.00     0.009 C 
ENDBRANCH  12  14
ENDBRANCH  10  11
ENDBRANCH   2  10
TORSDOF 6
ENDMDL
MODEL 5
REMARK VINA RESULT:    -3.888      2.915      5.484
REMARK INTER + INTRA:          -7.696
REMARK INTER:                  -5.303
REMARK INTRA:                  -2.393
REMARK UNBOUND:                -2.445
REMARK SMILES C=CC(C)=CCC=C(C)CCC=C(C)C
REMARK SMILES IDX 8 1 7 2 9 3 10 4 11 5 12 6 14 7 13 8 15 9 6 10 5 11 3 12
REMARK SMILES IDX 4 13 2 14 1 15
REMARK H PARENT
REMARK Flexibility Score: inf
ROOT
ATOM      1  C   UNL     1     138.911 133.740 130.140  1.00  0.00    -0.077 C 
ATOM      2  C   UNL     1     137.927 132.838 130.358  1.00  0.00    -0.024 C 
ATOM      3  C   UNL     1     139.256 134.095 128.717  1.00  0.00     0.039 C 
ENDROOT
BRANCH   1   4
ATOM      4  C   UNL     1     139.637 134.453 131.263  1.00  0.00     0.034 C 
BRANCH   4   5
ATOM      5  C   UNL     1     139.594 135.971 131.057  1.00  0.00     0.032 C 
BRANCH   5   6
ATOM      6  C   UNL     1     138.783 136.633 132.141  1.00  0.00    -0.028 C 
ATOM      7  C   UNL     1     136.808 137.661 133.181  1.00  0.00     0.039 C 
ATOM      8  C   UNL     1     137.476 136.962 132.026  1.00  0.00    -0.080 C 
ATOM      9  C   UNL     1     136.676 136.638 130.787  1.00  0.00     0.039 C 
ENDBRANCH   5   6
ENDBRANCH   4   5
ENDBRANCH   1   4
BRANCH   2  10
ATOM     10  C   UNL     1     137.469 132.387 131.722  1.00  0.00     0.055 C 
BRANCH  10  11
ATOM     11  C   UNL     1     136.316 133.225 132.217  1.00  0.00    -0.020 C 
ATOM     12  C   UNL     1     136.232 133.720 133.468  1.00  0.00    -0.055 C 
ATOM     13  C   UNL     1     135.015 134.532 133.845  1.00  0.00     0.044 C 
BRANCH  12  14
ATOM     14  C   UNL     1     137.304 133.477 134.474  1.00  0.00    -0.005 C 
ATOM     15  C   UNL     1     138.206 134.396 134.825  1.00  0.00     0.009 C 
ENDBRANCH  12  14
ENDBRANCH  10  11
ENDBRANCH   2  10
TORSDOF 6
ENDMDL
MODEL 6
REMARK VINA RESULT:    -3.882      1.676      4.419
REMARK INTER + INTRA:          -7.688
REMARK INTER:                  -5.848
REMARK INTRA:                  -1.840
REMARK UNBOUND:                -2.445
REMARK SMILES C=CC(C)=CCC=C(C)CCC=C(C)C
REMARK SMILES IDX 8 1 7 2 9 3 10 4 11 5 12 6 14 7 13 8 15 9 6 10 5 11 3 12
REMARK SMILES IDX 4 13 2 14 1 15
REMARK H PARENT
REMARK Flexibility Score: inf
ROOT
ATOM      1  C   UNL     1     134.249 135.907 129.320  1.00  0.00    -0.077 C 
ATOM      2  C   UNL     1     135.521 136.246 129.629  1.00  0.00    -0.024 C 
ATOM      3  C   UNL     1     133.698 136.331 127.983  1.00  0.00     0.039 C 
ENDROOT
BRANCH   1   4
ATOM      4  C   UNL     1     133.377 135.067 130.232  1.00  0.00     0.034 C 
BRANCH   4   5
ATOM      5  C   UNL     1     132.427 135.956 131.041  1.00  0.00     0.032 C 
BRANCH   5   6
ATOM      6  C   UNL     1     132.947 136.158 132.441  1.00  0.00    -0.028 C 
ATOM      7  C   UNL     1     134.028 137.341 134.304  1.00  0.00     0.039 C 
ATOM      8  C   UNL     1     133.513 137.301 132.888  1.00  0.00    -0.080 C 
ATOM      9  C   UNL     1     133.629 138.531 132.018  1.00  0.00     0.039 C 
ENDBRANCH   5   6
ENDBRANCH   4   5
ENDBRANCH   1   4
BRANCH   2  10
ATOM     10  C   UNL     1     136.210 135.891 130.922  1.00  0.00     0.055 C 
BRANCH  10  11
ATOM     11  C   UNL     1     137.001 134.614 130.787  1.00  0.00    -0.020 C 
ATOM     12  C   UNL     1     136.739 133.491 131.487  1.00  0.00    -0.055 C 
ATOM     13  C   UNL     1     137.618 132.282 131.273  1.00  0.00     0.044 C 
BRANCH  12  14
ATOM     14  C   UNL     1     135.612 133.428 132.461  1.00  0.00    -0.005 C 
ATOM     15  C   UNL     1     135.763 133.623 133.773  1.00  0.00     0.009 C 
ENDBRANCH  12  14
ENDBRANCH  10  11
ENDBRANCH   2  10
TORSDOF 6
ENDMDL
MODEL 7
REMARK VINA RESULT:    -3.854      2.666      6.029
REMARK INTER + INTRA:          -7.651
REMARK INTER:                  -5.287
REMARK INTRA:                  -2.364
REMARK UNBOUND:                -2.445
REMARK SMILES C=CC(C)=CCC=C(C)CCC=C(C)C
REMARK SMILES IDX 8 1 7 2 9 3 10 4 11 5 12 6 14 7 13 8 15 9 6 10 5 11 3 12
REMARK SMILES IDX 4 13 2 14 1 15
REMARK H PARENT
REMARK Flexibility Score: inf
ROOT
ATOM      1  C   UNL     1     139.273 134.636 130.904  1.00  0.00    -0.077 C 
ATOM      2  C   UNL     1     139.879 135.131 132.008  1.00  0.00    -0.024 C 
ATOM      3  C   UNL     1     138.511 133.341 131.023  1.00  0.00     0.039 C 
ENDROOT
BRANCH   1   4
ATOM      4  C   UNL     1     139.273 135.358 129.571  1.00  0.00     0.034 C 
BRANCH   4   5
ATOM      5  C   UNL     1     137.853 135.450 129.005  1.00  0.00     0.032 C 
BRANCH   5   6
ATOM      6  C   UNL     1     137.328 136.860 129.108  1.00  0.00    -0.028 C 
ATOM      7  C   UNL     1     136.050 138.735 130.050  1.00  0.00     0.039 C 
ATOM      8  C   UNL     1     136.533 137.309 130.105  1.00  0.00    -0.080 C 
ATOM      9  C   UNL     1     136.132 136.430 131.266  1.00  0.00     0.039 C 
ENDBRANCH   5   6
ENDBRANCH   4   5
ENDBRANCH   1   4
BRANCH   2  10
ATOM     10  C   UNL     1     140.671 136.414 132.044  1.00  0.00     0.055 C 
BRANCH  10  11
ATOM     11  C   UNL     1     139.785 137.594 132.356  1.00  0.00    -0.020 C 
ATOM     12  C   UNL     1     139.721 138.706 131.596  1.00  0.00    -0.055 C 
ATOM     13  C   UNL     1     138.806 139.827 132.027  1.00  0.00     0.044 C 
BRANCH  12  14
ATOM     14  C   UNL     1     140.535 138.846 130.355  1.00  0.00    -0.005 C 
ATOM     15  C   UNL     1     140.043 139.295 129.199  1.00  0.00     0.009 C 
ENDBRANCH  12  14
ENDBRANCH  10  11
ENDBRANCH   2  10
TORSDOF 6
ENDMDL
MODEL 8
REMARK VINA RESULT:    -3.829      1.977      4.477
REMARK INTER + INTRA:          -7.617
REMARK INTER:                  -5.233
REMARK INTRA:                  -2.384
REMARK UNBOUND:                -2.445
REMARK SMILES C=CC(C)=CCC=C(C)CCC=C(C)C
REMARK SMILES IDX 8 1 7 2 9 3 10 4 11 5 12 6 14 7 13 8 15 9 6 10 5 11 3 12
REMARK SMILES IDX 4 13 2 14 1 15
REMARK H PARENT
REMARK Flexibility Score: inf
ROOT
ATOM      1  C   UNL     1     134.629 135.158 131.877  1.00  0.00    -0.077 C 
ATOM      2  C   UNL     1     134.902 133.838 131.983  1.00  0.00    -0.024 C 
ATOM      3  C   UNL     1     133.291 135.572 131.320  1.00  0.00     0.039 C 
ENDROOT
BRANCH   1   4
ATOM      4  C   UNL     1     135.583 136.237 132.351  1.00  0.00     0.034 C 
BRANCH   4   5
ATOM      5  C   UNL     1     135.707 137.348 131.303  1.00  0.00     0.032 C 
BRANCH   5   6
ATOM      6  C   UNL     1     137.090 137.365 130.705  1.00  0.00    -0.028 C 
ATOM      7  C   UNL     1     138.885 136.765 129.138  1.00  0.00     0.039 C 
ATOM      8  C   UNL     1     137.451 136.686 129.593  1.00  0.00    -0.080 C 
ATOM      9  C   UNL     1     136.460 135.869 128.798  1.00  0.00     0.039 C 
ENDBRANCH   5   6
ENDBRANCH   4   5
ENDBRANCH   1   4
BRANCH   2  10
ATOM     10  C   UNL     1     136.192 133.273 132.524  1.00  0.00     0.055 C 
BRANCH  10  11
ATOM     11  C   UNL     1     137.174 132.994 131.414  1.00  0.00    -0.020 C 
ATOM     12  C   UNL     1     138.388 133.573 131.322  1.00  0.00    -0.055 C 
ATOM     13  C   UNL     1     139.272 133.221 130.150  1.00  0.00     0.044 C 
BRANCH  12  14
ATOM     14  C   UNL     1     138.862 134.549 132.345  1.00  0.00    -0.005 C 
ATOM     15  C   UNL     1     140.012 135.218 132.245  1.00  0.00     0.009 C 
ENDBRANCH  12  14
ENDBRANCH  10  11
ENDBRANCH   2  10
TORSDOF 6
ENDMDL
MODEL 9
REMARK VINA RESULT:    -3.812      2.350      4.510
REMARK INTER + INTRA:          -7.594
REMARK INTER:                  -5.229
REMARK INTRA:                  -2.366
REMARK UNBOUND:                -2.445
REMARK SMILES C=CC(C)=CCC=C(C)CCC=C(C)C
REMARK SMILES IDX 8 1 7 2 9 3 10 4 11 5 12 6 14 7 13 8 15 9 6 10 5 11 3 12
REMARK SMILES IDX 4 13 2 14 1 15
REMARK H PARENT
REMARK Flexibility Score: inf
ROOT
ATOM      1  C   UNL     1     135.853 140.433 130.422  1.00  0.00    -0.077 C 
ATOM      2  C   UNL     1     136.278 140.907 131.616  1.00  0.00    -0.024 C 
ATOM      3  C   UNL     1     134.372 140.407 130.146  1.00  0.00     0.039 C 
ENDROOT
BRANCH   1   4
ATOM      4  C   UNL     1     136.803 139.988 129.328  1.00  0.00     0.034 C 
BRANCH   4   5
ATOM      5  C   UNL     1     136.323 138.680 128.693  1.00  0.00     0.032 C 
BRANCH   5   6
ATOM      6  C   UNL     1     137.304 137.567 128.956  1.00  0.00    -0.028 C 
ATOM      7  C   UNL     1     138.328 135.693 130.172  1.00  0.00     0.039 C 
ATOM      8  C   UNL     1     137.248 136.732 130.019  1.00  0.00    -0.080 C 
ATOM      9  C   UNL     1     136.136 136.809 131.038  1.00  0.00     0.039 C 
ENDBRANCH   5   6
ENDBRANCH   4   5
ENDBRANCH   1   4
BRANCH   2  10
ATOM     10  C   UNL     1     137.724 140.999 132.033  1.00  0.00     0.055 C 
BRANCH  10  11
ATOM     11  C   UNL     1     138.171 139.742 132.737  1.00  0.00    -0.020 C 
ATOM     12  C   UNL     1     139.148 138.933 132.279  1.00  0.00    -0.055 C 
ATOM     13  C   UNL     1     139.491 137.693 133.069  1.00  0.00     0.044 C 
BRANCH  12  14
ATOM     14  C   UNL     1     139.882 139.238 131.018  1.00  0.00    -0.005 C 
ATOM     15  C   UNL     1     140.869 138.478 130.540  1.00  0.00     0.009 C 
ENDBRANCH  12  14
ENDBRANCH  10  11
ENDBRANCH   2  10
TORSDOF 6
ENDMDL
