MODEL 1
REMARK VINA RESULT:    -4.755      0.000      0.000
REMARK INTER + INTRA:         -11.193
REMARK INTER:                  -8.647
REMARK INTRA:                  -2.546
REMARK UNBOUND:                -2.546
REMARK SMILES CCCCCCCCCCCCCC[C@H](C)C(=O)[O-]
REMARK SMILES IDX 9 1 10 2 11 3 12 4 13 5 14 6 15 7 16 8 17 9 18 10 19 11 8 12
REMARK SMILES IDX 7 13 6 14 5 15 4 16 3 17 2 18 1 19
REMARK H PARENT
REMARK Flexibility Score: inf
ROOT
ATOM      1  C   UNL     1      13.120 -31.086  23.365  1.00  0.00     0.000 C 
ENDROOT
BRANCH   1   2
ATOM      2  C   UNL     1      12.686 -30.788  21.921  1.00  0.00     0.000 C 
BRANCH   2   3
ATOM      3  C   UNL     1      13.486 -31.596  20.885  1.00  0.00     0.000 C 
BRANCH   3   4
ATOM      4  C   UNL     1      14.385 -32.660  21.532  1.00  0.00     0.000 C 
BRANCH   4   5
ATOM      5  C   UNL     1      14.989 -33.630  20.501  1.00  0.00     0.001 C 
BRANCH   5   6
ATOM      6  C   UNL     1      15.623 -34.870  21.171  1.00  0.00     0.009 C 
BRANCH   6   7
ATOM      7  C   UNL     1      17.135 -35.021  20.886  1.00  0.00     0.032 C 
ATOM      8  C   UNL     1      17.675 -33.919  19.965  1.00  0.00     0.014 C 
BRANCH   7   9
ATOM      9  C   UNL     1      17.412 -36.370  20.280  1.00  0.00     0.044 C 
ATOM     10  O   UNL     1      16.993 -36.652  19.125  1.00  0.00    -0.550 OA
ATOM     11  O   UNL     1      18.137 -37.316  20.995  1.00  0.00    -0.550 OA
ENDBRANCH   7   9
ENDBRANCH   6   7
ENDBRANCH   5   6
ENDBRANCH   4   5
ENDBRANCH   3   4
ENDBRANCH   2   3
ENDBRANCH   1   2
BRANCH   1  12
ATOM     12  C   UNL     1      13.236 -29.816  24.221  1.00  0.00     0.000 C 
BRANCH  12  13
ATOM     13  C   UNL     1      13.480 -28.583  23.338  1.00  0.00    -0.000 C 
BRANCH  13  14
ATOM     14  C   UNL     1      14.954 -28.140  23.331  1.00  0.00    -0.000 C 
BRANCH  14  15
ATOM     15  C   UNL     1      15.690 -28.366  21.996  1.00  0.00    -0.000 C 
BRANCH  15  16
ATOM     16  C   UNL     1      16.503 -29.677  21.948  1.00  0.00    -0.000 C 
BRANCH  16  17
ATOM     17  C   UNL     1      16.863 -30.190  23.354  1.00  0.00    -0.000 C 
BRANCH  17  18
ATOM     18  C   UNL     1      17.421 -31.621  23.332  1.00  0.00    -0.003 C 
ATOM     19  C   UNL     1      16.676 -32.557  24.285  1.00  0.00     0.004 C 
ENDBRANCH  17  18
ENDBRANCH  16  17
ENDBRANCH  15  16
ENDBRANCH  14  15
ENDBRANCH  13  14
ENDBRANCH  12  13
ENDBRANCH   1  12
TORSDOF 14
ENDMDL
MODEL 2
REMARK VINA RESULT:    -4.495      3.669      6.135
REMARK INTER + INTRA:         -10.719
REMARK INTER:                  -8.567
REMARK INTRA:                  -2.152
REMARK UNBOUND:                -2.546
REMARK SMILES CCCCCCCCCCCCCC[C@H](C)C(=O)[O-]
REMARK SMILES IDX 9 1 10 2 11 3 12 4 13 5 14 6 15 7 16 8 17 9 18 10 19 11 8 12
REMARK SMILES IDX 7 13 6 14 5 15 4 16 3 17 2 18 1 19
REMARK H PARENT
REMARK Flexibility Score: inf
ROOT
ATOM      1  C   UNL     1      16.361 -34.716  21.723  1.00  0.00     0.000 C 
ENDROOT
BRANCH   1   2
ATOM      2  C   UNL     1      15.468 -34.968  20.499  1.00  0.00     0.000 C 
BRANCH   2   3
ATOM      3  C   UNL     1      14.681 -33.716  20.074  1.00  0.00     0.000 C 
BRANCH   3   4
ATOM      4  C   UNL     1      14.235 -32.864  21.271  1.00  0.00     0.000 C 
BRANCH   4   5
ATOM      5  C   UNL     1      13.659 -31.501  20.846  1.00  0.00     0.001 C 
BRANCH   5   6
ATOM      6  C   UNL     1      13.603 -30.501  22.022  1.00  0.00     0.009 C 
BRANCH   6   7
ATOM      7  C   UNL     1      12.189 -30.332  22.623  1.00  0.00     0.032 C 
ATOM      8  C   UNL     1      11.079 -30.532  21.583  1.00  0.00     0.014 C 
BRANCH   7   9
ATOM      9  C   UNL     1      12.056 -28.973  23.253  1.00  0.00     0.044 C 
ATOM     10  O   UNL     1      10.971 -28.336  23.180  1.00  0.00    -0.550 OA
ATOM     11  O   UNL     1      13.135 -28.411  23.925  1.00  0.00    -0.550 OA
ENDBRANCH   7   9
ENDBRANCH   6   7
ENDBRANCH   5   6
ENDBRANCH   4   5
ENDBRANCH   3   4
ENDBRANCH   2   3
ENDBRANCH   1   2
BRANCH   1  12
ATOM     12  C   UNL     1      17.800 -35.210  21.517  1.00  0.00     0.000 C 
BRANCH  12  13
ATOM     13  C   UNL     1      18.800 -34.054  21.660  1.00  0.00    -0.000 C 
BRANCH  13  14
ATOM     14  C   UNL     1      18.716 -33.049  20.497  1.00  0.00    -0.000 C 
BRANCH  14  15
ATOM     15  C   UNL     1      18.700 -31.568  20.922  1.00  0.00    -0.000 C 
BRANCH  15  16
ATOM     16  C   UNL     1      17.330 -31.088  21.449  1.00  0.00    -0.000 C 
BRANCH  16  17
ATOM     17  C   UNL     1      17.455 -30.309  22.769  1.00  0.00    -0.000 C 
BRANCH  17  18
ATOM     18  C   UNL     1      16.594 -30.911  23.891  1.00  0.00    -0.003 C 
ATOM     19  C   UNL     1      17.103 -32.277  24.354  1.00  0.00     0.004 C 
ENDBRANCH  17  18
ENDBRANCH  16  17
ENDBRANCH  15  16
ENDBRANCH  14  15
ENDBRANCH  13  14
ENDBRANCH  12  13
ENDBRANCH   1  12
TORSDOF 14
ENDMDL
MODEL 3
REMARK VINA RESULT:    -4.450      3.423      6.283
REMARK INTER + INTRA:         -10.638
REMARK INTER:                  -8.096
REMARK INTRA:                  -2.541
REMARK UNBOUND:                -2.546
REMARK SMILES CCCCCCCCCCCCCC[C@H](C)C(=O)[O-]
REMARK SMILES IDX 9 1 10 2 11 3 12 4 13 5 14 6 15 7 16 8 17 9 18 10 19 11 8 12
REMARK SMILES IDX 7 13 6 14 5 15 4 16 3 17 2 18 1 19
REMARK H PARENT
REMARK Flexibility Score: inf
ROOT
ATOM      1  C   UNL     1      16.552 -34.592  19.426  1.00  0.00     0.000 C 
ENDROOT
BRANCH   1   2
ATOM      2  C   UNL     1      15.351 -34.771  20.368  1.00  0.00     0.000 C 
BRANCH   2   3
ATOM      3  C   UNL     1      15.018 -33.489  21.150  1.00  0.00     0.000 C 
BRANCH   3   4
ATOM      4  C   UNL     1      15.315 -33.618  22.651  1.00  0.00     0.000 C 
BRANCH   4   5
ATOM      5  C   UNL     1      14.582 -32.559  23.493  1.00  0.00     0.001 C 
BRANCH   5   6
ATOM      6  C   UNL     1      15.266 -31.176  23.413  1.00  0.00     0.009 C 
BRANCH   6   7
ATOM      7  C   UNL     1      14.491 -30.151  22.554  1.00  0.00     0.032 C 
ATOM      8  C   UNL     1      15.190 -28.787  22.490  1.00  0.00     0.014 C 
BRANCH   7   9
ATOM      9  C   UNL     1      13.095 -29.981  23.090  1.00  0.00     0.044 C 
ATOM     10  O   UNL     1      12.097 -30.286  22.383  1.00  0.00    -0.550 OA
ATOM     11  O   UNL     1      12.899 -29.488  24.374  1.00  0.00    -0.550 OA
ENDBRANCH   7   9
ENDBRANCH   6   7
ENDBRANCH   5   6
ENDBRANCH   4   5
ENDBRANCH   3   4
ENDBRANCH   2   3
ENDBRANCH   1   2
BRANCH   1  12
ATOM     12  C   UNL     1      17.534 -35.772  19.489  1.00  0.00     0.000 C 
BRANCH  12  13
ATOM     13  C   UNL     1      17.933 -36.072  20.941  1.00  0.00    -0.000 C 
BRANCH  13  14
ATOM     14  C   UNL     1      19.078 -35.173  21.440  1.00  0.00    -0.000 C 
BRANCH  14  15
ATOM     15  C   UNL     1      18.774 -34.402  22.739  1.00  0.00    -0.000 C 
BRANCH  15  16
ATOM     16  C   UNL     1      18.963 -32.875  22.614  1.00  0.00    -0.000 C 
BRANCH  16  17
ATOM     17  C   UNL     1      19.019 -32.413  21.147  1.00  0.00    -0.000 C 
BRANCH  17  18
ATOM     18  C   UNL     1      17.964 -31.344  20.827  1.00  0.00    -0.003 C 
ATOM     19  C   UNL     1      18.427 -29.932  21.190  1.00  0.00     0.004 C 
ENDBRANCH  17  18
ENDBRANCH  16  17
ENDBRANCH  15  16
ENDBRANCH  14  15
ENDBRANCH  13  14
ENDBRANCH  12  13
ENDBRANCH   1  12
TORSDOF 14
ENDMDL
MODEL 4
REMARK VINA RESULT:    -4.449      1.818      4.578
REMARK INTER + INTRA:         -10.635
REMARK INTER:                  -8.454
REMARK INTRA:                  -2.181
REMARK UNBOUND:                -2.546
REMARK SMILES CCCCCCCCCCCCCC[C@H](C)C(=O)[O-]
REMARK SMILES IDX 9 1 10 2 11 3 12 4 13 5 14 6 15 7 16 8 17 9 18 10 19 11 8 12
REMARK SMILES IDX 7 13 6 14 5 15 4 16 3 17 2 18 1 19
REMARK H PARENT
REMARK Flexibility Score: inf
ROOT
ATOM      1  C   UNL     1      15.700 -35.167  20.224  1.00  0.00     0.000 C 
ENDROOT
BRANCH   1   2
ATOM      2  C   UNL     1      16.975 -35.185  19.366  1.00  0.00     0.000 C 
BRANCH   2   3
ATOM      3  C   UNL     1      17.726 -33.843  19.397  1.00  0.00     0.000 C 
BRANCH   3   4
ATOM      4  C   UNL     1      18.561 -33.662  20.673  1.00  0.00     0.000 C 
BRANCH   4   5
ATOM      5  C   UNL     1      17.949 -32.633  21.640  1.00  0.00     0.001 C 
BRANCH   5   6
ATOM      6  C   UNL     1      18.019 -33.102  23.110  1.00  0.00     0.009 C 
BRANCH   6   7
ATOM      7  C   UNL     1      17.034 -34.247  23.442  1.00  0.00     0.032 C 
ATOM      8  C   UNL     1      16.004 -33.849  24.506  1.00  0.00     0.014 C 
BRANCH   7   9
ATOM      9  C   UNL     1      17.794 -35.463  23.899  1.00  0.00     0.044 C 
ATOM     10  O   UNL     1      17.770 -35.815  25.109  1.00  0.00    -0.550 OA
ATOM     11  O   UNL     1      18.527 -36.208  22.984  1.00  0.00    -0.550 OA
ENDBRANCH   7   9
ENDBRANCH   6   7
ENDBRANCH   5   6
ENDBRANCH   4   5
ENDBRANCH   3   4
ENDBRANCH   2   3
ENDBRANCH   1   2
BRANCH   1  12
ATOM     12  C   UNL     1      14.789 -33.972  19.904  1.00  0.00     0.000 C 
BRANCH  12  13
ATOM     13  C   UNL     1      14.457 -33.184  21.179  1.00  0.00    -0.000 C 
BRANCH  13  14
ATOM     14  C   UNL     1      13.763 -31.842  20.885  1.00  0.00    -0.000 C 
BRANCH  14  15
ATOM     15  C   UNL     1      14.512 -30.600  21.406  1.00  0.00    -0.000 C 
BRANCH  15  16
ATOM     16  C   UNL     1      14.983 -30.728  22.870  1.00  0.00    -0.000 C 
BRANCH  16  17
ATOM     17  C   UNL     1      13.816 -30.631  23.868  1.00  0.00    -0.000 C 
BRANCH  17  18
ATOM     18  C   UNL     1      12.776 -29.578  23.456  1.00  0.00    -0.003 C 
ATOM     19  C   UNL     1      12.736 -28.385  24.412  1.00  0.00     0.004 C 
ENDBRANCH  17  18
ENDBRANCH  16  17
ENDBRANCH  15  16
ENDBRANCH  14  15
ENDBRANCH  13  14
ENDBRANCH  12  13
ENDBRANCH   1  12
TORSDOF 14
ENDMDL
MODEL 5
REMARK VINA RESULT:    -4.435      2.097      3.004
REMARK INTER + INTRA:         -10.610
REMARK INTER:                  -8.022
REMARK INTRA:                  -2.588
REMARK UNBOUND:                -2.546
REMARK SMILES CCCCCCCCCCCCCC[C@H](C)C(=O)[O-]
REMARK SMILES IDX 9 1 10 2 11 3 12 4 13 5 14 6 15 7 16 8 17 9 18 10 19 11 8 12
REMARK SMILES IDX 7 13 6 14 5 15 4 16 3 17 2 18 1 19
REMARK H PARENT
REMARK Flexibility Score: inf
ROOT
ATOM      1  C   UNL     1      13.687 -30.978  21.141  1.00  0.00     0.000 C 
ENDROOT
BRANCH   1   2
ATOM      2  C   UNL     1      13.737 -32.323  20.400  1.00  0.00     0.000 C 
BRANCH   2   3
ATOM      3  C   UNL     1      14.593 -33.370  21.134  1.00  0.00     0.000 C 
BRANCH   3   4
ATOM      4  C   UNL     1      15.408 -34.247  20.172  1.00  0.00     0.000 C 
BRANCH   4   5
ATOM      5  C   UNL     1      16.425 -35.140  20.904  1.00  0.00     0.001 C 
BRANCH   5   6
ATOM      6  C   UNL     1      16.555 -34.771  22.398  1.00  0.00     0.009 C 
BRANCH   6   7
ATOM      7  C   UNL     1      18.003 -34.859  22.933  1.00  0.00     0.032 C 
ATOM      8  C   UNL     1      18.966 -35.499  21.925  1.00  0.00     0.014 C 
BRANCH   7   9
ATOM      9  C   UNL     1      18.029 -35.632  24.223  1.00  0.00     0.044 C 
ATOM     10  O   UNL     1      19.023 -36.348  24.520  1.00  0.00    -0.550 OA
ATOM     11  O   UNL     1      16.953 -35.559  25.098  1.00  0.00    -0.550 OA
ENDBRANCH   7   9
ENDBRANCH   6   7
ENDBRANCH   5   6
ENDBRANCH   4   5
ENDBRANCH   3   4
ENDBRANCH   2   3
ENDBRANCH   1   2
BRANCH   1  12
ATOM     12  C   UNL     1      12.738 -31.004  22.349  1.00  0.00     0.000 C 
BRANCH  12  13
ATOM     13  C   UNL     1      13.525 -30.896  23.663  1.00  0.00    -0.000 C 
BRANCH  13  14
ATOM     14  C   UNL     1      14.953 -30.362  23.458  1.00  0.00    -0.000 C 
BRANCH  14  15
ATOM     15  C   UNL     1      16.073 -31.341  23.860  1.00  0.00    -0.000 C 
BRANCH  15  16
ATOM     16  C   UNL     1      17.470 -30.931  23.348  1.00  0.00    -0.000 C 
BRANCH  16  17
ATOM     17  C   UNL     1      17.433 -30.427  21.894  1.00  0.00    -0.000 C 
BRANCH  17  18
ATOM     18  C   UNL     1      17.778 -31.530  20.882  1.00  0.00    -0.003 C 
ATOM     19  C   UNL     1      19.255 -31.924  20.921  1.00  0.00     0.004 C 
ENDBRANCH  17  18
ENDBRANCH  16  17
ENDBRANCH  15  16
ENDBRANCH  14  15
ENDBRANCH  13  14
ENDBRANCH  12  13
ENDBRANCH   1  12
TORSDOF 14
ENDMDL
MODEL 6
REMARK VINA RESULT:    -4.419      2.974      5.994
REMARK INTER + INTRA:         -10.581
REMARK INTER:                  -8.630
REMARK INTRA:                  -1.951
REMARK UNBOUND:                -2.546
REMARK SMILES CCCCCCCCCCCCCC[C@H](C)C(=O)[O-]
REMARK SMILES IDX 9 1 10 2 11 3 12 4 13 5 14 6 15 7 16 8 17 9 18 10 19 11 8 12
REMARK SMILES IDX 7 13 6 14 5 15 4 16 3 17 2 18 1 19
REMARK H PARENT
REMARK Flexibility Score: inf
ROOT
ATOM      1  C   UNL     1      15.420 -35.015  20.420  1.00  0.00     0.000 C 
ENDROOT
BRANCH   1   2
ATOM      2  C   UNL     1      14.611 -33.805  19.929  1.00  0.00     0.000 C 
BRANCH   2   3
ATOM      3  C   UNL     1      14.252 -32.834  21.067  1.00  0.00     0.000 C 
BRANCH   3   4
ATOM      4  C   UNL     1      13.405 -31.647  20.586  1.00  0.00     0.000 C 
BRANCH   4   5
ATOM      5  C   UNL     1      12.570 -31.019  21.716  1.00  0.00     0.001 C 
BRANCH   5   6
ATOM      6  C   UNL     1      13.142 -31.347  23.113  1.00  0.00     0.009 C 
BRANCH   6   7
ATOM      7  C   UNL     1      13.684 -30.110  23.866  1.00  0.00     0.032 C 
ATOM      8  C   UNL     1      12.653 -28.978  23.960  1.00  0.00     0.014 C 
BRANCH   7   9
ATOM      9  C   UNL     1      14.932 -29.605  23.195  1.00  0.00     0.044 C 
ATOM     10  O   UNL     1      14.936 -28.492  22.603  1.00  0.00    -0.550 OA
ATOM     11  O   UNL     1      16.094 -30.367  23.225  1.00  0.00    -0.550 OA
ENDBRANCH   7   9
ENDBRANCH   6   7
ENDBRANCH   5   6
ENDBRANCH   4   5
ENDBRANCH   3   4
ENDBRANCH   2   3
ENDBRANCH   1   2
BRANCH   1  12
ATOM     12  C   UNL     1      16.633 -35.317  19.526  1.00  0.00     0.000 C 
BRANCH  12  13
ATOM     13  C   UNL     1      17.436 -34.039  19.246  1.00  0.00    -0.000 C 
BRANCH  13  14
ATOM     14  C   UNL     1      18.329 -33.627  20.429  1.00  0.00    -0.000 C 
BRANCH  14  15
ATOM     15  C   UNL     1      18.971 -34.802  21.194  1.00  0.00    -0.000 C 
BRANCH  15  16
ATOM     16  C   UNL     1      18.804 -34.710  22.726  1.00  0.00    -0.000 C 
BRANCH  16  17
ATOM     17  C   UNL     1      17.728 -33.690  23.135  1.00  0.00    -0.000 C 
BRANCH  17  18
ATOM     18  C   UNL     1      16.926 -34.142  24.365  1.00  0.00    -0.003 C 
ATOM     19  C   UNL     1      15.445 -33.773  24.271  1.00  0.00     0.004 C 
ENDBRANCH  17  18
ENDBRANCH  16  17
ENDBRANCH  15  16
ENDBRANCH  14  15
ENDBRANCH  13  14
ENDBRANCH  12  13
ENDBRANCH   1  12
TORSDOF 14
ENDMDL
MODEL 7
REMARK VINA RESULT:    -4.401      2.651      5.175
REMARK INTER + INTRA:         -10.549
REMARK INTER:                  -8.519
REMARK INTRA:                  -2.030
REMARK UNBOUND:                -2.546
REMARK SMILES CCCCCCCCCCCCCC[C@H](C)C(=O)[O-]
REMARK SMILES IDX 9 1 10 2 11 3 12 4 13 5 14 6 15 7 16 8 17 9 18 10 19 11 8 12
REMARK SMILES IDX 7 13 6 14 5 15 4 16 3 17 2 18 1 19
REMARK H PARENT
REMARK Flexibility Score: inf
ROOT
ATOM      1  C   UNL     1      15.829 -34.866  20.516  1.00  0.00     0.000 C 
ENDROOT
BRANCH   1   2
ATOM      2  C   UNL     1      16.759 -35.220  19.345  1.00  0.00     0.000 C 
BRANCH   2   3
ATOM      3  C   UNL     1      17.945 -34.248  19.219  1.00  0.00     0.000 C 
BRANCH   3   4
ATOM      4  C   UNL     1      18.292 -33.563  20.549  1.00  0.00     0.000 C 
BRANCH   4   5
ATOM      5  C   UNL     1      18.034 -32.046  20.519  1.00  0.00     0.001 C 
BRANCH   5   6
ATOM      6  C   UNL     1      17.465 -31.526  21.858  1.00  0.00     0.009 C 
BRANCH   6   7
ATOM      7  C   UNL     1      17.918 -32.350  23.085  1.00  0.00     0.032 C 
ATOM      8  C   UNL     1      16.737 -32.921  23.879  1.00  0.00     0.014 C 
BRANCH   7   9
ATOM      9  C   UNL     1      18.775 -31.504  23.986  1.00  0.00     0.044 C 
ATOM     10  O   UNL     1      19.915 -31.120  23.610  1.00  0.00    -0.550 OA
ATOM     11  O   UNL     1      18.310 -31.138  25.243  1.00  0.00    -0.550 OA
ENDBRANCH   7   9
ENDBRANCH   6   7
ENDBRANCH   5   6
ENDBRANCH   4   5
ENDBRANCH   3   4
ENDBRANCH   2   3
ENDBRANCH   1   2
BRANCH   1  12
ATOM     12  C   UNL     1      14.668 -33.954  20.094  1.00  0.00     0.000 C 
BRANCH  12  13
ATOM     13  C   UNL     1      14.313 -32.968  21.217  1.00  0.00    -0.000 C 
BRANCH  13  14
ATOM     14  C   UNL     1      13.476 -31.777  20.720  1.00  0.00    -0.000 C 
BRANCH  14  15
ATOM     15  C   UNL     1      12.670 -31.052  21.815  1.00  0.00    -0.000 C 
BRANCH  15  16
ATOM     16  C   UNL     1      13.173 -31.335  23.247  1.00  0.00    -0.000 C 
BRANCH  16  17
ATOM     17  C   UNL     1      14.175 -30.273  23.733  1.00  0.00    -0.000 C 
BRANCH  17  18
ATOM     18  C   UNL     1      13.724 -28.843  23.398  1.00  0.00    -0.003 C 
ATOM     19  C   UNL     1      12.537 -28.386  24.247  1.00  0.00     0.004 C 
ENDBRANCH  17  18
ENDBRANCH  16  17
ENDBRANCH  15  16
ENDBRANCH  14  15
ENDBRANCH  13  14
ENDBRANCH  12  13
ENDBRANCH   1  12
TORSDOF 14
ENDMDL
MODEL 8
REMARK VINA RESULT:    -4.390      3.603      6.851
REMARK INTER + INTRA:         -10.530
REMARK INTER:                  -8.098
REMARK INTRA:                  -2.432
REMARK UNBOUND:                -2.546
REMARK SMILES CCCCCCCCCCCCCC[C@H](C)C(=O)[O-]
REMARK SMILES IDX 9 1 10 2 11 3 12 4 13 5 14 6 15 7 16 8 17 9 18 10 19 11 8 12
REMARK SMILES IDX 7 13 6 14 5 15 4 16 3 17 2 18 1 19
REMARK H PARENT
REMARK Flexibility Score: inf
ROOT
ATOM      1  C   UNL     1      18.897 -32.573  20.974  1.00  0.00     0.000 C 
ENDROOT
BRANCH   1   2
ATOM      2  C   UNL     1      17.711 -31.596  20.961  1.00  0.00     0.000 C 
BRANCH   2   3
ATOM      3  C   UNL     1      17.694 -30.672  22.191  1.00  0.00     0.000 C 
BRANCH   3   4
ATOM      4  C   UNL     1      16.366 -29.915  22.343  1.00  0.00     0.000 C 
BRANCH   4   5
ATOM      5  C   UNL     1      15.335 -30.308  21.271  1.00  0.00     0.001 C 
BRANCH   5   6
ATOM      6  C   UNL     1      13.976 -30.709  21.889  1.00  0.00     0.009 C 
BRANCH   6   7
ATOM      7  C   UNL     1      13.883 -30.435  23.407  1.00  0.00     0.032 C 
ATOM      8  C   UNL     1      13.637 -31.711  24.222  1.00  0.00     0.014 C 
BRANCH   7   9
ATOM      9  C   UNL     1      12.791 -29.437  23.684  1.00  0.00     0.044 C 
ATOM     10  O   UNL     1      12.844 -28.697  24.703  1.00  0.00    -0.550 OA
ATOM     11  O   UNL     1      11.716 -29.325  22.812  1.00  0.00    -0.550 OA
ENDBRANCH   7   9
ENDBRANCH   6   7
ENDBRANCH   5   6
ENDBRANCH   4   5
ENDBRANCH   3   4
ENDBRANCH   2   3
ENDBRANCH   1   2
BRANCH   1  12
ATOM     12  C   UNL     1      18.921 -33.457  22.229  1.00  0.00     0.000 C 
BRANCH  12  13
ATOM     13  C   UNL     1      19.192 -34.922  21.859  1.00  0.00    -0.000 C 
BRANCH  13  14
ATOM     14  C   UNL     1      18.658 -35.291  20.464  1.00  0.00    -0.000 C 
BRANCH  14  15
ATOM     15  C   UNL     1      17.670 -36.473  20.442  1.00  0.00    -0.000 C 
BRANCH  15  16
ATOM     16  C   UNL     1      16.328 -36.149  19.751  1.00  0.00    -0.000 C 
BRANCH  16  17
ATOM     17  C   UNL     1      16.095 -34.634  19.616  1.00  0.00    -0.000 C 
BRANCH  17  18
ATOM     18  C   UNL     1      14.951 -34.133  20.511  1.00  0.00    -0.003 C 
ATOM     19  C   UNL     1      15.322 -34.134  21.995  1.00  0.00     0.004 C 
ENDBRANCH  17  18
ENDBRANCH  16  17
ENDBRANCH  15  16
ENDBRANCH  14  15
ENDBRANCH  13  14
ENDBRANCH  12  13
ENDBRANCH   1  12
TORSDOF 14
ENDMDL
MODEL 9
REMARK VINA RESULT:    -4.371      1.830      4.132
REMARK INTER + INTRA:         -10.494
REMARK INTER:                  -8.536
REMARK INTRA:                  -1.959
REMARK UNBOUND:                -2.546
REMARK SMILES CCCCCCCCCCCCCC[C@H](C)C(=O)[O-]
REMARK SMILES IDX 9 1 10 2 11 3 12 4 13 5 14 6 15 7 16 8 17 9 18 10 19 11 8 12
REMARK SMILES IDX 7 13 6 14 5 15 4 16 3 17 2 18 1 19
REMARK H PARENT
REMARK Flexibility Score: inf
ROOT
ATOM      1  C   UNL     1      17.247 -31.156  23.762  1.00  0.00     0.000 C 
ENDROOT
BRANCH   1   2
ATOM      2  C   UNL     1      18.239 -30.723  22.671  1.00  0.00     0.000 C 
BRANCH   2   3
ATOM      3  C   UNL     1      18.949 -31.918  22.012  1.00  0.00     0.000 C 
BRANCH   3   4
ATOM      4  C   UNL     1      18.502 -32.144  20.560  1.00  0.00     0.000 C 
BRANCH   4   5
ATOM      5  C   UNL     1      18.354 -33.636  20.213  1.00  0.00     0.001 C 
BRANCH   5   6
ATOM      6  C   UNL     1      17.900 -34.475  21.428  1.00  0.00     0.009 C 
BRANCH   6   7
ATOM      7  C   UNL     1      16.594 -35.264  21.182  1.00  0.00     0.032 C 
ATOM      8  C   UNL     1      16.566 -35.943  19.807  1.00  0.00     0.014 C 
BRANCH   7   9
ATOM      9  C   UNL     1      15.407 -34.351  21.323  1.00  0.00     0.044 C 
ATOM     10  O   UNL     1      14.767 -33.972  20.305  1.00  0.00    -0.550 OA
ATOM     11  O   UNL     1      15.007 -33.921  22.582  1.00  0.00    -0.550 OA
ENDBRANCH   7   9
ENDBRANCH   6   7
ENDBRANCH   5   6
ENDBRANCH   4   5
ENDBRANCH   3   4
ENDBRANCH   2   3
ENDBRANCH   1   2
BRANCH   1  12
ATOM     12  C   UNL     1      15.817 -30.669  23.488  1.00  0.00     0.000 C 
BRANCH  12  13
ATOM     13  C   UNL     1      15.666 -30.214  22.029  1.00  0.00    -0.000 C 
BRANCH  13  14
ATOM     14  C   UNL     1      14.322 -30.635  21.411  1.00  0.00    -0.000 C 
BRANCH  14  15
ATOM     15  C   UNL     1      13.204 -30.926  22.431  1.00  0.00    -0.000 C 
BRANCH  15  16
ATOM     16  C   UNL     1      11.867 -30.229  22.103  1.00  0.00    -0.000 C 
BRANCH  16  17
ATOM     17  C   UNL     1      11.570 -29.060  23.059  1.00  0.00    -0.000 C 
BRANCH  17  18
ATOM     18  C   UNL     1      12.594 -28.959  24.199  1.00  0.00    -0.003 C 
ATOM     19  C   UNL     1      13.413 -27.669  24.141  1.00  0.00     0.004 C 
ENDBRANCH  17  18
ENDBRANCH  16  17
ENDBRANCH  15  16
ENDBRANCH  14  15
ENDBRANCH  13  14
ENDBRANCH  12  13
ENDBRANCH   1  12
TORSDOF 14
ENDMDL
