MODEL 1
REMARK VINA RESULT:    -7.369      0.000      0.000
REMARK INTER + INTRA:         -11.892
REMARK INTER:                 -11.031
REMARK INTRA:                  -0.861
REMARK UNBOUND:                -0.861
REMARK SMILES C=C(CC[C@@H](C(=O)[O-])[C@H]1[C@@H](O)C[C@@]2(C)C3=C(CC[C@]12C)[C@]1(C)CC[C@H](OC(C)=O)C(C)(C)[C@@H]1CC3)C(C)C
REMARK SMILES IDX 4 1 5 2 6 3 7 4 8 5 9 6 10 7 19 8 12 9 13 10 18 11 20 12
REMARK SMILES IDX 14 13 15 14 17 15 16 16 35 17 21 18 34 19 33 20 23 21 22 22
REMARK SMILES IDX 30 23 24 24 25 25 31 26 32 27 11 28 26 30 27 31 29 32 28 33
REMARK SMILES IDX 3 34 2 35 1 36 36 37 37 38 38 39
REMARK H PARENT 11 29
REMARK Flexibility Score: inf
ROOT
ATOM      1  C   UNL     1       9.373  23.138  -2.490  1.00  0.00     0.014 C 
ENDROOT
BRANCH   1   2
ATOM      2  C   UNL     1      10.000  22.584  -3.793  1.00  0.00     0.042 C 
BRANCH   2   3
ATOM      3  C   UNL     1       8.972  22.647  -4.896  1.00  0.00     0.045 C 
ATOM      4  O   UNL     1       8.633  21.604  -5.515  1.00  0.00    -0.550 OA
ATOM      5  O   UNL     1       8.419  23.869  -5.261  1.00  0.00    -0.550 OA
ENDBRANCH   2   3
BRANCH   2   6
ATOM      6  C   UNL     1      11.301  23.371  -4.176  1.00  0.00     0.033 C 
ATOM      7  C   UNL     1      12.365  23.442  -3.034  1.00  0.00     0.119 C 
ATOM      8  C   UNL     1      12.123  22.871  -5.404  1.00  0.00    -0.017 C 
ATOM      9  C   UNL     1      13.754  23.392  -3.709  1.00  0.00     0.043 C 
ATOM     10  C   UNL     1      13.483  23.606  -5.206  1.00  0.00    -0.003 C 
ATOM     11  C   UNL     1      11.581  23.251  -6.798  1.00  0.00     0.012 C 
ATOM     12  C   UNL     1      12.257  21.310  -5.345  1.00  0.00     0.013 C 
ATOM     13  C   UNL     1      13.449  25.149  -5.455  1.00  0.00     0.017 C 
ATOM     14  C   UNL     1      14.500  23.041  -6.185  1.00  0.00    -0.064 C 
ATOM     15  C   UNL     1      12.655  23.095  -7.918  1.00  0.00     0.032 C 
ATOM     16  C   UNL     1      14.123  22.832  -7.485  1.00  0.00    -0.064 C 
ATOM     17  C   UNL     1      15.946  22.932  -5.778  1.00  0.00     0.032 C 
ATOM     18  C   UNL     1      15.136  22.298  -8.548  1.00  0.00    -0.008 C 
ATOM     19  C   UNL     1      16.808  23.454  -6.907  1.00  0.00     0.009 C 
ATOM     20  C   UNL     1      16.673  22.569  -8.174  1.00  0.00     0.009 C 
ATOM     21  C   UNL     1      14.843  20.783  -8.741  1.00  0.00     0.015 C 
ATOM     22  C   UNL     1      14.852  23.005  -9.900  1.00  0.00     0.016 C 
ATOM     23  C   UNL     1      17.635  21.296  -8.240  1.00  0.00     0.005 C 
ATOM     24  C   UNL     1      15.461  19.935  -7.644  1.00  0.00     0.047 C 
ATOM     25  C   UNL     1      16.998  19.983  -7.628  1.00  0.00     0.182 C 
ATOM     26  C   UNL     1      19.008  21.579  -7.563  1.00  0.00     0.015 C 
ATOM     27  C   UNL     1      18.002  21.032  -9.733  1.00  0.00     0.015 C 
BRANCH   7  28
ATOM     28  O   UNL     1      12.242  22.370  -2.134  1.00  0.00    -0.393 OA
ATOM     29  H   UNL     1      12.161  22.767  -1.229  1.00  0.00     0.210 HD
ENDBRANCH   7  28
BRANCH  25  30
ATOM     30  O   UNL     1      17.409  19.767  -6.271  1.00  0.00    -0.462 OA
BRANCH  30  31
ATOM     31  C   UNL     1      17.803  18.529  -5.751  1.00  0.00     0.302 C 
ATOM     32  O   UNL     1      17.037  17.864  -5.001  1.00  0.00    -0.253 OA
ATOM     33  C   UNL     1      19.127  17.965  -6.141  1.00  0.00     0.139 C 
ENDBRANCH  30  31
ENDBRANCH  25  30
ENDBRANCH   2   6
ENDBRANCH   1   2
BRANCH   1  34
ATOM     34  C   UNL     1       8.000  22.512  -2.196  1.00  0.00     0.031 C 
BRANCH  34  35
ATOM     35  C   UNL     1       7.147  23.454  -1.375  1.00  0.00    -0.075 C 
ATOM     36  C   UNL     1       6.371  24.360  -1.996  1.00  0.00     0.008 C 
BRANCH  35  37
ATOM     37  C   UNL     1       7.225  23.394   0.144  1.00  0.00     0.008 C 
ATOM     38  C   UNL     1       5.875  23.745   0.785  1.00  0.00     0.012 C 
ATOM     39  C   UNL     1       7.732  22.029   0.624  1.00  0.00     0.012 C 
ENDBRANCH  35  37
ENDBRANCH  34  35
ENDBRANCH   1  34
TORSDOF 9
ENDMDL
MODEL 2
REMARK VINA RESULT:    -7.320      2.320      8.962
REMARK INTER + INTRA:         -11.819
REMARK INTER:                 -10.347
REMARK INTRA:                  -1.472
REMARK UNBOUND:                -0.861
REMARK SMILES C=C(CC[C@@H](C(=O)[O-])[C@H]1[C@@H](O)C[C@@]2(C)C3=C(CC[C@]12C)[C@]1(C)CC[C@H](OC(C)=O)C(C)(C)[C@@H]1CC3)C(C)C
REMARK SMILES IDX 4 1 5 2 6 3 7 4 8 5 9 6 10 7 19 8 12 9 13 10 18 11 20 12
REMARK SMILES IDX 14 13 15 14 17 15 16 16 35 17 21 18 34 19 33 20 23 21 22 22
REMARK SMILES IDX 30 23 24 24 25 25 31 26 32 27 11 28 26 30 27 31 29 32 28 33
REMARK SMILES IDX 3 34 2 35 1 36 36 37 37 38 38 39
REMARK H PARENT 11 29
REMARK Flexibility Score: inf
ROOT
ATOM      1  C   UNL     1      16.937  20.301  -9.755  1.00  0.00     0.014 C 
ENDROOT
BRANCH   1   2
ATOM      2  C   UNL     1      15.657  21.155  -9.573  1.00  0.00     0.042 C 
BRANCH   2   3
ATOM      3  C   UNL     1      15.270  21.744 -10.907  1.00  0.00     0.045 C 
ATOM      4  O   UNL     1      14.950  20.996 -11.869  1.00  0.00    -0.550 OA
ATOM      5  O   UNL     1      15.300  23.122 -11.094  1.00  0.00    -0.550 OA
ENDBRANCH   2   3
BRANCH   2   6
ATOM      6  C   UNL     1      14.491  20.306  -8.961  1.00  0.00     0.033 C 
ATOM      7  C   UNL     1      14.887  19.505  -7.679  1.00  0.00     0.119 C 
ATOM      8  C   UNL     1      13.190  21.053  -8.531  1.00  0.00    -0.017 C 
ATOM      9  C   UNL     1      13.647  19.488  -6.757  1.00  0.00     0.043 C 
ATOM     10  C   UNL     1      12.488  19.992  -7.629  1.00  0.00    -0.003 C 
ATOM     11  C   UNL     1      12.209  21.436  -9.659  1.00  0.00     0.012 C 
ATOM     12  C   UNL     1      13.570  22.361  -7.753  1.00  0.00     0.013 C 
ATOM     13  C   UNL     1      11.907  18.755  -8.388  1.00  0.00     0.017 C 
ATOM     14  C   UNL     1      11.314  20.644  -6.918  1.00  0.00    -0.064 C 
ATOM     15  C   UNL     1      10.785  21.775  -9.120  1.00  0.00     0.032 C 
ATOM     16  C   UNL     1      10.478  21.462  -7.631  1.00  0.00    -0.064 C 
ATOM     17  C   UNL     1      10.957  20.213  -5.519  1.00  0.00     0.032 C 
ATOM     18  C   UNL     1       9.229  22.123  -6.966  1.00  0.00    -0.008 C 
ATOM     19  C   UNL     1       9.458  20.015  -5.441  1.00  0.00     0.009 C 
ATOM     20  C   UNL     1       8.702  21.352  -5.661  1.00  0.00     0.009 C 
ATOM     21  C   UNL     1       9.600  23.601  -6.657  1.00  0.00     0.015 C 
ATOM     22  C   UNL     1       8.070  22.139  -7.999  1.00  0.00     0.016 C 
ATOM     23  C   UNL     1       8.491  22.255  -4.362  1.00  0.00     0.005 C 
ATOM     24  C   UNL     1      10.416  23.733  -5.383  1.00  0.00     0.047 C 
ATOM     25  C   UNL     1       9.651  23.305  -4.121  1.00  0.00     0.182 C 
ATOM     26  C   UNL     1       8.296  21.387  -3.085  1.00  0.00     0.015 C 
ATOM     27  C   UNL     1       7.139  23.019  -4.506  1.00  0.00     0.015 C 
BRANCH   7  28
ATOM     28  O   UNL     1      15.968  20.097  -7.003  1.00  0.00    -0.393 OA
ATOM     29  H   UNL     1      16.369  19.390  -6.435  1.00  0.00     0.210 HD
ENDBRANCH   7  28
BRANCH  25  30
ATOM     30  O   UNL     1      10.624  22.827  -3.183  1.00  0.00    -0.462 OA
BRANCH  30  31
ATOM     31  C   UNL     1      11.383  23.647  -2.341  1.00  0.00     0.302 C 
ATOM     32  O   UNL     1      12.625  23.471  -2.206  1.00  0.00    -0.253 OA
ATOM     33  C   UNL     1      10.718  24.784  -1.642  1.00  0.00     0.139 C 
ENDBRANCH  30  31
ENDBRANCH  25  30
ENDBRANCH   2   6
ENDBRANCH   1   2
BRANCH   1  34
ATOM     34  C   UNL     1      18.189  21.169  -9.957  1.00  0.00     0.031 C 
BRANCH  34  35
ATOM     35  C   UNL     1      18.700  21.690  -8.631  1.00  0.00    -0.075 C 
ATOM     36  C   UNL     1      19.260  20.839  -7.754  1.00  0.00     0.008 C 
BRANCH  35  37
ATOM     37  C   UNL     1      18.518  23.163  -8.293  1.00  0.00     0.008 C 
ATOM     38  C   UNL     1      18.286  24.001  -9.558  1.00  0.00     0.012 C 
ATOM     39  C   UNL     1      17.390  23.368  -7.274  1.00  0.00     0.012 C 
ENDBRANCH  35  37
ENDBRANCH  34  35
ENDBRANCH   1  34
TORSDOF 9
ENDMDL
MODEL 3
REMARK VINA RESULT:    -7.210      5.788     10.838
REMARK INTER + INTRA:         -11.653
REMARK INTER:                 -10.756
REMARK INTRA:                  -0.897
REMARK UNBOUND:                -0.861
REMARK SMILES C=C(CC[C@@H](C(=O)[O-])[C@H]1[C@@H](O)C[C@@]2(C)C3=C(CC[C@]12C)[C@]1(C)CC[C@H](OC(C)=O)C(C)(C)[C@@H]1CC3)C(C)C
REMARK SMILES IDX 4 1 5 2 6 3 7 4 8 5 9 6 10 7 19 8 12 9 13 10 18 11 20 12
REMARK SMILES IDX 14 13 15 14 17 15 16 16 35 17 21 18 34 19 33 20 23 21 22 22
REMARK SMILES IDX 30 23 24 24 25 25 31 26 32 27 11 28 26 30 27 31 29 32 28 33
REMARK SMILES IDX 3 34 2 35 1 36 36 37 37 38 38 39
REMARK H PARENT 11 29
REMARK Flexibility Score: inf
ROOT
ATOM      1  C   UNL     1      18.864  12.302  -6.965  1.00  0.00     0.014 C 
ENDROOT
BRANCH   1   2
ATOM      2  C   UNL     1      17.900  13.501  -6.778  1.00  0.00     0.042 C 
BRANCH   2   3
ATOM      3  C   UNL     1      16.794  13.096  -5.834  1.00  0.00     0.045 C 
ATOM      4  O   UNL     1      17.058  12.734  -4.657  1.00  0.00    -0.550 OA
ATOM      5  O   UNL     1      15.475  13.084  -6.273  1.00  0.00    -0.550 OA
ENDBRANCH   2   3
BRANCH   2   6
ATOM      6  C   UNL     1      18.663  14.766  -6.257  1.00  0.00     0.033 C 
ATOM      7  C   UNL     1      19.917  15.151  -7.106  1.00  0.00     0.119 C 
ATOM      8  C   UNL     1      17.872  16.107  -6.154  1.00  0.00    -0.017 C 
ATOM      9  C   UNL     1      20.009  16.694  -7.101  1.00  0.00     0.043 C 
ATOM     10  C   UNL     1      19.020  17.153  -6.019  1.00  0.00    -0.003 C 
ATOM     11  C   UNL     1      16.942  16.268  -4.934  1.00  0.00     0.012 C 
ATOM     12  C   UNL     1      17.012  16.308  -7.450  1.00  0.00     0.013 C 
ATOM     13  C   UNL     1      19.782  17.131  -4.654  1.00  0.00     0.017 C 
ATOM     14  C   UNL     1      18.438  18.550  -6.157  1.00  0.00    -0.064 C 
ATOM     15  C   UNL     1      16.538  17.753  -4.684  1.00  0.00     0.032 C 
ATOM     16  C   UNL     1      17.278  18.853  -5.493  1.00  0.00    -0.064 C 
ATOM     17  C   UNL     1      19.246  19.632  -6.824  1.00  0.00     0.032 C 
ATOM     18  C   UNL     1      16.657  20.285  -5.558  1.00  0.00    -0.008 C 
ATOM     19  C   UNL     1      19.163  20.888  -5.982  1.00  0.00     0.009 C 
ATOM     20  C   UNL     1      17.712  21.436  -5.929  1.00  0.00     0.009 C 
ATOM     21  C   UNL     1      15.477  20.228  -6.570  1.00  0.00     0.015 C 
ATOM     22  C   UNL     1      16.061  20.628  -4.166  1.00  0.00     0.016 C 
ATOM     23  C   UNL     1      17.288  22.401  -7.128  1.00  0.00     0.005 C 
ATOM     24  C   UNL     1      15.954  20.309  -8.010  1.00  0.00     0.047 C 
ATOM     25  C   UNL     1      16.632  21.645  -8.354  1.00  0.00     0.182 C 
ATOM     26  C   UNL     1      18.487  23.262  -7.622  1.00  0.00     0.015 C 
ATOM     27  C   UNL     1      16.274  23.452  -6.580  1.00  0.00     0.015 C 
BRANCH   7  28
ATOM     28  O   UNL     1      19.816  14.692  -8.431  1.00  0.00    -0.393 OA
ATOM     29  H   UNL     1      20.281  15.359  -8.999  1.00  0.00     0.210 HD
ENDBRANCH   7  28
BRANCH  25  30
ATOM     30  O   UNL     1      17.583  21.376  -9.393  1.00  0.00    -0.462 OA
BRANCH  30  31
ATOM     31  C   UNL     1      17.414  21.735 -10.734  1.00  0.00     0.302 C 
ATOM     32  O   UNL     1      16.361  21.433 -11.362  1.00  0.00    -0.253 OA
ATOM     33  C   UNL     1      18.471  22.538 -11.411  1.00  0.00     0.139 C 
ENDBRANCH  30  31
ENDBRANCH  25  30
ENDBRANCH   2   6
ENDBRANCH   1   2
BRANCH   1  34
ATOM     34  C   UNL     1      18.174  11.105  -7.640  1.00  0.00     0.031 C 
BRANCH  34  35
ATOM     35  C   UNL     1      18.972  10.631  -8.835  1.00  0.00    -0.075 C 
ATOM     36  C   UNL     1      20.207  10.130  -8.654  1.00  0.00     0.008 C 
BRANCH  35  37
ATOM     37  C   UNL     1      18.382  10.783 -10.229  1.00  0.00     0.008 C 
ATOM     38  C   UNL     1      18.449  12.240 -10.707  1.00  0.00     0.012 C 
ATOM     39  C   UNL     1      19.059   9.836 -11.229  1.00  0.00     0.012 C 
ENDBRANCH  35  37
ENDBRANCH  34  35
ENDBRANCH   1  34
TORSDOF 9
ENDMDL
MODEL 4
REMARK VINA RESULT:    -7.012      6.419     10.078
REMARK INTER + INTRA:         -11.357
REMARK INTER:                 -10.297
REMARK INTRA:                  -1.060
REMARK UNBOUND:                -0.861
REMARK SMILES C=C(CC[C@@H](C(=O)[O-])[C@H]1[C@@H](O)C[C@@]2(C)C3=C(CC[C@]12C)[C@]1(C)CC[C@H](OC(C)=O)C(C)(C)[C@@H]1CC3)C(C)C
REMARK SMILES IDX 4 1 5 2 6 3 7 4 8 5 9 6 10 7 19 8 12 9 13 10 18 11 20 12
REMARK SMILES IDX 14 13 15 14 17 15 16 16 35 17 21 18 34 19 33 20 23 21 22 22
REMARK SMILES IDX 30 23 24 24 25 25 31 26 32 27 11 28 26 30 27 31 29 32 28 33
REMARK SMILES IDX 3 34 2 35 1 36 36 37 37 38 38 39
REMARK H PARENT 11 29
REMARK Flexibility Score: inf
ROOT
ATOM      1  C   UNL     1      16.463  20.702  -8.607  1.00  0.00     0.014 C 
ENDROOT
BRANCH   1   2
ATOM      2  C   UNL     1      17.601  20.057  -7.777  1.00  0.00     0.042 C 
BRANCH   2   3
ATOM      3  C   UNL     1      18.534  21.142  -7.300  1.00  0.00     0.045 C 
ATOM      4  O   UNL     1      19.753  21.125  -7.619  1.00  0.00    -0.550 OA
ATOM      5  O   UNL     1      18.060  22.152  -6.470  1.00  0.00    -0.550 OA
ENDBRANCH   2   3
BRANCH   2   6
ATOM      6  C   UNL     1      17.026  19.227  -6.578  1.00  0.00     0.033 C 
ATOM      7  C   UNL     1      15.945  18.176  -6.987  1.00  0.00     0.119 C 
ATOM      8  C   UNL     1      18.028  18.397  -5.716  1.00  0.00    -0.017 C 
ATOM      9  C   UNL     1      16.126  16.956  -6.055  1.00  0.00     0.043 C 
ATOM     10  C   UNL     1      17.075  17.435  -4.945  1.00  0.00    -0.003 C 
ATOM     11  C   UNL     1      18.854  19.178  -4.673  1.00  0.00     0.012 C 
ATOM     12  C   UNL     1      19.028  17.641  -6.659  1.00  0.00     0.013 C 
ATOM     13  C   UNL     1      16.196  18.111  -3.843  1.00  0.00     0.017 C 
ATOM     14  C   UNL     1      17.904  16.377  -4.236  1.00  0.00    -0.064 C 
ATOM     15  C   UNL     1      19.487  18.246  -3.595  1.00  0.00     0.032 C 
ATOM     16  C   UNL     1      19.032  16.762  -3.559  1.00  0.00    -0.064 C 
ATOM     17  C   UNL     1      17.366  14.977  -4.095  1.00  0.00     0.032 C 
ATOM     18  C   UNL     1      19.899  15.728  -2.773  1.00  0.00    -0.008 C 
ATOM     19  C   UNL     1      17.589  14.512  -2.672  1.00  0.00     0.009 C 
ATOM     20  C   UNL     1      19.102  14.401  -2.347  1.00  0.00     0.009 C 
ATOM     21  C   UNL     1      21.139  15.405  -3.653  1.00  0.00     0.015 C 
ATOM     22  C   UNL     1      20.413  16.402  -1.472  1.00  0.00     0.016 C 
ATOM     23  C   UNL     1      19.800  13.020  -2.740  1.00  0.00     0.005 C 
ATOM     24  C   UNL     1      20.822  14.394  -4.741  1.00  0.00     0.047 C 
ATOM     25  C   UNL     1      20.425  13.013  -4.194  1.00  0.00     0.182 C 
ATOM     26  C   UNL     1      18.823  11.819  -2.582  1.00  0.00     0.015 C 
ATOM     27  C   UNL     1      20.927  12.724  -1.703  1.00  0.00     0.015 C 
BRANCH   7  28
ATOM     28  O   UNL     1      16.088  17.769  -8.325  1.00  0.00    -0.393 OA
ATOM     29  H   UNL     1      16.647  18.456  -8.771  1.00  0.00     0.210 HD
ENDBRANCH   7  28
BRANCH  25  30
ATOM     30  O   UNL     1      19.543  12.420  -5.156  1.00  0.00    -0.462 OA
BRANCH  30  31
ATOM     31  C   UNL     1      19.910  12.078  -6.463  1.00  0.00     0.302 C 
ATOM     32  O   UNL     1      20.704  11.124  -6.688  1.00  0.00    -0.253 OA
ATOM     33  C   UNL     1      19.302  12.816  -7.605  1.00  0.00     0.139 C 
ENDBRANCH  30  31
ENDBRANCH  25  30
ENDBRANCH   2   6
ENDBRANCH   1   2
BRANCH   1  34
ATOM     34  C   UNL     1      16.793  20.741 -10.109  1.00  0.00     0.031 C 
BRANCH  34  35
ATOM     35  C   UNL     1      16.924  22.169 -10.591  1.00  0.00    -0.075 C 
ATOM     36  C   UNL     1      15.852  22.800 -11.103  1.00  0.00     0.008 C 
BRANCH  35  37
ATOM     37  C   UNL     1      18.285  22.848 -10.539  1.00  0.00     0.008 C 
ATOM     38  C   UNL     1      18.710  23.352 -11.926  1.00  0.00     0.012 C 
ATOM     39  C   UNL     1      18.306  23.981  -9.505  1.00  0.00     0.012 C 
ENDBRANCH  35  37
ENDBRANCH  34  35
ENDBRANCH   1  34
TORSDOF 9
ENDMDL
MODEL 5
REMARK VINA RESULT:    -7.000      6.019      9.135
REMARK INTER + INTRA:         -11.340
REMARK INTER:                 -10.706
REMARK INTRA:                  -0.633
REMARK UNBOUND:                -0.861
REMARK SMILES C=C(CC[C@@H](C(=O)[O-])[C@H]1[C@@H](O)C[C@@]2(C)C3=C(CC[C@]12C)[C@]1(C)CC[C@H](OC(C)=O)C(C)(C)[C@@H]1CC3)C(C)C
REMARK SMILES IDX 4 1 5 2 6 3 7 4 8 5 9 6 10 7 19 8 12 9 13 10 18 11 20 12
REMARK SMILES IDX 14 13 15 14 17 15 16 16 35 17 21 18 34 19 33 20 23 21 22 22
REMARK SMILES IDX 30 23 24 24 25 25 31 26 32 27 11 28 26 30 27 31 29 32 28 33
REMARK SMILES IDX 3 34 2 35 1 36 36 37 37 38 38 39
REMARK H PARENT 11 29
REMARK Flexibility Score: inf
ROOT
ATOM      1  C   UNL     1      16.847  13.625  -4.565  1.00  0.00     0.014 C 
ENDROOT
BRANCH   1   2
ATOM      2  C   UNL     1      17.111  15.144  -4.409  1.00  0.00     0.042 C 
BRANCH   2   3
ATOM      3  C   UNL     1      17.776  15.390  -3.077  1.00  0.00     0.045 C 
ATOM      4  O   UNL     1      17.454  16.386  -2.375  1.00  0.00    -0.550 OA
ATOM      5  O   UNL     1      18.778  14.536  -2.632  1.00  0.00    -0.550 OA
ENDBRANCH   2   3
BRANCH   2   6
ATOM      6  C   UNL     1      17.979  15.693  -5.593  1.00  0.00     0.033 C 
ATOM      7  C   UNL     1      17.539  15.178  -7.001  1.00  0.00     0.119 C 
ATOM      8  C   UNL     1      18.060  17.239  -5.784  1.00  0.00    -0.017 C 
ATOM      9  C   UNL     1      17.780  16.333  -7.999  1.00  0.00     0.043 C 
ATOM     10  C   UNL     1      18.627  17.359  -7.231  1.00  0.00    -0.003 C 
ATOM     11  C   UNL     1      19.013  18.002  -4.840  1.00  0.00     0.012 C 
ATOM     12  C   UNL     1      16.629  17.862  -5.635  1.00  0.00     0.013 C 
ATOM     13  C   UNL     1      20.124  16.941  -7.396  1.00  0.00     0.017 C 
ATOM     14  C   UNL     1      18.539  18.809  -7.680  1.00  0.00    -0.064 C 
ATOM     15  C   UNL     1      19.354  19.431  -5.365  1.00  0.00     0.032 C 
ATOM     16  C   UNL     1      18.921  19.796  -6.811  1.00  0.00    -0.064 C 
ATOM     17  C   UNL     1      18.256  19.126  -9.125  1.00  0.00     0.032 C 
ATOM     18  C   UNL     1      18.898  21.300  -7.231  1.00  0.00    -0.008 C 
ATOM     19  C   UNL     1      19.214  20.206  -9.582  1.00  0.00     0.009 C 
ATOM     20  C   UNL     1      18.970  21.534  -8.817  1.00  0.00     0.009 C 
ATOM     21  C   UNL     1      17.620  21.932  -6.607  1.00  0.00     0.015 C 
ATOM     22  C   UNL     1      20.125  22.009  -6.598  1.00  0.00     0.016 C 
ATOM     23  C   UNL     1      17.848  22.492  -9.427  1.00  0.00     0.005 C 
ATOM     24  C   UNL     1      16.375  21.628  -7.422  1.00  0.00     0.047 C 
ATOM     25  C   UNL     1      16.403  22.241  -8.832  1.00  0.00     0.182 C 
ATOM     26  C   UNL     1      17.799  22.403 -10.980  1.00  0.00     0.015 C 
ATOM     27  C   UNL     1      18.258  23.971  -9.150  1.00  0.00     0.015 C 
BRANCH   7  28
ATOM     28  O   UNL     1      16.182  14.812  -7.026  1.00  0.00    -0.393 OA
ATOM     29  H   UNL     1      16.032  14.341  -7.886  1.00  0.00     0.210 HD
ENDBRANCH   7  28
BRANCH  25  30
ATOM     30  O   UNL     1      15.614  21.389  -9.674  1.00  0.00    -0.462 OA
BRANCH  30  31
ATOM     31  C   UNL     1      14.289  21.647 -10.042  1.00  0.00     0.302 C 
ATOM     32  O   UNL     1      13.579  20.756 -10.585  1.00  0.00    -0.253 OA
ATOM     33  C   UNL     1      13.693  22.977  -9.731  1.00  0.00     0.139 C 
ENDBRANCH  30  31
ENDBRANCH  25  30
ENDBRANCH   2   6
ENDBRANCH   1   2
BRANCH   1  34
ATOM     34  C   UNL     1      15.410  13.244  -4.173  1.00  0.00     0.031 C 
BRANCH  34  35
ATOM     35  C   UNL     1      15.413  12.239  -3.041  1.00  0.00    -0.075 C 
ATOM     36  C   UNL     1      16.554  11.990  -2.375  1.00  0.00     0.008 C 
BRANCH  35  37
ATOM     37  C   UNL     1      14.132  11.485  -2.715  1.00  0.00     0.008 C 
ATOM     38  C   UNL     1      14.236  10.008  -3.120  1.00  0.00     0.012 C 
ATOM     39  C   UNL     1      13.758  11.633  -1.235  1.00  0.00     0.012 C 
ENDBRANCH  35  37
ENDBRANCH  34  35
ENDBRANCH   1  34
TORSDOF 9
ENDMDL
MODEL 6
REMARK VINA RESULT:    -6.913      6.411     10.010
REMARK INTER + INTRA:         -11.209
REMARK INTER:                 -10.052
REMARK INTRA:                  -1.157
REMARK UNBOUND:                -0.861
REMARK SMILES C=C(CC[C@@H](C(=O)[O-])[C@H]1[C@@H](O)C[C@@]2(C)C3=C(CC[C@]12C)[C@]1(C)CC[C@H](OC(C)=O)C(C)(C)[C@@H]1CC3)C(C)C
REMARK SMILES IDX 4 1 5 2 6 3 7 4 8 5 9 6 10 7 19 8 12 9 13 10 18 11 20 12
REMARK SMILES IDX 14 13 15 14 17 15 16 16 35 17 21 18 34 19 33 20 23 21 22 22
REMARK SMILES IDX 30 23 24 24 25 25 31 26 32 27 11 28 26 30 27 31 29 32 28 33
REMARK SMILES IDX 3 34 2 35 1 36 36 37 37 38 38 39
REMARK H PARENT 11 29
REMARK Flexibility Score: inf
ROOT
ATOM      1  C   UNL     1      16.395  20.884  -9.348  1.00  0.00     0.014 C 
ENDROOT
BRANCH   1   2
ATOM      2  C   UNL     1      17.275  19.715  -8.838  1.00  0.00     0.042 C 
BRANCH   2   3
ATOM      3  C   UNL     1      18.719  20.152  -8.845  1.00  0.00     0.045 C 
ATOM      4  O   UNL     1      19.090  21.149  -8.170  1.00  0.00    -0.550 OA
ATOM      5  O   UNL     1      19.646  19.475  -9.630  1.00  0.00    -0.550 OA
ENDBRANCH   2   3
BRANCH   2   6
ATOM      6  C   UNL     1      16.824  19.248  -7.411  1.00  0.00     0.033 C 
ATOM      7  C   UNL     1      15.326  18.815  -7.323  1.00  0.00     0.119 C 
ATOM      8  C   UNL     1      17.584  18.051  -6.759  1.00  0.00    -0.017 C 
ATOM      9  C   UNL     1      15.251  17.652  -6.307  1.00  0.00     0.043 C 
ATOM     10  C   UNL     1      16.618  17.641  -5.607  1.00  0.00    -0.003 C 
ATOM     11  C   UNL     1      18.959  18.365  -6.133  1.00  0.00     0.012 C 
ATOM     12  C   UNL     1      17.784  16.916  -7.823  1.00  0.00     0.013 C 
ATOM     13  C   UNL     1      16.537  18.650  -4.416  1.00  0.00     0.017 C 
ATOM     14  C   UNL     1      17.085  16.321  -5.014  1.00  0.00    -0.064 C 
ATOM     15  C   UNL     1      19.436  17.249  -5.154  1.00  0.00     0.032 C 
ATOM     16  C   UNL     1      18.419  16.143  -4.761  1.00  0.00    -0.064 C 
ATOM     17  C   UNL     1      16.069  15.329  -4.511  1.00  0.00     0.032 C 
ATOM     18  C   UNL     1      18.953  14.828  -4.109  1.00  0.00    -0.008 C 
ATOM     19  C   UNL     1      16.520  14.817  -3.159  1.00  0.00     0.009 C 
ATOM     20  C   UNL     1      17.846  14.021  -3.273  1.00  0.00     0.009 C 
ATOM     21  C   UNL     1      19.564  13.965  -5.250  1.00  0.00     0.015 C 
ATOM     22  C   UNL     1      20.104  15.192  -3.133  1.00  0.00     0.016 C 
ATOM     23  C   UNL     1      17.700  12.473  -3.634  1.00  0.00     0.005 C 
ATOM     24  C   UNL     1      18.500  13.213  -6.031  1.00  0.00     0.047 C 
ATOM     25  C   UNL     1      17.744  12.173  -5.187  1.00  0.00     0.182 C 
ATOM     26  C   UNL     1      16.409  11.859  -3.017  1.00  0.00     0.015 C 
ATOM     27  C   UNL     1      18.856  11.692  -2.935  1.00  0.00     0.015 C 
BRANCH   7  28
ATOM     28  O   UNL     1      14.830  18.385  -8.566  1.00  0.00    -0.393 OA
ATOM     29  H   UNL     1      14.617  17.421  -8.468  1.00  0.00     0.210 HD
ENDBRANCH   7  28
BRANCH  25  30
ATOM     30  O   UNL     1      16.431  12.052  -5.750  1.00  0.00    -0.462 OA
BRANCH  30  31
ATOM     31  C   UNL     1      16.137  12.192  -7.111  1.00  0.00     0.302 C 
ATOM     32  O   UNL     1      16.475  11.308  -7.945  1.00  0.00    -0.253 OA
ATOM     33  C   UNL     1      15.357  13.377  -7.568  1.00  0.00     0.139 C 
ENDBRANCH  30  31
ENDBRANCH  25  30
ENDBRANCH   2   6
ENDBRANCH   1   2
BRANCH   1  34
ATOM     34  C   UNL     1      16.697  21.238 -10.814  1.00  0.00     0.031 C 
BRANCH  34  35
ATOM     35  C   UNL     1      16.533  22.724 -11.050  1.00  0.00    -0.075 C 
ATOM     36  C   UNL     1      15.305  23.233 -11.255  1.00  0.00     0.008 C 
BRANCH  35  37
ATOM     37  C   UNL     1      17.770  23.608 -11.106  1.00  0.00     0.008 C 
ATOM     38  C   UNL     1      18.231  24.011  -9.698  1.00  0.00     0.012 C 
ATOM     39  C   UNL     1      18.903  22.936 -11.892  1.00  0.00     0.012 C 
ENDBRANCH  35  37
ENDBRANCH  34  35
ENDBRANCH   1  34
TORSDOF 9
ENDMDL
MODEL 7
REMARK VINA RESULT:    -6.903      4.788      8.929
REMARK INTER + INTRA:         -11.195
REMARK INTER:                  -9.989
REMARK INTRA:                  -1.205
REMARK UNBOUND:                -0.861
REMARK SMILES C=C(CC[C@@H](C(=O)[O-])[C@H]1[C@@H](O)C[C@@]2(C)C3=C(CC[C@]12C)[C@]1(C)CC[C@H](OC(C)=O)C(C)(C)[C@@H]1CC3)C(C)C
REMARK SMILES IDX 4 1 5 2 6 3 7 4 8 5 9 6 10 7 19 8 12 9 13 10 18 11 20 12
REMARK SMILES IDX 14 13 15 14 17 15 16 16 35 17 21 18 34 19 33 20 23 21 22 22
REMARK SMILES IDX 30 23 24 24 25 25 31 26 32 27 11 28 26 30 27 31 29 32 28 33
REMARK SMILES IDX 3 34 2 35 1 36 36 37 37 38 38 39
REMARK H PARENT 11 29
REMARK Flexibility Score: inf
ROOT
ATOM      1  C   UNL     1      17.422  14.576  -2.754  1.00  0.00     0.014 C 
ENDROOT
BRANCH   1   2
ATOM      2  C   UNL     1      17.879  15.910  -3.396  1.00  0.00     0.042 C 
BRANCH   2   3
ATOM      3  C   UNL     1      19.387  15.956  -3.406  1.00  0.00     0.045 C 
ATOM      4  O   UNL     1      20.003  16.912  -2.864  1.00  0.00    -0.550 OA
ATOM      5  O   UNL     1      20.109  14.957  -4.051  1.00  0.00    -0.550 OA
ENDBRANCH   2   3
BRANCH   2   6
ATOM      6  C   UNL     1      17.291  16.075  -4.839  1.00  0.00     0.033 C 
ATOM      7  C   UNL     1      15.737  16.240  -4.881  1.00  0.00     0.119 C 
ATOM      8  C   UNL     1      17.803  17.266  -5.706  1.00  0.00    -0.017 C 
ATOM      9  C   UNL     1      15.418  17.207  -6.044  1.00  0.00     0.043 C 
ATOM     10  C   UNL     1      16.730  17.334  -6.834  1.00  0.00    -0.003 C 
ATOM     11  C   UNL     1      19.181  17.089  -6.377  1.00  0.00     0.012 C 
ATOM     12  C   UNL     1      17.854  18.567  -4.832  1.00  0.00     0.013 C 
ATOM     13  C   UNL     1      16.769  16.156  -7.861  1.00  0.00     0.017 C 
ATOM     14  C   UNL     1      16.936  18.607  -7.640  1.00  0.00    -0.064 C 
ATOM     15  C   UNL     1      19.415  18.106  -7.536  1.00  0.00     0.032 C 
ATOM     16  C   UNL     1      18.207  18.958  -8.010  1.00  0.00    -0.064 C 
ATOM     17  C   UNL     1      15.743  19.332  -8.206  1.00  0.00     0.032 C 
ATOM     18  C   UNL     1      18.477  20.228  -8.878  1.00  0.00    -0.008 C 
ATOM     19  C   UNL     1      16.037  19.698  -9.645  1.00  0.00     0.009 C 
ATOM     20  C   UNL     1      17.212  20.708  -9.740  1.00  0.00     0.009 C 
ATOM     21  C   UNL     1      18.983  21.342  -7.917  1.00  0.00     0.015 C 
ATOM     22  C   UNL     1      19.627  19.912  -9.871  1.00  0.00     0.016 C 
ATOM     23  C   UNL     1      16.819  22.249  -9.593  1.00  0.00     0.005 C 
ATOM     24  C   UNL     1      17.843  22.022  -7.178  1.00  0.00     0.047 C 
ATOM     25  C   UNL     1      16.882  22.784  -8.105  1.00  0.00     0.182 C 
ATOM     26  C   UNL     1      15.416  22.543 -10.198  1.00  0.00     0.015 C 
ATOM     27  C   UNL     1      17.791  23.092 -10.476  1.00  0.00     0.015 C 
BRANCH   7  28
ATOM     28  O   UNL     1      15.233  16.768  -3.680  1.00  0.00    -0.393 OA
ATOM     29  H   UNL     1      14.344  17.154  -3.892  1.00  0.00     0.210 HD
ENDBRANCH   7  28
BRANCH  25  30
ATOM     30  O   UNL     1      15.595  22.774  -7.474  1.00  0.00    -0.462 OA
BRANCH  30  31
ATOM     31  C   UNL     1      15.362  23.139  -6.144  1.00  0.00     0.302 C 
ATOM     32  O   UNL     1      15.508  24.332  -5.760  1.00  0.00    -0.253 OA
ATOM     33  C   UNL     1      14.876  22.109  -5.182  1.00  0.00     0.139 C 
ENDBRANCH  30  31
ENDBRANCH  25  30
ENDBRANCH   2   6
ENDBRANCH   1   2
BRANCH   1  34
ATOM     34  C   UNL     1      17.428  13.416  -3.763  1.00  0.00     0.031 C 
BRANCH  34  35
ATOM     35  C   UNL     1      16.057  12.783  -3.858  1.00  0.00    -0.075 C 
ATOM     36  C   UNL     1      15.375  12.501  -2.733  1.00  0.00     0.008 C 
BRANCH  35  37
ATOM     37  C   UNL     1      15.497  12.425  -5.227  1.00  0.00     0.008 C 
ATOM     38  C   UNL     1      14.150  13.118  -5.477  1.00  0.00     0.012 C 
ATOM     39  C   UNL     1      16.502  12.741  -6.342  1.00  0.00     0.012 C 
ENDBRANCH  35  37
ENDBRANCH  34  35
ENDBRANCH   1  34
TORSDOF 9
ENDMDL
MODEL 8
REMARK VINA RESULT:    -6.871      4.905      9.526
REMARK INTER + INTRA:         -11.146
REMARK INTER:                 -10.099
REMARK INTRA:                  -1.047
REMARK UNBOUND:                -0.861
REMARK SMILES C=C(CC[C@@H](C(=O)[O-])[C@H]1[C@@H](O)C[C@@]2(C)C3=C(CC[C@]12C)[C@]1(C)CC[C@H](OC(C)=O)C(C)(C)[C@@H]1CC3)C(C)C
REMARK SMILES IDX 4 1 5 2 6 3 7 4 8 5 9 6 10 7 19 8 12 9 13 10 18 11 20 12
REMARK SMILES IDX 14 13 15 14 17 15 16 16 35 17 21 18 34 19 33 20 23 21 22 22
REMARK SMILES IDX 30 23 24 24 25 25 31 26 32 27 11 28 26 30 27 31 29 32 28 33
REMARK SMILES IDX 3 34 2 35 1 36 36 37 37 38 38 39
REMARK H PARENT 11 29
REMARK Flexibility Score: inf
ROOT
ATOM      1  C   UNL     1      17.900  14.803  -2.485  1.00  0.00     0.014 C 
ENDROOT
BRANCH   1   2
ATOM      2  C   UNL     1      18.342  16.093  -3.220  1.00  0.00     0.042 C 
BRANCH   2   3
ATOM      3  C   UNL     1      19.847  16.106  -3.323  1.00  0.00     0.045 C 
ATOM      4  O   UNL     1      20.515  17.052  -2.828  1.00  0.00    -0.550 OA
ATOM      5  O   UNL     1      20.507  15.086  -4.001  1.00  0.00    -0.550 OA
ENDBRANCH   2   3
BRANCH   2   6
ATOM      6  C   UNL     1      17.671  16.199  -4.632  1.00  0.00     0.033 C 
ATOM      7  C   UNL     1      16.112  16.303  -4.593  1.00  0.00     0.119 C 
ATOM      8  C   UNL     1      18.087  17.388  -5.553  1.00  0.00    -0.017 C 
ATOM      9  C   UNL     1      15.692  17.227  -5.758  1.00  0.00     0.043 C 
ATOM     10  C   UNL     1      16.953  17.386  -6.622  1.00  0.00    -0.003 C 
ATOM     11  C   UNL     1      19.433  17.248  -6.295  1.00  0.00     0.012 C 
ATOM     12  C   UNL     1      18.133  18.711  -4.712  1.00  0.00     0.013 C 
ATOM     13  C   UNL     1      16.983  16.186  -7.622  1.00  0.00     0.017 C 
ATOM     14  C   UNL     1      17.063  18.645  -7.466  1.00  0.00    -0.064 C 
ATOM     15  C   UNL     1      19.563  18.245  -7.487  1.00  0.00     0.032 C 
ATOM     16  C   UNL     1      18.298  19.037  -7.913  1.00  0.00    -0.064 C 
ATOM     17  C   UNL     1      15.814  19.309  -7.982  1.00  0.00     0.032 C 
ATOM     18  C   UNL     1      18.469  20.295  -8.823  1.00  0.00    -0.008 C 
ATOM     19  C   UNL     1      16.015  19.651  -9.443  1.00  0.00     0.009 C 
ATOM     20  C   UNL     1      17.141  20.703  -9.625  1.00  0.00     0.009 C 
ATOM     21  C   UNL     1      18.980  21.451  -7.917  1.00  0.00     0.015 C 
ATOM     22  C   UNL     1      19.576  20.000  -9.871  1.00  0.00     0.016 C 
ATOM     23  C   UNL     1      16.694  22.230  -9.492  1.00  0.00     0.005 C 
ATOM     24  C   UNL     1      17.855  22.104  -7.132  1.00  0.00     0.047 C 
ATOM     25  C   UNL     1      16.816  22.804  -8.022  1.00  0.00     0.182 C 
ATOM     26  C   UNL     1      15.250  22.455 -10.025  1.00  0.00     0.015 C 
ATOM     27  C   UNL     1      17.582  23.089 -10.445  1.00  0.00     0.015 C 
BRANCH   7  28
ATOM     28  O   UNL     1      15.652  16.840  -3.379  1.00  0.00    -0.393 OA
ATOM     29  H   UNL     1      15.331  16.075  -2.834  1.00  0.00     0.210 HD
ENDBRANCH   7  28
BRANCH  25  30
ATOM     30  O   UNL     1      15.566  22.760  -7.321  1.00  0.00    -0.462 OA
BRANCH  30  31
ATOM     31  C   UNL     1      15.431  22.885  -5.934  1.00  0.00     0.302 C 
ATOM     32  O   UNL     1      15.529  24.009  -5.369  1.00  0.00    -0.253 OA
ATOM     33  C   UNL     1      15.106  21.677  -5.124  1.00  0.00     0.139 C 
ENDBRANCH  30  31
ENDBRANCH  25  30
ENDBRANCH   2   6
ENDBRANCH   1   2
BRANCH   1  34
ATOM     34  C   UNL     1      18.632  14.620  -1.146  1.00  0.00     0.031 C 
BRANCH  34  35
ATOM     35  C   UNL     1      19.026  13.173  -0.944  1.00  0.00    -0.075 C 
ATOM     36  C   UNL     1      18.793  12.579   0.241  1.00  0.00     0.008 C 
BRANCH  35  37
ATOM     37  C   UNL     1      19.730  12.430  -2.070  1.00  0.00     0.008 C 
ATOM     38  C   UNL     1      21.209  12.187  -1.737  1.00  0.00     0.012 C 
ATOM     39  C   UNL     1      19.012  11.119  -2.410  1.00  0.00     0.012 C 
ENDBRANCH  35  37
ENDBRANCH  34  35
ENDBRANCH   1  34
TORSDOF 9
ENDMDL
MODEL 9
REMARK VINA RESULT:    -6.736      1.640      2.033
REMARK INTER + INTRA:         -10.944
REMARK INTER:                  -9.975
REMARK INTRA:                  -0.969
REMARK UNBOUND:                -0.861
REMARK SMILES C=C(CC[C@@H](C(=O)[O-])[C@H]1[C@@H](O)C[C@@]2(C)C3=C(CC[C@]12C)[C@]1(C)CC[C@H](OC(C)=O)C(C)(C)[C@@H]1CC3)C(C)C
REMARK SMILES IDX 4 1 5 2 6 3 7 4 8 5 9 6 10 7 19 8 12 9 13 10 18 11 20 12
REMARK SMILES IDX 14 13 15 14 17 15 16 16 35 17 21 18 34 19 33 20 23 21 22 22
REMARK SMILES IDX 30 23 24 24 25 25 31 26 32 27 11 28 26 30 27 31 29 32 28 33
REMARK SMILES IDX 3 34 2 35 1 36 36 37 37 38 38 39
REMARK H PARENT 11 29
REMARK Flexibility Score: inf
ROOT
ATOM      1  C   UNL     1       8.709  22.195  -4.899  1.00  0.00     0.014 C 
ENDROOT
BRANCH   1   2
ATOM      2  C   UNL     1       9.688  21.824  -6.041  1.00  0.00     0.042 C 
BRANCH   2   3
ATOM      3  C   UNL     1       9.047  22.163  -7.364  1.00  0.00     0.045 C 
ATOM      4  O   UNL     1       8.839  21.265  -8.223  1.00  0.00    -0.550 OA
ATOM      5  O   UNL     1       8.715  23.480  -7.659  1.00  0.00    -0.550 OA
ENDBRANCH   2   3
BRANCH   2   6
ATOM      6  C   UNL     1      11.064  22.555  -5.867  1.00  0.00     0.033 C 
ATOM      7  C   UNL     1      11.742  22.320  -4.479  1.00  0.00     0.119 C 
ATOM      8  C   UNL     1      12.201  22.226  -6.883  1.00  0.00    -0.017 C 
ATOM      9  C   UNL     1      13.268  22.278  -4.723  1.00  0.00     0.043 C 
ATOM     10  C   UNL     1      13.460  22.791  -6.159  1.00  0.00    -0.003 C 
ATOM     11  C   UNL     1      12.109  22.904  -8.266  1.00  0.00     0.012 C 
ATOM     12  C   UNL     1      12.270  20.675  -7.108  1.00  0.00     0.013 C 
ATOM     13  C   UNL     1      13.542  24.350  -6.087  1.00  0.00     0.017 C 
ATOM     14  C   UNL     1      14.706  22.334  -6.899  1.00  0.00    -0.064 C 
ATOM     15  C   UNL     1      13.463  22.869  -9.039  1.00  0.00     0.032 C 
ATOM     16  C   UNL     1      14.728  22.405  -8.267  1.00  0.00    -0.064 C 
ATOM     17  C   UNL     1      15.963  22.028  -6.126  1.00  0.00     0.032 C 
ATOM     18  C   UNL     1      15.996  21.994  -9.081  1.00  0.00    -0.008 C 
ATOM     19  C   UNL     1      17.135  22.676  -6.831  1.00  0.00     0.009 C 
ATOM     20  C   UNL     1      17.360  22.058  -8.236  1.00  0.00     0.009 C 
ATOM     21  C   UNL     1      15.733  20.573  -9.655  1.00  0.00     0.015 C 
ATOM     22  C   UNL     1      16.146  22.963 -10.284  1.00  0.00     0.016 C 
ATOM     23  C   UNL     1      18.263  20.742  -8.282  1.00  0.00     0.005 C 
ATOM     24  C   UNL     1      15.975  19.485  -8.623  1.00  0.00     0.047 C 
ATOM     25  C   UNL     1      17.438  19.397  -8.159  1.00  0.00     0.182 C 
ATOM     26  C   UNL     1      19.379  20.775  -7.198  1.00  0.00     0.015 C 
ATOM     27  C   UNL     1      19.051  20.731  -9.628  1.00  0.00     0.015 C 
BRANCH   7  28
ATOM     28  O   UNL     1      11.328  21.113  -3.889  1.00  0.00    -0.393 OA
ATOM     29  H   UNL     1      12.003  20.890  -3.197  1.00  0.00     0.210 HD
ENDBRANCH   7  28
BRANCH  25  30
ATOM     30  O   UNL     1      17.421  18.897  -6.815  1.00  0.00    -0.462 OA
BRANCH  30  31
ATOM     31  C   UNL     1      16.474  17.995  -6.318  1.00  0.00     0.302 C 
ATOM     32  O   UNL     1      16.494  16.779  -6.652  1.00  0.00    -0.253 OA
ATOM     33  C   UNL     1      15.465  18.473  -5.330  1.00  0.00     0.139 C 
ENDBRANCH  30  31
ENDBRANCH  25  30
ENDBRANCH   2   6
ENDBRANCH   1   2
BRANCH   1  34
ATOM     34  C   UNL     1       8.906  23.641  -4.414  1.00  0.00     0.031 C 
BRANCH  34  35
ATOM     35  C   UNL     1       8.267  23.842  -3.057  1.00  0.00    -0.075 C 
ATOM     36  C   UNL     1       6.945  24.077  -2.973  1.00  0.00     0.008 C 
BRANCH  35  37
ATOM     37  C   UNL     1       9.144  23.830  -1.814  1.00  0.00     0.008 C 
ATOM     38  C   UNL     1       9.345  22.402  -1.288  1.00  0.00     0.012 C 
ATOM     39  C   UNL     1      10.488  24.524  -2.071  1.00  0.00     0.012 C 
ENDBRANCH  35  37
ENDBRANCH  34  35
ENDBRANCH   1  34
TORSDOF 9
ENDMDL
