MODEL 1
REMARK VINA RESULT:    57.284      0.000      0.000
REMARK INTER + INTRA:          79.360
REMARK INTER:                  79.052
REMARK INTRA:                   0.308
REMARK UNBOUND:                 0.308
REMARK SMILES CC[C@H](CC[C@@H](C)[C@@H]1CC[C@@H]2[C@H]3CC=C4C[C@H](O)CC[C@]4(C)[C@H]3CC[C@]21C)C(C)C
REMARK SMILES IDX 5 1 4 2 3 3 2 4 1 5 28 6 29 7 30 8 6 9 7 10 8 11 9 12 26 13
REMARK SMILES IDX 10 14 11 15 25 16 27 17 12 18 24 19 23 20 13 21 21 22 14 23
REMARK SMILES IDX 15 24 20 25 22 26 16 27 19 28 17 29 18 30
REMARK H PARENT 18 31
REMARK Flexibility Score: inf
ROOT
ATOM      1  C   UNL     1     -26.034  31.945  -7.685  1.00  0.00     0.004 C 
ENDROOT
BRANCH   1   2
ATOM      2  C   UNL     1     -27.429  31.813  -7.043  1.00  0.00     0.004 C 
BRANCH   2   3
ATOM      3  C   UNL     1     -27.674  30.419  -6.401  1.00  0.00    -0.009 C 
BRANCH   3   4
ATOM      4  C   UNL     1     -27.463  29.262  -7.426  1.00  0.00     0.000 C 
ATOM      5  C   UNL     1     -27.586  27.880  -6.783  1.00  0.00     0.004 C 
ENDBRANCH   3   4
BRANCH   3   6
ATOM      6  C   UNL     1     -26.819  30.255  -5.103  1.00  0.00    -0.014 C 
ATOM      7  C   UNL     1     -27.503  29.414  -4.012  1.00  0.00     0.007 C 
ATOM      8  C   UNL     1     -26.373  31.612  -4.535  1.00  0.00     0.007 C 
ENDBRANCH   3   6
ENDBRANCH   2   3
ENDBRANCH   1   2
BRANCH   1   9
ATOM      9  C   UNL     1     -25.499  30.626  -8.301  1.00  0.00    -0.011 C 
ATOM     10  C   UNL     1     -25.610  30.673  -9.841  1.00  0.00     0.008 C 
BRANCH   9  11
ATOM     11  C   UNL     1     -24.013  30.355  -7.875  1.00  0.00    -0.002 C 
ATOM     12  C   UNL     1     -22.989  30.946  -8.881  1.00  0.00     0.005 C 
ATOM     13  C   UNL     1     -23.546  28.874  -7.701  1.00  0.00    -0.026 C 
ATOM     14  C   UNL     1     -21.748  30.044  -8.856  1.00  0.00     0.005 C 
ATOM     15  C   UNL     1     -22.017  29.067  -7.722  1.00  0.00    -0.001 C 
ATOM     16  C   UNL     1     -23.945  28.200  -6.347  1.00  0.00     0.007 C 
ATOM     17  C   UNL     1     -24.047  28.000  -8.897  1.00  0.00     0.012 C 
ATOM     18  C   UNL     1     -21.238  27.732  -7.731  1.00  0.00     0.000 C 
ATOM     19  C   UNL     1     -22.786  27.439  -5.653  1.00  0.00     0.005 C 
ATOM     20  C   UNL     1     -21.814  26.731  -6.651  1.00  0.00     0.003 C 
ATOM     21  C   UNL     1     -19.730  27.974  -7.570  1.00  0.00     0.031 C 
ATOM     22  C   UNL     1     -20.731  25.819  -5.925  1.00  0.00    -0.008 C 
ATOM     23  C   UNL     1     -19.021  26.655  -7.548  1.00  0.00    -0.027 C 
ATOM     24  C   UNL     1     -19.516  25.609  -6.856  1.00  0.00    -0.065 C 
ATOM     25  C   UNL     1     -21.407  24.462  -5.498  1.00  0.00     0.014 C 
ATOM     26  C   UNL     1     -20.189  26.479  -4.626  1.00  0.00     0.016 C 
ATOM     27  C   UNL     1     -18.877  24.255  -7.121  1.00  0.00     0.063 C 
ATOM     28  C   UNL     1     -21.081  23.291  -6.420  1.00  0.00     0.033 C 
ATOM     29  C   UNL     1     -19.568  23.080  -6.429  1.00  0.00     0.118 C 
BRANCH  29  30
ATOM     30  O   UNL     1     -19.254  21.892  -7.109  1.00  0.00    -0.393 OA
ATOM     31  H   UNL     1     -19.679  21.953  -8.005  1.00  0.00     0.210 HD
ENDBRANCH  29  30
ENDBRANCH   9  11
ENDBRANCH   1   9
TORSDOF 7
ENDMDL
