MODEL 1
REMARK VINA RESULT:    -7.219      0.000      0.000
REMARK INTER + INTRA:          -8.863
REMARK INTER:                  -8.696
REMARK INTRA:                  -0.166
REMARK UNBOUND:                -0.166
REMARK SMILES O=c1c(O)c(-c2ccc(O)c(O)c2)oc2cc(O)cc(O)c12
REMARK SMILES IDX 5 1 3 2 2 3 1 4 22 5 20 6 19 7 17 8 16 9 15 10 14 11 6 12
REMARK SMILES IDX 7 13 8 14 9 15 13 16 11 17 10 18 12 20 4 22 21 24 18 26
REMARK H PARENT 10 19 12 21 4 23 21 25 18 27
REMARK Flexibility Score: inf
ROOT
ATOM      1  C   UNL     1      15.672 -19.709  12.716  1.00  0.00     0.180 A 
ATOM      2  C   UNL     1      16.946 -19.735  12.124  1.00  0.00     0.208 A 
ATOM      3  C   UNL     1      18.065 -19.995  12.930  1.00  0.00     0.238 A 
ATOM      4  O   UNL     1      19.197 -20.071  12.384  1.00  0.00    -0.285 OA
ATOM      5  C   UNL     1      17.900 -20.208  14.318  1.00  0.00     0.111 A 
ATOM      6  C   UNL     1      18.969 -20.440  15.236  1.00  0.00     0.134 A 
ATOM      7  C   UNL     1      18.677 -20.768  16.567  1.00  0.00     0.093 A 
ATOM      8  C   UNL     1      17.362 -20.810  17.027  1.00  0.00     0.123 A 
ATOM      9  C   UNL     1      16.312 -20.526  16.152  1.00  0.00     0.094 A 
ATOM     10  C   UNL     1      16.569 -20.231  14.811  1.00  0.00     0.146 A 
ATOM     11  O   UNL     1      15.542 -19.977  14.009  1.00  0.00    -0.452 OA
ENDROOT
BRANCH   1  12
ATOM     12  C   UNL     1      14.446 -19.416  11.937  1.00  0.00     0.025 A 
ATOM     13  C   UNL     1      14.007 -20.334  10.970  1.00  0.00     0.016 A 
ATOM     14  C   UNL     1      12.843 -20.088  10.238  1.00  0.00     0.051 A 
ATOM     15  C   UNL     1      12.093 -18.928  10.473  1.00  0.00     0.157 A 
ATOM     16  C   UNL     1      13.680 -18.263  12.184  1.00  0.00     0.062 A 
ATOM     17  C   UNL     1      12.510 -18.016  11.451  1.00  0.00     0.158 A 
BRANCH  15  18
ATOM     18  O   UNL     1      10.932 -18.678   9.744  1.00  0.00    -0.504 OA
ATOM     19  H   UNL     1      10.101 -19.247   9.857  1.00  0.00     0.293 HD
ENDBRANCH  15  18
BRANCH  17  20
ATOM     20  O   UNL     1      11.754 -16.870  11.692  1.00  0.00    -0.504 OA
ATOM     21  H   UNL     1      11.539 -16.212  10.952  1.00  0.00     0.293 HD
ENDBRANCH  17  20
ENDBRANCH   1  12
BRANCH   2  22
ATOM     22  O   UNL     1      17.084 -19.543  10.746  1.00  0.00    -0.502 OA
ATOM     23  H   UNL     1      16.338 -19.169  10.172  1.00  0.00     0.293 HD
ENDBRANCH   2  22
BRANCH   6  24
ATOM     24  O   UNL     1      20.321 -20.334  14.902  1.00  0.00    -0.507 OA
ATOM     25  H   UNL     1      21.007 -21.063  15.037  1.00  0.00     0.293 HD
ENDBRANCH   6  24
BRANCH   8  26
ATOM     26  O   UNL     1      17.111 -21.125  18.361  1.00  0.00    -0.508 OA
ATOM     27  H   UNL     1      16.166 -21.243  18.708  1.00  0.00     0.293 HD
ENDBRANCH   8  26
TORSDOF 6
ENDMDL
MODEL 2
REMARK VINA RESULT:    -6.543      1.700      2.821
REMARK INTER + INTRA:          -8.048
REMARK INTER:                  -7.908
REMARK INTRA:                  -0.141
REMARK UNBOUND:                -0.166
REMARK SMILES O=c1c(O)c(-c2ccc(O)c(O)c2)oc2cc(O)cc(O)c12
REMARK SMILES IDX 5 1 3 2 2 3 1 4 22 5 20 6 19 7 17 8 16 9 15 10 14 11 6 12
REMARK SMILES IDX 7 13 8 14 9 15 13 16 11 17 10 18 12 20 4 22 21 24 18 26
REMARK H PARENT 10 19 12 21 4 23 21 25 18 27
REMARK Flexibility Score: inf
ROOT
ATOM      1  C   UNL     1      14.106 -19.161  11.132  1.00  0.00     0.180 A 
ATOM      2  C   UNL     1      15.077 -19.630  10.231  1.00  0.00     0.208 A 
ATOM      3  C   UNL     1      16.261 -20.190  10.736  1.00  0.00     0.238 A 
ATOM      4  O   UNL     1      17.102 -20.657   9.925  1.00  0.00    -0.285 OA
ATOM      5  C   UNL     1      16.467 -20.259  12.134  1.00  0.00     0.111 A 
ATOM      6  C   UNL     1      17.646 -20.771  12.756  1.00  0.00     0.134 A 
ATOM      7  C   UNL     1      17.687 -20.911  14.149  1.00  0.00     0.093 A 
ATOM      8  C   UNL     1      16.619 -20.501  14.946  1.00  0.00     0.123 A 
ATOM      9  C   UNL     1      15.485 -19.945  14.352  1.00  0.00     0.094 A 
ATOM     10  C   UNL     1      15.400 -19.825  12.964  1.00  0.00     0.146 A 
ATOM     11  O   UNL     1      14.300 -19.300  12.438  1.00  0.00    -0.452 OA
ENDROOT
BRANCH   1  12
ATOM     12  C   UNL     1      12.844 -18.534  10.676  1.00  0.00     0.025 A 
ATOM     13  C   UNL     1      12.607 -17.178  10.952  1.00  0.00     0.016 A 
ATOM     14  C   UNL     1      11.432 -16.562  10.514  1.00  0.00     0.051 A 
ATOM     15  C   UNL     1      10.485 -17.288   9.780  1.00  0.00     0.157 A 
ATOM     16  C   UNL     1      11.899 -19.255   9.922  1.00  0.00     0.062 A 
ATOM     17  C   UNL     1      10.721 -18.635   9.480  1.00  0.00     0.158 A 
BRANCH  15  18
ATOM     18  O   UNL     1       9.311 -16.678   9.344  1.00  0.00    -0.504 OA
ATOM     19  H   UNL     1       8.899 -16.903   8.444  1.00  0.00     0.293 HD
ENDBRANCH  15  18
BRANCH  17  20
ATOM     20  O   UNL     1       9.783 -19.351   8.739  1.00  0.00    -0.504 OA
ATOM     21  H   UNL     1       8.830 -19.469   9.062  1.00  0.00     0.293 HD
ENDBRANCH  17  20
ENDBRANCH   1  12
BRANCH   2  22
ATOM     22  O   UNL     1      14.844 -19.571   8.854  1.00  0.00    -0.502 OA
ATOM     23  H   UNL     1      14.168 -20.168   8.391  1.00  0.00     0.293 HD
ENDBRANCH   2  22
BRANCH   6  24
ATOM     24  O   UNL     1      18.805 -21.124  12.059  1.00  0.00    -0.507 OA
ATOM     25  H   UNL     1      19.731 -21.156  12.459  1.00  0.00     0.293 HD
ENDBRANCH   6  24
BRANCH   8  26
ATOM     26  O   UNL     1      16.701 -20.642  16.329  1.00  0.00    -0.508 OA
ATOM     27  H   UNL     1      16.957 -19.865  16.927  1.00  0.00     0.293 HD
ENDBRANCH   8  26
TORSDOF 6
ENDMDL
MODEL 3
REMARK VINA RESULT:    -6.504      2.861      8.264
REMARK INTER + INTRA:          -8.002
REMARK INTER:                  -7.853
REMARK INTRA:                  -0.149
REMARK UNBOUND:                -0.166
REMARK SMILES O=c1c(O)c(-c2ccc(O)c(O)c2)oc2cc(O)cc(O)c12
REMARK SMILES IDX 5 1 3 2 2 3 1 4 22 5 20 6 19 7 17 8 16 9 15 10 14 11 6 12
REMARK SMILES IDX 7 13 8 14 9 15 13 16 11 17 10 18 12 20 4 22 21 24 18 26
REMARK H PARENT 10 19 12 21 4 23 21 25 18 27
REMARK Flexibility Score: inf
ROOT
ATOM      1  C   UNL     1      13.129 -18.207  10.197  1.00  0.00     0.180 A 
ATOM      2  C   UNL     1      13.181 -16.811  10.049  1.00  0.00     0.208 A 
ATOM      3  C   UNL     1      12.067 -16.141   9.519  1.00  0.00     0.238 A 
ATOM      4  O   UNL     1      12.099 -14.885   9.441  1.00  0.00    -0.285 OA
ATOM      5  C   UNL     1      10.923 -16.875   9.128  1.00  0.00     0.111 A 
ATOM      6  C   UNL     1       9.753 -16.303   8.542  1.00  0.00     0.134 A 
ATOM      7  C   UNL     1       8.630 -17.109   8.315  1.00  0.00     0.093 A 
ATOM      8  C   UNL     1       8.656 -18.475   8.592  1.00  0.00     0.123 A 
ATOM      9  C   UNL     1       9.815 -19.056   9.110  1.00  0.00     0.094 A 
ATOM     10  C   UNL     1      10.938 -18.272   9.380  1.00  0.00     0.146 A 
ATOM     11  O   UNL     1      12.017 -18.861   9.882  1.00  0.00    -0.452 OA
ENDROOT
BRANCH   1  12
ATOM     12  C   UNL     1      14.272 -18.988  10.724  1.00  0.00     0.025 A 
ATOM     13  C   UNL     1      15.487 -18.995  10.019  1.00  0.00     0.016 A 
ATOM     14  C   UNL     1      16.584 -19.708  10.508  1.00  0.00     0.051 A 
ATOM     15  C   UNL     1      16.488 -20.411  11.717  1.00  0.00     0.157 A 
ATOM     16  C   UNL     1      14.186 -19.678  11.946  1.00  0.00     0.062 A 
ATOM     17  C   UNL     1      15.288 -20.392  12.439  1.00  0.00     0.158 A 
BRANCH  15  18
ATOM     18  O   UNL     1      17.579 -21.125  12.207  1.00  0.00    -0.504 OA
ATOM     19  H   UNL     1      18.181 -20.745  12.930  1.00  0.00     0.293 HD
ENDBRANCH  15  18
BRANCH  17  20
ATOM     20  O   UNL     1      15.200 -21.081  13.647  1.00  0.00    -0.504 OA
ATOM     21  H   UNL     1      15.948 -21.684  13.970  1.00  0.00     0.293 HD
ENDBRANCH  17  20
ENDBRANCH   1  12
BRANCH   2  22
ATOM     22  O   UNL     1      14.313 -16.102  10.463  1.00  0.00    -0.502 OA
ATOM     23  H   UNL     1      15.164 -16.071   9.915  1.00  0.00     0.293 HD
ENDBRANCH   2  22
BRANCH   6  24
ATOM     24  O   UNL     1       9.654 -14.968   8.143  1.00  0.00    -0.507 OA
ATOM     25  H   UNL     1       9.568 -14.659   7.186  1.00  0.00     0.293 HD
ENDBRANCH   6  24
BRANCH   8  26
ATOM     26  O   UNL     1       7.525 -19.249   8.339  1.00  0.00    -0.508 OA
ATOM     27  H   UNL     1       6.968 -19.636   9.091  1.00  0.00     0.293 HD
ENDBRANCH   8  26
TORSDOF 6
ENDMDL
MODEL 4
REMARK VINA RESULT:    -6.438      2.568      8.112
REMARK INTER + INTRA:          -7.922
REMARK INTER:                  -7.599
REMARK INTRA:                  -0.322
REMARK UNBOUND:                -0.166
REMARK SMILES O=c1c(O)c(-c2ccc(O)c(O)c2)oc2cc(O)cc(O)c12
REMARK SMILES IDX 5 1 3 2 2 3 1 4 22 5 20 6 19 7 17 8 16 9 15 10 14 11 6 12
REMARK SMILES IDX 7 13 8 14 9 15 13 16 11 17 10 18 12 20 4 22 21 24 18 26
REMARK H PARENT 10 19 12 21 4 23 21 25 18 27
REMARK Flexibility Score: inf
ROOT
ATOM      1  C   UNL     1      13.470 -18.308  10.495  1.00  0.00     0.180 A 
ATOM      2  C   UNL     1      13.557 -16.940  10.185  1.00  0.00     0.208 A 
ATOM      3  C   UNL     1      12.495 -16.328   9.501  1.00  0.00     0.238 A 
ATOM      4  O   UNL     1      12.555 -15.091   9.275  1.00  0.00    -0.285 OA
ATOM      5  C   UNL     1      11.368 -17.093   9.120  1.00  0.00     0.111 A 
ATOM      6  C   UNL     1      10.252 -16.585   8.389  1.00  0.00     0.134 A 
ATOM      7  C   UNL     1       9.133 -17.402   8.180  1.00  0.00     0.093 A 
ATOM      8  C   UNL     1       9.115 -18.724   8.620  1.00  0.00     0.123 A 
ATOM      9  C   UNL     1      10.224 -19.250   9.285  1.00  0.00     0.094 A 
ATOM     10  C   UNL     1      11.340 -18.450   9.539  1.00  0.00     0.146 A 
ATOM     11  O   UNL     1      12.371 -18.984  10.183  1.00  0.00    -0.452 OA
ENDROOT
BRANCH   1  12
ATOM     12  C   UNL     1      14.559 -19.030  11.192  1.00  0.00     0.025 A 
ATOM     13  C   UNL     1      14.580 -19.061  12.595  1.00  0.00     0.016 A 
ATOM     14  C   UNL     1      15.587 -19.753  13.273  1.00  0.00     0.051 A 
ATOM     15  C   UNL     1      16.579 -20.436  12.557  1.00  0.00     0.157 A 
ATOM     16  C   UNL     1      15.546 -19.732  10.477  1.00  0.00     0.062 A 
ATOM     17  C   UNL     1      16.556 -20.429  11.157  1.00  0.00     0.158 A 
BRANCH  15  18
ATOM     18  O   UNL     1      17.587 -21.125  13.229  1.00  0.00    -0.504 OA
ATOM     19  H   UNL     1      17.398 -21.987  13.728  1.00  0.00     0.293 HD
ENDBRANCH  15  18
BRANCH  17  20
ATOM     20  O   UNL     1      17.537 -21.120  10.447  1.00  0.00    -0.504 OA
ATOM     21  H   UNL     1      17.304 -21.902   9.845  1.00  0.00     0.293 HD
ENDBRANCH  17  20
ENDBRANCH   1  12
BRANCH   2  22
ATOM     22  O   UNL     1      14.670 -16.198  10.590  1.00  0.00    -0.502 OA
ATOM     23  H   UNL     1      14.627 -15.520  11.342  1.00  0.00     0.293 HD
ENDBRANCH   2  22
BRANCH   6  24
ATOM     24  O   UNL     1      10.205 -15.307   7.826  1.00  0.00    -0.507 OA
ATOM     25  H   UNL     1       9.412 -14.684   7.878  1.00  0.00     0.293 HD
ENDBRANCH   6  24
BRANCH   8  26
ATOM     26  O   UNL     1       7.991 -19.512   8.381  1.00  0.00    -0.508 OA
ATOM     27  H   UNL     1       7.734 -20.272   9.001  1.00  0.00     0.293 HD
ENDBRANCH   8  26
TORSDOF 6
ENDMDL
MODEL 5
REMARK VINA RESULT:    -6.370      1.394      6.832
REMARK INTER + INTRA:          -7.839
REMARK INTER:                  -7.867
REMARK INTRA:                   0.028
REMARK UNBOUND:                -0.166
REMARK SMILES O=c1c(O)c(-c2ccc(O)c(O)c2)oc2cc(O)cc(O)c12
REMARK SMILES IDX 5 1 3 2 2 3 1 4 22 5 20 6 19 7 17 8 16 9 15 10 14 11 6 12
REMARK SMILES IDX 7 13 8 14 9 15 13 16 11 17 10 18 12 20 4 22 21 24 18 26
REMARK H PARENT 10 19 12 21 4 23 21 25 18 27
REMARK Flexibility Score: inf
ROOT
ATOM      1  C   UNL     1      15.822 -19.816  12.544  1.00  0.00     0.180 A 
ATOM      2  C   UNL     1      16.210 -20.314  11.288  1.00  0.00     0.208 A 
ATOM      3  C   UNL     1      15.440 -19.991  10.160  1.00  0.00     0.238 A 
ATOM      4  O   UNL     1      15.824 -20.394   9.031  1.00  0.00    -0.285 OA
ATOM      5  C   UNL     1      14.283 -19.190  10.302  1.00  0.00     0.111 A 
ATOM      6  C   UNL     1      13.406 -18.834   9.233  1.00  0.00     0.134 A 
ATOM      7  C   UNL     1      12.363 -17.928   9.467  1.00  0.00     0.093 A 
ATOM      8  C   UNL     1      12.126 -17.417  10.742  1.00  0.00     0.123 A 
ATOM      9  C   UNL     1      12.941 -17.804  11.808  1.00  0.00     0.094 A 
ATOM     10  C   UNL     1      14.011 -18.678  11.598  1.00  0.00     0.146 A 
ATOM     11  O   UNL     1      14.769 -19.014  12.635  1.00  0.00    -0.452 OA
ENDROOT
BRANCH   1  12
ATOM     12  C   UNL     1      16.568 -20.134  13.783  1.00  0.00     0.025 A 
ATOM     13  C   UNL     1      15.876 -20.645  14.893  1.00  0.00     0.016 A 
ATOM     14  C   UNL     1      16.563 -20.971  16.066  1.00  0.00     0.051 A 
ATOM     15  C   UNL     1      17.952 -20.804  16.140  1.00  0.00     0.157 A 
ATOM     16  C   UNL     1      17.965 -19.987  13.855  1.00  0.00     0.062 A 
ATOM     17  C   UNL     1      18.655 -20.316  15.031  1.00  0.00     0.158 A 
BRANCH  15  18
ATOM     18  O   UNL     1      18.640 -21.125  17.308  1.00  0.00    -0.504 OA
ATOM     19  H   UNL     1      18.172 -21.163  18.207  1.00  0.00     0.293 HD
ENDBRANCH  15  18
BRANCH  17  20
ATOM     20  O   UNL     1      20.038 -20.164  15.103  1.00  0.00    -0.504 OA
ATOM     21  H   UNL     1      20.543 -20.315  15.969  1.00  0.00     0.293 HD
ENDBRANCH  17  20
ENDBRANCH   1  12
BRANCH   2  22
ATOM     22  O   UNL     1      17.370 -21.085  11.167  1.00  0.00    -0.502 OA
ATOM     23  H   UNL     1      18.273 -20.765  11.496  1.00  0.00     0.293 HD
ENDBRANCH   2  22
BRANCH   6  24
ATOM     24  O   UNL     1      13.498 -19.358   7.941  1.00  0.00    -0.507 OA
ATOM     25  H   UNL     1      14.139 -19.033   7.232  1.00  0.00     0.293 HD
ENDBRANCH   6  24
BRANCH   8  26
ATOM     26  O   UNL     1      11.070 -16.530  10.942  1.00  0.00    -0.508 OA
ATOM     27  H   UNL     1      10.111 -16.853  10.998  1.00  0.00     0.293 HD
ENDBRANCH   8  26
TORSDOF 6
ENDMDL
MODEL 6
REMARK VINA RESULT:    -6.366      2.018      3.779
REMARK INTER + INTRA:          -7.835
REMARK INTER:                  -7.531
REMARK INTRA:                  -0.304
REMARK UNBOUND:                -0.166
REMARK SMILES O=c1c(O)c(-c2ccc(O)c(O)c2)oc2cc(O)cc(O)c12
REMARK SMILES IDX 5 1 3 2 2 3 1 4 22 5 20 6 19 7 17 8 16 9 15 10 14 11 6 12
REMARK SMILES IDX 7 13 8 14 9 15 13 16 11 17 10 18 12 20 4 22 21 24 18 26
REMARK H PARENT 10 19 12 21 4 23 21 25 18 27
REMARK Flexibility Score: inf
ROOT
ATOM      1  C   UNL     1      15.710 -19.538  11.510  1.00  0.00     0.180 A 
ATOM      2  C   UNL     1      16.035 -20.268  12.666  1.00  0.00     0.208 A 
ATOM      3  C   UNL     1      17.385 -20.518  12.957  1.00  0.00     0.238 A 
ATOM      4  O   UNL     1      17.672 -21.124  14.022  1.00  0.00    -0.285 OA
ATOM      5  C   UNL     1      18.393 -20.050  12.081  1.00  0.00     0.111 A 
ATOM      6  C   UNL     1      19.791 -20.280  12.256  1.00  0.00     0.134 A 
ATOM      7  C   UNL     1      20.706 -19.659  11.397  1.00  0.00     0.093 A 
ATOM      8  C   UNL     1      20.273 -18.870  10.332  1.00  0.00     0.123 A 
ATOM      9  C   UNL     1      18.907 -18.686  10.116  1.00  0.00     0.094 A 
ATOM     10  C   UNL     1      17.971 -19.264  10.977  1.00  0.00     0.146 A 
ATOM     11  O   UNL     1      16.680 -19.057  10.743  1.00  0.00    -0.452 OA
ENDROOT
BRANCH   1  12
ATOM     12  C   UNL     1      14.309 -19.257  11.123  1.00  0.00     0.025 A 
ATOM     13  C   UNL     1      13.660 -20.106  10.212  1.00  0.00     0.016 A 
ATOM     14  C   UNL     1      12.332 -19.871   9.847  1.00  0.00     0.051 A 
ATOM     15  C   UNL     1      11.628 -18.793  10.400  1.00  0.00     0.157 A 
ATOM     16  C   UNL     1      13.593 -18.187  11.690  1.00  0.00     0.062 A 
ATOM     17  C   UNL     1      12.259 -17.952  11.327  1.00  0.00     0.158 A 
BRANCH  15  18
ATOM     18  O   UNL     1      10.305 -18.553  10.038  1.00  0.00    -0.504 OA
ATOM     19  H   UNL     1       9.609 -19.292  10.050  1.00  0.00     0.293 HD
ENDBRANCH  15  18
BRANCH  17  20
ATOM     20  O   UNL     1      11.552 -16.889  11.885  1.00  0.00    -0.504 OA
ATOM     21  H   UNL     1      11.189 -16.932  12.831  1.00  0.00     0.293 HD
ENDBRANCH  17  20
ENDBRANCH   1  12
BRANCH   2  22
ATOM     22  O   UNL     1      15.025 -20.702  13.530  1.00  0.00    -0.502 OA
ATOM     23  H   UNL     1      14.769 -21.678  13.620  1.00  0.00     0.293 HD
ENDBRANCH   2  22
BRANCH   6  24
ATOM     24  O   UNL     1      20.326 -21.125  13.232  1.00  0.00    -0.507 OA
ATOM     25  H   UNL     1      21.032 -20.856  13.902  1.00  0.00     0.293 HD
ENDBRANCH   6  24
BRANCH   8  26
ATOM     26  O   UNL     1      21.212 -18.280   9.488  1.00  0.00    -0.508 OA
ATOM     27  H   UNL     1      22.168 -18.612   9.445  1.00  0.00     0.293 HD
ENDBRANCH   8  26
TORSDOF 6
ENDMDL
MODEL 7
REMARK VINA RESULT:    -6.315      2.341      8.018
REMARK INTER + INTRA:          -7.773
REMARK INTER:                  -7.472
REMARK INTRA:                  -0.302
REMARK UNBOUND:                -0.166
REMARK SMILES O=c1c(O)c(-c2ccc(O)c(O)c2)oc2cc(O)cc(O)c12
REMARK SMILES IDX 5 1 3 2 2 3 1 4 22 5 20 6 19 7 17 8 16 9 15 10 14 11 6 12
REMARK SMILES IDX 7 13 8 14 9 15 13 16 11 17 10 18 12 20 4 22 21 24 18 26
REMARK H PARENT 10 19 12 21 4 23 21 25 18 27
REMARK Flexibility Score: inf
ROOT
ATOM      1  C   UNL     1      13.213 -18.696  10.659  1.00  0.00     0.180 A 
ATOM      2  C   UNL     1      12.609 -19.553   9.723  1.00  0.00     0.208 A 
ATOM      3  C   UNL     1      11.424 -19.144   9.092  1.00  0.00     0.238 A 
ATOM      4  O   UNL     1      10.917 -19.892   8.215  1.00  0.00    -0.285 OA
ATOM      5  C   UNL     1      10.848 -17.893   9.416  1.00  0.00     0.111 A 
ATOM      6  C   UNL     1       9.627 -17.396   8.868  1.00  0.00     0.134 A 
ATOM      7  C   UNL     1       9.220 -16.088   9.163  1.00  0.00     0.093 A 
ATOM      8  C   UNL     1       9.953 -15.285  10.034  1.00  0.00     0.123 A 
ATOM      9  C   UNL     1      11.117 -15.782  10.623  1.00  0.00     0.094 A 
ATOM     10  C   UNL     1      11.568 -17.069  10.321  1.00  0.00     0.146 A 
ATOM     11  O   UNL     1      12.685 -17.501  10.893  1.00  0.00    -0.452 OA
ENDROOT
BRANCH   1  12
ATOM     12  C   UNL     1      14.450 -19.067  11.384  1.00  0.00     0.025 A 
ATOM     13  C   UNL     1      15.674 -18.498  10.999  1.00  0.00     0.016 A 
ATOM     14  C   UNL     1      16.850 -18.818  11.682  1.00  0.00     0.051 A 
ATOM     15  C   UNL     1      16.817 -19.701  12.770  1.00  0.00     0.157 A 
ATOM     16  C   UNL     1      14.418 -19.938  12.489  1.00  0.00     0.062 A 
ATOM     17  C   UNL     1      15.598 -20.258  13.177  1.00  0.00     0.158 A 
BRANCH  15  18
ATOM     18  O   UNL     1      17.987 -20.025  13.453  1.00  0.00    -0.504 OA
ATOM     19  H   UNL     1      18.580 -19.309  13.859  1.00  0.00     0.293 HD
ENDBRANCH  15  18
BRANCH  17  20
ATOM     20  O   UNL     1      15.566 -21.125  14.267  1.00  0.00    -0.504 OA
ATOM     21  H   UNL     1      15.149 -20.852  15.150  1.00  0.00     0.293 HD
ENDBRANCH  17  20
ENDBRANCH   1  12
BRANCH   2  22
ATOM     22  O   UNL     1      13.207 -20.775   9.402  1.00  0.00    -0.502 OA
ATOM     23  H   UNL     1      12.864 -21.368   8.655  1.00  0.00     0.293 HD
ENDBRANCH   2  22
BRANCH   6  24
ATOM     24  O   UNL     1       8.772 -18.148   8.058  1.00  0.00    -0.507 OA
ATOM     25  H   UNL     1       8.032 -17.764   7.489  1.00  0.00     0.293 HD
ENDBRANCH   6  24
BRANCH   8  26
ATOM     26  O   UNL     1       9.510 -13.995  10.317  1.00  0.00    -0.508 OA
ATOM     27  H   UNL     1      10.159 -13.230  10.459  1.00  0.00     0.293 HD
ENDBRANCH   8  26
TORSDOF 6
ENDMDL
MODEL 8
REMARK VINA RESULT:    -6.237      3.231      5.588
REMARK INTER + INTRA:          -7.680
REMARK INTER:                  -7.386
REMARK INTRA:                  -0.294
REMARK UNBOUND:                -0.166
REMARK SMILES O=c1c(O)c(-c2ccc(O)c(O)c2)oc2cc(O)cc(O)c12
REMARK SMILES IDX 5 1 3 2 2 3 1 4 22 5 20 6 19 7 17 8 16 9 15 10 14 11 6 12
REMARK SMILES IDX 7 13 8 14 9 15 13 16 11 17 10 18 12 20 4 22 21 24 18 26
REMARK H PARENT 10 19 12 21 4 23 21 25 18 27
REMARK Flexibility Score: inf
ROOT
ATOM      1  C   UNL     1      12.577 -18.561   9.916  1.00  0.00     0.180 A 
ATOM      2  C   UNL     1      12.899 -18.329  11.264  1.00  0.00     0.208 A 
ATOM      3  C   UNL     1      14.142 -18.760  11.751  1.00  0.00     0.238 A 
ATOM      4  O   UNL     1      14.446 -18.500  12.945  1.00  0.00    -0.285 OA
ATOM      5  C   UNL     1      15.042 -19.433  10.891  1.00  0.00     0.111 A 
ATOM      6  C   UNL     1      16.313 -19.949  11.289  1.00  0.00     0.134 A 
ATOM      7  C   UNL     1      17.175 -20.481  10.322  1.00  0.00     0.093 A 
ATOM      8  C   UNL     1      16.789 -20.575   8.986  1.00  0.00     0.123 A 
ATOM      9  C   UNL     1      15.526 -20.128   8.596  1.00  0.00     0.094 A 
ATOM     10  C   UNL     1      14.657 -19.559   9.531  1.00  0.00     0.146 A 
ATOM     11  O   UNL     1      13.468 -19.137   9.117  1.00  0.00    -0.452 OA
ENDROOT
BRANCH   1  12
ATOM     12  C   UNL     1      11.276 -18.160   9.335  1.00  0.00     0.025 A 
ATOM     13  C   UNL     1      11.085 -16.832   8.920  1.00  0.00     0.016 A 
ATOM     14  C   UNL     1       9.872 -16.436   8.351  1.00  0.00     0.051 A 
ATOM     15  C   UNL     1       8.838 -17.365   8.174  1.00  0.00     0.157 A 
ATOM     16  C   UNL     1      10.242 -19.093   9.138  1.00  0.00     0.062 A 
ATOM     17  C   UNL     1       9.026 -18.697   8.564  1.00  0.00     0.158 A 
BRANCH  15  18
ATOM     18  O   UNL     1       7.626 -16.973   7.609  1.00  0.00    -0.504 OA
ATOM     19  H   UNL     1       6.808 -17.573   7.640  1.00  0.00     0.293 HD
ENDBRANCH  15  18
BRANCH  17  20
ATOM     20  O   UNL     1       8.000 -19.621   8.375  1.00  0.00    -0.504 OA
ATOM     21  H   UNL     1       8.117 -20.599   8.615  1.00  0.00     0.293 HD
ENDBRANCH  17  20
ENDBRANCH   1  12
BRANCH   2  22
ATOM     22  O   UNL     1      12.005 -17.643  12.091  1.00  0.00    -0.502 OA
ATOM     23  H   UNL     1      11.256 -18.110  12.588  1.00  0.00     0.293 HD
ENDBRANCH   2  22
BRANCH   6  24
ATOM     24  O   UNL     1      16.759 -19.987  12.613  1.00  0.00    -0.507 OA
ATOM     25  H   UNL     1      17.416 -19.337  13.017  1.00  0.00     0.293 HD
ENDBRANCH   6  24
BRANCH   8  26
ATOM     26  O   UNL     1      17.667 -21.124   8.055  1.00  0.00    -0.508 OA
ATOM     27  H   UNL     1      18.058 -20.569   7.302  1.00  0.00     0.293 HD
ENDBRANCH   8  26
TORSDOF 6
ENDMDL
