MODEL 1
REMARK VINA RESULT:    -5.770      0.000      0.000
REMARK INTER + INTRA:          -6.196
REMARK INTER:                  -6.107
REMARK INTRA:                  -0.089
REMARK UNBOUND:                -0.089
REMARK SMILES C=C(C)[C@H]1CC=C(C)C(=O)C1
REMARK SMILES IDX 8 1 7 2 6 3 5 4 4 5 11 6 9 7 10 8 2 9 1 10 3 11
REMARK H PARENT
REMARK Flexibility Score: inf
ROOT
ATOM      1  C   UNL     1     -12.552 -20.060  31.934  1.00  0.00     0.048 C 
ATOM      2  C   UNL     1     -12.506 -19.341  30.614  1.00  0.00    -0.012 C 
ATOM      3  C   UNL     1     -13.524 -19.470  29.746  1.00  0.00    -0.019 C 
ATOM      4  C   UNL     1     -13.521 -18.787  28.405  1.00  0.00     0.036 C 
ATOM      5  C   UNL     1     -12.777 -17.440  28.470  1.00  0.00     0.025 C 
ATOM      6  C   UNL     1     -11.355 -17.641  29.025  1.00  0.00     0.089 C 
ATOM      7  C   UNL     1     -11.397 -18.398  30.325  1.00  0.00     0.158 C 
ATOM      8  O   UNL     1     -10.459 -18.249  31.152  1.00  0.00    -0.295 OA
ENDROOT
BRANCH   5   9
ATOM      9  C   UNL     1     -12.751 -16.751  27.112  1.00  0.00    -0.077 C 
ATOM     10  C   UNL     1     -13.802 -16.018  26.710  1.00  0.00     0.008 C 
ATOM     11  C   UNL     1     -11.560 -16.868  26.193  1.00  0.00     0.039 C 
ENDBRANCH   5   9
TORSDOF 1
ENDMDL
MODEL 2
REMARK VINA RESULT:    -5.429      1.819      2.413
REMARK INTER + INTRA:          -5.836
REMARK INTER:                  -5.738
REMARK INTRA:                  -0.098
REMARK UNBOUND:                -0.089
REMARK SMILES C=C(C)[C@H]1CC=C(C)C(=O)C1
REMARK SMILES IDX 8 1 7 2 6 3 5 4 4 5 11 6 9 7 10 8 2 9 1 10 3 11
REMARK H PARENT
REMARK Flexibility Score: inf
ROOT
ATOM      1  C   UNL     1     -12.543 -20.355  31.478  1.00  0.00     0.048 C 
ATOM      2  C   UNL     1     -12.939 -19.178  30.630  1.00  0.00    -0.012 C 
ATOM      3  C   UNL     1     -12.818 -17.932  31.118  1.00  0.00    -0.019 C 
ATOM      4  C   UNL     1     -13.216 -16.719  30.319  1.00  0.00     0.036 C 
ATOM      5  C   UNL     1     -12.981 -16.946  28.814  1.00  0.00     0.025 C 
ATOM      6  C   UNL     1     -13.709 -18.218  28.344  1.00  0.00     0.089 C 
ATOM      7  C   UNL     1     -13.347 -19.388  29.218  1.00  0.00     0.158 C 
ATOM      8  O   UNL     1     -13.428 -20.553  28.748  1.00  0.00    -0.295 OA
ENDROOT
BRANCH   5   9
ATOM      9  C   UNL     1     -13.400 -15.731  27.996  1.00  0.00    -0.077 C 
ATOM     10  C   UNL     1     -13.717 -15.871  26.698  1.00  0.00     0.008 C 
ATOM     11  C   UNL     1     -13.474 -14.355  28.612  1.00  0.00     0.039 C 
ENDBRANCH   5   9
TORSDOF 1
ENDMDL
MODEL 3
REMARK VINA RESULT:    -5.256      2.556      4.795
REMARK INTER + INTRA:          -5.652
REMARK INTER:                  -5.555
REMARK INTRA:                  -0.096
REMARK UNBOUND:                -0.089
REMARK SMILES C=C(C)[C@H]1CC=C(C)C(=O)C1
REMARK SMILES IDX 8 1 7 2 6 3 5 4 4 5 11 6 9 7 10 8 2 9 1 10 3 11
REMARK H PARENT
REMARK Flexibility Score: inf
ROOT
ATOM      1  C   UNL     1     -14.320 -13.614  28.281  1.00  0.00     0.048 C 
ATOM      2  C   UNL     1     -13.610 -14.818  28.836  1.00  0.00    -0.012 C 
ATOM      3  C   UNL     1     -13.364 -14.901  30.154  1.00  0.00    -0.019 C 
ATOM      4  C   UNL     1     -12.641 -16.075  30.759  1.00  0.00     0.036 C 
ATOM      5  C   UNL     1     -12.944 -17.371  29.985  1.00  0.00     0.025 C 
ATOM      6  C   UNL     1     -12.615 -17.191  28.492  1.00  0.00     0.089 C 
ATOM      7  C   UNL     1     -13.291 -15.963  27.946  1.00  0.00     0.158 C 
ATOM      8  O   UNL     1     -13.552 -15.901  26.715  1.00  0.00    -0.295 OA
ENDROOT
BRANCH   5   9
ATOM      9  C   UNL     1     -12.200 -18.561  30.578  1.00  0.00    -0.077 C 
ATOM     10  C   UNL     1     -10.860 -18.617  30.512  1.00  0.00     0.008 C 
ATOM     11  C   UNL     1     -12.937 -19.693  31.251  1.00  0.00     0.039 C 
ENDBRANCH   5   9
TORSDOF 1
ENDMDL
MODEL 4
REMARK VINA RESULT:    -5.247      3.179      4.949
REMARK INTER + INTRA:          -5.643
REMARK INTER:                  -5.554
REMARK INTRA:                  -0.089
REMARK UNBOUND:                -0.089
REMARK SMILES C=C(C)[C@H]1CC=C(C)C(=O)C1
REMARK SMILES IDX 8 1 7 2 6 3 5 4 4 5 11 6 9 7 10 8 2 9 1 10 3 11
REMARK H PARENT
REMARK Flexibility Score: inf
ROOT
ATOM      1  C   UNL     1     -15.278 -12.820  29.379  1.00  0.00     0.048 C 
ATOM      2  C   UNL     1     -14.348 -13.996  29.512  1.00  0.00    -0.012 C 
ATOM      3  C   UNL     1     -13.590 -14.370  28.467  1.00  0.00    -0.019 C 
ATOM      4  C   UNL     1     -12.657 -15.549  28.540  1.00  0.00     0.036 C 
ATOM      5  C   UNL     1     -12.085 -15.717  29.961  1.00  0.00     0.025 C 
ATOM      6  C   UNL     1     -13.227 -15.813  30.989  1.00  0.00     0.089 C 
ATOM      7  C   UNL     1     -14.181 -14.661  30.828  1.00  0.00     0.158 C 
ATOM      8  O   UNL     1     -14.866 -14.288  31.818  1.00  0.00    -0.295 OA
ENDROOT
BRANCH   5   9
ATOM      9  C   UNL     1     -11.155 -16.920  30.049  1.00  0.00    -0.077 C 
ATOM     10  C   UNL     1      -9.889 -16.824  29.612  1.00  0.00     0.008 C 
ATOM     11  C   UNL     1     -11.622 -18.235  30.624  1.00  0.00     0.039 C 
ENDBRANCH   5   9
TORSDOF 1
ENDMDL
MODEL 5
REMARK VINA RESULT:    -5.175      3.509      4.105
REMARK INTER + INTRA:          -5.567
REMARK INTER:                  -5.472
REMARK INTRA:                  -0.094
REMARK UNBOUND:                -0.089
REMARK SMILES C=C(C)[C@H]1CC=C(C)C(=O)C1
REMARK SMILES IDX 8 1 7 2 6 3 5 4 4 5 11 6 9 7 10 8 2 9 1 10 3 11
REMARK H PARENT
REMARK Flexibility Score: inf
ROOT
ATOM      1  C   UNL     1     -15.065 -14.405  32.345  1.00  0.00     0.048 C 
ATOM      2  C   UNL     1     -14.196 -14.831  31.194  1.00  0.00    -0.012 C 
ATOM      3  C   UNL     1     -13.419 -15.921  31.310  1.00  0.00    -0.019 C 
ATOM      4  C   UNL     1     -12.516 -16.381  30.196  1.00  0.00     0.036 C 
ATOM      5  C   UNL     1     -13.125 -16.056  28.819  1.00  0.00     0.025 C 
ATOM      6  C   UNL     1     -13.455 -14.555  28.721  1.00  0.00     0.089 C 
ATOM      7  C   UNL     1     -14.289 -14.119  29.894  1.00  0.00     0.158 C 
ATOM      8  O   UNL     1     -15.043 -13.117  29.773  1.00  0.00    -0.295 OA
ENDROOT
BRANCH   5   9
ATOM      9  C   UNL     1     -12.210 -16.500  27.686  1.00  0.00    -0.077 C 
ATOM     10  C   UNL     1     -12.627 -16.418  26.413  1.00  0.00     0.008 C 
ATOM     11  C   UNL     1     -10.825 -17.034  27.958  1.00  0.00     0.039 C 
ENDBRANCH   5   9
TORSDOF 1
ENDMDL
MODEL 6
REMARK VINA RESULT:    -5.109      1.799      2.750
REMARK INTER + INTRA:          -5.496
REMARK INTER:                  -5.398
REMARK INTRA:                  -0.099
REMARK UNBOUND:                -0.089
REMARK SMILES C=C(C)[C@H]1CC=C(C)C(=O)C1
REMARK SMILES IDX 8 1 7 2 6 3 5 4 4 5 11 6 9 7 10 8 2 9 1 10 3 11
REMARK H PARENT
REMARK Flexibility Score: inf
ROOT
ATOM      1  C   UNL     1      -9.875 -18.533  31.025  1.00  0.00     0.048 C 
ATOM      2  C   UNL     1     -10.910 -17.647  30.387  1.00  0.00    -0.012 C 
ATOM      3  C   UNL     1     -10.664 -16.336  30.232  1.00  0.00    -0.019 C 
ATOM      4  C   UNL     1     -11.671 -15.401  29.617  1.00  0.00     0.036 C 
ATOM      5  C   UNL     1     -12.517 -16.122  28.550  1.00  0.00     0.025 C 
ATOM      6  C   UNL     1     -13.176 -17.377  29.148  1.00  0.00     0.089 C 
ATOM      7  C   UNL     1     -12.147 -18.244  29.823  1.00  0.00     0.158 C 
ATOM      8  O   UNL     1     -12.365 -19.479  29.937  1.00  0.00    -0.295 OA
ENDROOT
BRANCH   5   9
ATOM      9  C   UNL     1     -13.553 -15.188  27.937  1.00  0.00    -0.077 C 
ATOM     10  C   UNL     1     -13.910 -14.064  28.580  1.00  0.00     0.008 C 
ATOM     11  C   UNL     1     -14.197 -15.494  26.607  1.00  0.00     0.039 C 
ENDBRANCH   5   9
TORSDOF 1
ENDMDL
MODEL 7
REMARK VINA RESULT:    -5.016      2.612      4.664
REMARK INTER + INTRA:          -5.398
REMARK INTER:                  -5.307
REMARK INTRA:                  -0.091
REMARK UNBOUND:                -0.089
REMARK SMILES C=C(C)[C@H]1CC=C(C)C(=O)C1
REMARK SMILES IDX 8 1 7 2 6 3 5 4 4 5 11 6 9 7 10 8 2 9 1 10 3 11
REMARK H PARENT
REMARK Flexibility Score: inf
ROOT
ATOM      1  C   UNL     1     -13.965 -15.909  26.393  1.00  0.00     0.048 C 
ATOM      2  C   UNL     1     -12.952 -16.032  27.499  1.00  0.00    -0.012 C 
ATOM      3  C   UNL     1     -13.247 -15.579  28.729  1.00  0.00    -0.019 C 
ATOM      4  C   UNL     1     -12.265 -15.660  29.867  1.00  0.00     0.036 C 
ATOM      5  C   UNL     1     -11.370 -16.907  29.738  1.00  0.00     0.025 C 
ATOM      6  C   UNL     1     -10.674 -16.927  28.364  1.00  0.00     0.089 C 
ATOM      7  C   UNL     1     -11.682 -16.761  27.259  1.00  0.00     0.158 C 
ATOM      8  O   UNL     1     -11.418 -17.217  26.115  1.00  0.00    -0.295 OA
ENDROOT
BRANCH   5   9
ATOM      9  C   UNL     1     -10.359 -16.987  30.874  1.00  0.00    -0.077 C 
ATOM     10  C   UNL     1      -9.875 -18.179  31.261  1.00  0.00     0.008 C 
ATOM     11  C   UNL     1      -9.875 -15.747  31.585  1.00  0.00     0.039 C 
ENDBRANCH   5   9
TORSDOF 1
ENDMDL
MODEL 8
REMARK VINA RESULT:    -5.006      1.930      3.318
REMARK INTER + INTRA:          -5.388
REMARK INTER:                  -5.290
REMARK INTRA:                  -0.098
REMARK UNBOUND:                -0.089
REMARK SMILES C=C(C)[C@H]1CC=C(C)C(=O)C1
REMARK SMILES IDX 8 1 7 2 6 3 5 4 4 5 11 6 9 7 10 8 2 9 1 10 3 11
REMARK H PARENT
REMARK Flexibility Score: inf
ROOT
ATOM      1  C   UNL     1     -14.036 -20.109  28.767  1.00  0.00     0.048 C 
ATOM      2  C   UNL     1     -12.969 -19.111  29.126  1.00  0.00    -0.012 C 
ATOM      3  C   UNL     1     -12.719 -18.076  28.306  1.00  0.00    -0.019 C 
ATOM      4  C   UNL     1     -11.651 -17.059  28.607  1.00  0.00     0.036 C 
ATOM      5  C   UNL     1     -11.501 -16.846  30.126  1.00  0.00     0.025 C 
ATOM      6  C   UNL     1     -11.241 -18.190  30.831  1.00  0.00     0.089 C 
ATOM      7  C   UNL     1     -12.283 -19.202  30.439  1.00  0.00     0.158 C 
ATOM      8  O   UNL     1     -12.542 -20.152  31.225  1.00  0.00    -0.295 OA
ENDROOT
BRANCH   5   9
ATOM      9  C   UNL     1     -10.408 -15.833  30.441  1.00  0.00    -0.077 C 
ATOM     10  C   UNL     1      -9.875 -15.091  29.457  1.00  0.00     0.008 C 
ATOM     11  C   UNL     1      -9.903 -15.633  31.849  1.00  0.00     0.039 C 
ENDBRANCH   5   9
TORSDOF 1
ENDMDL
MODEL 9
REMARK VINA RESULT:    -3.769      2.572      4.649
REMARK INTER + INTRA:          -4.078
REMARK INTER:                  -3.981
REMARK INTRA:                  -0.097
REMARK UNBOUND:                -0.089
REMARK SMILES C=C(C)[C@H]1CC=C(C)C(=O)C1
REMARK SMILES IDX 8 1 7 2 6 3 5 4 4 5 11 6 9 7 10 8 2 9 1 10 3 11
REMARK H PARENT
REMARK Flexibility Score: inf
ROOT
ATOM      1  C   UNL     1     -14.009 -15.874  26.394  1.00  0.00     0.048 C 
ATOM      2  C   UNL     1     -13.187 -16.150  27.624  1.00  0.00    -0.012 C 
ATOM      3  C   UNL     1     -12.434 -17.260  27.689  1.00  0.00    -0.019 C 
ATOM      4  C   UNL     1     -11.607 -17.595  28.902  1.00  0.00     0.036 C 
ATOM      5  C   UNL     1     -11.094 -16.317  29.592  1.00  0.00     0.025 C 
ATOM      6  C   UNL     1     -12.270 -15.381  29.927  1.00  0.00     0.089 C 
ATOM      7  C   UNL     1     -13.117 -15.138  28.708  1.00  0.00     0.158 C 
ATOM      8  O   UNL     1     -13.796 -14.080  28.633  1.00  0.00    -0.295 OA
ENDROOT
BRANCH   5   9
ATOM      9  C   UNL     1     -10.273 -16.645  30.833  1.00  0.00    -0.077 C 
ATOM     10  C   UNL     1      -9.875 -15.660  31.655  1.00  0.00     0.008 C 
ATOM     11  C   UNL     1      -9.892 -18.065  31.170  1.00  0.00     0.039 C 
ENDBRANCH   5   9
TORSDOF 1
ENDMDL
