MODEL 1
REMARK VINA RESULT:    -3.211      0.000      0.000
REMARK INTER + INTRA:          -3.857
REMARK INTER:                  -3.774
REMARK INTRA:                  -0.083
REMARK UNBOUND:                -0.083
REMARK SMILES CCCCC(=O)[O-]
REMARK SMILES IDX 4 1 5 2 6 3 7 4 3 5 2 6 1 7
REMARK H PARENT
REMARK Flexibility Score: inf
ROOT
ATOM      1  C   UNL     1      31.490   5.741  48.330  1.00  0.00     0.053 C 
ENDROOT
BRANCH   1   2
ATOM      2  C   UNL     1      31.094   5.899  46.894  1.00  0.00     0.041 C 
ATOM      3  O   UNL     1      31.416   5.024  46.048  1.00  0.00    -0.550 OA
ATOM      4  O   UNL     1      30.397   7.028  46.484  1.00  0.00    -0.550 OA
ENDBRANCH   1   2
BRANCH   1   5
ATOM      5  C   UNL     1      30.352   5.148  49.172  1.00  0.00     0.006 C 
BRANCH   5   6
ATOM      6  C   UNL     1      30.753   3.824  49.840  1.00  0.00    -0.003 C 
ATOM      7  C   UNL     1      32.204   3.469  49.529  1.00  0.00     0.004 C 
ENDBRANCH   5   6
ENDBRANCH   1   5
TORSDOF 3
ENDMDL
MODEL 2
REMARK VINA RESULT:    -3.170     10.829     11.568
REMARK INTER + INTRA:          -3.808
REMARK INTER:                  -3.734
REMARK INTRA:                  -0.074
REMARK UNBOUND:                -0.083
REMARK SMILES CCCCC(=O)[O-]
REMARK SMILES IDX 4 1 5 2 6 3 7 4 3 5 2 6 1 7
REMARK H PARENT
REMARK Flexibility Score: inf
ROOT
ATOM      1  C   UNL     1      24.193   2.682  39.401  1.00  0.00     0.053 C 
ENDROOT
BRANCH   1   2
ATOM      2  C   UNL     1      23.855   3.186  40.770  1.00  0.00     0.041 C 
ATOM      3  O   UNL     1      24.768   3.413  41.606  1.00  0.00    -0.550 OA
ATOM      4  O   UNL     1      22.527   3.375  41.134  1.00  0.00    -0.550 OA
ENDBRANCH   1   2
BRANCH   1   5
ATOM      5  C   UNL     1      23.331   1.474  39.011  1.00  0.00     0.006 C 
BRANCH   5   6
ATOM      6  C   UNL     1      23.600   0.255  39.906  1.00  0.00    -0.003 C 
ATOM      7  C   UNL     1      23.907  -0.984  39.071  1.00  0.00     0.004 C 
ENDBRANCH   5   6
ENDBRANCH   1   5
TORSDOF 3
ENDMDL
MODEL 3
REMARK VINA RESULT:    -3.125     10.500     11.494
REMARK INTER + INTRA:          -3.757
REMARK INTER:                  -3.724
REMARK INTRA:                  -0.033
REMARK UNBOUND:                -0.083
REMARK SMILES CCCCC(=O)[O-]
REMARK SMILES IDX 4 1 5 2 6 3 7 4 3 5 2 6 1 7
REMARK H PARENT
REMARK Flexibility Score: inf
ROOT
ATOM      1  C   UNL     1      23.925   2.323  40.054  1.00  0.00     0.053 C 
ENDROOT
BRANCH   1   2
ATOM      2  C   UNL     1      23.377   1.291  39.116  1.00  0.00     0.041 C 
ATOM      3  O   UNL     1      22.561   1.622  38.216  1.00  0.00    -0.550 OA
ATOM      4  O   UNL     1      23.743  -0.041  39.257  1.00  0.00    -0.550 OA
ENDBRANCH   1   2
BRANCH   1   5
ATOM      5  C   UNL     1      25.063   3.128  39.412  1.00  0.00     0.006 C 
BRANCH   5   6
ATOM      6  C   UNL     1      25.833   3.967  40.443  1.00  0.00    -0.003 C 
ATOM      7  C   UNL     1      25.206   3.848  41.828  1.00  0.00     0.004 C 
ENDBRANCH   5   6
ENDBRANCH   1   5
TORSDOF 3
ENDMDL
MODEL 4
REMARK VINA RESULT:    -3.119      2.723      3.182
REMARK INTER + INTRA:          -3.749
REMARK INTER:                  -3.705
REMARK INTRA:                  -0.044
REMARK UNBOUND:                -0.083
REMARK SMILES CCCCC(=O)[O-]
REMARK SMILES IDX 4 1 5 2 6 3 7 4 3 5 2 6 1 7
REMARK H PARENT
REMARK Flexibility Score: inf
ROOT
ATOM      1  C   UNL     1      28.887   4.802  49.207  1.00  0.00     0.053 C 
ENDROOT
BRANCH   1   2
ATOM      2  C   UNL     1      27.710   4.582  48.308  1.00  0.00     0.041 C 
ATOM      3  O   UNL     1      26.620   4.165  48.781  1.00  0.00    -0.550 OA
ATOM      4  O   UNL     1      27.825   4.806  46.942  1.00  0.00    -0.550 OA
ENDBRANCH   1   2
BRANCH   1   5
ATOM      5  C   UNL     1      30.057   5.460  48.462  1.00  0.00     0.006 C 
BRANCH   5   6
ATOM      6  C   UNL     1      31.408   5.171  49.132  1.00  0.00    -0.003 C 
ATOM      7  C   UNL     1      31.395   3.817  49.834  1.00  0.00     0.004 C 
ENDBRANCH   5   6
ENDBRANCH   1   5
TORSDOF 3
ENDMDL
MODEL 5
REMARK VINA RESULT:    -3.064      2.682      3.515
REMARK INTER + INTRA:          -3.684
REMARK INTER:                  -3.605
REMARK INTRA:                  -0.079
REMARK UNBOUND:                -0.083
REMARK SMILES CCCCC(=O)[O-]
REMARK SMILES IDX 4 1 5 2 6 3 7 4 3 5 2 6 1 7
REMARK H PARENT
REMARK Flexibility Score: inf
ROOT
ATOM      1  C   UNL     1      31.487   5.301  49.079  1.00  0.00     0.053 C 
ENDROOT
BRANCH   1   2
ATOM      2  C   UNL     1      31.859   3.957  49.625  1.00  0.00     0.041 C 
ATOM      3  O   UNL     1      32.195   3.026  48.846  1.00  0.00    -0.550 OA
ATOM      4  O   UNL     1      31.802   3.722  50.993  1.00  0.00    -0.550 OA
ENDBRANCH   1   2
BRANCH   1   5
ATOM      5  C   UNL     1      30.147   5.261  48.332  1.00  0.00     0.006 C 
BRANCH   5   6
ATOM      6  C   UNL     1      28.973   4.925  49.265  1.00  0.00    -0.003 C 
ATOM      7  C   UNL     1      27.701   4.648  48.470  1.00  0.00     0.004 C 
ENDBRANCH   5   6
ENDBRANCH   1   5
TORSDOF 3
ENDMDL
MODEL 6
REMARK VINA RESULT:    -3.025     13.243     14.259
REMARK INTER + INTRA:          -3.639
REMARK INTER:                  -3.514
REMARK INTRA:                  -0.125
REMARK UNBOUND:                -0.083
REMARK SMILES CCCCC(=O)[O-]
REMARK SMILES IDX 4 1 5 2 6 3 7 4 3 5 2 6 1 7
REMARK H PARENT
REMARK Flexibility Score: inf
ROOT
ATOM      1  C   UNL     1      24.063  -2.748  56.492  1.00  0.00     0.053 C 
ENDROOT
BRANCH   1   2
ATOM      2  C   UNL     1      23.280  -1.987  55.466  1.00  0.00     0.041 C 
ATOM      3  O   UNL     1      23.384  -2.279  54.245  1.00  0.00    -0.550 OA
ATOM      4  O   UNL     1      22.461  -0.935  55.854  1.00  0.00    -0.550 OA
ENDBRANCH   1   2
BRANCH   1   5
ATOM      5  C   UNL     1      23.209  -3.088  57.721  1.00  0.00     0.006 C 
BRANCH   5   6
ATOM      6  C   UNL     1      22.120  -4.124  57.402  1.00  0.00    -0.003 C 
ATOM      7  C   UNL     1      20.727  -3.546  57.628  1.00  0.00     0.004 C 
ENDBRANCH   5   6
ENDBRANCH   1   5
TORSDOF 3
ENDMDL
MODEL 7
REMARK VINA RESULT:    -2.971     13.992     14.488
REMARK INTER + INTRA:          -3.575
REMARK INTER:                  -3.489
REMARK INTRA:                  -0.086
REMARK UNBOUND:                -0.083
REMARK SMILES CCCCC(=O)[O-]
REMARK SMILES IDX 4 1 5 2 6 3 7 4 3 5 2 6 1 7
REMARK H PARENT
REMARK Flexibility Score: inf
ROOT
ATOM      1  C   UNL     1      22.165  -0.931  55.858  1.00  0.00     0.053 C 
ENDROOT
BRANCH   1   2
ATOM      2  C   UNL     1      21.032  -0.791  56.827  1.00  0.00     0.041 C 
ATOM      3  O   UNL     1      21.202  -0.188  57.919  1.00  0.00    -0.550 OA
ATOM      4  O   UNL     1      19.796  -1.356  56.539  1.00  0.00    -0.550 OA
ENDBRANCH   1   2
BRANCH   1   5
ATOM      5  C   UNL     1      22.608  -2.392  55.707  1.00  0.00     0.006 C 
BRANCH   5   6
ATOM      6  C   UNL     1      23.914  -2.684  56.462  1.00  0.00    -0.003 C 
ATOM      7  C   UNL     1      23.632  -3.234  57.856  1.00  0.00     0.004 C 
ENDBRANCH   5   6
ENDBRANCH   1   5
TORSDOF 3
ENDMDL
MODEL 8
REMARK VINA RESULT:    -2.948      9.254     10.352
REMARK INTER + INTRA:          -3.548
REMARK INTER:                  -3.521
REMARK INTRA:                  -0.027
REMARK UNBOUND:                -0.083
REMARK SMILES CCCCC(=O)[O-]
REMARK SMILES IDX 4 1 5 2 6 3 7 4 3 5 2 6 1 7
REMARK H PARENT
REMARK Flexibility Score: inf
ROOT
ATOM      1  C   UNL     1      25.059   4.251  40.420  1.00  0.00     0.053 C 
ENDROOT
BRANCH   1   2
ATOM      2  C   UNL     1      26.353   4.150  41.167  1.00  0.00     0.041 C 
ATOM      3  O   UNL     1      26.353   3.993  42.417  1.00  0.00    -0.550 OA
ATOM      4  O   UNL     1      27.559   4.262  40.488  1.00  0.00    -0.550 OA
ENDBRANCH   1   2
BRANCH   1   5
ATOM      5  C   UNL     1      24.933   3.157  39.350  1.00  0.00     0.006 C 
BRANCH   5   6
ATOM      6  C   UNL     1      23.833   2.139  39.688  1.00  0.00    -0.003 C 
ATOM      7  C   UNL     1      22.778   2.084  38.588  1.00  0.00     0.004 C 
ENDBRANCH   5   6
ENDBRANCH   1   5
TORSDOF 3
ENDMDL
MODEL 9
REMARK VINA RESULT:    -2.832     13.231     13.947
REMARK INTER + INTRA:          -3.412
REMARK INTER:                  -3.279
REMARK INTRA:                  -0.132
REMARK UNBOUND:                -0.083
REMARK SMILES CCCCC(=O)[O-]
REMARK SMILES IDX 4 1 5 2 6 3 7 4 3 5 2 6 1 7
REMARK H PARENT
REMARK Flexibility Score: inf
ROOT
ATOM      1  C   UNL     1      23.208  -2.797  54.107  1.00  0.00     0.053 C 
ENDROOT
BRANCH   1   2
ATOM      2  C   UNL     1      22.920  -4.266  54.176  1.00  0.00     0.041 C 
ATOM      3  O   UNL     1      23.696  -5.091  53.626  1.00  0.00    -0.550 OA
ATOM      4  O   UNL     1      21.777  -4.721  54.819  1.00  0.00    -0.550 OA
ENDBRANCH   1   2
BRANCH   1   5
ATOM      5  C   UNL     1      23.204  -2.151  55.499  1.00  0.00     0.006 C 
BRANCH   5   6
ATOM      6  C   UNL     1      24.209  -2.817  56.450  1.00  0.00    -0.003 C 
ATOM      7  C   UNL     1      23.544  -3.212  57.765  1.00  0.00     0.004 C 
ENDBRANCH   5   6
ENDBRANCH   1   5
TORSDOF 3
ENDMDL
