MODEL 1
REMARK VINA RESULT:    -3.569      0.000      0.000
REMARK INTER + INTRA:          -4.851
REMARK INTER:                  -4.612
REMARK INTRA:                  -0.238
REMARK UNBOUND:                -0.238
REMARK SMILES CCCCCCC(=O)[O-]
REMARK SMILES IDX 5 1 6 2 7 3 8 4 9 5 4 6 3 7 2 8 1 9
REMARK H PARENT
REMARK Flexibility Score: inf
ROOT
ATOM      1  C   UNL     1      -8.309  -4.159  -3.901  1.00  0.00     0.006 C 
ENDROOT
BRANCH   1   2
ATOM      2  C   UNL     1      -8.901  -3.017  -3.072  1.00  0.00     0.053 C 
BRANCH   2   3
ATOM      3  C   UNL     1      -8.108  -2.811  -1.820  1.00  0.00     0.041 C 
ATOM      4  O   UNL     1      -6.849  -2.792  -1.864  1.00  0.00    -0.550 OA
ATOM      5  O   UNL     1      -8.756  -2.689  -0.598  1.00  0.00    -0.550 OA
ENDBRANCH   2   3
ENDBRANCH   1   2
BRANCH   1   6
ATOM      6  C   UNL     1      -8.548  -5.515  -3.219  1.00  0.00     0.000 C 
BRANCH   6   7
ATOM      7  C   UNL     1      -9.198  -6.543  -4.158  1.00  0.00    -0.000 C 
BRANCH   7   8
ATOM      8  C   UNL     1     -10.056  -5.889  -5.250  1.00  0.00    -0.003 C 
ATOM      9  C   UNL     1      -9.589  -6.309  -6.641  1.00  0.00     0.004 C 
ENDBRANCH   7   8
ENDBRANCH   6   7
ENDBRANCH   1   6
TORSDOF 5
ENDMDL
MODEL 2
REMARK VINA RESULT:    -3.564      0.853      2.032
REMARK INTER + INTRA:          -4.844
REMARK INTER:                  -4.626
REMARK INTRA:                  -0.218
REMARK UNBOUND:                -0.238
REMARK SMILES CCCCCCC(=O)[O-]
REMARK SMILES IDX 5 1 6 2 7 3 8 4 9 5 4 6 3 7 2 8 1 9
REMARK H PARENT
REMARK Flexibility Score: inf
ROOT
ATOM      1  C   UNL     1      -8.325  -3.935  -4.040  1.00  0.00     0.006 C 
ENDROOT
BRANCH   1   2
ATOM      2  C   UNL     1      -8.995  -2.970  -3.057  1.00  0.00     0.053 C 
BRANCH   2   3
ATOM      3  C   UNL     1      -8.175  -2.835  -1.814  1.00  0.00     0.041 C 
ATOM      4  O   UNL     1      -8.737  -2.637  -0.703  1.00  0.00    -0.550 OA
ATOM      5  O   UNL     1      -6.789  -2.876  -1.885  1.00  0.00    -0.550 OA
ENDBRANCH   2   3
ENDBRANCH   1   2
BRANCH   1   6
ATOM      6  C   UNL     1      -9.350  -4.514  -5.026  1.00  0.00     0.000 C 
BRANCH   6   7
ATOM      7  C   UNL     1      -9.418  -6.049  -4.977  1.00  0.00    -0.000 C 
BRANCH   7   8
ATOM      8  C   UNL     1      -8.955  -6.619  -3.629  1.00  0.00    -0.003 C 
ATOM      9  C   UNL     1     -10.125  -6.759  -2.660  1.00  0.00     0.004 C 
ENDBRANCH   7   8
ENDBRANCH   6   7
ENDBRANCH   1   6
TORSDOF 5
ENDMDL
MODEL 3
REMARK VINA RESULT:    -3.385      3.004      4.635
REMARK INTER + INTRA:          -4.613
REMARK INTER:                  -4.369
REMARK INTRA:                  -0.244
REMARK UNBOUND:                -0.238
REMARK SMILES CCCCCCC(=O)[O-]
REMARK SMILES IDX 5 1 6 2 7 3 8 4 9 5 4 6 3 7 2 8 1 9
REMARK H PARENT
REMARK Flexibility Score: inf
ROOT
ATOM      1  C   UNL     1      -8.436  -3.941  -4.590  1.00  0.00     0.006 C 
ENDROOT
BRANCH   1   2
ATOM      2  C   UNL     1      -9.730  -4.617  -5.052  1.00  0.00     0.053 C 
BRANCH   2   3
ATOM      3  C   UNL     1      -9.486  -6.059  -5.364  1.00  0.00     0.041 C 
ATOM      4  O   UNL     1      -8.986  -6.392  -6.472  1.00  0.00    -0.550 OA
ATOM      5  O   UNL     1      -9.854  -7.041  -4.453  1.00  0.00    -0.550 OA
ENDBRANCH   2   3
ENDBRANCH   1   2
BRANCH   1   6
ATOM      6  C   UNL     1      -8.089  -4.345  -3.149  1.00  0.00     0.000 C 
BRANCH   6   7
ATOM      7  C   UNL     1      -7.856  -3.133  -2.234  1.00  0.00    -0.000 C 
BRANCH   7   8
ATOM      8  C   UNL     1      -9.142  -2.652  -1.548  1.00  0.00    -0.003 C 
ATOM      9  C   UNL     1      -9.717  -1.427  -2.254  1.00  0.00     0.004 C 
ENDBRANCH   7   8
ENDBRANCH   6   7
ENDBRANCH   1   6
TORSDOF 5
ENDMDL
MODEL 4
REMARK VINA RESULT:    -3.255      2.996      4.713
REMARK INTER + INTRA:          -4.444
REMARK INTER:                  -4.152
REMARK INTRA:                  -0.293
REMARK UNBOUND:                -0.238
REMARK SMILES CCCCCCC(=O)[O-]
REMARK SMILES IDX 5 1 6 2 7 3 8 4 9 5 4 6 3 7 2 8 1 9
REMARK H PARENT
REMARK Flexibility Score: inf
ROOT
ATOM      1  C   UNL     1      -8.983  -6.079  -3.342  1.00  0.00     0.006 C 
ENDROOT
BRANCH   1   2
ATOM      2  C   UNL     1      -9.655  -6.789  -4.520  1.00  0.00     0.053 C 
BRANCH   2   3
ATOM      3  C   UNL     1      -9.491  -5.994  -5.776  1.00  0.00     0.041 C 
ATOM      4  O   UNL     1      -9.873  -4.794  -5.820  1.00  0.00    -0.550 OA
ATOM      5  O   UNL     1      -8.963  -6.590  -6.914  1.00  0.00    -0.550 OA
ENDBRANCH   2   3
ENDBRANCH   1   2
BRANCH   1   6
ATOM      6  C   UNL     1     -10.026  -5.385  -2.452  1.00  0.00     0.000 C 
BRANCH   6   7
ATOM      7  C   UNL     1      -9.689  -3.910  -2.185  1.00  0.00    -0.000 C 
BRANCH   7   8
ATOM      8  C   UNL     1      -8.397  -3.462  -2.883  1.00  0.00    -0.003 C 
ATOM      9  C   UNL     1      -7.362  -2.983  -1.869  1.00  0.00     0.004 C 
ENDBRANCH   7   8
ENDBRANCH   6   7
ENDBRANCH   1   6
TORSDOF 5
ENDMDL
MODEL 5
REMARK VINA RESULT:    -3.170     16.587     18.143
REMARK INTER + INTRA:          -4.335
REMARK INTER:                  -4.184
REMARK INTRA:                  -0.152
REMARK UNBOUND:                -0.238
REMARK SMILES CCCCCCC(=O)[O-]
REMARK SMILES IDX 5 1 6 2 7 3 8 4 9 5 4 6 3 7 2 8 1 9
REMARK H PARENT
REMARK Flexibility Score: inf
ROOT
ATOM      1  C   UNL     1      -1.485   5.380   8.622  1.00  0.00     0.006 C 
ENDROOT
BRANCH   1   2
ATOM      2  C   UNL     1      -2.240   4.293   9.392  1.00  0.00     0.053 C 
BRANCH   2   3
ATOM      3  C   UNL     1      -1.409   3.054   9.500  1.00  0.00     0.041 C 
ATOM      4  O   UNL     1      -0.236   3.116   9.958  1.00  0.00    -0.550 OA
ATOM      5  O   UNL     1      -1.908   1.839   9.050  1.00  0.00    -0.550 OA
ENDBRANCH   2   3
ENDBRANCH   1   2
BRANCH   1   6
ATOM      6  C   UNL     1      -1.114   6.550   9.546  1.00  0.00     0.000 C 
BRANCH   6   7
ATOM      7  C   UNL     1       0.238   7.185   9.182  1.00  0.00    -0.000 C 
BRANCH   7   8
ATOM      8  C   UNL     1       0.185   7.983   7.872  1.00  0.00    -0.003 C 
ATOM      9  C   UNL     1       1.581   8.424   7.440  1.00  0.00     0.004 C 
ENDBRANCH   7   8
ENDBRANCH   6   7
ENDBRANCH   1   6
TORSDOF 5
ENDMDL
MODEL 6
REMARK VINA RESULT:    -3.150     17.281     18.891
REMARK INTER + INTRA:          -4.309
REMARK INTER:                  -4.208
REMARK INTRA:                  -0.101
REMARK UNBOUND:                -0.238
REMARK SMILES CCCCCCC(=O)[O-]
REMARK SMILES IDX 5 1 6 2 7 3 8 4 9 5 4 6 3 7 2 8 1 9
REMARK H PARENT
REMARK Flexibility Score: inf
ROOT
ATOM      1  C   UNL     1      -0.050   7.753   8.196  1.00  0.00     0.006 C 
ENDROOT
BRANCH   1   2
ATOM      2  C   UNL     1       1.176   8.668   8.160  1.00  0.00     0.053 C 
BRANCH   2   3
ATOM      3  C   UNL     1       2.069   8.305   7.016  1.00  0.00     0.041 C 
ATOM      4  O   UNL     1       1.658   8.421   5.831  1.00  0.00    -0.550 OA
ATOM      5  O   UNL     1       3.336   7.792   7.258  1.00  0.00    -0.550 OA
ENDBRANCH   2   3
ENDBRANCH   1   2
BRANCH   1   6
ATOM      6  C   UNL     1       0.121   6.645   9.247  1.00  0.00     0.000 C 
BRANCH   6   7
ATOM      7  C   UNL     1      -0.955   5.553   9.138  1.00  0.00    -0.000 C 
BRANCH   7   8
ATOM      8  C   UNL     1      -0.634   4.318   9.990  1.00  0.00    -0.003 C 
ATOM      9  C   UNL     1      -1.423   3.101   9.514  1.00  0.00     0.004 C 
ENDBRANCH   7   8
ENDBRANCH   6   7
ENDBRANCH   1   6
TORSDOF 5
ENDMDL
MODEL 7
REMARK VINA RESULT:    -3.014     15.186     17.320
REMARK INTER + INTRA:          -4.133
REMARK INTER:                  -3.966
REMARK INTRA:                  -0.167
REMARK UNBOUND:                -0.238
REMARK SMILES CCCCCCC(=O)[O-]
REMARK SMILES IDX 5 1 6 2 7 3 8 4 9 5 4 6 3 7 2 8 1 9
REMARK H PARENT
REMARK Flexibility Score: inf
ROOT
ATOM      1  C   UNL     1      -1.048   3.253   9.715  1.00  0.00     0.006 C 
ENDROOT
BRANCH   1   2
ATOM      2  C   UNL     1      -2.498   2.874  10.029  1.00  0.00     0.053 C 
BRANCH   2   3
ATOM      3  C   UNL     1      -2.963   1.782   9.119  1.00  0.00     0.041 C 
ATOM      4  O   UNL     1      -4.079   1.229   9.312  1.00  0.00    -0.550 OA
ATOM      5  O   UNL     1      -2.145   1.339   8.088  1.00  0.00    -0.550 OA
ENDBRANCH   2   3
ENDBRANCH   1   2
BRANCH   1   6
ATOM      6  C   UNL     1      -0.789   4.736  10.023  1.00  0.00     0.000 C 
BRANCH   6   7
ATOM      7  C   UNL     1      -1.411   5.675   8.977  1.00  0.00    -0.000 C 
BRANCH   7   8
ATOM      8  C   UNL     1      -0.508   6.872   8.644  1.00  0.00    -0.003 C 
ATOM      9  C   UNL     1       0.802   6.805   9.423  1.00  0.00     0.004 C 
ENDBRANCH   7   8
ENDBRANCH   6   7
ENDBRANCH   1   6
TORSDOF 5
ENDMDL
MODEL 8
REMARK VINA RESULT:    -2.966     19.975     21.147
REMARK INTER + INTRA:          -4.072
REMARK INTER:                  -3.777
REMARK INTRA:                  -0.295
REMARK UNBOUND:                -0.238
REMARK SMILES CCCCCCC(=O)[O-]
REMARK SMILES IDX 5 1 6 2 7 3 8 4 9 5 4 6 3 7 2 8 1 9
REMARK H PARENT
REMARK Flexibility Score: inf
ROOT
ATOM      1  C   UNL     1       3.414   7.844   7.500  1.00  0.00     0.006 C 
ENDROOT
BRANCH   1   2
ATOM      2  C   UNL     1       3.833   8.245   8.917  1.00  0.00     0.053 C 
BRANCH   2   3
ATOM      3  C   UNL     1       5.238   8.757   8.924  1.00  0.00     0.041 C 
ATOM      4  O   UNL     1       5.560   9.734   8.195  1.00  0.00    -0.550 OA
ATOM      5  O   UNL     1       6.205   8.128   9.696  1.00  0.00    -0.550 OA
ENDBRANCH   2   3
ENDBRANCH   1   2
BRANCH   1   6
ATOM      6  C   UNL     1       2.160   8.615   7.060  1.00  0.00     0.000 C 
BRANCH   6   7
ATOM      7  C   UNL     1       1.137   8.777   8.195  1.00  0.00    -0.000 C 
BRANCH   7   8
ATOM      8  C   UNL     1       0.002   7.746   8.121  1.00  0.00    -0.003 C 
ATOM      9  C   UNL     1       0.169   6.668   9.189  1.00  0.00     0.004 C 
ENDBRANCH   7   8
ENDBRANCH   6   7
ENDBRANCH   1   6
TORSDOF 5
ENDMDL
MODEL 9
REMARK VINA RESULT:    -2.949     15.477     17.264
REMARK INTER + INTRA:          -4.049
REMARK INTER:                  -3.871
REMARK INTRA:                  -0.179
REMARK UNBOUND:                -0.238
REMARK SMILES CCCCCCC(=O)[O-]
REMARK SMILES IDX 5 1 6 2 7 3 8 4 9 5 4 6 3 7 2 8 1 9
REMARK H PARENT
REMARK Flexibility Score: inf
ROOT
ATOM      1  C   UNL     1      -3.449   4.715   9.059  1.00  0.00     0.006 C 
ENDROOT
BRANCH   1   2
ATOM      2  C   UNL     1      -3.451   3.462   9.940  1.00  0.00     0.053 C 
BRANCH   2   3
ATOM      3  C   UNL     1      -2.778   2.326   9.237  1.00  0.00     0.041 C 
ATOM      4  O   UNL     1      -1.523   2.216   9.269  1.00  0.00    -0.550 OA
ATOM      5  O   UNL     1      -3.530   1.416   8.506  1.00  0.00    -0.550 OA
ENDBRANCH   2   3
ENDBRANCH   1   2
BRANCH   1   6
ATOM      6  C   UNL     1      -2.460   5.762   9.596  1.00  0.00     0.000 C 
BRANCH   6   7
ATOM      7  C   UNL     1      -1.153   5.809   8.788  1.00  0.00    -0.000 C 
BRANCH   7   8
ATOM      8  C   UNL     1      -0.267   7.005   9.165  1.00  0.00    -0.003 C 
ATOM      9  C   UNL     1       0.043   7.866   7.943  1.00  0.00     0.004 C 
ENDBRANCH   7   8
ENDBRANCH   6   7
ENDBRANCH   1   6
TORSDOF 5
ENDMDL
