MODEL 1
REMARK VINA RESULT:    -3.331      0.000      0.000
REMARK INTER + INTRA:          -7.476
REMARK INTER:                  -5.181
REMARK INTRA:                  -2.295
REMARK UNBOUND:                -2.295
REMARK SMILES COc1cc(CNC(=O)CCCCC=CC(C)C)ccc1O
REMARK SMILES IDX 11 1 12 2 13 3 14 4 15 5 16 6 17 7 18 8 10 9 8 10 9 11 7 12
REMARK SMILES IDX 6 14 5 15 4 16 19 17 3 18 20 19 21 20 2 21 1 22 22 23
REMARK H PARENT 7 13 22 24
REMARK Flexibility Score: inf
ROOT
ATOM      1  C   UNL     1     137.830 136.706 147.550  1.00  0.00     0.010 C 
ENDROOT
BRANCH   1   2
ATOM      2  C   UNL     1     136.423 136.765 148.169  1.00  0.00     0.005 C 
BRANCH   2   3
ATOM      3  C   UNL     1     135.434 135.842 147.442  1.00  0.00     0.027 C 
BRANCH   3   4
ATOM      4  C   UNL     1     134.011 136.317 147.571  1.00  0.00    -0.031 C 
ATOM      5  C   UNL     1     133.718 137.604 147.812  1.00  0.00    -0.028 C 
BRANCH   5   6
ATOM      6  C   UNL     1     132.289 138.071 147.956  1.00  0.00     0.005 C 
ATOM      7  C   UNL     1     132.110 138.875 149.250  1.00  0.00     0.012 C 
ATOM      8  C   UNL     1     131.331 136.873 147.939  1.00  0.00     0.012 C 
ENDBRANCH   5   6
ENDBRANCH   3   4
ENDBRANCH   2   3
ENDBRANCH   1   2
BRANCH   1   9
ATOM      9  C   UNL     1     138.343 138.090 147.131  1.00  0.00     0.100 C 
BRANCH   9  10
ATOM     10  C   UNL     1     137.471 138.711 146.080  1.00  0.00     0.220 C 
ATOM     11  O   UNL     1     137.028 139.879 146.254  1.00  0.00    -0.275 OA
ATOM     12  N   UNL     1     137.174 137.997 144.871  1.00  0.00    -0.352 N 
ATOM     13  H   UNL     1     137.590 137.050 144.725  1.00  0.00     0.163 HD
BRANCH  12  14
ATOM     14  C   UNL     1     136.330 138.555 143.817  1.00  0.00     0.151 C 
BRANCH  14  15
ATOM     15  C   UNL     1     134.922 138.040 143.948  1.00  0.00    -0.025 A 
ATOM     16  C   UNL     1     134.661 136.668 143.804  1.00  0.00     0.056 A 
ATOM     17  C   UNL     1     133.867 138.917 144.236  1.00  0.00     0.009 A 
ATOM     18  C   UNL     1     133.350 136.169 143.943  1.00  0.00     0.160 A 
ATOM     19  C   UNL     1     132.566 138.430 144.374  1.00  0.00     0.050 A 
ATOM     20  C   UNL     1     132.301 137.063 144.229  1.00  0.00     0.157 A 
BRANCH  18  21
ATOM     21  O   UNL     1     133.058 134.803 143.807  1.00  0.00    -0.493 OA
ATOM     22  C   UNL     1     133.264 133.827 144.823  1.00  0.00     0.278 C 
ENDBRANCH  18  21
BRANCH  20  23
ATOM     23  O   UNL     1     130.990 136.613 144.373  1.00  0.00    -0.504 OA
ATOM     24  H   UNL     1     130.403 136.897 145.149  1.00  0.00     0.293 HD
ENDBRANCH  20  23
ENDBRANCH  14  15
ENDBRANCH  12  14
ENDBRANCH   9  10
ENDBRANCH   1   9
TORSDOF 10
ENDMDL
MODEL 2
REMARK VINA RESULT:    -3.326     12.216     15.013
REMARK INTER + INTRA:          -7.468
REMARK INTER:                  -5.239
REMARK INTRA:                  -2.229
REMARK UNBOUND:                -2.295
REMARK SMILES COc1cc(CNC(=O)CCCCC=CC(C)C)ccc1O
REMARK SMILES IDX 11 1 12 2 13 3 14 4 15 5 16 6 17 7 18 8 10 9 8 10 9 11 7 12
REMARK SMILES IDX 6 14 5 15 4 16 19 17 3 18 20 19 21 20 2 21 1 22 22 23
REMARK H PARENT 7 13 22 24
REMARK Flexibility Score: inf
ROOT
ATOM      1  C   UNL     1     149.401 147.616 143.817  1.00  0.00     0.010 C 
ENDROOT
BRANCH   1   2
ATOM      2  C   UNL     1     148.464 148.172 144.904  1.00  0.00     0.005 C 
BRANCH   2   3
ATOM      3  C   UNL     1     147.266 147.246 145.160  1.00  0.00     0.027 C 
BRANCH   3   4
ATOM      4  C   UNL     1     147.398 146.487 146.453  1.00  0.00    -0.031 C 
ATOM      5  C   UNL     1     146.551 145.497 146.777  1.00  0.00    -0.028 C 
BRANCH   5   6
ATOM      6  C   UNL     1     146.679 144.751 148.084  1.00  0.00     0.005 C 
ATOM      7  C   UNL     1     148.004 143.981 148.139  1.00  0.00     0.012 C 
ATOM      8  C   UNL     1     145.499 143.790 148.269  1.00  0.00     0.012 C 
ENDBRANCH   5   6
ENDBRANCH   3   4
ENDBRANCH   2   3
ENDBRANCH   1   2
BRANCH   1   9
ATOM      9  C   UNL     1     150.654 146.958 144.408  1.00  0.00     0.100 C 
BRANCH   9  10
ATOM     10  C   UNL     1     150.381 145.559 144.875  1.00  0.00     0.220 C 
ATOM     11  O   UNL     1     150.705 145.223 146.047  1.00  0.00    -0.275 OA
ATOM     12  N   UNL     1     149.723 144.622 144.009  1.00  0.00    -0.352 N 
ATOM     13  H   UNL     1     149.419 144.935 143.059  1.00  0.00     0.163 HD
BRANCH  12  14
ATOM     14  C   UNL     1     149.434 143.249 144.413  1.00  0.00     0.151 C 
BRANCH  14  15
ATOM     15  C   UNL     1     147.950 143.001 144.395  1.00  0.00    -0.025 A 
ATOM     16  C   UNL     1     147.399 141.981 145.186  1.00  0.00     0.056 A 
ATOM     17  C   UNL     1     147.105 143.798 143.610  1.00  0.00     0.009 A 
ATOM     18  C   UNL     1     146.008 141.751 145.194  1.00  0.00     0.160 A 
ATOM     19  C   UNL     1     145.726 143.575 143.611  1.00  0.00     0.050 A 
ATOM     20  C   UNL     1     145.174 142.557 144.398  1.00  0.00     0.157 A 
BRANCH  18  21
ATOM     21  O   UNL     1     145.428 140.740 145.976  1.00  0.00    -0.493 OA
ATOM     22  C   UNL     1     145.985 140.233 147.184  1.00  0.00     0.278 C 
ENDBRANCH  18  21
BRANCH  20  23
ATOM     23  O   UNL     1     143.794 142.364 144.374  1.00  0.00    -0.504 OA
ATOM     24  H   UNL     1     143.211 142.527 145.186  1.00  0.00     0.293 HD
ENDBRANCH  20  23
ENDBRANCH  14  15
ENDBRANCH  12  14
ENDBRANCH   9  10
ENDBRANCH   1   9
TORSDOF 10
ENDMDL
MODEL 3
REMARK VINA RESULT:    -3.322      2.047      5.283
REMARK INTER + INTRA:          -7.462
REMARK INTER:                  -5.383
REMARK INTRA:                  -2.079
REMARK UNBOUND:                -2.295
REMARK SMILES COc1cc(CNC(=O)CCCCC=CC(C)C)ccc1O
REMARK SMILES IDX 11 1 12 2 13 3 14 4 15 5 16 6 17 7 18 8 10 9 8 10 9 11 7 12
REMARK SMILES IDX 6 14 5 15 4 16 19 17 3 18 20 19 21 20 2 21 1 22 22 23
REMARK H PARENT 7 13 22 24
REMARK Flexibility Score: inf
ROOT
ATOM      1  C   UNL     1     132.600 133.925 143.949  1.00  0.00     0.010 C 
ENDROOT
BRANCH   1   2
ATOM      2  C   UNL     1     132.917 132.736 144.873  1.00  0.00     0.005 C 
BRANCH   2   3
ATOM      3  C   UNL     1     134.230 132.939 145.644  1.00  0.00     0.027 C 
BRANCH   3   4
ATOM      4  C   UNL     1     134.252 134.241 146.400  1.00  0.00    -0.031 C 
ATOM      5  C   UNL     1     135.157 135.195 146.131  1.00  0.00    -0.028 C 
BRANCH   5   6
ATOM      6  C   UNL     1     135.184 136.492 146.904  1.00  0.00     0.005 C 
ATOM      7  C   UNL     1     136.600 136.791 147.410  1.00  0.00     0.012 C 
ATOM      8  C   UNL     1     134.200 136.435 148.079  1.00  0.00     0.012 C 
ENDBRANCH   5   6
ENDBRANCH   3   4
ENDBRANCH   2   3
ENDBRANCH   1   2
BRANCH   1   9
ATOM      9  C   UNL     1     131.289 134.625 144.328  1.00  0.00     0.100 C 
BRANCH   9  10
ATOM     10  C   UNL     1     131.523 136.035 144.785  1.00  0.00     0.220 C 
ATOM     11  O   UNL     1     131.285 136.344 145.984  1.00  0.00    -0.275 OA
ATOM     12  N   UNL     1     132.046 137.014 143.875  1.00  0.00    -0.352 N 
ATOM     13  H   UNL     1     132.282 136.725 142.899  1.00  0.00     0.163 HD
BRANCH  12  14
ATOM     14  C   UNL     1     132.291 138.399 144.269  1.00  0.00     0.151 C 
BRANCH  14  15
ATOM     15  C   UNL     1     133.770 138.668 144.335  1.00  0.00    -0.025 A 
ATOM     16  C   UNL     1     134.263 139.675 145.180  1.00  0.00     0.056 A 
ATOM     17  C   UNL     1     134.668 137.905 143.576  1.00  0.00     0.009 A 
ATOM     18  C   UNL     1     135.647 139.925 145.267  1.00  0.00     0.160 A 
ATOM     19  C   UNL     1     136.041 138.148 143.656  1.00  0.00     0.050 A 
ATOM     20  C   UNL     1     136.535 139.153 144.495  1.00  0.00     0.157 A 
BRANCH  18  21
ATOM     21  O   UNL     1     136.170 140.924 146.104  1.00  0.00    -0.493 OA
ATOM     22  C   UNL     1     136.532 140.729 147.467  1.00  0.00     0.278 C 
ENDBRANCH  18  21
BRANCH  20  23
ATOM     23  O   UNL     1     137.911 139.367 144.549  1.00  0.00    -0.504 OA
ATOM     24  H   UNL     1     138.521 138.818 145.143  1.00  0.00     0.293 HD
ENDBRANCH  20  23
ENDBRANCH  14  15
ENDBRANCH  12  14
ENDBRANCH   9  10
ENDBRANCH   1   9
TORSDOF 10
ENDMDL
MODEL 4
REMARK VINA RESULT:    -3.308     10.949     14.712
REMARK INTER + INTRA:          -7.441
REMARK INTER:                  -5.335
REMARK INTRA:                  -2.106
REMARK UNBOUND:                -2.295
REMARK SMILES COc1cc(CNC(=O)CCCCC=CC(C)C)ccc1O
REMARK SMILES IDX 11 1 12 2 13 3 14 4 15 5 16 6 17 7 18 8 10 9 8 10 9 11 7 12
REMARK SMILES IDX 6 14 5 15 4 16 19 17 3 18 20 19 21 20 2 21 1 22 22 23
REMARK H PARENT 7 13 22 24
REMARK Flexibility Score: inf
ROOT
ATOM      1  C   UNL     1     144.257 140.392 146.608  1.00  0.00     0.010 C 
ENDROOT
BRANCH   1   2
ATOM      2  C   UNL     1     145.313 139.842 147.583  1.00  0.00     0.005 C 
BRANCH   2   3
ATOM      3  C   UNL     1     146.698 139.727 146.927  1.00  0.00     0.027 C 
BRANCH   3   4
ATOM      4  C   UNL     1     147.371 141.065 146.778  1.00  0.00    -0.031 C 
ATOM      5  C   UNL     1     147.718 141.801 147.846  1.00  0.00    -0.028 C 
BRANCH   5   6
ATOM      6  C   UNL     1     148.379 143.150 147.689  1.00  0.00     0.005 C 
ATOM      7  C   UNL     1     149.297 143.445 148.882  1.00  0.00     0.012 C 
ATOM      8  C   UNL     1     147.321 144.250 147.548  1.00  0.00     0.012 C 
ENDBRANCH   5   6
ENDBRANCH   3   4
ENDBRANCH   2   3
ENDBRANCH   1   2
BRANCH   1   9
ATOM      9  C   UNL     1     143.829 141.823 146.960  1.00  0.00     0.100 C 
BRANCH   9  10
ATOM     10  C   UNL     1     144.185 142.793 145.872  1.00  0.00     0.220 C 
ATOM     11  O   UNL     1     143.895 144.013 146.012  1.00  0.00    -0.275 OA
ATOM     12  N   UNL     1     144.880 142.343 144.700  1.00  0.00    -0.352 N 
ATOM     13  H   UNL     1     145.153 141.338 144.625  1.00  0.00     0.163 HD
BRANCH  12  14
ATOM     14  C   UNL     1     145.248 143.246 143.612  1.00  0.00     0.151 C 
BRANCH  14  15
ATOM     15  C   UNL     1     146.651 143.755 143.809  1.00  0.00    -0.025 A 
ATOM     16  C   UNL     1     146.881 145.126 143.995  1.00  0.00     0.056 A 
ATOM     17  C   UNL     1     147.734 142.865 143.832  1.00  0.00     0.009 A 
ATOM     18  C   UNL     1     148.187 145.615 144.200  1.00  0.00     0.160 A 
ATOM     19  C   UNL     1     149.032 143.341 144.033  1.00  0.00     0.050 A 
ATOM     20  C   UNL     1     149.264 144.709 144.217  1.00  0.00     0.157 A 
BRANCH  18  21
ATOM     21  O   UNL     1     148.447 146.981 144.391  1.00  0.00    -0.493 OA
ATOM     22  C   UNL     1     147.777 147.807 145.337  1.00  0.00     0.278 C 
ENDBRANCH  18  21
BRANCH  20  23
ATOM     23  O   UNL     1     150.572 145.148 144.415  1.00  0.00    -0.504 OA
ATOM     24  H   UNL     1     151.285 144.555 144.824  1.00  0.00     0.293 HD
ENDBRANCH  20  23
ENDBRANCH  14  15
ENDBRANCH  12  14
ENDBRANCH   9  10
ENDBRANCH   1   9
TORSDOF 10
ENDMDL
MODEL 5
REMARK VINA RESULT:    -3.301      6.874      9.012
REMARK INTER + INTRA:          -7.429
REMARK INTER:                  -6.734
REMARK INTRA:                  -0.695
REMARK UNBOUND:                -2.295
REMARK SMILES COc1cc(CNC(=O)CCCCC=CC(C)C)ccc1O
REMARK SMILES IDX 11 1 12 2 13 3 14 4 15 5 16 6 17 7 18 8 10 9 8 10 9 11 7 12
REMARK SMILES IDX 6 14 5 15 4 16 19 17 3 18 20 19 21 20 2 21 1 22 22 23
REMARK H PARENT 7 13 22 24
REMARK Flexibility Score: inf
ROOT
ATOM      1  C   UNL     1     135.004 143.286 145.787  1.00  0.00     0.010 C 
ENDROOT
BRANCH   1   2
ATOM      2  C   UNL     1     134.241 142.216 144.987  1.00  0.00     0.005 C 
BRANCH   2   3
ATOM      3  C   UNL     1     134.407 140.815 145.595  1.00  0.00     0.027 C 
BRANCH   3   4
ATOM      4  C   UNL     1     133.758 139.748 144.754  1.00  0.00    -0.031 C 
ATOM      5  C   UNL     1     133.981 138.443 144.978  1.00  0.00    -0.028 C 
BRANCH   5   6
ATOM      6  C   UNL     1     133.339 137.379 144.121  1.00  0.00     0.005 C 
ATOM      7  C   UNL     1     131.925 137.061 144.622  1.00  0.00     0.012 C 
ATOM      8  C   UNL     1     134.198 136.109 144.114  1.00  0.00     0.012 C 
ENDBRANCH   5   6
ENDBRANCH   3   4
ENDBRANCH   2   3
ENDBRANCH   1   2
BRANCH   1   9
ATOM      9  C   UNL     1     136.368 142.785 146.280  1.00  0.00     0.100 C 
BRANCH   9  10
ATOM     10  C   UNL     1     137.473 143.732 145.916  1.00  0.00     0.220 C 
ATOM     11  O   UNL     1     138.459 143.859 146.692  1.00  0.00    -0.275 OA
ATOM     12  N   UNL     1     137.426 144.459 144.680  1.00  0.00    -0.352 N 
ATOM     13  H   UNL     1     136.624 144.302 144.028  1.00  0.00     0.163 HD
BRANCH  12  14
ATOM     14  C   UNL     1     138.475 145.393 144.279  1.00  0.00     0.151 C 
BRANCH  14  15
ATOM     15  C   UNL     1     137.948 146.803 144.284  1.00  0.00    -0.025 A 
ATOM     16  C   UNL     1     136.568 147.036 144.394  1.00  0.00     0.056 A 
ATOM     17  C   UNL     1     138.827 147.892 144.204  1.00  0.00     0.009 A 
ATOM     18  C   UNL     1     136.062 148.351 144.420  1.00  0.00     0.160 A 
ATOM     19  C   UNL     1     138.333 149.198 144.228  1.00  0.00     0.050 A 
ATOM     20  C   UNL     1     136.957 149.433 144.335  1.00  0.00     0.157 A 
BRANCH  18  21
ATOM     21  O   UNL     1     134.688 148.616 144.531  1.00  0.00    -0.493 OA
ATOM     22  C   UNL     1     133.757 147.783 145.215  1.00  0.00     0.278 C 
ENDBRANCH  18  21
BRANCH  20  23
ATOM     23  O   UNL     1     136.501 150.750 144.356  1.00  0.00    -0.504 OA
ATOM     24  H   UNL     1     136.437 151.287 145.213  1.00  0.00     0.293 HD
ENDBRANCH  20  23
ENDBRANCH  14  15
ENDBRANCH  12  14
ENDBRANCH   9  10
ENDBRANCH   1   9
TORSDOF 10
ENDMDL
MODEL 6
REMARK VINA RESULT:    -3.252      3.209      5.618
REMARK INTER + INTRA:          -7.353
REMARK INTER:                  -6.496
REMARK INTRA:                  -0.857
REMARK UNBOUND:                -2.295
REMARK SMILES COc1cc(CNC(=O)CCCCC=CC(C)C)ccc1O
REMARK SMILES IDX 11 1 12 2 13 3 14 4 15 5 16 6 17 7 18 8 10 9 8 10 9 11 7 12
REMARK SMILES IDX 6 14 5 15 4 16 19 17 3 18 20 19 21 20 2 21 1 22 22 23
REMARK H PARENT 7 13 22 24
REMARK Flexibility Score: inf
ROOT
ATOM      1  C   UNL     1     138.259 135.956 147.113  1.00  0.00     0.010 C 
ENDROOT
BRANCH   1   2
ATOM      2  C   UNL     1     138.888 134.619 146.682  1.00  0.00     0.005 C 
BRANCH   2   3
ATOM      3  C   UNL     1     139.637 134.738 145.346  1.00  0.00     0.027 C 
BRANCH   3   4
ATOM      4  C   UNL     1     140.886 133.899 145.316  1.00  0.00    -0.031 C 
ATOM      5  C   UNL     1     142.106 134.456 145.255  1.00  0.00    -0.028 C 
BRANCH   5   6
ATOM      6  C   UNL     1     143.355 133.609 145.208  1.00  0.00     0.005 C 
ATOM      7  C   UNL     1     143.258 132.562 144.091  1.00  0.00     0.012 C 
ATOM      8  C   UNL     1     143.586 132.923 146.560  1.00  0.00     0.012 C 
ENDBRANCH   5   6
ENDBRANCH   3   4
ENDBRANCH   2   3
ENDBRANCH   1   2
BRANCH   1   9
ATOM      9  C   UNL     1     138.955 137.162 146.469  1.00  0.00     0.100 C 
BRANCH   9  10
ATOM     10  C   UNL     1     137.966 138.148 145.921  1.00  0.00     0.220 C 
ATOM     11  O   UNL     1     137.862 139.284 146.458  1.00  0.00    -0.275 OA
ATOM     12  N   UNL     1     137.173 137.814 144.772  1.00  0.00    -0.352 N 
ATOM     13  H   UNL     1     137.310 136.886 144.312  1.00  0.00     0.163 HD
BRANCH  12  14
ATOM     14  C   UNL     1     136.196 138.736 144.199  1.00  0.00     0.151 C 
BRANCH  14  15
ATOM     15  C   UNL     1     134.826 138.113 144.200  1.00  0.00    -0.025 A 
ATOM     16  C   UNL     1     134.686 136.726 144.035  1.00  0.00     0.056 A 
ATOM     17  C   UNL     1     133.684 138.903 144.388  1.00  0.00     0.009 A 
ATOM     18  C   UNL     1     133.412 136.126 144.053  1.00  0.00     0.160 A 
ATOM     19  C   UNL     1     132.417 138.316 144.406  1.00  0.00     0.050 A 
ATOM     20  C   UNL     1     132.274 136.934 144.240  1.00  0.00     0.157 A 
BRANCH  18  21
ATOM     21  O   UNL     1     133.240 134.741 143.892  1.00  0.00    -0.493 OA
ATOM     22  C   UNL     1     133.385 133.783 144.935  1.00  0.00     0.278 C 
ENDBRANCH  18  21
BRANCH  20  23
ATOM     23  O   UNL     1     130.994 136.383 144.264  1.00  0.00    -0.504 OA
ATOM     24  H   UNL     1     130.538 136.039 143.427  1.00  0.00     0.293 HD
ENDBRANCH  20  23
ENDBRANCH  14  15
ENDBRANCH  12  14
ENDBRANCH   9  10
ENDBRANCH   1   9
TORSDOF 10
ENDMDL
MODEL 7
REMARK VINA RESULT:    -3.238      2.132      5.362
REMARK INTER + INTRA:          -7.331
REMARK INTER:                  -5.045
REMARK INTRA:                  -2.286
REMARK UNBOUND:                -2.295
REMARK SMILES COc1cc(CNC(=O)CCCCC=CC(C)C)ccc1O
REMARK SMILES IDX 11 1 12 2 13 3 14 4 15 5 16 6 17 7 18 8 10 9 8 10 9 11 7 12
REMARK SMILES IDX 6 14 5 15 4 16 19 17 3 18 20 19 21 20 2 21 1 22 22 23
REMARK H PARENT 7 13 22 24
REMARK Flexibility Score: inf
ROOT
ATOM      1  C   UNL     1     132.981 133.208 145.992  1.00  0.00     0.010 C 
ENDROOT
BRANCH   1   2
ATOM      2  C   UNL     1     134.447 133.102 146.448  1.00  0.00     0.005 C 
BRANCH   2   3
ATOM      3  C   UNL     1     134.823 134.212 147.441  1.00  0.00     0.027 C 
BRANCH   3   4
ATOM      4  C   UNL     1     135.576 135.337 146.781  1.00  0.00    -0.031 C 
ATOM      5  C   UNL     1     136.050 135.227 145.530  1.00  0.00    -0.028 C 
BRANCH   5   6
ATOM      6  C   UNL     1     136.818 136.353 144.880  1.00  0.00     0.005 C 
ATOM      7  C   UNL     1     137.003 137.518 145.860  1.00  0.00     0.012 C 
ATOM      8  C   UNL     1     136.097 136.832 143.615  1.00  0.00     0.012 C 
ENDBRANCH   5   6
ENDBRANCH   3   4
ENDBRANCH   2   3
ENDBRANCH   1   2
BRANCH   1   9
ATOM      9  C   UNL     1     132.850 133.297 144.466  1.00  0.00     0.100 C 
BRANCH   9  10
ATOM     10  C   UNL     1     132.735 134.719 143.999  1.00  0.00     0.220 C 
ATOM     11  O   UNL     1     133.182 135.035 142.863  1.00  0.00    -0.275 OA
ATOM     12  N   UNL     1     132.092 135.701 144.824  1.00  0.00    -0.352 N 
ATOM     13  H   UNL     1     131.686 135.409 145.741  1.00  0.00     0.163 HD
BRANCH  12  14
ATOM     14  C   UNL     1     131.955 137.098 144.418  1.00  0.00     0.151 C 
BRANCH  14  15
ATOM     15  C   UNL     1     132.763 137.987 145.325  1.00  0.00    -0.025 A 
ATOM     16  C   UNL     1     133.419 139.112 144.803  1.00  0.00     0.056 A 
ATOM     17  C   UNL     1     132.849 137.713 146.697  1.00  0.00     0.009 A 
ATOM     18  C   UNL     1     134.162 139.964 145.644  1.00  0.00     0.160 A 
ATOM     19  C   UNL     1     133.585 138.552 147.537  1.00  0.00     0.050 A 
ATOM     20  C   UNL     1     134.242 139.674 147.019  1.00  0.00     0.157 A 
BRANCH  18  21
ATOM     21  O   UNL     1     134.828 141.098 145.151  1.00  0.00    -0.493 OA
ATOM     22  C   UNL     1     134.288 142.416 145.152  1.00  0.00     0.278 C 
ENDBRANCH  18  21
BRANCH  20  23
ATOM     23  O   UNL     1     134.967 140.488 147.887  1.00  0.00    -0.504 OA
ATOM     24  H   UNL     1     135.239 141.433 147.642  1.00  0.00     0.293 HD
ENDBRANCH  20  23
ENDBRANCH  14  15
ENDBRANCH  12  14
ENDBRANCH   9  10
ENDBRANCH   1   9
TORSDOF 10
ENDMDL
MODEL 8
REMARK VINA RESULT:    -3.237      9.254     12.410
REMARK INTER + INTRA:          -7.330
REMARK INTER:                  -6.539
REMARK INTRA:                  -0.792
REMARK UNBOUND:                -2.295
REMARK SMILES COc1cc(CNC(=O)CCCCC=CC(C)C)ccc1O
REMARK SMILES IDX 11 1 12 2 13 3 14 4 15 5 16 6 17 7 18 8 10 9 8 10 9 11 7 12
REMARK SMILES IDX 6 14 5 15 4 16 19 17 3 18 20 19 21 20 2 21 1 22 22 23
REMARK H PARENT 7 13 22 24
REMARK Flexibility Score: inf
ROOT
ATOM      1  C   UNL     1     144.334 139.783 146.589  1.00  0.00     0.010 C 
ENDROOT
BRANCH   1   2
ATOM      2  C   UNL     1     145.726 140.427 146.715  1.00  0.00     0.005 C 
BRANCH   2   3
ATOM      3  C   UNL     1     146.618 140.113 145.504  1.00  0.00     0.027 C 
BRANCH   3   4
ATOM      4  C   UNL     1     147.455 141.294 145.091  1.00  0.00    -0.031 C 
ATOM      5  C   UNL     1     147.473 142.429 145.808  1.00  0.00    -0.028 C 
BRANCH   5   6
ATOM      6  C   UNL     1     148.303 143.615 145.379  1.00  0.00     0.005 C 
ATOM      7  C   UNL     1     149.256 143.226 144.242  1.00  0.00     0.012 C 
ATOM      8  C   UNL     1     149.094 144.172 146.568  1.00  0.00     0.012 C 
ENDBRANCH   5   6
ENDBRANCH   3   4
ENDBRANCH   2   3
ENDBRANCH   1   2
BRANCH   1   9
ATOM      9  C   UNL     1     144.313 138.336 147.099  1.00  0.00     0.100 C 
BRANCH   9  10
ATOM     10  C   UNL     1     143.524 137.438 146.191  1.00  0.00     0.220 C 
ATOM     11  O   UNL     1     142.457 136.915 146.613  1.00  0.00    -0.275 OA
ATOM     12  N   UNL     1     143.962 137.206 144.844  1.00  0.00    -0.352 N 
ATOM     13  H   UNL     1     144.823 137.687 144.499  1.00  0.00     0.163 HD
BRANCH  12  14
ATOM     14  C   UNL     1     143.233 136.340 143.921  1.00  0.00     0.151 C 
BRANCH  14  15
ATOM     15  C   UNL     1     143.759 134.932 144.000  1.00  0.00    -0.025 A 
ATOM     16  C   UNL     1     145.139 134.692 143.907  1.00  0.00     0.056 A 
ATOM     17  C   UNL     1     142.883 133.854 144.189  1.00  0.00     0.009 A 
ATOM     18  C   UNL     1     145.647 133.381 143.998  1.00  0.00     0.160 A 
ATOM     19  C   UNL     1     143.379 132.552 144.279  1.00  0.00     0.050 A 
ATOM     20  C   UNL     1     144.754 132.309 144.185  1.00  0.00     0.157 A 
BRANCH  18  21
ATOM     21  O   UNL     1     147.022 133.110 143.911  1.00  0.00    -0.493 OA
ATOM     22  C   UNL     1     147.942 133.244 144.989  1.00  0.00     0.278 C 
ENDBRANCH  18  21
BRANCH  20  23
ATOM     23  O   UNL     1     145.212 130.997 144.279  1.00  0.00    -0.504 OA
ATOM     24  H   UNL     1     145.897 130.616 143.637  1.00  0.00     0.293 HD
ENDBRANCH  20  23
ENDBRANCH  14  15
ENDBRANCH  12  14
ENDBRANCH   9  10
ENDBRANCH   1   9
TORSDOF 10
ENDMDL
MODEL 9
REMARK VINA RESULT:    -3.196      9.243     11.659
REMARK INTER + INTRA:          -7.266
REMARK INTER:                  -5.025
REMARK INTRA:                  -2.241
REMARK UNBOUND:                -2.295
REMARK SMILES COc1cc(CNC(=O)CCCCC=CC(C)C)ccc1O
REMARK SMILES IDX 11 1 12 2 13 3 14 4 15 5 16 6 17 7 18 8 10 9 8 10 9 11 7 12
REMARK SMILES IDX 6 14 5 15 4 16 19 17 3 18 20 19 21 20 2 21 1 22 22 23
REMARK H PARENT 7 13 22 24
REMARK Flexibility Score: inf
ROOT
ATOM      1  C   UNL     1     134.917 149.842 143.985  1.00  0.00     0.010 C 
ENDROOT
BRANCH   1   2
ATOM      2  C   UNL     1     136.137 150.155 144.870  1.00  0.00     0.005 C 
BRANCH   2   3
ATOM      3  C   UNL     1     135.726 150.685 146.252  1.00  0.00     0.027 C 
BRANCH   3   4
ATOM      4  C   UNL     1     136.264 149.836 147.371  1.00  0.00    -0.031 C 
ATOM      5  C   UNL     1     137.349 149.063 147.209  1.00  0.00    -0.028 C 
BRANCH   5   6
ATOM      6  C   UNL     1     137.874 148.201 148.332  1.00  0.00     0.005 C 
ATOM      7  C   UNL     1     139.389 148.381 148.491  1.00  0.00     0.012 C 
ATOM      8  C   UNL     1     137.539 146.727 148.076  1.00  0.00     0.012 C 
ENDBRANCH   5   6
ENDBRANCH   3   4
ENDBRANCH   2   3
ENDBRANCH   1   2
BRANCH   1   9
ATOM      9  C   UNL     1     134.116 148.640 144.501  1.00  0.00     0.100 C 
BRANCH   9  10
ATOM     10  C   UNL     1     134.974 147.416 144.638  1.00  0.00     0.220 C 
ATOM     11  O   UNL     1     135.001 146.799 145.737  1.00  0.00    -0.275 OA
ATOM     12  N   UNL     1     135.729 146.933 143.517  1.00  0.00    -0.352 N 
ATOM     13  H   UNL     1     135.655 147.431 142.601  1.00  0.00     0.163 HD
BRANCH  12  14
ATOM     14  C   UNL     1     136.580 145.749 143.596  1.00  0.00     0.151 C 
BRANCH  14  15
ATOM     15  C   UNL     1     137.906 146.099 144.216  1.00  0.00    -0.025 A 
ATOM     16  C   UNL     1     138.641 145.120 144.902  1.00  0.00     0.056 A 
ATOM     17  C   UNL     1     138.428 147.395 144.094  1.00  0.00     0.009 A 
ATOM     18  C   UNL     1     139.893 145.429 145.470  1.00  0.00     0.160 A 
ATOM     19  C   UNL     1     139.668 147.709 144.656  1.00  0.00     0.050 A 
ATOM     20  C   UNL     1     140.402 146.736 145.343  1.00  0.00     0.157 A 
BRANCH  18  21
ATOM     21  O   UNL     1     140.653 144.471 146.161  1.00  0.00    -0.493 OA
ATOM     22  C   UNL     1     140.473 144.133 147.532  1.00  0.00     0.278 C 
ENDBRANCH  18  21
BRANCH  20  23
ATOM     23  O   UNL     1     141.635 147.086 145.890  1.00  0.00    -0.504 OA
ATOM     24  H   UNL     1     141.893 148.049 146.070  1.00  0.00     0.293 HD
ENDBRANCH  20  23
ENDBRANCH  14  15
ENDBRANCH  12  14
ENDBRANCH   9  10
ENDBRANCH   1   9
TORSDOF 10
ENDMDL
