MODEL 1
REMARK VINA RESULT:    -7.006      0.000      0.000
REMARK INTER + INTRA:          -7.620
REMARK INTER:                  -7.620
REMARK INTRA:                   0.000
REMARK UNBOUND:                 0.000
REMARK SMILES Cc1cc(O)c2c(c1)C(=O)c1cc(O)cc(O)c1C2=O
REMARK SMILES IDX 1 1 2 2 8 3 7 4 6 5 4 6 3 7 19 8 20 9 18 10 11 11 9 12 10 13
REMARK SMILES IDX 12 14 13 15 15 16 16 17 5 18 17 20 14 22
REMARK H PARENT 5 19 17 21 14 23
REMARK Flexibility Score: inf
ROOT
ATOM      1  C   UNL     1      12.574  15.514  64.990  1.00  0.00     0.044 C 
ATOM      2  C   UNL     1      13.388  14.914  63.881  1.00  0.00    -0.047 A 
ATOM      3  C   UNL     1      14.118  15.738  63.019  1.00  0.00     0.016 A 
ATOM      4  C   UNL     1      14.913  15.187  61.999  1.00  0.00     0.038 A 
ATOM      5  C   UNL     1      14.988  13.785  61.846  1.00  0.00     0.076 A 
ATOM      6  C   UNL     1      14.262  12.955  62.736  1.00  0.00     0.127 A 
ATOM      7  C   UNL     1      13.477  13.526  63.745  1.00  0.00     0.050 A 
ATOM      8  C   UNL     1      15.832  13.212  60.759  1.00  0.00     0.201 C 
ATOM      9  O   UNL     1      15.899  11.961  60.612  1.00  0.00    -0.288 OA
ATOM     10  C   UNL     1      16.597  14.104  59.844  1.00  0.00     0.076 A 
ATOM     11  C   UNL     1      16.512  15.505  60.012  1.00  0.00     0.041 A 
ATOM     12  C   UNL     1      15.671  16.076  61.088  1.00  0.00     0.194 C 
ATOM     13  O   UNL     1      15.600  17.328  61.230  1.00  0.00    -0.289 OA
ATOM     14  C   UNL     1      17.230  16.357  59.153  1.00  0.00     0.059 A 
ATOM     15  C   UNL     1      18.028  15.832  58.133  1.00  0.00     0.120 A 
ATOM     16  C   UNL     1      18.115  14.451  57.963  1.00  0.00     0.093 A 
ATOM     17  C   UNL     1      17.409  13.582  58.806  1.00  0.00     0.131 A 
ENDROOT
BRANCH   6  18
ATOM     18  O   UNL     1      14.319  11.565  62.625  1.00  0.00    -0.507 OA
ATOM     19  H   UNL     1      13.480  10.999  62.570  1.00  0.00     0.293 HD
ENDBRANCH   6  18
BRANCH  17  20
ATOM     20  O   UNL     1      17.519  12.206  58.607  1.00  0.00    -0.507 OA
ATOM     21  H   UNL     1      16.784  11.671  58.156  1.00  0.00     0.293 HD
ENDBRANCH  17  20
BRANCH  15  22
ATOM     22  O   UNL     1      18.739  16.674  57.281  1.00  0.00    -0.508 OA
ATOM     23  H   UNL     1      18.273  17.219  56.564  1.00  0.00     0.293 HD
ENDBRANCH  15  22
TORSDOF 3
ENDMDL
MODEL 2
REMARK VINA RESULT:    -6.857      1.071      6.343
REMARK INTER + INTRA:          -7.458
REMARK INTER:                  -7.458
REMARK INTRA:                   0.000
REMARK UNBOUND:                 0.000
REMARK SMILES Cc1cc(O)c2c(c1)C(=O)c1cc(O)cc(O)c1C2=O
REMARK SMILES IDX 1 1 2 2 8 3 7 4 6 5 4 6 3 7 19 8 20 9 18 10 11 11 9 12 10 13
REMARK SMILES IDX 12 14 13 15 15 16 16 17 5 18 17 20 14 22
REMARK H PARENT 5 19 17 21 14 23
REMARK Flexibility Score: inf
ROOT
ATOM      1  C   UNL     1      19.458  13.988  56.752  1.00  0.00     0.044 C 
ATOM      2  C   UNL     1      18.493  14.525  57.769  1.00  0.00    -0.047 A 
ATOM      3  C   UNL     1      17.797  13.651  58.609  1.00  0.00     0.016 A 
ATOM      4  C   UNL     1      16.918  14.143  59.590  1.00  0.00     0.038 A 
ATOM      5  C   UNL     1      16.742  15.536  59.741  1.00  0.00     0.076 A 
ATOM      6  C   UNL     1      17.466  16.417  58.901  1.00  0.00     0.127 A 
ATOM      7  C   UNL     1      18.337  15.905  57.930  1.00  0.00     0.050 A 
ATOM      8  C   UNL     1      15.806  16.045  60.782  1.00  0.00     0.201 C 
ATOM      9  O   UNL     1      15.637  17.288  60.919  1.00  0.00    -0.288 OA
ATOM     10  C   UNL     1      15.064  15.100  61.664  1.00  0.00     0.076 A 
ATOM     11  C   UNL     1      15.254  13.709  61.500  1.00  0.00     0.041 A 
ATOM     12  C   UNL     1      16.180  13.200  60.463  1.00  0.00     0.194 C 
ATOM     13  O   UNL     1      16.342  11.957  60.323  1.00  0.00    -0.289 OA
ATOM     14  C   UNL     1      14.559  12.807  62.326  1.00  0.00     0.059 A 
ATOM     15  C   UNL     1      13.682  13.273  63.309  1.00  0.00     0.120 A 
ATOM     16  C   UNL     1      13.491  14.643  63.474  1.00  0.00     0.093 A 
ATOM     17  C   UNL     1      14.172  15.561  62.663  1.00  0.00     0.131 A 
ENDROOT
BRANCH   6  18
ATOM     18  O   UNL     1      17.329  17.800  59.026  1.00  0.00    -0.507 OA
ATOM     19  H   UNL     1      16.851  18.354  58.325  1.00  0.00     0.293 HD
ENDBRANCH   6  18
BRANCH  17  20
ATOM     20  O   UNL     1      13.957  16.926  62.855  1.00  0.00    -0.507 OA
ATOM     21  H   UNL     1      13.141  17.274  63.348  1.00  0.00     0.293 HD
ENDBRANCH  17  20
BRANCH  15  22
ATOM     22  O   UNL     1      12.992  12.381  64.127  1.00  0.00    -0.508 OA
ATOM     23  H   UNL     1      12.893  12.543  65.123  1.00  0.00     0.293 HD
ENDBRANCH  15  22
TORSDOF 3
ENDMDL
MODEL 3
REMARK VINA RESULT:    -6.674      2.271      5.345
REMARK INTER + INTRA:          -7.259
REMARK INTER:                  -7.259
REMARK INTRA:                   0.000
REMARK UNBOUND:                 0.000
REMARK SMILES Cc1cc(O)c2c(c1)C(=O)c1cc(O)cc(O)c1C2=O
REMARK SMILES IDX 1 1 2 2 8 3 7 4 6 5 4 6 3 7 19 8 20 9 18 10 11 11 9 12 10 13
REMARK SMILES IDX 12 14 13 15 15 16 16 17 5 18 17 20 14 22
REMARK H PARENT 5 19 17 21 14 23
REMARK Flexibility Score: inf
ROOT
ATOM      1  C   UNL     1      17.320  10.658  58.470  1.00  0.00     0.044 C 
ATOM      2  C   UNL     1      16.619  11.195  59.683  1.00  0.00    -0.047 A 
ATOM      3  C   UNL     1      16.379  12.567  59.808  1.00  0.00     0.016 A 
ATOM      4  C   UNL     1      15.690  13.078  60.922  1.00  0.00     0.038 A 
ATOM      5  C   UNL     1      15.223  12.199  61.924  1.00  0.00     0.076 A 
ATOM      6  C   UNL     1      15.451  10.808  61.781  1.00  0.00     0.127 A 
ATOM      7  C   UNL     1      16.139  10.321  60.662  1.00  0.00     0.050 A 
ATOM      8  C   UNL     1      14.497  12.753  63.101  1.00  0.00     0.201 C 
ATOM      9  O   UNL     1      14.083  11.975  64.004  1.00  0.00    -0.288 OA
ATOM     10  C   UNL     1      14.257  14.219  63.224  1.00  0.00     0.076 A 
ATOM     11  C   UNL     1      14.730  15.084  62.211  1.00  0.00     0.041 A 
ATOM     12  C   UNL     1      15.456  14.535  61.042  1.00  0.00     0.194 C 
ATOM     13  O   UNL     1      15.876  15.316  60.143  1.00  0.00    -0.289 OA
ATOM     14  C   UNL     1      14.509  16.469  62.316  1.00  0.00     0.059 A 
ATOM     15  C   UNL     1      13.827  17.000  63.413  1.00  0.00     0.120 A 
ATOM     16  C   UNL     1      13.359  16.151  64.414  1.00  0.00     0.093 A 
ATOM     17  C   UNL     1      13.566  14.768  64.332  1.00  0.00     0.131 A 
ENDROOT
BRANCH   6  18
ATOM     18  O   UNL     1      14.995   9.906  62.743  1.00  0.00    -0.507 OA
ATOM     19  H   UNL     1      15.348   9.916  63.693  1.00  0.00     0.293 HD
ENDBRANCH   6  18
BRANCH  17  20
ATOM     20  O   UNL     1      13.084  13.947  65.353  1.00  0.00    -0.507 OA
ATOM     21  H   UNL     1      13.682  13.280  65.828  1.00  0.00     0.293 HD
ENDBRANCH  17  20
BRANCH  15  22
ATOM     22  O   UNL     1      13.608  18.371  63.519  1.00  0.00    -0.508 OA
ATOM     23  H   UNL     1      13.841  18.882  64.364  1.00  0.00     0.293 HD
ENDBRANCH  15  22
TORSDOF 3
ENDMDL
MODEL 4
REMARK VINA RESULT:    -6.473      1.333      3.239
REMARK INTER + INTRA:          -7.040
REMARK INTER:                  -7.040
REMARK INTRA:                   0.000
REMARK UNBOUND:                 0.000
REMARK SMILES Cc1cc(O)c2c(c1)C(=O)c1cc(O)cc(O)c1C2=O
REMARK SMILES IDX 1 1 2 2 8 3 7 4 6 5 4 6 3 7 19 8 20 9 18 10 11 11 9 12 10 13
REMARK SMILES IDX 12 14 13 15 15 16 16 17 5 18 17 20 14 22
REMARK H PARENT 5 19 17 21 14 23
REMARK Flexibility Score: inf
ROOT
ATOM      1  C   UNL     1      13.427  11.762  63.968  1.00  0.00     0.044 C 
ATOM      2  C   UNL     1      14.114  12.827  63.165  1.00  0.00    -0.047 A 
ATOM      3  C   UNL     1      14.952  12.476  62.102  1.00  0.00     0.016 A 
ATOM      4  C   UNL     1      15.573  13.466  61.319  1.00  0.00     0.038 A 
ATOM      5  C   UNL     1      15.342  14.831  61.598  1.00  0.00     0.076 A 
ATOM      6  C   UNL     1      14.476  15.179  62.664  1.00  0.00     0.127 A 
ATOM      7  C   UNL     1      13.867  14.177  63.430  1.00  0.00     0.050 A 
ATOM      8  C   UNL     1      16.008  15.870  60.763  1.00  0.00     0.201 C 
ATOM      9  O   UNL     1      15.812  17.091  61.010  1.00  0.00    -0.288 OA
ATOM     10  C   UNL     1      16.905  15.480  59.639  1.00  0.00     0.076 A 
ATOM     11  C   UNL     1      17.124  14.109  59.373  1.00  0.00     0.041 A 
ATOM     12  C   UNL     1      16.466  13.075  60.204  1.00  0.00     0.194 C 
ATOM     13  O   UNL     1      16.669  11.853  59.960  1.00  0.00    -0.289 OA
ATOM     14  C   UNL     1      17.968  13.729  58.314  1.00  0.00     0.059 A 
ATOM     15  C   UNL     1      18.595  14.694  57.522  1.00  0.00     0.120 A 
ATOM     16  C   UNL     1      18.383  16.047  57.781  1.00  0.00     0.093 A 
ATOM     17  C   UNL     1      17.546  16.450  58.829  1.00  0.00     0.131 A 
ENDROOT
BRANCH   6  18
ATOM     18  O   UNL     1      14.213  16.516  62.964  1.00  0.00    -0.507 OA
ATOM     19  H   UNL     1      13.305  16.820  63.296  1.00  0.00     0.293 HD
ENDBRANCH   6  18
BRANCH  17  20
ATOM     20  O   UNL     1      17.356  17.813  59.060  1.00  0.00    -0.507 OA
ATOM     21  H   UNL     1      17.982  18.512  58.676  1.00  0.00     0.293 HD
ENDBRANCH  17  20
BRANCH  15  22
ATOM     22  O   UNL     1      19.433  14.320  56.474  1.00  0.00    -0.508 OA
ATOM     23  H   UNL     1      19.369  13.403  56.046  1.00  0.00     0.293 HD
ENDBRANCH  15  22
TORSDOF 3
ENDMDL
MODEL 5
REMARK VINA RESULT:    -6.456      2.033      3.357
REMARK INTER + INTRA:          -7.022
REMARK INTER:                  -7.022
REMARK INTRA:                   0.000
REMARK UNBOUND:                 0.000
REMARK SMILES Cc1cc(O)c2c(c1)C(=O)c1cc(O)cc(O)c1C2=O
REMARK SMILES IDX 1 1 2 2 8 3 7 4 6 5 4 6 3 7 19 8 20 9 18 10 11 11 9 12 10 13
REMARK SMILES IDX 12 14 13 15 15 16 16 17 5 18 17 20 14 22
REMARK H PARENT 5 19 17 21 14 23
REMARK Flexibility Score: inf
ROOT
ATOM      1  C   UNL     1      13.222  18.280  63.502  1.00  0.00     0.044 C 
ATOM      2  C   UNL     1      13.550  16.824  63.350  1.00  0.00    -0.047 A 
ATOM      3  C   UNL     1      14.281  16.378  62.245  1.00  0.00     0.016 A 
ATOM      4  C   UNL     1      14.626  15.022  62.109  1.00  0.00     0.038 A 
ATOM      5  C   UNL     1      14.241  14.096  63.105  1.00  0.00     0.076 A 
ATOM      6  C   UNL     1      13.519  14.558  64.232  1.00  0.00     0.127 A 
ATOM      7  C   UNL     1      13.187  15.913  64.347  1.00  0.00     0.050 A 
ATOM      8  C   UNL     1      14.610  12.661  62.949  1.00  0.00     0.201 C 
ATOM      9  O   UNL     1      14.264  11.827  63.830  1.00  0.00    -0.288 OA
ATOM     10  C   UNL     1      15.382  12.201  61.760  1.00  0.00     0.076 A 
ATOM     11  C   UNL     1      15.760  13.141  60.775  1.00  0.00     0.041 A 
ATOM     12  C   UNL     1      15.391  14.567  60.926  1.00  0.00     0.194 C 
ATOM     13  O   UNL     1      15.731  15.399  60.040  1.00  0.00    -0.289 OA
ATOM     14  C   UNL     1      16.489  12.718  59.649  1.00  0.00     0.059 A 
ATOM     15  C   UNL     1      16.844  11.375  59.493  1.00  0.00     0.120 A 
ATOM     16  C   UNL     1      16.473  10.445  60.462  1.00  0.00     0.093 A 
ATOM     17  C   UNL     1      15.747  10.841  61.593  1.00  0.00     0.131 A 
ENDROOT
BRANCH   6  18
ATOM     18  O   UNL     1      13.131  13.677  65.243  1.00  0.00    -0.507 OA
ATOM     19  H   UNL     1      12.552  13.976  66.019  1.00  0.00     0.293 HD
ENDBRANCH   6  18
BRANCH  17  20
ATOM     20  O   UNL     1      15.392   9.883  62.543  1.00  0.00    -0.507 OA
ATOM     21  H   UNL     1      14.531   9.951  63.074  1.00  0.00     0.293 HD
ENDBRANCH  17  20
BRANCH  15  22
ATOM     22  O   UNL     1      17.565  10.955  58.378  1.00  0.00    -0.508 OA
ATOM     23  H   UNL     1      17.220  10.221  57.769  1.00  0.00     0.293 HD
ENDBRANCH  15  22
TORSDOF 3
ENDMDL
MODEL 6
REMARK VINA RESULT:    -6.435      1.031      3.405
REMARK INTER + INTRA:          -7.000
REMARK INTER:                  -7.000
REMARK INTRA:                   0.000
REMARK UNBOUND:                 0.000
REMARK SMILES Cc1cc(O)c2c(c1)C(=O)c1cc(O)cc(O)c1C2=O
REMARK SMILES IDX 1 1 2 2 8 3 7 4 6 5 4 6 3 7 19 8 20 9 18 10 11 11 9 12 10 13
REMARK SMILES IDX 12 14 13 15 15 16 16 17 5 18 17 20 14 22
REMARK H PARENT 5 19 17 21 14 23
REMARK Flexibility Score: inf
ROOT
ATOM      1  C   UNL     1      12.339  15.349  65.376  1.00  0.00     0.044 C 
ATOM      2  C   UNL     1      13.253  15.615  64.216  1.00  0.00    -0.047 A 
ATOM      3  C   UNL     1      13.798  14.550  63.491  1.00  0.00     0.016 A 
ATOM      4  C   UNL     1      14.628  14.786  62.381  1.00  0.00     0.038 A 
ATOM      5  C   UNL     1      14.907  16.111  61.981  1.00  0.00     0.076 A 
ATOM      6  C   UNL     1      14.335  17.185  62.707  1.00  0.00     0.127 A 
ATOM      7  C   UNL     1      13.512  16.927  63.810  1.00  0.00     0.050 A 
ATOM      8  C   UNL     1      15.790  16.348  60.804  1.00  0.00     0.201 C 
ATOM      9  O   UNL     1      16.050  17.529  60.445  1.00  0.00    -0.288 OA
ATOM     10  C   UNL     1      16.370  15.203  60.047  1.00  0.00     0.076 A 
ATOM     11  C   UNL     1      16.078  13.883  60.461  1.00  0.00     0.041 A 
ATOM     12  C   UNL     1      15.205  13.645  61.633  1.00  0.00     0.194 C 
ATOM     13  O   UNL     1      14.950  12.463  61.995  1.00  0.00    -0.289 OA
ATOM     14  C   UNL     1      16.620  12.794  59.754  1.00  0.00     0.059 A 
ATOM     15  C   UNL     1      17.445  13.004  58.646  1.00  0.00     0.120 A 
ATOM     16  C   UNL     1      17.736  14.303  58.236  1.00  0.00     0.093 A 
ATOM     17  C   UNL     1      17.209  15.404  58.923  1.00  0.00     0.131 A 
ENDROOT
BRANCH   6  18
ATOM     18  O   UNL     1      14.578  18.508  62.336  1.00  0.00    -0.507 OA
ATOM     19  H   UNL     1      13.888  19.058  61.838  1.00  0.00     0.293 HD
ENDBRANCH   6  18
BRANCH  17  20
ATOM     20  O   UNL     1      17.521  16.691  58.484  1.00  0.00    -0.507 OA
ATOM     21  H   UNL     1      16.800  17.351  58.212  1.00  0.00     0.293 HD
ENDBRANCH  17  20
BRANCH  15  22
ATOM     22  O   UNL     1      17.984  11.926  57.947  1.00  0.00    -0.508 OA
ATOM     23  H   UNL     1      17.940  11.876  56.934  1.00  0.00     0.293 HD
ENDBRANCH  15  22
TORSDOF 3
ENDMDL
MODEL 7
REMARK VINA RESULT:    -6.113      3.770      6.698
REMARK INTER + INTRA:          -6.649
REMARK INTER:                  -6.649
REMARK INTRA:                   0.000
REMARK UNBOUND:                 0.000
REMARK SMILES Cc1cc(O)c2c(c1)C(=O)c1cc(O)cc(O)c1C2=O
REMARK SMILES IDX 1 1 2 2 8 3 7 4 6 5 4 6 3 7 19 8 20 9 18 10 11 11 9 12 10 13
REMARK SMILES IDX 12 14 13 15 15 16 16 17 5 18 17 20 14 22
REMARK H PARENT 5 19 17 21 14 23
REMARK Flexibility Score: inf
ROOT
ATOM      1  C   UNL     1       9.543  21.755  63.524  1.00  0.00     0.044 C 
ATOM      2  C   UNL     1      10.710  20.817  63.420  1.00  0.00    -0.047 A 
ATOM      3  C   UNL     1      10.547  19.458  63.705  1.00  0.00     0.016 A 
ATOM      4  C   UNL     1      11.624  18.562  63.576  1.00  0.00     0.038 A 
ATOM      5  C   UNL     1      12.882  19.034  63.142  1.00  0.00     0.076 A 
ATOM      6  C   UNL     1      13.035  20.408  62.835  1.00  0.00     0.127 A 
ATOM      7  C   UNL     1      11.949  21.282  62.971  1.00  0.00     0.050 A 
ATOM      8  C   UNL     1      14.016  18.075  63.012  1.00  0.00     0.201 C 
ATOM      9  O   UNL     1      15.146  18.490  62.633  1.00  0.00    -0.288 OA
ATOM     10  C   UNL     1      13.829  16.632  63.328  1.00  0.00     0.076 A 
ATOM     11  C   UNL     1      12.563  16.177  63.759  1.00  0.00     0.041 A 
ATOM     12  C   UNL     1      11.435  17.128  63.893  1.00  0.00     0.194 C 
ATOM     13  O   UNL     1      10.308  16.713  64.280  1.00  0.00    -0.289 OA
ATOM     14  C   UNL     1      12.374  14.815  64.060  1.00  0.00     0.059 A 
ATOM     15  C   UNL     1      13.429  13.907  63.938  1.00  0.00     0.120 A 
ATOM     16  C   UNL     1      14.679  14.351  63.514  1.00  0.00     0.093 A 
ATOM     17  C   UNL     1      14.892  15.701  63.208  1.00  0.00     0.131 A 
ENDROOT
BRANCH   6  18
ATOM     18  O   UNL     1      14.259  20.911  62.393  1.00  0.00    -0.507 OA
ATOM     19  H   UNL     1      15.004  20.301  62.077  1.00  0.00     0.293 HD
ENDBRANCH   6  18
BRANCH  17  20
ATOM     20  O   UNL     1      16.157  16.111  62.787  1.00  0.00    -0.507 OA
ATOM     21  H   UNL     1      16.996  15.605  63.048  1.00  0.00     0.293 HD
ENDBRANCH  17  20
BRANCH  15  22
ATOM     22  O   UNL     1      13.244  12.559  64.237  1.00  0.00    -0.508 OA
ATOM     23  H   UNL     1      13.252  12.221  65.194  1.00  0.00     0.293 HD
ENDBRANCH  15  22
TORSDOF 3
ENDMDL
MODEL 8
REMARK VINA RESULT:    -5.942      4.291      7.318
REMARK INTER + INTRA:          -6.463
REMARK INTER:                  -6.463
REMARK INTRA:                   0.000
REMARK UNBOUND:                 0.000
REMARK SMILES Cc1cc(O)c2c(c1)C(=O)c1cc(O)cc(O)c1C2=O
REMARK SMILES IDX 1 1 2 2 8 3 7 4 6 5 4 6 3 7 19 8 20 9 18 10 11 11 9 12 10 13
REMARK SMILES IDX 12 14 13 15 15 16 16 17 5 18 17 20 14 22
REMARK H PARENT 5 19 17 21 14 23
REMARK Flexibility Score: inf
ROOT
ATOM      1  C   UNL     1      13.621  22.752  60.892  1.00  0.00     0.044 C 
ATOM      2  C   UNL     1      13.074  21.566  61.632  1.00  0.00    -0.047 A 
ATOM      3  C   UNL     1      13.876  20.441  61.850  1.00  0.00     0.016 A 
ATOM      4  C   UNL     1      13.388  19.339  62.573  1.00  0.00     0.038 A 
ATOM      5  C   UNL     1      12.077  19.368  63.098  1.00  0.00     0.076 A 
ATOM      6  C   UNL     1      11.277  20.518  62.892  1.00  0.00     0.127 A 
ATOM      7  C   UNL     1      11.784  21.605  62.169  1.00  0.00     0.050 A 
ATOM      8  C   UNL     1      11.569  18.192  63.860  1.00  0.00     0.201 C 
ATOM      9  O   UNL     1      10.397  18.206  64.326  1.00  0.00    -0.288 OA
ATOM     10  C   UNL     1      12.433  16.997  64.076  1.00  0.00     0.076 A 
ATOM     11  C   UNL     1      13.743  16.986  63.545  1.00  0.00     0.041 A 
ATOM     12  C   UNL     1      14.248  18.152  62.783  1.00  0.00     0.194 C 
ATOM     13  O   UNL     1      15.418  18.133  62.312  1.00  0.00    -0.289 OA
ATOM     14  C   UNL     1      14.568  15.864  63.742  1.00  0.00     0.059 A 
ATOM     15  C   UNL     1      14.105  14.758  64.459  1.00  0.00     0.120 A 
ATOM     16  C   UNL     1      12.814  14.763  64.984  1.00  0.00     0.093 A 
ATOM     17  C   UNL     1      11.974  15.869  64.801  1.00  0.00     0.131 A 
ENDROOT
BRANCH   6  18
ATOM     18  O   UNL     1       9.981  20.590  63.404  1.00  0.00    -0.507 OA
ATOM     19  H   UNL     1       9.805  20.734  64.392  1.00  0.00     0.293 HD
ENDBRANCH   6  18
BRANCH  17  20
ATOM     20  O   UNL     1      10.687  15.841  65.340  1.00  0.00    -0.507 OA
ATOM     21  H   UNL     1      10.525  15.929  66.337  1.00  0.00     0.293 HD
ENDBRANCH  17  20
BRANCH  15  22
ATOM     22  O   UNL     1      14.920  13.645  64.654  1.00  0.00    -0.508 OA
ATOM     23  H   UNL     1      14.967  12.895  63.973  1.00  0.00     0.293 HD
ENDBRANCH  15  22
TORSDOF 3
ENDMDL
MODEL 9
REMARK VINA RESULT:    -5.877      1.504      5.555
REMARK INTER + INTRA:          -6.393
REMARK INTER:                  -6.393
REMARK INTRA:                   0.000
REMARK UNBOUND:                 0.000
REMARK SMILES Cc1cc(O)c2c(c1)C(=O)c1cc(O)cc(O)c1C2=O
REMARK SMILES IDX 1 1 2 2 8 3 7 4 6 5 4 6 3 7 19 8 20 9 18 10 11 11 9 12 10 13
REMARK SMILES IDX 12 14 13 15 15 16 16 17 5 18 17 20 14 22
REMARK H PARENT 5 19 17 21 14 23
REMARK Flexibility Score: inf
ROOT
ATOM      1  C   UNL     1      17.997  16.246  57.525  1.00  0.00     0.044 C 
ATOM      2  C   UNL     1      17.422  15.308  58.546  1.00  0.00    -0.047 A 
ATOM      3  C   UNL     1      16.634  15.802  59.590  1.00  0.00     0.016 A 
ATOM      4  C   UNL     1      16.059  14.931  60.533  1.00  0.00     0.038 A 
ATOM      5  C   UNL     1      16.269  13.539  60.421  1.00  0.00     0.076 A 
ATOM      6  C   UNL     1      17.051  13.043  59.349  1.00  0.00     0.127 A 
ATOM      7  C   UNL     1      17.613  13.929  58.422  1.00  0.00     0.050 A 
ATOM      8  C   UNL     1      15.657  12.626  61.428  1.00  0.00     0.201 C 
ATOM      9  O   UNL     1      15.845  11.381  61.340  1.00  0.00    -0.288 OA
ATOM     10  C   UNL     1      14.827  13.169  62.539  1.00  0.00     0.076 A 
ATOM     11  C   UNL     1      14.627  14.565  62.635  1.00  0.00     0.041 A 
ATOM     12  C   UNL     1      15.237  15.474  61.638  1.00  0.00     0.194 C 
ATOM     13  O   UNL     1      15.054  16.720  61.732  1.00  0.00    -0.289 OA
ATOM     14  C   UNL     1      13.845  15.089  63.680  1.00  0.00     0.059 A 
ATOM     15  C   UNL     1      13.263  14.242  64.627  1.00  0.00     0.120 A 
ATOM     16  C   UNL     1      13.458  12.866  64.538  1.00  0.00     0.093 A 
ATOM     17  C   UNL     1      14.232  12.320  63.506  1.00  0.00     0.131 A 
ENDROOT
BRANCH   6  18
ATOM     18  O   UNL     1      17.271  11.673  59.198  1.00  0.00    -0.507 OA
ATOM     19  H   UNL     1      18.107  11.225  59.555  1.00  0.00     0.293 HD
ENDBRANCH   6  18
BRANCH  17  20
ATOM     20  O   UNL     1      14.407  10.937  63.447  1.00  0.00    -0.507 OA
ATOM     21  H   UNL     1      13.656  10.294  63.675  1.00  0.00     0.293 HD
ENDBRANCH  17  20
BRANCH  15  22
ATOM     22  O   UNL     1      12.490  14.760  65.664  1.00  0.00    -0.508 OA
ATOM     23  H   UNL     1      12.907  15.273  66.432  1.00  0.00     0.293 HD
ENDBRANCH  15  22
TORSDOF 3
ENDMDL
