MODEL 1
REMARK VINA RESULT:    -5.156      0.000      0.000
REMARK INTER + INTRA:          -5.995
REMARK INTER:                  -6.211
REMARK INTRA:                   0.216
REMARK UNBOUND:                 0.216
REMARK SMILES O=c1c(O)c(-c2ccc(O)c(O)c2)oc2cc(O)cc(O)c12
REMARK SMILES IDX 5 1 3 2 2 3 1 4 22 5 20 6 19 7 17 8 16 9 15 10 14 11 6 12
REMARK SMILES IDX 7 13 8 14 9 15 13 16 11 17 10 18 12 20 4 22 21 24 18 26
REMARK H PARENT 10 19 12 21 4 23 21 25 18 27
REMARK Flexibility Score: inf
ROOT
ATOM      1  C   UNL     1     -20.562   3.631  10.975  1.00  0.00     0.180 A 
ATOM      2  C   UNL     1     -19.796   4.780  11.236  1.00  0.00     0.208 A 
ATOM      3  C   UNL     1     -20.429   5.915  11.768  1.00  0.00     0.238 A 
ATOM      4  O   UNL     1     -19.748   6.958  11.949  1.00  0.00    -0.285 OA
ATOM      5  C   UNL     1     -21.816   5.882  12.047  1.00  0.00     0.111 A 
ATOM      6  C   UNL     1     -22.552   6.959  12.624  1.00  0.00     0.134 A 
ATOM      7  C   UNL     1     -23.946   6.863  12.736  1.00  0.00     0.093 A 
ATOM      8  C   UNL     1     -24.620   5.704  12.351  1.00  0.00     0.123 A 
ATOM      9  C   UNL     1     -23.902   4.621  11.841  1.00  0.00     0.094 A 
ATOM     10  C   UNL     1     -22.517   4.701  11.685  1.00  0.00     0.146 A 
ATOM     11  O   UNL     1     -21.873   3.654  11.186  1.00  0.00    -0.452 OA
ENDROOT
BRANCH   1  12
ATOM     12  C   UNL     1     -19.962   2.389  10.437  1.00  0.00     0.025 A 
ATOM     13  C   UNL     1     -18.643   2.017  10.752  1.00  0.00     0.016 A 
ATOM     14  C   UNL     1     -18.105   0.828  10.253  1.00  0.00     0.051 A 
ATOM     15  C   UNL     1     -18.881  -0.014   9.444  1.00  0.00     0.157 A 
ATOM     16  C   UNL     1     -20.741   1.530   9.644  1.00  0.00     0.062 A 
ATOM     17  C   UNL     1     -20.206   0.339   9.142  1.00  0.00     0.158 A 
BRANCH  15  18
ATOM     18  O   UNL     1     -18.341  -1.198   8.947  1.00  0.00    -0.504 OA
ATOM     19  H   UNL     1     -18.926  -1.992   8.713  1.00  0.00     0.293 HD
ENDBRANCH  15  18
BRANCH  17  20
ATOM     20  O   UNL     1     -21.006  -0.480   8.346  1.00  0.00    -0.504 OA
ATOM     21  H   UNL     1     -21.957  -0.228   8.099  1.00  0.00     0.293 HD
ENDBRANCH  17  20
ENDBRANCH   1  12
BRANCH   2  22
ATOM     22  O   UNL     1     -18.431   4.799  10.932  1.00  0.00    -0.502 OA
ATOM     23  H   UNL     1     -17.747   4.286  11.474  1.00  0.00     0.293 HD
ENDBRANCH   2  22
BRANCH   6  24
ATOM     24  O   UNL     1     -21.966   8.125  13.125  1.00  0.00    -0.507 OA
ATOM     25  H   UNL     1     -22.263   8.604  13.963  1.00  0.00     0.293 HD
ENDBRANCH   6  24
BRANCH   8  26
ATOM     26  O   UNL     1     -26.004   5.637  12.491  1.00  0.00    -0.508 OA
ATOM     27  H   UNL     1     -26.577   6.472  12.499  1.00  0.00     0.293 HD
ENDBRANCH   8  26
TORSDOF 6
ENDMDL
MODEL 2
REMARK VINA RESULT:    -4.797     20.300     23.580
REMARK INTER + INTRA:          -5.563
REMARK INTER:                  -6.097
REMARK INTRA:                   0.533
REMARK UNBOUND:                 0.216
REMARK SMILES O=c1c(O)c(-c2ccc(O)c(O)c2)oc2cc(O)cc(O)c12
REMARK SMILES IDX 5 1 3 2 2 3 1 4 22 5 20 6 19 7 17 8 16 9 15 10 14 11 6 12
REMARK SMILES IDX 7 13 8 14 9 15 13 16 11 17 10 18 12 20 4 22 21 24 18 26
REMARK H PARENT 10 19 12 21 4 23 21 25 18 27
REMARK Flexibility Score: inf
ROOT
ATOM      1  C   UNL     1     -34.202 -11.621   1.056  1.00  0.00     0.180 A 
ATOM      2  C   UNL     1     -35.593 -11.534   1.242  1.00  0.00     0.208 A 
ATOM      3  C   UNL     1     -36.438 -11.637   0.125  1.00  0.00     0.238 A 
ATOM      4  O   UNL     1     -37.678 -11.505   0.291  1.00  0.00    -0.285 OA
ATOM      5  C   UNL     1     -35.883 -11.841  -1.162  1.00  0.00     0.111 A 
ATOM      6  C   UNL     1     -36.646 -11.999  -2.357  1.00  0.00     0.134 A 
ATOM      7  C   UNL     1     -35.989 -12.064  -3.593  1.00  0.00     0.093 A 
ATOM      8  C   UNL     1     -34.597 -12.042  -3.670  1.00  0.00     0.123 A 
ATOM      9  C   UNL     1     -33.839 -11.948  -2.502  1.00  0.00     0.094 A 
ATOM     10  C   UNL     1     -34.466 -11.845  -1.258  1.00  0.00     0.146 A 
ATOM     11  O   UNL     1     -33.710 -11.746  -0.172  1.00  0.00    -0.452 OA
ENDROOT
BRANCH   1  12
ATOM     12  C   UNL     1     -33.249 -11.546   2.186  1.00  0.00     0.025 A 
ATOM     13  C   UNL     1     -31.862 -11.463   1.969  1.00  0.00     0.016 A 
ATOM     14  C   UNL     1     -30.982 -11.369   3.050  1.00  0.00     0.051 A 
ATOM     15  C   UNL     1     -31.474 -11.343   4.363  1.00  0.00     0.157 A 
ATOM     16  C   UNL     1     -33.738 -11.499   3.502  1.00  0.00     0.062 A 
ATOM     17  C   UNL     1     -32.860 -11.405   4.587  1.00  0.00     0.158 A 
BRANCH  15  18
ATOM     18  O   UNL     1     -30.594 -11.252   5.439  1.00  0.00    -0.504 OA
ATOM     19  H   UNL     1     -30.797 -11.690   6.330  1.00  0.00     0.293 HD
ENDBRANCH  15  18
BRANCH  17  20
ATOM     20  O   UNL     1     -33.382 -11.375   5.880  1.00  0.00    -0.504 OA
ATOM     21  H   UNL     1     -34.378 -11.432   6.060  1.00  0.00     0.293 HD
ENDBRANCH  17  20
ENDBRANCH   1  12
BRANCH   2  22
ATOM     22  O   UNL     1     -36.118 -11.311   2.517  1.00  0.00    -0.502 OA
ATOM     23  H   UNL     1     -37.114 -11.279   2.697  1.00  0.00     0.293 HD
ENDBRANCH   2  22
BRANCH   6  24
ATOM     24  O   UNL     1     -38.037 -12.124  -2.384  1.00  0.00    -0.507 OA
ATOM     25  H   UNL     1     -38.651 -11.601  -2.991  1.00  0.00     0.293 HD
ENDBRANCH   6  24
BRANCH   8  26
ATOM     26  O   UNL     1     -33.976 -12.125  -4.914  1.00  0.00    -0.508 OA
ATOM     27  H   UNL     1     -34.189 -12.872  -5.564  1.00  0.00     0.293 HD
ENDBRANCH   8  26
TORSDOF 6
ENDMDL
MODEL 3
REMARK VINA RESULT:    -4.578      1.395      6.688
REMARK INTER + INTRA:          -5.300
REMARK INTER:                  -5.337
REMARK INTRA:                   0.038
REMARK UNBOUND:                 0.216
REMARK SMILES O=c1c(O)c(-c2ccc(O)c(O)c2)oc2cc(O)cc(O)c12
REMARK SMILES IDX 5 1 3 2 2 3 1 4 22 5 20 6 19 7 17 8 16 9 15 10 14 11 6 12
REMARK SMILES IDX 7 13 8 14 9 15 13 16 11 17 10 18 12 20 4 22 21 24 18 26
REMARK H PARENT 10 19 12 21 4 23 21 25 18 27
REMARK Flexibility Score: inf
ROOT
ATOM      1  C   UNL     1     -21.655   3.867  11.340  1.00  0.00     0.180 A 
ATOM      2  C   UNL     1     -20.389   3.599  11.889  1.00  0.00     0.208 A 
ATOM      3  C   UNL     1     -19.628   2.544  11.362  1.00  0.00     0.238 A 
ATOM      4  O   UNL     1     -18.519   2.274  11.893  1.00  0.00    -0.285 OA
ATOM      5  C   UNL     1     -20.134   1.780  10.283  1.00  0.00     0.111 A 
ATOM      6  C   UNL     1     -19.431   0.714   9.645  1.00  0.00     0.134 A 
ATOM      7  C   UNL     1     -20.082  -0.057   8.672  1.00  0.00     0.093 A 
ATOM      8  C   UNL     1     -21.383   0.239   8.271  1.00  0.00     0.123 A 
ATOM      9  C   UNL     1     -22.059   1.316   8.846  1.00  0.00     0.094 A 
ATOM     10  C   UNL     1     -21.450   2.082   9.843  1.00  0.00     0.146 A 
ATOM     11  O   UNL     1     -22.130   3.091  10.372  1.00  0.00    -0.452 OA
ENDROOT
BRANCH   1  12
ATOM     12  C   UNL     1     -22.506   4.977  11.825  1.00  0.00     0.025 A 
ATOM     13  C   UNL     1     -21.975   6.258  12.058  1.00  0.00     0.016 A 
ATOM     14  C   UNL     1     -22.801   7.298  12.493  1.00  0.00     0.051 A 
ATOM     15  C   UNL     1     -24.172   7.078  12.688  1.00  0.00     0.157 A 
ATOM     16  C   UNL     1     -23.884   4.768  12.003  1.00  0.00     0.062 A 
ATOM     17  C   UNL     1     -24.714   5.806  12.438  1.00  0.00     0.158 A 
BRANCH  15  18
ATOM     18  O   UNL     1     -24.992   8.116  13.124  1.00  0.00    -0.504 OA
ATOM     19  H   UNL     1     -25.770   7.950  13.753  1.00  0.00     0.293 HD
ENDBRANCH  15  18
BRANCH  17  20
ATOM     20  O   UNL     1     -26.074   5.556  12.617  1.00  0.00    -0.504 OA
ATOM     21  H   UNL     1     -26.713   6.268  12.950  1.00  0.00     0.293 HD
ENDBRANCH  17  20
ENDBRANCH   1  12
BRANCH   2  22
ATOM     22  O   UNL     1     -19.918   4.351  12.969  1.00  0.00    -0.502 OA
ATOM     23  H   UNL     1     -20.012   4.043  13.928  1.00  0.00     0.293 HD
ENDBRANCH   2  22
BRANCH   6  24
ATOM     24  O   UNL     1     -18.097   0.392   9.906  1.00  0.00    -0.507 OA
ATOM     25  H   UNL     1     -17.420   0.131   9.204  1.00  0.00     0.293 HD
ENDBRANCH   6  24
BRANCH   8  26
ATOM     26  O   UNL     1     -21.993  -0.540   7.290  1.00  0.00    -0.508 OA
ATOM     27  H   UNL     1     -22.932  -0.344   6.965  1.00  0.00     0.293 HD
ENDBRANCH   8  26
TORSDOF 6
ENDMDL
MODEL 4
REMARK VINA RESULT:    -4.379     11.188     13.116
REMARK INTER + INTRA:          -5.060
REMARK INTER:                  -4.860
REMARK INTRA:                  -0.200
REMARK UNBOUND:                 0.216
REMARK SMILES O=c1c(O)c(-c2ccc(O)c(O)c2)oc2cc(O)cc(O)c12
REMARK SMILES IDX 5 1 3 2 2 3 1 4 22 5 20 6 19 7 17 8 16 9 15 10 14 11 6 12
REMARK SMILES IDX 7 13 8 14 9 15 13 16 11 17 10 18 12 20 4 22 21 24 18 26
REMARK H PARENT 10 19 12 21 4 23 21 25 18 27
REMARK Flexibility Score: inf
ROOT
ATOM      1  C   UNL     1     -20.658   6.398   0.427  1.00  0.00     0.180 A 
ATOM      2  C   UNL     1     -21.761   5.609   0.057  1.00  0.00     0.208 A 
ATOM      3  C   UNL     1     -21.902   5.220  -1.285  1.00  0.00     0.238 A 
ATOM      4  O   UNL     1     -22.920   4.559  -1.618  1.00  0.00    -0.285 OA
ATOM      5  C   UNL     1     -20.932   5.612  -2.237  1.00  0.00     0.111 A 
ATOM      6  C   UNL     1     -20.953   5.242  -3.615  1.00  0.00     0.134 A 
ATOM      7  C   UNL     1     -20.012   5.795  -4.494  1.00  0.00     0.093 A 
ATOM      8  C   UNL     1     -19.014   6.652  -4.034  1.00  0.00     0.123 A 
ATOM      9  C   UNL     1     -18.947   6.973  -2.677  1.00  0.00     0.094 A 
ATOM     10  C   UNL     1     -19.892   6.466  -1.783  1.00  0.00     0.146 A 
ATOM     11  O   UNL     1     -19.801   6.805  -0.503  1.00  0.00    -0.452 OA
ENDROOT
BRANCH   1  12
ATOM     12  C   UNL     1     -20.428   6.827   1.825  1.00  0.00     0.025 A 
ATOM     13  C   UNL     1     -21.278   7.752   2.456  1.00  0.00     0.016 A 
ATOM     14  C   UNL     1     -21.056   8.124   3.784  1.00  0.00     0.051 A 
ATOM     15  C   UNL     1     -19.991   7.568   4.506  1.00  0.00     0.157 A 
ATOM     16  C   UNL     1     -19.375   6.257   2.559  1.00  0.00     0.062 A 
ATOM     17  C   UNL     1     -19.149   6.627   3.889  1.00  0.00     0.158 A 
BRANCH  15  18
ATOM     18  O   UNL     1     -19.771   7.943   5.830  1.00  0.00    -0.504 OA
ATOM     19  H   UNL     1     -20.427   7.707   6.565  1.00  0.00     0.293 HD
ENDBRANCH  15  18
BRANCH  17  20
ATOM     20  O   UNL     1     -18.085   6.050   4.582  1.00  0.00    -0.504 OA
ATOM     21  H   UNL     1     -17.393   5.471   4.120  1.00  0.00     0.293 HD
ENDBRANCH  17  20
ENDBRANCH   1  12
BRANCH   2  22
ATOM     22  O   UNL     1     -22.719   5.251   1.010  1.00  0.00    -0.502 OA
ATOM     23  H   UNL     1     -23.030   5.887   1.734  1.00  0.00     0.293 HD
ENDBRANCH   2  22
BRANCH   6  24
ATOM     24  O   UNL     1     -21.852   4.322  -4.162  1.00  0.00    -0.507 OA
ATOM     25  H   UNL     1     -21.850   3.331  -3.968  1.00  0.00     0.293 HD
ENDBRANCH   6  24
BRANCH   8  26
ATOM     26  O   UNL     1     -18.085   7.171  -4.933  1.00  0.00    -0.508 OA
ATOM     27  H   UNL     1     -18.361   7.493  -5.852  1.00  0.00     0.293 HD
ENDBRANCH   8  26
TORSDOF 6
ENDMDL
MODEL 5
REMARK VINA RESULT:    -4.356     19.967     23.148
REMARK INTER + INTRA:          -5.032
REMARK INTER:                  -5.448
REMARK INTRA:                   0.416
REMARK UNBOUND:                 0.216
REMARK SMILES O=c1c(O)c(-c2ccc(O)c(O)c2)oc2cc(O)cc(O)c12
REMARK SMILES IDX 5 1 3 2 2 3 1 4 22 5 20 6 19 7 17 8 16 9 15 10 14 11 6 12
REMARK SMILES IDX 7 13 8 14 9 15 13 16 11 17 10 18 12 20 4 22 21 24 18 26
REMARK H PARENT 10 19 12 21 4 23 21 25 18 27
REMARK Flexibility Score: inf
ROOT
ATOM      1  C   UNL     1     -34.480 -11.775   0.661  1.00  0.00     0.180 A 
ATOM      2  C   UNL     1     -35.383 -11.884   1.733  1.00  0.00     0.208 A 
ATOM      3  C   UNL     1     -34.897 -11.782   3.047  1.00  0.00     0.238 A 
ATOM      4  O   UNL     1     -35.702 -11.934   4.002  1.00  0.00    -0.285 OA
ATOM      5  C   UNL     1     -33.518 -11.560   3.272  1.00  0.00     0.111 A 
ATOM      6  C   UNL     1     -32.922 -11.402   4.560  1.00  0.00     0.134 A 
ATOM      7  C   UNL     1     -31.528 -11.316   4.671  1.00  0.00     0.093 A 
ATOM      8  C   UNL     1     -30.714 -11.318   3.538  1.00  0.00     0.123 A 
ATOM      9  C   UNL     1     -31.290 -11.412   2.270  1.00  0.00     0.094 A 
ATOM     10  C   UNL     1     -32.675 -11.535   2.130  1.00  0.00     0.146 A 
ATOM     11  O   UNL     1     -33.182 -11.633   0.907  1.00  0.00    -0.452 OA
ENDROOT
BRANCH   1  12
ATOM     12  C   UNL     1     -34.919 -11.846  -0.751  1.00  0.00     0.025 A 
ATOM     13  C   UNL     1     -36.277 -11.748  -1.100  1.00  0.00     0.016 A 
ATOM     14  C   UNL     1     -36.667 -11.793  -2.441  1.00  0.00     0.051 A 
ATOM     15  C   UNL     1     -35.706 -11.923  -3.453  1.00  0.00     0.157 A 
ATOM     16  C   UNL     1     -33.959 -11.955  -1.770  1.00  0.00     0.062 A 
ATOM     17  C   UNL     1     -34.345 -12.002  -3.114  1.00  0.00     0.158 A 
BRANCH  15  18
ATOM     18  O   UNL     1     -36.099 -11.970  -4.789  1.00  0.00    -0.504 OA
ATOM     19  H   UNL     1     -35.535 -11.557  -5.523  1.00  0.00     0.293 HD
ENDBRANCH  15  18
BRANCH  17  20
ATOM     20  O   UNL     1     -33.364 -12.125  -4.097  1.00  0.00    -0.504 OA
ATOM     21  H   UNL     1     -32.500 -11.596  -4.064  1.00  0.00     0.293 HD
ENDBRANCH  17  20
ENDBRANCH   1  12
BRANCH   2  22
ATOM     22  O   UNL     1     -36.737 -12.125   1.488  1.00  0.00    -0.502 OA
ATOM     23  H   UNL     1     -37.458 -11.447   1.703  1.00  0.00     0.293 HD
ENDBRANCH   2  22
BRANCH   6  24
ATOM     24  O   UNL     1     -33.650 -11.296   5.748  1.00  0.00    -0.507 OA
ATOM     25  H   UNL     1     -34.652 -11.391   5.819  1.00  0.00     0.293 HD
ENDBRANCH   6  24
BRANCH   8  26
ATOM     26  O   UNL     1     -29.333 -11.215   3.685  1.00  0.00    -0.508 OA
ATOM     27  H   UNL     1     -28.854 -10.329   3.583  1.00  0.00     0.293 HD
ENDBRANCH   8  26
TORSDOF 6
ENDMDL
MODEL 6
REMARK VINA RESULT:    -4.250     21.719     24.776
REMARK INTER + INTRA:          -4.904
REMARK INTER:                  -5.375
REMARK INTRA:                   0.471
REMARK UNBOUND:                 0.216
REMARK SMILES O=c1c(O)c(-c2ccc(O)c(O)c2)oc2cc(O)cc(O)c12
REMARK SMILES IDX 5 1 3 2 2 3 1 4 22 5 20 6 19 7 17 8 16 9 15 10 14 11 6 12
REMARK SMILES IDX 7 13 8 14 9 15 13 16 11 17 10 18 12 20 4 22 21 24 18 26
REMARK H PARENT 10 19 12 21 4 23 21 25 18 27
REMARK Flexibility Score: inf
ROOT
ATOM      1  C   UNL     1     -35.723 -11.805  -1.347  1.00  0.00     0.180 A 
ATOM      2  C   UNL     1     -36.824 -11.606  -0.495  1.00  0.00     0.208 A 
ATOM      3  C   UNL     1     -36.604 -11.492   0.887  1.00  0.00     0.238 A 
ATOM      4  O   UNL     1     -37.598 -11.369   1.649  1.00  0.00    -0.285 OA
ATOM      5  C   UNL     1     -35.286 -11.563   1.399  1.00  0.00     0.111 A 
ATOM      6  C   UNL     1     -34.944 -11.421   2.777  1.00  0.00     0.134 A 
ATOM      7  C   UNL     1     -33.621 -11.639   3.187  1.00  0.00     0.093 A 
ATOM      8  C   UNL     1     -32.620 -11.930   2.261  1.00  0.00     0.123 A 
ATOM      9  C   UNL     1     -32.933 -12.012   0.904  1.00  0.00     0.094 A 
ATOM     10  C   UNL     1     -34.248 -11.835   0.469  1.00  0.00     0.146 A 
ATOM     11  O   UNL     1     -34.506 -11.933  -0.829  1.00  0.00    -0.452 OA
ENDROOT
BRANCH   1  12
ATOM     12  C   UNL     1     -35.871 -11.909  -2.816  1.00  0.00     0.025 A 
ATOM     13  C   UNL     1     -37.138 -11.892  -3.427  1.00  0.00     0.016 A 
ATOM     14  C   UNL     1     -37.253 -11.967  -4.817  1.00  0.00     0.051 A 
ATOM     15  C   UNL     1     -36.107 -12.048  -5.618  1.00  0.00     0.157 A 
ATOM     16  C   UNL     1     -34.725 -11.969  -3.625  1.00  0.00     0.062 A 
ATOM     17  C   UNL     1     -34.837 -12.045  -5.018  1.00  0.00     0.158 A 
BRANCH  15  18
ATOM     18  O   UNL     1     -36.226 -12.125  -7.005  1.00  0.00    -0.504 OA
ATOM     19  H   UNL     1     -36.901 -12.738  -7.446  1.00  0.00     0.293 HD
ENDBRANCH  15  18
BRANCH  17  20
ATOM     20  O   UNL     1     -33.676 -12.117  -5.787  1.00  0.00    -0.504 OA
ATOM     21  H   UNL     1     -32.754 -11.993  -5.384  1.00  0.00     0.293 HD
ENDBRANCH  17  20
ENDBRANCH   1  12
BRANCH   2  22
ATOM     22  O   UNL     1     -38.118 -11.561  -1.019  1.00  0.00    -0.502 OA
ATOM     23  H   UNL     1     -38.764 -12.337  -0.942  1.00  0.00     0.293 HD
ENDBRANCH   2  22
BRANCH   6  24
ATOM     24  O   UNL     1     -35.850 -11.043   3.772  1.00  0.00    -0.507 OA
ATOM     25  H   UNL     1     -35.822 -11.365   4.728  1.00  0.00     0.293 HD
ENDBRANCH   6  24
BRANCH   8  26
ATOM     26  O   UNL     1     -31.313 -12.125   2.702  1.00  0.00    -0.508 OA
ATOM     27  H   UNL     1     -30.789 -11.384   3.152  1.00  0.00     0.293 HD
ENDBRANCH   8  26
TORSDOF 6
ENDMDL
MODEL 7
REMARK VINA RESULT:    -4.000      4.579      5.919
REMARK INTER + INTRA:          -4.602
REMARK INTER:                  -4.571
REMARK INTRA:                  -0.032
REMARK UNBOUND:                 0.216
REMARK SMILES O=c1c(O)c(-c2ccc(O)c(O)c2)oc2cc(O)cc(O)c12
REMARK SMILES IDX 5 1 3 2 2 3 1 4 22 5 20 6 19 7 17 8 16 9 15 10 14 11 6 12
REMARK SMILES IDX 7 13 8 14 9 15 13 16 11 17 10 18 12 20 4 22 21 24 18 26
REMARK H PARENT 10 19 12 21 4 23 21 25 18 27
REMARK Flexibility Score: inf
ROOT
ATOM      1  C   UNL     1     -19.825   4.915   7.561  1.00  0.00     0.180 A 
ATOM      2  C   UNL     1     -19.729   3.513   7.530  1.00  0.00     0.208 A 
ATOM      3  C   UNL     1     -20.248   2.770   8.603  1.00  0.00     0.238 A 
ATOM      4  O   UNL     1     -20.110   1.519   8.594  1.00  0.00    -0.285 OA
ATOM      5  C   UNL     1     -20.869   3.437   9.686  1.00  0.00     0.111 A 
ATOM      6  C   UNL     1     -21.463   2.783  10.806  1.00  0.00     0.134 A 
ATOM      7  C   UNL     1     -21.934   3.546  11.883  1.00  0.00     0.093 A 
ATOM      8  C   UNL     1     -21.890   4.939  11.851  1.00  0.00     0.123 A 
ATOM      9  C   UNL     1     -21.364   5.591  10.734  1.00  0.00     0.094 A 
ATOM     10  C   UNL     1     -20.855   4.856   9.661  1.00  0.00     0.146 A 
ATOM     11  O   UNL     1     -20.354   5.514   8.622  1.00  0.00    -0.452 OA
ENDROOT
BRANCH   1  12
ATOM     12  C   UNL     1     -19.324   5.765   6.457  1.00  0.00     0.025 A 
ATOM     13  C   UNL     1     -18.383   6.784   6.687  1.00  0.00     0.016 A 
ATOM     14  C   UNL     1     -17.906   7.558   5.627  1.00  0.00     0.051 A 
ATOM     15  C   UNL     1     -18.351   7.318   4.319  1.00  0.00     0.157 A 
ATOM     16  C   UNL     1     -19.750   5.514   5.142  1.00  0.00     0.062 A 
ATOM     17  C   UNL     1     -19.276   6.288   4.078  1.00  0.00     0.158 A 
BRANCH  15  18
ATOM     18  O   UNL     1     -17.875   8.093   3.264  1.00  0.00    -0.504 OA
ATOM     19  H   UNL     1     -16.941   8.487   3.274  1.00  0.00     0.293 HD
ENDBRANCH  15  18
BRANCH  17  20
ATOM     20  O   UNL     1     -19.733   6.018   2.788  1.00  0.00    -0.504 OA
ATOM     21  H   UNL     1     -19.154   5.551   2.099  1.00  0.00     0.293 HD
ENDBRANCH  17  20
ENDBRANCH   1  12
BRANCH   2  22
ATOM     22  O   UNL     1     -19.092   2.876   6.461  1.00  0.00    -0.502 OA
ATOM     23  H   UNL     1     -19.151   3.220   5.511  1.00  0.00     0.293 HD
ENDBRANCH   2  22
BRANCH   6  24
ATOM     24  O   UNL     1     -21.641   1.400  10.898  1.00  0.00    -0.507 OA
ATOM     25  H   UNL     1     -20.999   0.766  11.352  1.00  0.00     0.293 HD
ENDBRANCH   6  24
BRANCH   8  26
ATOM     26  O   UNL     1     -22.381   5.667  12.932  1.00  0.00    -0.508 OA
ATOM     27  H   UNL     1     -23.347   5.593  13.226  1.00  0.00     0.293 HD
ENDBRANCH   8  26
TORSDOF 6
ENDMDL
MODEL 8
REMARK VINA RESULT:    -3.775      5.958      6.920
REMARK INTER + INTRA:          -4.332
REMARK INTER:                  -3.998
REMARK INTRA:                  -0.334
REMARK UNBOUND:                 0.216
REMARK SMILES O=c1c(O)c(-c2ccc(O)c(O)c2)oc2cc(O)cc(O)c12
REMARK SMILES IDX 5 1 3 2 2 3 1 4 22 5 20 6 19 7 17 8 16 9 15 10 14 11 6 12
REMARK SMILES IDX 7 13 8 14 9 15 13 16 11 17 10 18 12 20 4 22 21 24 18 26
REMARK H PARENT 10 19 12 21 4 23 21 25 18 27
REMARK Flexibility Score: inf
ROOT
ATOM      1  C   UNL     1     -19.317   5.706   5.937  1.00  0.00     0.180 A 
ATOM      2  C   UNL     1     -19.151   6.743   6.871  1.00  0.00     0.208 A 
ATOM      3  C   UNL     1     -19.244   6.448   8.241  1.00  0.00     0.238 A 
ATOM      4  O   UNL     1     -19.148   7.390   9.070  1.00  0.00    -0.285 OA
ATOM      5  C   UNL     1     -19.487   5.119   8.660  1.00  0.00     0.111 A 
ATOM      6  C   UNL     1     -19.561   4.699  10.022  1.00  0.00     0.134 A 
ATOM      7  C   UNL     1     -19.936   3.382  10.320  1.00  0.00     0.093 A 
ATOM      8  C   UNL     1     -20.175   2.455   9.307  1.00  0.00     0.123 A 
ATOM      9  C   UNL     1     -20.047   2.839   7.971  1.00  0.00     0.094 A 
ATOM     10  C   UNL     1     -19.710   4.154   7.642  1.00  0.00     0.146 A 
ATOM     11  O   UNL     1     -19.610   4.482   6.360  1.00  0.00    -0.452 OA
ENDROOT
BRANCH   1  12
ATOM     12  C   UNL     1     -19.209   5.934   4.478  1.00  0.00     0.025 A 
ATOM     13  C   UNL     1     -17.972   5.851   3.815  1.00  0.00     0.016 A 
ATOM     14  C   UNL     1     -17.897   6.045   2.433  1.00  0.00     0.051 A 
ATOM     15  C   UNL     1     -19.056   6.312   1.692  1.00  0.00     0.157 A 
ATOM     16  C   UNL     1     -20.370   6.180   3.727  1.00  0.00     0.062 A 
ATOM     17  C   UNL     1     -20.299   6.377   2.344  1.00  0.00     0.158 A 
BRANCH  15  18
ATOM     18  O   UNL     1     -18.977   6.508   0.315  1.00  0.00    -0.504 OA
ATOM     19  H   UNL     1     -19.724   6.958  -0.201  1.00  0.00     0.293 HD
ENDBRANCH  15  18
BRANCH  17  20
ATOM     20  O   UNL     1     -21.472   6.633   1.635  1.00  0.00    -0.504 OA
ATOM     21  H   UNL     1     -21.497   6.642   0.622  1.00  0.00     0.293 HD
ENDBRANCH  17  20
ENDBRANCH   1  12
BRANCH   2  22
ATOM     22  O   UNL     1     -18.933   8.053   6.435  1.00  0.00    -0.502 OA
ATOM     23  H   UNL     1     -18.404   8.726   6.976  1.00  0.00     0.293 HD
ENDBRANCH   2  22
BRANCH   6  24
ATOM     24  O   UNL     1     -19.252   5.520  11.109  1.00  0.00    -0.507 OA
ATOM     25  H   UNL     1     -19.932   6.013  11.670  1.00  0.00     0.293 HD
ENDBRANCH   6  24
BRANCH   8  26
ATOM     26  O   UNL     1     -20.530   1.150   9.640  1.00  0.00    -0.508 OA
ATOM     27  H   UNL     1     -20.360   0.774  10.564  1.00  0.00     0.293 HD
ENDBRANCH   8  26
TORSDOF 6
ENDMDL
