MODEL 1
REMARK VINA RESULT:    -4.183      0.000      0.000
REMARK INTER + INTRA:          -7.704
REMARK INTER:                  -6.505
REMARK INTRA:                  -1.198
REMARK UNBOUND:                -1.198
REMARK SMILES C[C@]12C[C@]3(O)O[C@H](O1)[C@@]1(COC(=O)c4ccccc4)[C@@H]3C[C@]12O[C@@H]1O[C@@H](CO)[C@H](O)[C@H](O)[C@H]1O
REMARK SMILES IDX 1 1 2 2 3 3 4 4 20 5 21 6 22 7 9 8 7 9 8 10 6 11 23 12 24 13
REMARK SMILES IDX 33 14 25 15 31 16 26 17 29 18 34 19 32 21 27 23 28 24 30 26
REMARK SMILES IDX 5 28 10 30 11 31 12 32 13 33 14 34 15 35 19 36 16 37 18 38
REMARK SMILES IDX 17 39
REMARK H PARENT 34 20 32 22 28 25 30 27 5 29
REMARK Flexibility Score: inf
ROOT
ATOM      1  C   UNL     1      20.294 -34.144 161.528  1.00  0.00     0.046 C 
ATOM      2  C   UNL     1      18.959 -34.865 161.292  1.00  0.00     0.104 C 
ATOM      3  C   UNL     1      17.746 -33.885 161.526  1.00  0.00     0.104 C 
ATOM      4  C   UNL     1      16.489 -34.743 161.143  1.00  0.00     0.175 C 
ATOM      5  C   UNL     1      16.708 -35.441 159.761  1.00  0.00     0.070 C 
ATOM      6  C   UNL     1      17.852 -34.805 158.955  1.00  0.00     0.050 C 
ATOM      7  C   UNL     1      18.813 -35.567 159.883  1.00  0.00     0.115 C 
ATOM      8  C   UNL     1      17.671 -36.532 160.212  1.00  0.00     0.096 C 
ATOM      9  C   UNL     1      17.588 -36.577 161.730  1.00  0.00     0.267 C 
ATOM     10  O   UNL     1      18.757 -35.918 162.216  1.00  0.00    -0.342 OA
ATOM     11  O   UNL     1      16.449 -35.806 162.073  1.00  0.00    -0.320 OA
ENDROOT
BRANCH   7  12
ATOM     12  O   UNL     1      19.960 -36.063 159.202  1.00  0.00    -0.339 OA
BRANCH  12  13
ATOM     13  C   UNL     1      20.986 -35.104 158.983  1.00  0.00     0.282 C 
ATOM     14  C   UNL     1      22.363 -35.790 158.977  1.00  0.00     0.202 C 
ATOM     15  O   UNL     1      20.759 -34.394 157.779  1.00  0.00    -0.341 OA
ATOM     16  C   UNL     1      22.498 -36.800 157.803  1.00  0.00     0.179 C 
ATOM     17  C   UNL     1      21.030 -35.093 156.564  1.00  0.00     0.178 C 
ATOM     18  C   UNL     1      21.442 -36.588 156.695  1.00  0.00     0.177 C 
BRANCH  14  19
ATOM     19  O   UNL     1      23.355 -34.799 158.885  1.00  0.00    -0.385 OA
ATOM     20  H   UNL     1      23.324 -34.443 157.955  1.00  0.00     0.211 HD
ENDBRANCH  14  19
BRANCH  16  21
ATOM     21  O   UNL     1      22.480 -38.131 158.265  1.00  0.00    -0.387 OA
ATOM     22  H   UNL     1      23.092 -38.191 159.042  1.00  0.00     0.211 HD
ENDBRANCH  16  21
BRANCH  17  23
ATOM     23  C   UNL     1      22.069 -34.285 155.767  1.00  0.00     0.191 C 
BRANCH  23  24
ATOM     24  O   UNL     1      21.982 -34.565 154.395  1.00  0.00    -0.394 OA
ATOM     25  H   UNL     1      22.843 -34.277 153.990  1.00  0.00     0.210 HD
ENDBRANCH  23  24
ENDBRANCH  17  23
BRANCH  18  26
ATOM     26  O   UNL     1      20.290 -37.363 156.942  1.00  0.00    -0.387 OA
ATOM     27  H   UNL     1      19.526 -36.739 157.067  1.00  0.00     0.211 HD
ENDBRANCH  18  26
ENDBRANCH  12  13
ENDBRANCH   7  12
BRANCH   4  28
ATOM     28  O   UNL     1      15.301 -33.999 161.193  1.00  0.00    -0.365 OA
ATOM     29  H   UNL     1      15.557 -33.069 161.432  1.00  0.00     0.214 HD
ENDBRANCH   4  28
BRANCH   8  30
ATOM     30  C   UNL     1      17.501 -37.877 159.478  1.00  0.00     0.249 C 
BRANCH  30  31
ATOM     31  O   UNL     1      18.221 -38.917 160.139  1.00  0.00    -0.461 OA
BRANCH  31  32
ATOM     32  C   UNL     1      19.562 -39.222 159.886  1.00  0.00     0.338 C 
ATOM     33  O   UNL     1      19.923 -39.415 158.696  1.00  0.00    -0.246 OA
BRANCH  32  34
ATOM     34  C   UNL     1      20.557 -39.350 160.968  1.00  0.00     0.060 A 
ATOM     35  C   UNL     1      21.611 -40.270 160.855  1.00  0.00     0.015 A 
ATOM     36  C   UNL     1      20.482 -38.525 162.099  1.00  0.00     0.015 A 
ATOM     37  C   UNL     1      22.553 -40.392 161.882  1.00  0.00     0.001 A 
ATOM     38  C   UNL     1      21.426 -38.650 163.125  1.00  0.00     0.001 A 
ATOM     39  C   UNL     1      22.460 -39.586 163.019  1.00  0.00     0.000 A 
ENDBRANCH  32  34
ENDBRANCH  31  32
ENDBRANCH  30  31
ENDBRANCH   8  30
TORSDOF 12
ENDMDL
MODEL 2
REMARK VINA RESULT:    -3.925      1.851      5.545
REMARK INTER + INTRA:          -7.303
REMARK INTER:                  -6.171
REMARK INTRA:                  -1.132
REMARK UNBOUND:                -1.198
REMARK SMILES C[C@]12C[C@]3(O)O[C@H](O1)[C@@]1(COC(=O)c4ccccc4)[C@@H]3C[C@]12O[C@@H]1O[C@@H](CO)[C@H](O)[C@H](O)[C@H]1O
REMARK SMILES IDX 1 1 2 2 3 3 4 4 20 5 21 6 22 7 9 8 7 9 8 10 6 11 23 12 24 13
REMARK SMILES IDX 33 14 25 15 31 16 26 17 29 18 34 19 32 21 27 23 28 24 30 26
REMARK SMILES IDX 5 28 10 30 11 31 12 32 13 33 14 34 15 35 19 36 16 37 18 38
REMARK SMILES IDX 17 39
REMARK H PARENT 34 20 32 22 28 25 30 27 5 29
REMARK Flexibility Score: inf
ROOT
ATOM      1  C   UNL     1      18.113 -38.027 157.472  1.00  0.00     0.046 C 
ATOM      2  C   UNL     1      18.817 -36.680 157.253  1.00  0.00     0.104 C 
ATOM      3  C   UNL     1      18.390 -36.044 155.875  1.00  0.00     0.104 C 
ATOM      4  C   UNL     1      19.108 -34.648 155.866  1.00  0.00     0.175 C 
ATOM      5  C   UNL     1      18.856 -33.899 157.215  1.00  0.00     0.070 C 
ATOM      6  C   UNL     1      17.673 -34.486 158.002  1.00  0.00     0.050 C 
ATOM      7  C   UNL     1      18.624 -35.623 158.411  1.00  0.00     0.115 C 
ATOM      8  C   UNL     1      19.804 -34.701 158.097  1.00  0.00     0.096 C 
ATOM      9  C   UNL     1      20.705 -35.485 157.155  1.00  0.00     0.267 C 
ATOM     10  O   UNL     1      20.222 -36.828 157.163  1.00  0.00    -0.342 OA
ATOM     11  O   UNL     1      20.493 -34.927 155.870  1.00  0.00    -0.320 OA
ENDROOT
BRANCH   7  12
ATOM     12  O   UNL     1      18.423 -36.052 159.755  1.00  0.00    -0.339 OA
BRANCH  12  13
ATOM     13  C   UNL     1      17.232 -36.797 159.971  1.00  0.00     0.282 C 
ATOM     14  C   UNL     1      17.274 -37.478 161.350  1.00  0.00     0.202 C 
ATOM     15  O   UNL     1      16.092 -35.966 159.843  1.00  0.00    -0.341 OA
ATOM     16  C   UNL     1      17.317 -36.439 162.505  1.00  0.00     0.179 C 
ATOM     17  C   UNL     1      15.832 -35.065 160.920  1.00  0.00     0.178 C 
ATOM     18  C   UNL     1      16.887 -35.022 162.064  1.00  0.00     0.177 C 
BRANCH  14  19
ATOM     19  O   UNL     1      16.142 -38.302 161.476  1.00  0.00    -0.385 OA
ATOM     20  H   UNL     1      16.457 -39.175 161.836  1.00  0.00     0.211 HD
ENDBRANCH  14  19
BRANCH  16  21
ATOM     21  O   UNL     1      18.583 -36.409 163.123  1.00  0.00    -0.387 OA
ATOM     22  H   UNL     1      18.447 -36.203 164.083  1.00  0.00     0.211 HD
ENDBRANCH  16  21
BRANCH  17  23
ATOM     23  C   UNL     1      14.421 -35.356 161.459  1.00  0.00     0.191 C 
BRANCH  23  24
ATOM     24  O   UNL     1      13.853 -36.466 160.817  1.00  0.00    -0.394 OA
ATOM     25  H   UNL     1      13.495 -37.057 161.531  1.00  0.00     0.210 HD
ENDBRANCH  23  24
ENDBRANCH  17  23
BRANCH  18  26
ATOM     26  O   UNL     1      17.999 -34.268 161.636  1.00  0.00    -0.387 OA
ATOM     27  H   UNL     1      18.561 -34.856 161.063  1.00  0.00     0.211 HD
ENDBRANCH  18  26
ENDBRANCH  12  13
ENDBRANCH   7  12
BRANCH   4  28
ATOM     28  O   UNL     1      18.763 -33.879 154.745  1.00  0.00    -0.365 OA
ATOM     29  H   UNL     1      17.970 -33.337 155.004  1.00  0.00     0.214 HD
ENDBRANCH   4  28
BRANCH   8  30
ATOM     30  C   UNL     1      20.510 -33.876 159.190  1.00  0.00     0.249 C 
BRANCH  30  31
ATOM     31  O   UNL     1      21.519 -34.646 159.843  1.00  0.00    -0.461 OA
BRANCH  31  32
ATOM     32  C   UNL     1      21.293 -35.425 160.982  1.00  0.00     0.338 C 
ATOM     33  O   UNL     1      20.952 -34.851 162.049  1.00  0.00    -0.246 OA
BRANCH  32  34
ATOM     34  C   UNL     1      21.464 -36.891 160.979  1.00  0.00     0.060 A 
ATOM     35  C   UNL     1      21.636 -37.581 159.769  1.00  0.00     0.015 A 
ATOM     36  C   UNL     1      21.497 -37.602 162.187  1.00  0.00     0.015 A 
ATOM     37  C   UNL     1      21.796 -38.970 159.766  1.00  0.00     0.001 A 
ATOM     38  C   UNL     1      21.658 -38.992 162.180  1.00  0.00     0.001 A 
ATOM     39  C   UNL     1      21.804 -39.677 160.970  1.00  0.00     0.000 A 
ENDBRANCH  32  34
ENDBRANCH  31  32
ENDBRANCH  30  31
ENDBRANCH   8  30
TORSDOF 12
ENDMDL
MODEL 3
REMARK VINA RESULT:    -3.923      2.177      5.906
REMARK INTER + INTRA:          -7.300
REMARK INTER:                  -6.928
REMARK INTRA:                  -0.372
REMARK UNBOUND:                -1.198
REMARK SMILES C[C@]12C[C@]3(O)O[C@H](O1)[C@@]1(COC(=O)c4ccccc4)[C@@H]3C[C@]12O[C@@H]1O[C@@H](CO)[C@H](O)[C@H](O)[C@H]1O
REMARK SMILES IDX 1 1 2 2 3 3 4 4 20 5 21 6 22 7 9 8 7 9 8 10 6 11 23 12 24 13
REMARK SMILES IDX 33 14 25 15 31 16 26 17 29 18 34 19 32 21 27 23 28 24 30 26
REMARK SMILES IDX 5 28 10 30 11 31 12 32 13 33 14 34 15 35 19 36 16 37 18 38
REMARK SMILES IDX 17 39
REMARK H PARENT 34 20 32 22 28 25 30 27 5 29
REMARK Flexibility Score: inf
ROOT
ATOM      1  C   UNL     1      22.537 -36.888 158.142  1.00  0.00     0.046 C 
ATOM      2  C   UNL     1      21.255 -36.083 157.885  1.00  0.00     0.104 C 
ATOM      3  C   UNL     1      21.052 -35.832 156.342  1.00  0.00     0.104 C 
ATOM      4  C   UNL     1      19.665 -35.102 156.257  1.00  0.00     0.175 C 
ATOM      5  C   UNL     1      18.595 -35.872 157.098  1.00  0.00     0.070 C 
ATOM      6  C   UNL     1      19.026 -37.311 157.426  1.00  0.00     0.050 C 
ATOM      7  C   UNL     1      19.938 -36.699 158.503  1.00  0.00     0.115 C 
ATOM      8  C   UNL     1      19.056 -35.449 158.488  1.00  0.00     0.096 C 
ATOM      9  C   UNL     1      20.001 -34.274 158.287  1.00  0.00     0.267 C 
ATOM     10  O   UNL     1      21.322 -34.789 158.457  1.00  0.00    -0.342 OA
ATOM     11  O   UNL     1      19.833 -33.875 156.937  1.00  0.00    -0.320 OA
ENDROOT
BRANCH   7  12
ATOM     12  O   UNL     1      19.996 -37.487 159.688  1.00  0.00    -0.339 OA
BRANCH  12  13
ATOM     13  C   UNL     1      20.955 -37.057 160.643  1.00  0.00     0.282 C 
ATOM     14  C   UNL     1      20.250 -36.503 161.894  1.00  0.00     0.202 C 
ATOM     15  O   UNL     1      21.839 -38.113 160.976  1.00  0.00    -0.341 OA
ATOM     16  C   UNL     1      19.420 -37.599 162.619  1.00  0.00     0.179 C 
ATOM     17  C   UNL     1      21.320 -39.138 161.825  1.00  0.00     0.178 C 
ATOM     18  C   UNL     1      19.813 -39.035 162.203  1.00  0.00     0.177 C 
BRANCH  14  19
ATOM     19  O   UNL     1      21.224 -35.976 162.759  1.00  0.00    -0.385 OA
ATOM     20  H   UNL     1      21.837 -36.723 162.996  1.00  0.00     0.211 HD
ENDBRANCH  14  19
BRANCH  16  21
ATOM     21  O   UNL     1      18.037 -37.391 162.454  1.00  0.00    -0.387 OA
ATOM     22  H   UNL     1      17.654 -37.173 163.342  1.00  0.00     0.211 HD
ENDBRANCH  16  21
BRANCH  17  23
ATOM     23  C   UNL     1      22.213 -39.226 163.074  1.00  0.00     0.191 C 
BRANCH  23  24
ATOM     24  O   UNL     1      22.892 -40.452 163.125  1.00  0.00    -0.394 OA
ATOM     25  H   UNL     1      23.836 -40.267 162.876  1.00  0.00     0.210 HD
ENDBRANCH  23  24
ENDBRANCH  17  23
BRANCH  18  26
ATOM     26  O   UNL     1      19.034 -39.474 161.113  1.00  0.00    -0.387 OA
ATOM     27  H   UNL     1      19.655 -39.703 160.370  1.00  0.00     0.211 HD
ENDBRANCH  18  26
ENDBRANCH  12  13
ENDBRANCH   7  12
BRANCH   4  28
ATOM     28  O   UNL     1      19.259 -34.882 154.933  1.00  0.00    -0.365 OA
ATOM     29  H   UNL     1      18.288 -34.668 154.965  1.00  0.00     0.214 HD
ENDBRANCH   4  28
BRANCH   8  30
ATOM     30  C   UNL     1      17.914 -35.241 159.502  1.00  0.00     0.249 C 
BRANCH  30  31
ATOM     31  O   UNL     1      16.790 -34.613 158.888  1.00  0.00    -0.461 OA
BRANCH  31  32
ATOM     32  C   UNL     1      15.462 -34.986 159.121  1.00  0.00     0.338 C 
ATOM     33  O   UNL     1      14.583 -34.643 158.288  1.00  0.00    -0.246 OA
BRANCH  32  34
ATOM     34  C   UNL     1      15.058 -35.744 160.320  1.00  0.00     0.060 A 
ATOM     35  C   UNL     1      14.925 -37.140 160.264  1.00  0.00     0.015 A 
ATOM     36  C   UNL     1      14.842 -35.082 161.537  1.00  0.00     0.015 A 
ATOM     37  C   UNL     1      14.540 -37.858 161.400  1.00  0.00     0.001 A 
ATOM     38  C   UNL     1      14.457 -35.804 162.672  1.00  0.00     0.001 A 
ATOM     39  C   UNL     1      14.301 -37.191 162.604  1.00  0.00     0.000 A 
ENDBRANCH  32  34
ENDBRANCH  31  32
ENDBRANCH  30  31
ENDBRANCH   8  30
TORSDOF 12
ENDMDL
MODEL 4
REMARK VINA RESULT:    -3.801      1.581      5.486
REMARK INTER + INTRA:          -7.111
REMARK INTER:                  -5.710
REMARK INTRA:                  -1.400
REMARK UNBOUND:                -1.198
REMARK SMILES C[C@]12C[C@]3(O)O[C@H](O1)[C@@]1(COC(=O)c4ccccc4)[C@@H]3C[C@]12O[C@@H]1O[C@@H](CO)[C@H](O)[C@H](O)[C@H]1O
REMARK SMILES IDX 1 1 2 2 3 3 4 4 20 5 21 6 22 7 9 8 7 9 8 10 6 11 23 12 24 13
REMARK SMILES IDX 33 14 25 15 31 16 26 17 29 18 34 19 32 21 27 23 28 24 30 26
REMARK SMILES IDX 5 28 10 30 11 31 12 32 13 33 14 34 15 35 19 36 16 37 18 38
REMARK SMILES IDX 17 39
REMARK H PARENT 34 20 32 22 28 25 30 27 5 29
REMARK Flexibility Score: inf
ROOT
ATOM      1  C   UNL     1      18.657 -37.822 157.557  1.00  0.00     0.046 C 
ATOM      2  C   UNL     1      19.670 -36.680 157.723  1.00  0.00     0.104 C 
ATOM      3  C   UNL     1      19.883 -35.919 156.359  1.00  0.00     0.104 C 
ATOM      4  C   UNL     1      20.847 -34.738 156.732  1.00  0.00     0.175 C 
ATOM      5  C   UNL     1      20.324 -33.990 158.001  1.00  0.00     0.070 C 
ATOM      6  C   UNL     1      18.847 -34.297 158.298  1.00  0.00     0.050 C 
ATOM      7  C   UNL     1      19.331 -35.642 158.865  1.00  0.00     0.115 C 
ATOM      8  C   UNL     1      20.719 -35.023 159.049  1.00  0.00     0.096 C 
ATOM      9  C   UNL     1      21.692 -35.974 158.368  1.00  0.00     0.267 C 
ATOM     10  O   UNL     1      20.955 -37.160 158.075  1.00  0.00    -0.342 OA
ATOM     11  O   UNL     1      22.054 -35.343 157.151  1.00  0.00    -0.320 OA
ENDROOT
BRANCH   7  12
ATOM     12  O   UNL     1      18.600 -36.049 160.018  1.00  0.00    -0.339 OA
BRANCH  12  13
ATOM     13  C   UNL     1      17.281 -36.507 159.756  1.00  0.00     0.282 C 
ATOM     14  C   UNL     1      16.808 -37.440 160.885  1.00  0.00     0.202 C 
ATOM     15  O   UNL     1      16.395 -35.415 159.587  1.00  0.00    -0.341 OA
ATOM     16  C   UNL     1      16.714 -36.696 162.246  1.00  0.00     0.179 C 
ATOM     17  C   UNL     1      16.013 -34.712 160.769  1.00  0.00     0.178 C 
ATOM     18  C   UNL     1      16.693 -35.158 162.097  1.00  0.00     0.177 C 
BRANCH  14  19
ATOM     19  O   UNL     1      15.555 -37.970 160.531  1.00  0.00    -0.385 OA
ATOM     20  H   UNL     1      14.880 -37.536 161.120  1.00  0.00     0.211 HD
ENDBRANCH  14  19
BRANCH  16  21
ATOM     21  O   UNL     1      17.738 -37.100 163.125  1.00  0.00    -0.387 OA
ATOM     22  H   UNL     1      18.100 -36.288 163.564  1.00  0.00     0.211 HD
ENDBRANCH  16  21
BRANCH  17  23
ATOM     23  C   UNL     1      14.479 -34.751 160.876  1.00  0.00     0.191 C 
BRANCH  23  24
ATOM     24  O   UNL     1      13.914 -35.445 159.796  1.00  0.00    -0.394 OA
ATOM     25  H   UNL     1      14.644 -35.590 159.137  1.00  0.00     0.210 HD
ENDBRANCH  23  24
ENDBRANCH  17  23
BRANCH  18  26
ATOM     26  O   UNL     1      17.999 -34.629 162.145  1.00  0.00    -0.387 OA
ATOM     27  H   UNL     1      17.947 -33.669 161.890  1.00  0.00     0.211 HD
ENDBRANCH  18  26
ENDBRANCH  12  13
ENDBRANCH   7  12
BRANCH   4  28
ATOM     28  O   UNL     1      21.078 -33.876 155.650  1.00  0.00    -0.365 OA
ATOM     29  H   UNL     1      22.003 -33.527 155.757  1.00  0.00     0.214 HD
ENDBRANCH   4  28
BRANCH   8  30
ATOM     30  C   UNL     1      21.176 -34.425 160.394  1.00  0.00     0.249 C 
BRANCH  30  31
ATOM     31  O   UNL     1      21.886 -35.390 161.170  1.00  0.00    -0.461 OA
BRANCH  31  32
ATOM     32  C   UNL     1      21.272 -36.321 162.013  1.00  0.00     0.338 C 
ATOM     33  O   UNL     1      20.418 -35.913 162.843  1.00  0.00    -0.246 OA
BRANCH  32  34
ATOM     34  C   UNL     1      21.610 -37.757 161.978  1.00  0.00     0.060 A 
ATOM     35  C   UNL     1      22.105 -38.396 163.125  1.00  0.00     0.015 A 
ATOM     36  C   UNL     1      21.402 -38.505 160.810  1.00  0.00     0.015 A 
ATOM     37  C   UNL     1      22.427 -39.756 163.091  1.00  0.00     0.001 A 
ATOM     38  C   UNL     1      21.725 -39.866 160.779  1.00  0.00     0.001 A 
ATOM     39  C   UNL     1      22.242 -40.492 161.918  1.00  0.00     0.000 A 
ENDBRANCH  32  34
ENDBRANCH  31  32
ENDBRANCH  30  31
ENDBRANCH   8  30
TORSDOF 12
ENDMDL
MODEL 5
REMARK VINA RESULT:    -3.545      1.884      5.505
REMARK INTER + INTRA:          -6.712
REMARK INTER:                  -6.187
REMARK INTRA:                  -0.525
REMARK UNBOUND:                -1.198
REMARK SMILES C[C@]12C[C@]3(O)O[C@H](O1)[C@@]1(COC(=O)c4ccccc4)[C@@H]3C[C@]12O[C@@H]1O[C@@H](CO)[C@H](O)[C@H](O)[C@H]1O
REMARK SMILES IDX 1 1 2 2 3 3 4 4 20 5 21 6 22 7 9 8 7 9 8 10 6 11 23 12 24 13
REMARK SMILES IDX 33 14 25 15 31 16 26 17 29 18 34 19 32 21 27 23 28 24 30 26
REMARK SMILES IDX 5 28 10 30 11 31 12 32 13 33 14 34 15 35 19 36 16 37 18 38
REMARK SMILES IDX 17 39
REMARK H PARENT 34 20 32 22 28 25 30 27 5 29
REMARK Flexibility Score: inf
ROOT
ATOM      1  C   UNL     1      17.163 -38.824 162.147  1.00  0.00     0.046 C 
ATOM      2  C   UNL     1      16.967 -37.405 161.594  1.00  0.00     0.104 C 
ATOM      3  C   UNL     1      15.972 -36.584 162.500  1.00  0.00     0.104 C 
ATOM      4  C   UNL     1      15.973 -35.151 161.859  1.00  0.00     0.175 C 
ATOM      5  C   UNL     1      17.439 -34.663 161.622  1.00  0.00     0.070 C 
ATOM      6  C   UNL     1      18.467 -35.472 162.431  1.00  0.00     0.050 C 
ATOM      7  C   UNL     1      18.296 -36.578 161.376  1.00  0.00     0.115 C 
ATOM      8  C   UNL     1      17.766 -35.520 160.405  1.00  0.00     0.096 C 
ATOM      9  C   UNL     1      16.440 -36.056 159.889  1.00  0.00     0.267 C 
ATOM     10  O   UNL     1      16.364 -37.417 160.312  1.00  0.00    -0.342 OA
ATOM     11  O   UNL     1      15.439 -35.309 160.561  1.00  0.00    -0.320 OA
ENDROOT
BRANCH   7  12
ATOM     12  O   UNL     1      19.519 -37.242 161.072  1.00  0.00    -0.339 OA
BRANCH  12  13
ATOM     13  C   UNL     1      19.418 -38.655 160.964  1.00  0.00     0.282 C 
ATOM     14  C   UNL     1      19.295 -39.069 159.487  1.00  0.00     0.202 C 
ATOM     15  O   UNL     1      20.526 -39.285 161.584  1.00  0.00    -0.341 OA
ATOM     16  C   UNL     1      20.565 -38.691 158.675  1.00  0.00     0.179 C 
ATOM     17  C   UNL     1      21.768 -39.229 160.882  1.00  0.00     0.178 C 
ATOM     18  C   UNL     1      21.791 -38.395 159.568  1.00  0.00     0.177 C 
BRANCH  14  19
ATOM     19  O   UNL     1      19.073 -40.456 159.429  1.00  0.00    -0.385 OA
ATOM     20  H   UNL     1      19.963 -40.887 159.318  1.00  0.00     0.211 HD
ENDBRANCH  14  19
BRANCH  16  21
ATOM     21  O   UNL     1      20.314 -37.619 157.797  1.00  0.00    -0.387 OA
ATOM     22  H   UNL     1      21.173 -37.368 157.371  1.00  0.00     0.211 HD
ENDBRANCH  16  21
BRANCH  17  23
ATOM     23  C   UNL     1      22.252 -40.670 160.648  1.00  0.00     0.191 C 
BRANCH  23  24
ATOM     24  O   UNL     1      22.890 -41.181 161.788  1.00  0.00    -0.394 OA
ATOM     25  H   UNL     1      22.426 -40.789 162.574  1.00  0.00     0.210 HD
ENDBRANCH  23  24
ENDBRANCH  17  23
BRANCH  18  26
ATOM     26  O   UNL     1      21.857 -37.024 159.894  1.00  0.00    -0.387 OA
ATOM     27  H   UNL     1      21.571 -36.508 159.093  1.00  0.00     0.211 HD
ENDBRANCH  18  26
ENDBRANCH  12  13
ENDBRANCH   7  12
BRANCH   4  28
ATOM     28  O   UNL     1      15.209 -34.236 162.599  1.00  0.00    -0.365 OA
ATOM     29  H   UNL     1      15.748 -33.403 162.664  1.00  0.00     0.214 HD
ENDBRANCH   4  28
BRANCH   8  30
ATOM     30  C   UNL     1      18.676 -34.834 159.368  1.00  0.00     0.249 C 
BRANCH  30  31
ATOM     31  O   UNL     1      18.584 -35.478 158.098  1.00  0.00    -0.461 OA
BRANCH  31  32
ATOM     32  C   UNL     1      18.457 -34.798 156.883  1.00  0.00     0.338 C 
ATOM     33  O   UNL     1      17.310 -34.448 156.503  1.00  0.00    -0.246 OA
BRANCH  32  34
ATOM     34  C   UNL     1      19.619 -34.501 156.024  1.00  0.00     0.060 A 
ATOM     35  C   UNL     1      19.434 -34.154 154.676  1.00  0.00     0.015 A 
ATOM     36  C   UNL     1      20.917 -34.523 156.555  1.00  0.00     0.015 A 
ATOM     37  C   UNL     1      20.535 -33.875 153.862  1.00  0.00     0.001 A 
ATOM     38  C   UNL     1      22.017 -34.243 155.737  1.00  0.00     0.001 A 
ATOM     39  C   UNL     1      21.828 -33.923 154.389  1.00  0.00     0.000 A 
ENDBRANCH  32  34
ENDBRANCH  31  32
ENDBRANCH  30  31
ENDBRANCH   8  30
TORSDOF 12
ENDMDL
MODEL 6
REMARK VINA RESULT:    -3.506      2.045      6.611
REMARK INTER + INTRA:          -6.651
REMARK INTER:                  -6.511
REMARK INTRA:                  -0.140
REMARK UNBOUND:                -1.198
REMARK SMILES C[C@]12C[C@]3(O)O[C@H](O1)[C@@]1(COC(=O)c4ccccc4)[C@@H]3C[C@]12O[C@@H]1O[C@@H](CO)[C@H](O)[C@H](O)[C@H]1O
REMARK SMILES IDX 1 1 2 2 3 3 4 4 20 5 21 6 22 7 9 8 7 9 8 10 6 11 23 12 24 13
REMARK SMILES IDX 33 14 25 15 31 16 26 17 29 18 34 19 32 21 27 23 28 24 30 26
REMARK SMILES IDX 5 28 10 30 11 31 12 32 13 33 14 34 15 35 19 36 16 37 18 38
REMARK SMILES IDX 17 39
REMARK H PARENT 34 20 32 22 28 25 30 27 5 29
REMARK Flexibility Score: inf
ROOT
ATOM      1  C   UNL     1      18.495 -39.539 161.951  1.00  0.00     0.046 C 
ATOM      2  C   UNL     1      19.499 -38.620 161.240  1.00  0.00     0.104 C 
ATOM      3  C   UNL     1      20.409 -39.446 160.252  1.00  0.00     0.104 C 
ATOM      4  C   UNL     1      21.287 -38.352 159.545  1.00  0.00     0.175 C 
ATOM      5  C   UNL     1      20.386 -37.184 159.029  1.00  0.00     0.070 C 
ATOM      6  C   UNL     1      18.901 -37.574 158.952  1.00  0.00     0.050 C 
ATOM      7  C   UNL     1      18.865 -37.390 160.479  1.00  0.00     0.115 C 
ATOM      8  C   UNL     1      20.109 -36.507 160.365  1.00  0.00     0.096 C 
ATOM      9  C   UNL     1      21.116 -37.079 161.352  1.00  0.00     0.267 C 
ATOM     10  O   UNL     1      20.404 -38.022 162.151  1.00  0.00    -0.342 OA
ATOM     11  O   UNL     1      22.072 -37.770 160.565  1.00  0.00    -0.320 OA
ENDROOT
BRANCH   7  12
ATOM     12  O   UNL     1      17.647 -36.809 160.934  1.00  0.00    -0.339 OA
BRANCH  12  13
ATOM     13  C   UNL     1      16.563 -36.900 160.020  1.00  0.00     0.282 C 
ATOM     14  C   UNL     1      15.337 -37.525 160.708  1.00  0.00     0.202 C 
ATOM     15  O   UNL     1      16.257 -35.628 159.477  1.00  0.00    -0.341 OA
ATOM     16  C   UNL     1      14.812 -36.633 161.868  1.00  0.00     0.179 C 
ATOM     17  C   UNL     1      15.573 -34.715 160.336  1.00  0.00     0.178 C 
ATOM     18  C   UNL     1      15.334 -35.180 161.802  1.00  0.00     0.177 C 
BRANCH  14  19
ATOM     19  O   UNL     1      14.332 -37.713 159.744  1.00  0.00    -0.385 OA
ATOM     20  H   UNL     1      13.464 -37.506 160.186  1.00  0.00     0.211 HD
ENDBRANCH  14  19
BRANCH  16  21
ATOM     21  O   UNL     1      15.088 -37.208 163.124  1.00  0.00    -0.387 OA
ATOM     22  H   UNL     1      14.223 -37.442 163.548  1.00  0.00     0.211 HD
ENDBRANCH  16  21
BRANCH  17  23
ATOM     23  C   UNL     1      14.259 -34.303 159.650  1.00  0.00     0.191 C 
BRANCH  23  24
ATOM     24  O   UNL     1      14.046 -35.046 158.479  1.00  0.00    -0.394 OA
ATOM     25  H   UNL     1      14.942 -35.320 158.148  1.00  0.00     0.210 HD
ENDBRANCH  23  24
ENDBRANCH  17  23
BRANCH  18  26
ATOM     26  O   UNL     1      16.534 -35.042 162.530  1.00  0.00    -0.387 OA
ATOM     27  H   UNL     1      16.441 -35.568 163.369  1.00  0.00     0.211 HD
ENDBRANCH  18  26
ENDBRANCH  12  13
ENDBRANCH   7  12
BRANCH   4  28
ATOM     28  O   UNL     1      22.104 -38.893 158.542  1.00  0.00    -0.365 OA
ATOM     29  H   UNL     1      22.951 -39.171 158.983  1.00  0.00     0.214 HD
ENDBRANCH   4  28
BRANCH   8  30
ATOM     30  C   UNL     1      20.018 -34.970 160.295  1.00  0.00     0.249 C 
BRANCH  30  31
ATOM     31  O   UNL     1      21.310 -34.386 160.128  1.00  0.00    -0.461 OA
BRANCH  31  32
ATOM     32  C   UNL     1      22.083 -34.517 158.970  1.00  0.00     0.338 C 
ATOM     33  O   UNL     1      23.305 -34.791 159.088  1.00  0.00    -0.246 OA
BRANCH  32  34
ATOM     34  C   UNL     1      21.517 -34.320 157.621  1.00  0.00     0.060 A 
ATOM     35  C   UNL     1      20.148 -34.060 157.458  1.00  0.00     0.015 A 
ATOM     36  C   UNL     1      22.351 -34.350 156.494  1.00  0.00     0.015 A 
ATOM     37  C   UNL     1      19.613 -33.875 156.180  1.00  0.00     0.001 A 
ATOM     38  C   UNL     1      21.812 -34.165 155.216  1.00  0.00     0.001 A 
ATOM     39  C   UNL     1      20.442 -33.931 155.057  1.00  0.00     0.000 A 
ENDBRANCH  32  34
ENDBRANCH  31  32
ENDBRANCH  30  31
ENDBRANCH   8  30
TORSDOF 12
ENDMDL
MODEL 7
REMARK VINA RESULT:    -3.500     12.236     15.588
REMARK INTER + INTRA:          -6.642
REMARK INTER:                  -6.158
REMARK INTRA:                  -0.485
REMARK UNBOUND:                -1.198
REMARK SMILES C[C@]12C[C@]3(O)O[C@H](O1)[C@@]1(COC(=O)c4ccccc4)[C@@H]3C[C@]12O[C@@H]1O[C@@H](CO)[C@H](O)[C@H](O)[C@H]1O
REMARK SMILES IDX 1 1 2 2 3 3 4 4 20 5 21 6 22 7 9 8 7 9 8 10 6 11 23 12 24 13
REMARK SMILES IDX 33 14 25 15 31 16 26 17 29 18 34 19 32 21 27 23 28 24 30 26
REMARK SMILES IDX 5 28 10 30 11 31 12 32 13 33 14 34 15 35 19 36 16 37 18 38
REMARK SMILES IDX 17 39
REMARK H PARENT 34 20 32 22 28 25 30 27 5 29
REMARK Flexibility Score: inf
ROOT
ATOM      1  C   UNL     1      24.169 -48.633 158.551  1.00  0.00     0.046 C 
ATOM      2  C   UNL     1      22.973 -49.096 159.394  1.00  0.00     0.104 C 
ATOM      3  C   UNL     1      21.835 -48.005 159.396  1.00  0.00     0.104 C 
ATOM      4  C   UNL     1      20.668 -48.679 160.201  1.00  0.00     0.175 C 
ATOM      5  C   UNL     1      20.401 -50.123 159.665  1.00  0.00     0.070 C 
ATOM      6  C   UNL     1      21.012 -50.357 158.274  1.00  0.00     0.050 C 
ATOM      7  C   UNL     1      22.366 -50.498 158.989  1.00  0.00     0.115 C 
ATOM      8  C   UNL     1      21.610 -50.817 160.281  1.00  0.00     0.096 C 
ATOM      9  C   UNL     1      22.161 -49.865 161.331  1.00  0.00     0.267 C 
ATOM     10  O   UNL     1      23.319 -49.260 160.757  1.00  0.00    -0.342 OA
ATOM     11  O   UNL     1      21.164 -48.873 161.509  1.00  0.00    -0.320 OA
ENDROOT
BRANCH   7  12
ATOM     12  O   UNL     1      23.193 -51.502 158.409  1.00  0.00    -0.339 OA
BRANCH  12  13
ATOM     13  C   UNL     1      23.407 -51.365 157.011  1.00  0.00     0.282 C 
ATOM     14  C   UNL     1      24.720 -52.055 156.603  1.00  0.00     0.202 C 
ATOM     15  O   UNL     1      22.307 -51.882 156.283  1.00  0.00    -0.341 OA
ATOM     16  C   UNL     1      24.669 -53.588 156.856  1.00  0.00     0.179 C 
ATOM     17  C   UNL     1      22.195 -53.304 156.218  1.00  0.00     0.178 C 
ATOM     18  C   UNL     1      23.232 -54.125 157.040  1.00  0.00     0.177 C 
BRANCH  14  19
ATOM     19  O   UNL     1      24.959 -51.792 155.243  1.00  0.00    -0.385 OA
ATOM     20  H   UNL     1      25.267 -50.847 155.180  1.00  0.00     0.211 HD
ENDBRANCH  14  19
BRANCH  16  21
ATOM     21  O   UNL     1      25.485 -53.958 157.942  1.00  0.00    -0.387 OA
ATOM     22  H   UNL     1      25.352 -53.291 158.663  1.00  0.00     0.211 HD
ENDBRANCH  16  21
BRANCH  17  23
ATOM     23  C   UNL     1      22.189 -53.718 154.736  1.00  0.00     0.191 C 
BRANCH  23  24
ATOM     24  O   UNL     1      21.005 -53.314 154.103  1.00  0.00    -0.394 OA
ATOM     25  H   UNL     1      20.286 -53.917 154.431  1.00  0.00     0.210 HD
ENDBRANCH  23  24
ENDBRANCH  17  23
BRANCH  18  26
ATOM     26  O   UNL     1      22.858 -54.108 158.399  1.00  0.00    -0.387 OA
ATOM     27  H   UNL     1      23.309 -53.332 158.828  1.00  0.00     0.211 HD
ENDBRANCH  18  26
ENDBRANCH  12  13
ENDBRANCH   7  12
BRANCH   4  28
ATOM     28  O   UNL     1      19.511 -47.886 160.225  1.00  0.00    -0.365 OA
ATOM     29  H   UNL     1      18.901 -48.293 160.898  1.00  0.00     0.214 HD
ENDBRANCH   4  28
BRANCH   8  30
ATOM     30  C   UNL     1      21.349 -52.265 160.739  1.00  0.00     0.249 C 
BRANCH  30  31
ATOM     31  O   UNL     1      22.569 -52.998 160.842  1.00  0.00    -0.461 OA
BRANCH  31  32
ATOM     32  C   UNL     1      23.351 -53.056 161.999  1.00  0.00     0.338 C 
ATOM     33  O   UNL     1      22.819 -53.449 163.070  1.00  0.00    -0.246 OA
BRANCH  32  34
ATOM     34  C   UNL     1      24.769 -52.648 162.011  1.00  0.00     0.060 A 
ATOM     35  C   UNL     1      25.584 -52.947 163.114  1.00  0.00     0.015 A 
ATOM     36  C   UNL     1      25.326 -51.993 160.902  1.00  0.00     0.015 A 
ATOM     37  C   UNL     1      26.927 -52.558 163.125  1.00  0.00     0.001 A 
ATOM     38  C   UNL     1      26.671 -51.606 160.917  1.00  0.00     0.001 A 
ATOM     39  C   UNL     1      27.471 -51.885 162.029  1.00  0.00     0.000 A 
ENDBRANCH  32  34
ENDBRANCH  31  32
ENDBRANCH  30  31
ENDBRANCH   8  30
TORSDOF 12
ENDMDL
MODEL 8
REMARK VINA RESULT:    -3.325      1.601      3.339
REMARK INTER + INTRA:          -6.369
REMARK INTER:                  -6.528
REMARK INTRA:                   0.159
REMARK UNBOUND:                -1.198
REMARK SMILES C[C@]12C[C@]3(O)O[C@H](O1)[C@@]1(COC(=O)c4ccccc4)[C@@H]3C[C@]12O[C@@H]1O[C@@H](CO)[C@H](O)[C@H](O)[C@H]1O
REMARK SMILES IDX 1 1 2 2 3 3 4 4 20 5 21 6 22 7 9 8 7 9 8 10 6 11 23 12 24 13
REMARK SMILES IDX 33 14 25 15 31 16 26 17 29 18 34 19 32 21 27 23 28 24 30 26
REMARK SMILES IDX 5 28 10 30 11 31 12 32 13 33 14 34 15 35 19 36 16 37 18 38
REMARK SMILES IDX 17 39
REMARK H PARENT 34 20 32 22 28 25 30 27 5 29
REMARK Flexibility Score: inf
ROOT
ATOM      1  C   UNL     1      15.141 -34.941 158.520  1.00  0.00     0.046 C 
ATOM      2  C   UNL     1      15.650 -35.295 159.924  1.00  0.00     0.104 C 
ATOM      3  C   UNL     1      14.635 -36.248 160.663  1.00  0.00     0.104 C 
ATOM      4  C   UNL     1      15.353 -36.588 162.017  1.00  0.00     0.175 C 
ATOM      5  C   UNL     1      16.829 -37.029 161.752  1.00  0.00     0.070 C 
ATOM      6  C   UNL     1      17.072 -37.424 160.286  1.00  0.00     0.050 C 
ATOM      7  C   UNL     1      17.101 -35.918 159.977  1.00  0.00     0.115 C 
ATOM      8  C   UNL     1      17.422 -35.659 161.451  1.00  0.00     0.096 C 
ATOM      9  C   UNL     1      16.401 -34.636 161.926  1.00  0.00     0.267 C 
ATOM     10  O   UNL     1      15.744 -34.152 160.756  1.00  0.00    -0.342 OA
ATOM     11  O   UNL     1      15.470 -35.362 162.710  1.00  0.00    -0.320 OA
ENDROOT
BRANCH   7  12
ATOM     12  O   UNL     1      18.070 -35.577 158.991  1.00  0.00    -0.339 OA
BRANCH  12  13
ATOM     13  C   UNL     1      19.020 -36.595 158.710  1.00  0.00     0.282 C 
ATOM     14  C   UNL     1      18.781 -37.173 157.304  1.00  0.00     0.202 C 
ATOM     15  O   UNL     1      20.340 -36.100 158.845  1.00  0.00    -0.341 OA
ATOM     16  C   UNL     1      18.997 -36.103 156.198  1.00  0.00     0.179 C 
ATOM     17  C   UNL     1      20.813 -35.247 157.802  1.00  0.00     0.178 C 
ATOM     18  C   UNL     1      19.791 -34.872 156.689  1.00  0.00     0.177 C 
BRANCH  14  19
ATOM     19  O   UNL     1      19.654 -38.257 157.112  1.00  0.00    -0.385 OA
ATOM     20  H   UNL     1      19.143 -39.084 157.330  1.00  0.00     0.211 HD
ENDBRANCH  14  19
BRANCH  16  21
ATOM     21  O   UNL     1      17.775 -35.712 155.615  1.00  0.00    -0.387 OA
ATOM     22  H   UNL     1      17.901 -35.688 154.632  1.00  0.00     0.211 HD
ENDBRANCH  16  21
BRANCH  17  23
ATOM     23  C   UNL     1      22.090 -35.871 157.213  1.00  0.00     0.191 C 
BRANCH  23  24
ATOM     24  O   UNL     1      22.395 -37.087 157.841  1.00  0.00    -0.394 OA
ATOM     25  H   UNL     1      21.767 -37.764 157.472  1.00  0.00     0.210 HD
ENDBRANCH  23  24
ENDBRANCH  17  23
BRANCH  18  26
ATOM     26  O   UNL     1      18.922 -33.875 157.179  1.00  0.00    -0.387 OA
ATOM     27  H   UNL     1      18.228 -34.324 157.732  1.00  0.00     0.211 HD
ENDBRANCH  18  26
ENDBRANCH  12  13
ENDBRANCH   7  12
BRANCH   4  28
ATOM     28  O   UNL     1      14.636 -37.520 162.781  1.00  0.00    -0.365 OA
ATOM     29  H   UNL     1      14.047 -36.998 163.388  1.00  0.00     0.214 HD
ENDBRANCH   4  28
BRANCH   8  30
ATOM     30  C   UNL     1      18.867 -35.465 161.951  1.00  0.00     0.249 C 
BRANCH  30  31
ATOM     31  O   UNL     1      19.425 -36.700 162.400  1.00  0.00    -0.461 OA
BRANCH  31  32
ATOM     32  C   UNL     1      20.794 -36.983 162.406  1.00  0.00     0.338 C 
ATOM     33  O   UNL     1      21.594 -36.092 162.794  1.00  0.00    -0.246 OA
BRANCH  32  34
ATOM     34  C   UNL     1      21.331 -38.279 161.949  1.00  0.00     0.060 A 
ATOM     35  C   UNL     1      21.934 -39.157 162.862  1.00  0.00     0.015 A 
ATOM     36  C   UNL     1      21.205 -38.663 160.606  1.00  0.00     0.015 A 
ATOM     37  C   UNL     1      22.444 -40.385 162.428  1.00  0.00     0.001 A 
ATOM     38  C   UNL     1      21.717 -39.893 160.175  1.00  0.00     0.001 A 
ATOM     39  C   UNL     1      22.340 -40.752 161.084  1.00  0.00     0.000 A 
ENDBRANCH  32  34
ENDBRANCH  31  32
ENDBRANCH  30  31
ENDBRANCH   8  30
TORSDOF 12
ENDMDL
