MODEL 1
REMARK VINA RESULT:    -0.293      0.000      0.000
REMARK INTER + INTRA:          -0.662
REMARK INTER:                  -0.344
REMARK INTRA:                  -0.318
REMARK UNBOUND:                -0.318
REMARK SMILES O=c1cc(-c2ccc(O)c(O)c2)oc2cc(O)cc(O)c12
REMARK SMILES IDX 4 1 3 2 2 3 1 4 21 5 19 6 18 7 16 8 15 9 14 10 13 11 5 12
REMARK SMILES IDX 6 13 7 14 8 15 12 16 10 17 9 18 11 20 20 22 17 24
REMARK H PARENT 9 19 11 21 20 23 17 25
REMARK Flexibility Score: inf
ROOT
ATOM      1  C   UNL     1      26.555  25.435  46.947  1.00  0.00     0.138 A 
ATOM      2  C   UNL     1      25.683  24.338  46.937  1.00  0.00     0.100 A 
ATOM      3  C   UNL     1      24.304  24.552  46.949  1.00  0.00     0.197 A 
ATOM      4  O   UNL     1      23.547  23.550  46.875  1.00  0.00    -0.289 OA
ATOM      5  C   UNL     1      23.798  25.872  47.003  1.00  0.00     0.107 A 
ATOM      6  C   UNL     1      22.412  26.210  47.061  1.00  0.00     0.134 A 
ATOM      7  C   UNL     1      22.027  27.554  46.995  1.00  0.00     0.093 A 
ATOM      8  C   UNL     1      22.975  28.575  46.935  1.00  0.00     0.123 A 
ATOM      9  C   UNL     1      24.335  28.258  46.933  1.00  0.00     0.094 A 
ATOM     10  C   UNL     1      24.750  26.925  46.962  1.00  0.00     0.146 A 
ATOM     11  O   UNL     1      26.054  26.665  46.944  1.00  0.00    -0.456 OA
ENDROOT
BRANCH   1  12
ATOM     12  C   UNL     1      28.030  25.264  46.937  1.00  0.00     0.021 A 
ATOM     13  C   UNL     1      28.576  23.968  46.917  1.00  0.00     0.016 A 
ATOM     14  C   UNL     1      29.960  23.780  46.900  1.00  0.00     0.051 A 
ATOM     15  C   UNL     1      30.822  24.879  46.891  1.00  0.00     0.157 A 
ATOM     16  C   UNL     1      28.904  26.368  46.915  1.00  0.00     0.062 A 
ATOM     17  C   UNL     1      30.294  26.180  46.895  1.00  0.00     0.158 A 
BRANCH  15  18
ATOM     18  O   UNL     1      32.199  24.660  46.875  1.00  0.00    -0.504 OA
ATOM     19  H   UNL     1      32.632  23.999  46.241  1.00  0.00     0.293 HD
ENDBRANCH  15  18
BRANCH  17  20
ATOM     20  O   UNL     1      31.149  27.281  46.875  1.00  0.00    -0.504 OA
ATOM     21  H   UNL     1      32.141  27.187  47.056  1.00  0.00     0.293 HD
ENDBRANCH  17  20
ENDBRANCH   1  12
BRANCH   6  22
ATOM     22  O   UNL     1      21.385  25.272  47.207  1.00  0.00    -0.507 OA
ATOM     23  H   UNL     1      20.938  24.784  46.447  1.00  0.00     0.293 HD
ENDBRANCH   6  22
BRANCH   8  24
ATOM     24  O   UNL     1      22.555  29.901  46.886  1.00  0.00    -0.508 OA
ATOM     25  H   UNL     1      23.145  30.631  46.503  1.00  0.00     0.293 HD
ENDBRANCH   8  24
TORSDOF 5
ENDMDL
MODEL 2
REMARK VINA RESULT:    -0.285      1.893      7.345
REMARK INTER + INTRA:          -0.653
REMARK INTER:                  -0.335
REMARK INTRA:                  -0.318
REMARK UNBOUND:                -0.318
REMARK SMILES O=c1cc(-c2ccc(O)c(O)c2)oc2cc(O)cc(O)c12
REMARK SMILES IDX 4 1 3 2 2 3 1 4 21 5 19 6 18 7 16 8 15 9 14 10 13 11 5 12
REMARK SMILES IDX 6 13 7 14 8 15 12 16 10 17 9 18 11 20 20 22 17 24
REMARK H PARENT 9 19 11 21 20 23 17 25
REMARK Flexibility Score: inf
ROOT
ATOM      1  C   UNL     1      24.396  27.512  46.983  1.00  0.00     0.138 A 
ATOM      2  C   UNL     1      24.590  28.900  46.997  1.00  0.00     0.100 A 
ATOM      3  C   UNL     1      25.886  29.417  47.016  1.00  0.00     0.197 A 
ATOM      4  O   UNL     1      26.029  30.666  46.964  1.00  0.00    -0.289 OA
ATOM      5  C   UNL     1      26.993  28.536  47.052  1.00  0.00     0.107 A 
ATOM      6  C   UNL     1      28.358  28.949  47.114  1.00  0.00     0.134 A 
ATOM      7  C   UNL     1      29.373  27.988  47.029  1.00  0.00     0.093 A 
ATOM      8  C   UNL     1      29.075  26.629  46.944  1.00  0.00     0.123 A 
ATOM      9  C   UNL     1      27.744  26.210  46.938  1.00  0.00     0.094 A 
ATOM     10  C   UNL     1      26.708  27.146  46.986  1.00  0.00     0.146 A 
ATOM     11  O   UNL     1      25.453  26.708  46.963  1.00  0.00    -0.456 OA
ENDROOT
BRANCH   1  12
ATOM     12  C   UNL     1      23.039  26.910  46.965  1.00  0.00     0.021 A 
ATOM     13  C   UNL     1      21.911  27.748  46.907  1.00  0.00     0.016 A 
ATOM     14  C   UNL     1      20.624  27.206  46.883  1.00  0.00     0.051 A 
ATOM     15  C   UNL     1      20.440  25.821  46.903  1.00  0.00     0.157 A 
ATOM     16  C   UNL     1      22.848  25.515  46.973  1.00  0.00     0.062 A 
ATOM     17  C   UNL     1      21.555  24.970  46.945  1.00  0.00     0.158 A 
BRANCH  15  18
ATOM     18  O   UNL     1      19.142  25.310  46.878  1.00  0.00    -0.504 OA
ATOM     19  H   UNL     1      18.725  24.942  46.031  1.00  0.00     0.293 HD
ENDBRANCH  15  18
BRANCH  17  20
ATOM     20  O   UNL     1      21.378  23.587  46.954  1.00  0.00    -0.504 OA
ATOM     21  H   UNL     1      21.621  23.015  46.155  1.00  0.00     0.293 HD
ENDBRANCH  17  20
ENDBRANCH   1  12
BRANCH   6  22
ATOM     22  O   UNL     1      28.766  30.276  47.283  1.00  0.00    -0.507 OA
ATOM     23  H   UNL     1      28.544  30.849  48.081  1.00  0.00     0.293 HD
ENDBRANCH   6  22
BRANCH   8  24
ATOM     24  O   UNL     1      30.111  25.701  46.876  1.00  0.00    -0.508 OA
ATOM     25  H   UNL     1      31.035  25.960  46.550  1.00  0.00     0.293 HD
ENDBRANCH   8  24
TORSDOF 5
ENDMDL
MODEL 3
REMARK VINA RESULT:    -0.279      3.365      5.395
REMARK INTER + INTRA:          -0.645
REMARK INTER:                  -0.350
REMARK INTRA:                  -0.296
REMARK UNBOUND:                -0.318
REMARK SMILES O=c1cc(-c2ccc(O)c(O)c2)oc2cc(O)cc(O)c12
REMARK SMILES IDX 4 1 3 2 2 3 1 4 21 5 19 6 18 7 16 8 15 9 14 10 13 11 5 12
REMARK SMILES IDX 6 13 7 14 8 15 12 16 10 17 9 18 11 20 20 22 17 24
REMARK H PARENT 9 19 11 21 20 23 17 25
REMARK Flexibility Score: inf
ROOT
ATOM      1  C   UNL     1      23.794  27.167  47.057  1.00  0.00     0.138 A 
ATOM      2  C   UNL     1      24.969  27.927  46.987  1.00  0.00     0.100 A 
ATOM      3  C   UNL     1      24.893  29.320  47.019  1.00  0.00     0.197 A 
ATOM      4  O   UNL     1      25.968  29.974  47.018  1.00  0.00    -0.289 OA
ATOM      5  C   UNL     1      23.630  29.954  47.091  1.00  0.00     0.107 A 
ATOM      6  C   UNL     1      23.428  31.367  47.089  1.00  0.00     0.134 A 
ATOM      7  C   UNL     1      22.139  31.880  47.280  1.00  0.00     0.093 A 
ATOM      8  C   UNL     1      21.038  31.035  47.413  1.00  0.00     0.123 A 
ATOM      9  C   UNL     1      21.217  29.651  47.362  1.00  0.00     0.094 A 
ATOM     10  C   UNL     1      22.494  29.108  47.207  1.00  0.00     0.146 A 
ATOM     11  O   UNL     1      22.624  27.785  47.179  1.00  0.00    -0.456 OA
ENDROOT
BRANCH   1  12
ATOM     12  C   UNL     1      23.817  25.683  47.026  1.00  0.00     0.021 A 
ATOM     13  C   UNL     1      22.608  24.974  46.917  1.00  0.00     0.016 A 
ATOM     14  C   UNL     1      22.604  23.577  46.879  1.00  0.00     0.051 A 
ATOM     15  C   UNL     1      23.804  22.865  46.935  1.00  0.00     0.157 A 
ATOM     16  C   UNL     1      25.026  24.960  47.071  1.00  0.00     0.062 A 
ATOM     17  C   UNL     1      25.022  23.557  47.029  1.00  0.00     0.158 A 
BRANCH  15  18
ATOM     18  O   UNL     1      23.768  21.472  46.896  1.00  0.00    -0.504 OA
ATOM     19  H   UNL     1      24.574  20.905  47.131  1.00  0.00     0.293 HD
ENDBRANCH  15  18
BRANCH  17  20
ATOM     20  O   UNL     1      26.224  22.853  47.075  1.00  0.00    -0.504 OA
ATOM     21  H   UNL     1      26.265  21.893  47.396  1.00  0.00     0.293 HD
ENDBRANCH  17  20
ENDBRANCH   1  12
BRANCH   6  22
ATOM     22  O   UNL     1      24.447  32.301  46.879  1.00  0.00    -0.507 OA
ATOM     23  H   UNL     1      24.653  33.076  47.489  1.00  0.00     0.293 HD
ENDBRANCH   6  22
BRANCH   8  24
ATOM     24  O   UNL     1      19.769  31.581  47.586  1.00  0.00    -0.508 OA
ATOM     25  H   UNL     1      19.424  31.841  48.503  1.00  0.00     0.293 HD
ENDBRANCH   8  24
TORSDOF 5
ENDMDL
MODEL 4
REMARK VINA RESULT:    -0.243      2.292      3.912
REMARK INTER + INTRA:          -0.604
REMARK INTER:                  -0.287
REMARK INTRA:                  -0.317
REMARK UNBOUND:                -0.318
REMARK SMILES O=c1cc(-c2ccc(O)c(O)c2)oc2cc(O)cc(O)c12
REMARK SMILES IDX 4 1 3 2 2 3 1 4 21 5 19 6 18 7 16 8 15 9 14 10 13 11 5 12
REMARK SMILES IDX 6 13 7 14 8 15 12 16 10 17 9 18 11 20 20 22 17 24
REMARK H PARENT 9 19 11 21 20 23 17 25
REMARK Flexibility Score: inf
ROOT
ATOM      1  C   UNL     1      25.934  27.013  47.510  1.00  0.00     0.138 A 
ATOM      2  C   UNL     1      26.515  28.288  47.552  1.00  0.00     0.100 A 
ATOM      3  C   UNL     1      25.710  29.419  47.417  1.00  0.00     0.197 A 
ATOM      4  O   UNL     1      26.251  30.550  47.522  1.00  0.00    -0.289 OA
ATOM      5  C   UNL     1      24.318  29.271  47.209  1.00  0.00     0.107 A 
ATOM      6  C   UNL     1      23.404  30.350  47.018  1.00  0.00     0.134 A 
ATOM      7  C   UNL     1      22.032  30.087  46.936  1.00  0.00     0.093 A 
ATOM      8  C   UNL     1      21.544  28.781  46.978  1.00  0.00     0.123 A 
ATOM      9  C   UNL     1      22.433  27.713  47.109  1.00  0.00     0.094 A 
ATOM     10  C   UNL     1      23.805  27.945  47.229  1.00  0.00     0.146 A 
ATOM     11  O   UNL     1      24.617  26.902  47.368  1.00  0.00    -0.456 OA
ENDROOT
BRANCH   1  12
ATOM     12  C   UNL     1      26.744  25.777  47.647  1.00  0.00     0.021 A 
ATOM     13  C   UNL     1      28.111  25.877  47.963  1.00  0.00     0.016 A 
ATOM     14  C   UNL     1      28.894  24.728  48.103  1.00  0.00     0.051 A 
ATOM     15  C   UNL     1      28.326  23.462  47.943  1.00  0.00     0.157 A 
ATOM     16  C   UNL     1      26.174  24.497  47.498  1.00  0.00     0.062 A 
ATOM     17  C   UNL     1      26.960  23.343  47.642  1.00  0.00     0.158 A 
BRANCH  15  18
ATOM     18  O   UNL     1      29.134  22.334  48.088  1.00  0.00    -0.504 OA
ATOM     19  H   UNL     1      29.559  22.087  48.974  1.00  0.00     0.293 HD
ENDBRANCH  15  18
BRANCH  17  20
ATOM     20  O   UNL     1      26.385  22.082  47.491  1.00  0.00    -0.504 OA
ATOM     21  H   UNL     1      25.382  21.960  47.419  1.00  0.00     0.293 HD
ENDBRANCH  17  20
ENDBRANCH   1  12
BRANCH   6  22
ATOM     22  O   UNL     1      23.793  31.686  46.878  1.00  0.00    -0.507 OA
ATOM     23  H   UNL     1      24.700  31.992  46.563  1.00  0.00     0.293 HD
ENDBRANCH   6  22
BRANCH   8  24
ATOM     24  O   UNL     1      20.174  28.555  46.878  1.00  0.00    -0.508 OA
ATOM     25  H   UNL     1      19.777  27.633  47.014  1.00  0.00     0.293 HD
ENDBRANCH   8  24
TORSDOF 5
ENDMDL
MODEL 5
REMARK VINA RESULT:    -0.237      3.094      5.621
REMARK INTER + INTRA:          -0.597
REMARK INTER:                  -0.302
REMARK INTRA:                  -0.295
REMARK UNBOUND:                -0.318
REMARK SMILES O=c1cc(-c2ccc(O)c(O)c2)oc2cc(O)cc(O)c12
REMARK SMILES IDX 4 1 3 2 2 3 1 4 21 5 19 6 18 7 16 8 15 9 14 10 13 11 5 12
REMARK SMILES IDX 6 13 7 14 8 15 12 16 10 17 9 18 11 20 20 22 17 24
REMARK H PARENT 9 19 11 21 20 23 17 25
REMARK Flexibility Score: inf
ROOT
ATOM      1  C   UNL     1      25.220  28.979  47.152  1.00  0.00     0.138 A 
ATOM      2  C   UNL     1      23.819  28.969  47.195  1.00  0.00     0.100 A 
ATOM      3  C   UNL     1      23.136  27.752  47.170  1.00  0.00     0.197 A 
ATOM      4  O   UNL     1      21.882  27.773  47.273  1.00  0.00    -0.289 OA
ATOM      5  C   UNL     1      23.860  26.541  47.070  1.00  0.00     0.107 A 
ATOM      6  C   UNL     1      23.270  25.244  46.995  1.00  0.00     0.134 A 
ATOM      7  C   UNL     1      24.090  24.110  47.015  1.00  0.00     0.093 A 
ATOM      8  C   UNL     1      25.480  24.225  47.047  1.00  0.00     0.123 A 
ATOM      9  C   UNL     1      26.070  25.490  47.065  1.00  0.00     0.094 A 
ATOM     10  C   UNL     1      25.278  26.640  47.081  1.00  0.00     0.146 A 
ATOM     11  O   UNL     1      25.878  27.826  47.113  1.00  0.00    -0.456 OA
ENDROOT
BRANCH   1  12
ATOM     12  C   UNL     1      25.996  30.244  47.175  1.00  0.00     0.021 A 
ATOM     13  C   UNL     1      27.369  30.219  46.876  1.00  0.00     0.016 A 
ATOM     14  C   UNL     1      28.121  31.397  46.884  1.00  0.00     0.051 A 
ATOM     15  C   UNL     1      27.513  32.620  47.178  1.00  0.00     0.157 A 
ATOM     16  C   UNL     1      25.386  31.482  47.459  1.00  0.00     0.062 A 
ATOM     17  C   UNL     1      26.140  32.666  47.464  1.00  0.00     0.158 A 
BRANCH  15  18
ATOM     18  O   UNL     1      28.289  33.779  47.179  1.00  0.00    -0.504 OA
ATOM     19  H   UNL     1      29.251  33.782  46.860  1.00  0.00     0.293 HD
ENDBRANCH  15  18
BRANCH  17  20
ATOM     20  O   UNL     1      25.526  33.885  47.748  1.00  0.00    -0.504 OA
ATOM     21  H   UNL     1      24.567  33.935  48.070  1.00  0.00     0.293 HD
ENDBRANCH  17  20
ENDBRANCH   1  12
BRANCH   6  22
ATOM     22  O   UNL     1      21.895  25.018  46.876  1.00  0.00    -0.507 OA
ATOM     23  H   UNL     1      21.390  24.984  46.004  1.00  0.00     0.293 HD
ENDBRANCH   6  22
BRANCH   8  24
ATOM     24  O   UNL     1      26.265  23.075  47.050  1.00  0.00    -0.508 OA
ATOM     25  H   UNL     1      25.971  22.233  47.531  1.00  0.00     0.293 HD
ENDBRANCH   8  24
TORSDOF 5
ENDMDL
MODEL 6
REMARK VINA RESULT:    -0.211      2.828      3.856
REMARK INTER + INTRA:          -0.566
REMARK INTER:                  -0.249
REMARK INTRA:                  -0.317
REMARK UNBOUND:                -0.318
REMARK SMILES O=c1cc(-c2ccc(O)c(O)c2)oc2cc(O)cc(O)c12
REMARK SMILES IDX 4 1 3 2 2 3 1 4 21 5 19 6 18 7 16 8 15 9 14 10 13 11 5 12
REMARK SMILES IDX 6 13 7 14 8 15 12 16 10 17 9 18 11 20 20 22 17 24
REMARK H PARENT 9 19 11 21 20 23 17 25
REMARK Flexibility Score: inf
ROOT
ATOM      1  C   UNL     1      27.278  27.695  47.502  1.00  0.00     0.138 A 
ATOM      2  C   UNL     1      27.658  26.356  47.341  1.00  0.00     0.100 A 
ATOM      3  C   UNL     1      26.681  25.379  47.145  1.00  0.00     0.197 A 
ATOM      4  O   UNL     1      27.056  24.196  46.940  1.00  0.00    -0.289 OA
ATOM      5  C   UNL     1      25.313  25.743  47.142  1.00  0.00     0.107 A 
ATOM      6  C   UNL     1      24.228  24.828  46.993  1.00  0.00     0.134 A 
ATOM      7  C   UNL     1      22.921  25.318  46.890  1.00  0.00     0.093 A 
ATOM      8  C   UNL     1      22.652  26.683  46.991  1.00  0.00     0.123 A 
ATOM      9  C   UNL     1      23.700  27.583  47.192  1.00  0.00     0.094 A 
ATOM     10  C   UNL     1      25.019  27.128  47.264  1.00  0.00     0.146 A 
ATOM     11  O   UNL     1      25.990  28.018  47.441  1.00  0.00    -0.456 OA
ENDROOT
BRANCH   1  12
ATOM     12  C   UNL     1      28.276  28.773  47.715  1.00  0.00     0.021 A 
ATOM     13  C   UNL     1      29.631  28.438  47.880  1.00  0.00     0.016 A 
ATOM     14  C   UNL     1      30.591  29.434  48.075  1.00  0.00     0.051 A 
ATOM     15  C   UNL     1      30.218  30.780  48.096  1.00  0.00     0.157 A 
ATOM     16  C   UNL     1      27.907  30.133  47.725  1.00  0.00     0.062 A 
ATOM     17  C   UNL     1      28.871  31.134  47.918  1.00  0.00     0.158 A 
BRANCH  15  18
ATOM     18  O   UNL     1      31.199  31.752  48.294  1.00  0.00    -0.504 OA
ATOM     19  H   UNL     1      32.033  31.799  47.721  1.00  0.00     0.293 HD
ENDBRANCH  15  18
BRANCH  17  20
ATOM     20  O   UNL     1      28.494  32.476  47.927  1.00  0.00    -0.504 OA
ATOM     21  H   UNL     1      29.104  33.197  48.293  1.00  0.00     0.293 HD
ENDBRANCH  17  20
ENDBRANCH   1  12
BRANCH   6  22
ATOM     22  O   UNL     1      24.378  23.438  46.965  1.00  0.00    -0.507 OA
ATOM     23  H   UNL     1      23.664  22.787  46.678  1.00  0.00     0.293 HD
ENDBRANCH   6  22
BRANCH   8  24
ATOM     24  O   UNL     1      21.338  27.134  46.900  1.00  0.00    -0.508 OA
ATOM     25  H   UNL     1      20.907  27.335  46.005  1.00  0.00     0.293 HD
ENDBRANCH   8  24
TORSDOF 5
ENDMDL
MODEL 7
REMARK VINA RESULT:    -0.210      1.522      7.387
REMARK INTER + INTRA:          -0.565
REMARK INTER:                  -0.247
REMARK INTRA:                  -0.318
REMARK UNBOUND:                -0.318
REMARK SMILES O=c1cc(-c2ccc(O)c(O)c2)oc2cc(O)cc(O)c12
REMARK SMILES IDX 4 1 3 2 2 3 1 4 21 5 19 6 18 7 16 8 15 9 14 10 13 11 5 12
REMARK SMILES IDX 6 13 7 14 8 15 12 16 10 17 9 18 11 20 20 22 17 24
REMARK H PARENT 9 19 11 21 20 23 17 25
REMARK Flexibility Score: inf
ROOT
ATOM      1  C   UNL     1      27.508  26.539  47.051  1.00  0.00     0.138 A 
ATOM      2  C   UNL     1      28.735  27.215  47.022  1.00  0.00     0.100 A 
ATOM      3  C   UNL     1      29.925  26.486  47.003  1.00  0.00     0.197 A 
ATOM      4  O   UNL     1      31.009  27.119  46.913  1.00  0.00    -0.289 OA
ATOM      5  C   UNL     1      29.884  25.072  47.044  1.00  0.00     0.107 A 
ATOM      6  C   UNL     1      31.032  24.225  47.069  1.00  0.00     0.134 A 
ATOM      7  C   UNL     1      30.868  22.837  46.993  1.00  0.00     0.093 A 
ATOM      8  C   UNL     1      29.598  22.262  46.953  1.00  0.00     0.123 A 
ATOM      9  C   UNL     1      28.466  23.078  46.982  1.00  0.00     0.094 A 
ATOM     10  C   UNL     1      28.597  24.468  47.023  1.00  0.00     0.146 A 
ATOM     11  O   UNL     1      27.495  25.211  47.035  1.00  0.00    -0.456 OA
ENDROOT
BRANCH   1  12
ATOM     12  C   UNL     1      26.213  27.266  47.075  1.00  0.00     0.021 A 
ATOM     13  C   UNL     1      26.208  28.671  47.021  1.00  0.00     0.016 A 
ATOM     14  C   UNL     1      25.003  29.378  47.035  1.00  0.00     0.051 A 
ATOM     15  C   UNL     1      23.785  28.697  47.091  1.00  0.00     0.157 A 
ATOM     16  C   UNL     1      24.982  26.584  47.118  1.00  0.00     0.062 A 
ATOM     17  C   UNL     1      23.771  27.294  47.129  1.00  0.00     0.158 A 
BRANCH  15  18
ATOM     18  O   UNL     1      22.599  29.431  47.104  1.00  0.00    -0.504 OA
ATOM     19  H   UNL     1      22.161  29.762  46.253  1.00  0.00     0.293 HD
ENDBRANCH  15  18
BRANCH  17  20
ATOM     20  O   UNL     1      22.558  26.608  47.174  1.00  0.00    -0.504 OA
ATOM     21  H   UNL     1      21.674  27.097  47.249  1.00  0.00     0.293 HD
ENDBRANCH  17  20
ENDBRANCH   1  12
BRANCH   6  22
ATOM     22  O   UNL     1      32.344  24.693  47.193  1.00  0.00    -0.507 OA
ATOM     23  H   UNL     1      32.938  24.539  47.993  1.00  0.00     0.293 HD
ENDBRANCH   6  22
BRANCH   8  24
ATOM     24  O   UNL     1      29.472  20.876  46.893  1.00  0.00    -0.508 OA
ATOM     25  H   UNL     1      30.075  20.265  47.431  1.00  0.00     0.293 HD
ENDBRANCH   8  24
TORSDOF 5
ENDMDL
MODEL 8
REMARK VINA RESULT:    -0.206      2.201      7.741
REMARK INTER + INTRA:          -0.561
REMARK INTER:                  -0.264
REMARK INTRA:                  -0.297
REMARK UNBOUND:                -0.318
REMARK SMILES O=c1cc(-c2ccc(O)c(O)c2)oc2cc(O)cc(O)c12
REMARK SMILES IDX 4 1 3 2 2 3 1 4 21 5 19 6 18 7 16 8 15 9 14 10 13 11 5 12
REMARK SMILES IDX 6 13 7 14 8 15 12 16 10 17 9 18 11 20 20 22 17 24
REMARK H PARENT 9 19 11 21 20 23 17 25
REMARK Flexibility Score: inf
ROOT
ATOM      1  C   UNL     1      23.306  27.480  47.603  1.00  0.00     0.138 A 
ATOM      2  C   UNL     1      24.376  28.359  47.385  1.00  0.00     0.100 A 
ATOM      3  C   UNL     1      25.654  27.848  47.152  1.00  0.00     0.197 A 
ATOM      4  O   UNL     1      26.581  28.659  46.898  1.00  0.00    -0.289 OA
ATOM      5  C   UNL     1      25.865  26.449  47.169  1.00  0.00     0.107 A 
ATOM      6  C   UNL     1      27.131  25.815  46.986  1.00  0.00     0.134 A 
ATOM      7  C   UNL     1      27.198  24.419  46.908  1.00  0.00     0.093 A 
ATOM      8  C   UNL     1      26.059  23.631  47.066  1.00  0.00     0.123 A 
ATOM      9  C   UNL     1      24.824  24.238  47.301  1.00  0.00     0.094 A 
ATOM     10  C   UNL     1      24.718  25.630  47.350  1.00  0.00     0.146 A 
ATOM     11  O   UNL     1      23.521  26.170  47.560  1.00  0.00    -0.456 OA
ENDROOT
BRANCH   1  12
ATOM     12  C   UNL     1      21.928  27.970  47.857  1.00  0.00     0.021 A 
ATOM     13  C   UNL     1      20.898  27.045  48.095  1.00  0.00     0.016 A 
ATOM     14  C   UNL     1      19.594  27.480  48.343  1.00  0.00     0.051 A 
ATOM     15  C   UNL     1      19.298  28.846  48.369  1.00  0.00     0.157 A 
ATOM     16  C   UNL     1      21.627  29.346  47.897  1.00  0.00     0.062 A 
ATOM     17  C   UNL     1      20.318  29.784  48.148  1.00  0.00     0.158 A 
BRANCH  15  18
ATOM     18  O   UNL     1      17.987  29.250  48.618  1.00  0.00    -0.504 OA
ATOM     19  H   UNL     1      17.572  29.192  49.541  1.00  0.00     0.293 HD
ENDBRANCH  15  18
BRANCH  17  20
ATOM     20  O   UNL     1      20.032  31.148  48.184  1.00  0.00    -0.504 OA
ATOM     21  H   UNL     1      19.538  31.608  47.428  1.00  0.00     0.293 HD
ENDBRANCH  17  20
ENDBRANCH   1  12
BRANCH   6  22
ATOM     22  O   UNL     1      28.344  26.505  46.900  1.00  0.00    -0.507 OA
ATOM     23  H   UNL     1      28.474  27.475  47.142  1.00  0.00     0.293 HD
ENDBRANCH   6  22
BRANCH   8  24
ATOM     24  O   UNL     1      26.167  22.245  46.998  1.00  0.00    -0.508 OA
ATOM     25  H   UNL     1      25.347  21.649  46.986  1.00  0.00     0.293 HD
ENDBRANCH   8  24
TORSDOF 5
ENDMDL
MODEL 9
REMARK VINA RESULT:    -0.176      2.191      4.087
REMARK INTER + INTRA:          -0.525
REMARK INTER:                  -0.207
REMARK INTRA:                  -0.318
REMARK UNBOUND:                -0.318
REMARK SMILES O=c1cc(-c2ccc(O)c(O)c2)oc2cc(O)cc(O)c12
REMARK SMILES IDX 4 1 3 2 2 3 1 4 21 5 19 6 18 7 16 8 15 9 14 10 13 11 5 12
REMARK SMILES IDX 6 13 7 14 8 15 12 16 10 17 9 18 11 20 20 22 17 24
REMARK H PARENT 9 19 11 21 20 23 17 25
REMARK Flexibility Score: inf
ROOT
ATOM      1  C   UNL     1      27.056  27.735  47.435  1.00  0.00     0.138 A 
ATOM      2  C   UNL     1      25.873  28.401  47.087  1.00  0.00     0.100 A 
ATOM      3  C   UNL     1      24.657  27.718  47.132  1.00  0.00     0.197 A 
ATOM      4  O   UNL     1      23.605  28.360  46.875  1.00  0.00    -0.289 OA
ATOM      5  C   UNL     1      24.631  26.352  47.499  1.00  0.00     0.107 A 
ATOM      6  C   UNL     1      23.456  25.543  47.540  1.00  0.00     0.134 A 
ATOM      7  C   UNL     1      23.536  24.234  48.029  1.00  0.00     0.093 A 
ATOM      8  C   UNL     1      24.756  23.684  48.422  1.00  0.00     0.123 A 
ATOM      9  C   UNL     1      25.921  24.448  48.334  1.00  0.00     0.094 A 
ATOM     10  C   UNL     1      25.868  25.768  47.883  1.00  0.00     0.146 A 
ATOM     11  O   UNL     1      26.998  26.467  47.828  1.00  0.00    -0.456 OA
ENDROOT
BRANCH   1  12
ATOM     12  C   UNL     1      28.376  28.414  47.403  1.00  0.00     0.021 A 
ATOM     13  C   UNL     1      28.451  29.763  47.014  1.00  0.00     0.016 A 
ATOM     14  C   UNL     1      29.680  30.426  46.982  1.00  0.00     0.051 A 
ATOM     15  C   UNL     1      30.852  29.760  47.348  1.00  0.00     0.157 A 
ATOM     16  C   UNL     1      29.559  27.751  47.783  1.00  0.00     0.062 A 
ATOM     17  C   UNL     1      30.794  28.417  47.753  1.00  0.00     0.158 A 
BRANCH  15  18
ATOM     18  O   UNL     1      32.064  30.448  47.304  1.00  0.00    -0.504 OA
ATOM     19  H   UNL     1      32.956  29.972  47.371  1.00  0.00     0.293 HD
ENDBRANCH  15  18
BRANCH  17  20
ATOM     20  O   UNL     1      31.958  27.750  48.130  1.00  0.00    -0.504 OA
ATOM     21  H   UNL     1      31.930  26.907  48.690  1.00  0.00     0.293 HD
ENDBRANCH  17  20
ENDBRANCH   1  12
BRANCH   6  22
ATOM     22  O   UNL     1      22.200  25.967  47.093  1.00  0.00    -0.507 OA
ATOM     23  H   UNL     1      21.733  25.617  46.272  1.00  0.00     0.293 HD
ENDBRANCH   6  22
BRANCH   8  24
ATOM     24  O   UNL     1      24.801  22.373  48.889  1.00  0.00    -0.508 OA
ATOM     25  H   UNL     1      24.325  21.620  48.404  1.00  0.00     0.293 HD
ENDBRANCH   8  24
TORSDOF 5
ENDMDL
