MODEL 1
REMARK VINA RESULT:    -2.394      0.000      0.000
REMARK INTER + INTRA:          -2.394
REMARK INTER:                  -2.394
REMARK INTRA:                   0.000
REMARK UNBOUND:                 0.000
REMARK SMILES CC(=O)[O-]
REMARK SMILES IDX 1 1 2 2 3 3 4 4
REMARK H PARENT
REMARK Flexibility Score: inf
ROOT
ATOM      1  C   UNL     1      19.052  15.976  18.879  1.00  0.00     0.063 C 
ATOM      2  C   UNL     1      20.138  15.622  19.837  1.00  0.00     0.038 C 
ATOM      3  O   UNL     1      20.950  14.700  19.559  1.00  0.00    -0.550 OA
ATOM      4  O   UNL     1      20.225  16.269  21.062  1.00  0.00    -0.550 OA
ENDROOT
TORSDOF 0
ENDMDL
MODEL 2
REMARK VINA RESULT:    -2.279      1.403      1.735
REMARK INTER + INTRA:          -2.279
REMARK INTER:                  -2.279
REMARK INTRA:                   0.000
REMARK UNBOUND:                 0.000
REMARK SMILES CC(=O)[O-]
REMARK SMILES IDX 1 1 2 2 3 3 4 4
REMARK H PARENT
REMARK Flexibility Score: inf
ROOT
ATOM      1  C   UNL     1      20.993  14.922  19.623  1.00  0.00     0.063 C 
ATOM      2  C   UNL     1      19.785  15.790  19.713  1.00  0.00     0.038 C 
ATOM      3  O   UNL     1      18.963  15.832  18.760  1.00  0.00    -0.550 OA
ATOM      4  O   UNL     1      19.588  16.597  20.826  1.00  0.00    -0.550 OA
ENDROOT
TORSDOF 0
ENDMDL
MODEL 3
REMARK VINA RESULT:    -2.268     12.940     13.455
REMARK INTER + INTRA:          -2.268
REMARK INTER:                  -2.268
REMARK INTRA:                   0.000
REMARK UNBOUND:                 0.000
REMARK SMILES CC(=O)[O-]
REMARK SMILES IDX 1 1 2 2 3 3 4 4
REMARK H PARENT
REMARK Flexibility Score: inf
ROOT
ATOM      1  C   UNL     1      12.631  11.379   9.486  1.00  0.00     0.063 C 
ATOM      2  C   UNL     1      12.299  10.297  10.457  1.00  0.00     0.038 C 
ATOM      3  O   UNL     1      12.127  10.571  11.674  1.00  0.00    -0.550 OA
ATOM      4  O   UNL     1      12.233   8.977  10.033  1.00  0.00    -0.550 OA
ENDROOT
TORSDOF 0
ENDMDL
MODEL 4
REMARK VINA RESULT:    -2.261     12.961     13.344
REMARK INTER + INTRA:          -2.261
REMARK INTER:                  -2.261
REMARK INTRA:                   0.000
REMARK UNBOUND:                 0.000
REMARK SMILES CC(=O)[O-]
REMARK SMILES IDX 1 1 2 2 3 3 4 4
REMARK H PARENT
REMARK Flexibility Score: inf
ROOT
ATOM      1  C   UNL     1      12.687  11.410   9.491  1.00  0.00     0.063 C 
ATOM      2  C   UNL     1      12.346  10.289  10.412  1.00  0.00     0.038 C 
ATOM      3  O   UNL     1      12.301   9.107   9.980  1.00  0.00    -0.550 OA
ATOM      4  O   UNL     1      12.024  10.550  11.738  1.00  0.00    -0.550 OA
ENDROOT
TORSDOF 0
ENDMDL
MODEL 5
REMARK VINA RESULT:    -2.225     12.633     13.181
REMARK INTER + INTRA:          -2.225
REMARK INTER:                  -2.225
REMARK INTRA:                   0.000
REMARK UNBOUND:                 0.000
REMARK SMILES CC(=O)[O-]
REMARK SMILES IDX 1 1 2 2 3 3 4 4
REMARK H PARENT
REMARK Flexibility Score: inf
ROOT
ATOM      1  C   UNL     1      12.117   9.594  10.254  1.00  0.00     0.063 C 
ATOM      2  C   UNL     1      12.467  11.042  10.208  1.00  0.00     0.038 C 
ATOM      3  O   UNL     1      12.679  11.606   9.102  1.00  0.00    -0.550 OA
ATOM      4  O   UNL     1      12.615  11.761  11.387  1.00  0.00    -0.550 OA
ENDROOT
TORSDOF 0
ENDMDL
MODEL 6
REMARK VINA RESULT:    -2.218     12.653     13.269
REMARK INTER + INTRA:          -2.218
REMARK INTER:                  -2.218
REMARK INTRA:                   0.000
REMARK UNBOUND:                 0.000
REMARK SMILES CC(=O)[O-]
REMARK SMILES IDX 1 1 2 2 3 3 4 4
REMARK H PARENT
REMARK Flexibility Score: inf
ROOT
ATOM      1  C   UNL     1      12.063   9.450  10.280  1.00  0.00     0.063 C 
ATOM      2  C   UNL     1      12.477  10.882  10.326  1.00  0.00     0.038 C 
ATOM      3  O   UNL     1      12.482  11.504  11.420  1.00  0.00    -0.550 OA
ATOM      4  O   UNL     1      12.808  11.549   9.154  1.00  0.00    -0.550 OA
ENDROOT
TORSDOF 0
ENDMDL
MODEL 7
REMARK VINA RESULT:    -2.214      1.805      2.153
REMARK INTER + INTRA:          -2.214
REMARK INTER:                  -2.214
REMARK INTRA:                   0.000
REMARK UNBOUND:                 0.000
REMARK SMILES CC(=O)[O-]
REMARK SMILES IDX 1 1 2 2 3 3 4 4
REMARK H PARENT
REMARK Flexibility Score: inf
ROOT
ATOM      1  C   UNL     1      20.955  14.907  19.591  1.00  0.00     0.063 C 
ATOM      2  C   UNL     1      21.055  15.626  20.893  1.00  0.00     0.038 C 
ATOM      3  O   UNL     1      20.143  16.419  21.249  1.00  0.00    -0.550 OA
ATOM      4  O   UNL     1      22.178  15.465  21.694  1.00  0.00    -0.550 OA
ENDROOT
TORSDOF 0
ENDMDL
MODEL 8
REMARK VINA RESULT:    -2.173     13.256     13.464
REMARK INTER + INTRA:          -2.173
REMARK INTER:                  -2.173
REMARK INTRA:                   0.000
REMARK UNBOUND:                 0.000
REMARK SMILES CC(=O)[O-]
REMARK SMILES IDX 1 1 2 2 3 3 4 4
REMARK H PARENT
REMARK Flexibility Score: inf
ROOT
ATOM      1  C   UNL     1      12.480  10.585   9.948  1.00  0.00     0.063 C 
ATOM      2  C   UNL     1      12.482  11.982   9.429  1.00  0.00     0.038 C 
ATOM      3  O   UNL     1      13.095  12.261   8.365  1.00  0.00    -0.550 OA
ATOM      4  O   UNL     1      11.853  12.992  10.145  1.00  0.00    -0.550 OA
ENDROOT
TORSDOF 0
ENDMDL
MODEL 9
REMARK VINA RESULT:    -2.146      1.756      2.130
REMARK INTER + INTRA:          -2.146
REMARK INTER:                  -2.146
REMARK INTRA:                   0.000
REMARK UNBOUND:                 0.000
REMARK SMILES CC(=O)[O-]
REMARK SMILES IDX 1 1 2 2 3 3 4 4
REMARK H PARENT
REMARK Flexibility Score: inf
ROOT
ATOM      1  C   UNL     1      20.158  16.502  20.960  1.00  0.00     0.063 C 
ATOM      2  C   UNL     1      21.123  15.408  20.653  1.00  0.00     0.038 C 
ATOM      3  O   UNL     1      22.121  15.218  21.398  1.00  0.00    -0.550 OA
ATOM      4  O   UNL     1      20.956  14.631  19.515  1.00  0.00    -0.550 OA
ENDROOT
TORSDOF 0
ENDMDL
