MODEL 1
REMARK VINA RESULT:    -6.955      0.000      0.000
REMARK INTER + INTRA:         -12.148
REMARK INTER:                 -10.208
REMARK INTRA:                  -1.940
REMARK UNBOUND:                -1.940
REMARK SMILES O=c1c(O[C@@H]2O[C@H](CO)[C@@H](O)[C@H](O)[C@@H]2O)c(-c2ccc(O)c(O)c2)oc2cc(O)cc(O)c12
REMARK SMILES IDX 4 1 3 2 16 3 25 4 2 5 26 6 1 7 33 8 27 9 31 10 28 11 30 12
REMARK SMILES IDX 17 13 18 14 19 15 20 16 24 17 22 18 21 19 23 21 32 23 29 25
REMARK SMILES IDX 5 27 14 28 6 29 12 30 7 31 10 32 15 33 13 35 8 37 9 38 11 40
REMARK H PARENT 21 20 23 22 32 24 29 26 15 34 13 36 9 39 11 41
REMARK Flexibility Score: inf
ROOT
ATOM      1  O   UNL     1      14.463 -35.861  -2.224  1.00  0.00    -0.454 OA
ENDROOT
BRANCH   1   2
ATOM      2  C   UNL     1      13.904 -36.805  -3.113  1.00  0.00     0.214 A 
ATOM      3  C   UNL     1      14.719 -37.871  -3.545  1.00  0.00     0.180 A 
ATOM      4  O   UNL     1      14.227 -38.815  -4.339  1.00  0.00    -0.452 OA
ATOM      5  C   UNL     1      12.568 -36.759  -3.574  1.00  0.00     0.239 A 
ATOM      6  C   UNL     1      12.980 -38.810  -4.789  1.00  0.00     0.146 A 
ATOM      7  O   UNL     1      11.806 -35.817  -3.230  1.00  0.00    -0.285 OA
ATOM      8  C   UNL     1      12.089 -37.775  -4.430  1.00  0.00     0.111 A 
ATOM      9  C   UNL     1      12.558 -39.846  -5.629  1.00  0.00     0.094 A 
ATOM     10  C   UNL     1      10.764 -37.801  -4.935  1.00  0.00     0.134 A 
ATOM     11  C   UNL     1      11.251 -39.866  -6.124  1.00  0.00     0.123 A 
ATOM     12  C   UNL     1      10.362 -38.848  -5.777  1.00  0.00     0.093 A 
BRANCH   3  13
ATOM     13  C   UNL     1      16.125 -37.996  -3.112  1.00  0.00     0.025 A 
ATOM     14  C   UNL     1      17.129 -37.313  -3.810  1.00  0.00     0.016 A 
ATOM     15  C   UNL     1      18.462 -37.416  -3.405  1.00  0.00     0.051 A 
ATOM     16  C   UNL     1      18.813 -38.189  -2.293  1.00  0.00     0.157 A 
ATOM     17  C   UNL     1      16.467 -38.748  -1.979  1.00  0.00     0.062 A 
ATOM     18  C   UNL     1      17.800 -38.861  -1.566  1.00  0.00     0.158 A 
BRANCH  16  19
ATOM     19  O   UNL     1      20.164 -38.259  -1.946  1.00  0.00    -0.504 OA
ATOM     20  H   UNL     1      20.519 -38.794  -1.167  1.00  0.00     0.293 HD
ENDBRANCH  16  19
BRANCH  18  21
ATOM     21  O   UNL     1      18.070 -39.637  -0.437  1.00  0.00    -0.504 OA
ATOM     22  H   UNL     1      17.925 -40.635  -0.392  1.00  0.00     0.293 HD
ENDBRANCH  18  21
ENDBRANCH   3  13
BRANCH  10  23
ATOM     23  O   UNL     1       9.849 -36.800  -4.607  1.00  0.00    -0.507 OA
ATOM     24  H   UNL     1       9.782 -35.942  -5.144  1.00  0.00     0.293 HD
ENDBRANCH  10  23
BRANCH  11  25
ATOM     25  O   UNL     1      10.826 -40.895  -6.962  1.00  0.00    -0.508 OA
ATOM     26  H   UNL     1      10.778 -40.773  -7.967  1.00  0.00     0.293 HD
ENDBRANCH  11  25
ENDBRANCH   1   2
BRANCH   1  27
ATOM     27  C   UNL     1      14.382 -35.862  -0.795  1.00  0.00     0.339 C 
ATOM     28  C   UNL     1      15.755 -35.505  -0.164  1.00  0.00     0.214 C 
ATOM     29  O   UNL     1      13.297 -35.053  -0.345  1.00  0.00    -0.332 OA
ATOM     30  C   UNL     1      15.536 -34.666   1.103  1.00  0.00     0.180 C 
ATOM     31  C   UNL     1      13.595 -33.668  -0.228  1.00  0.00     0.179 C 
ATOM     32  C   UNL     1      14.763 -33.377   0.762  1.00  0.00     0.177 C 
BRANCH  28  33
ATOM     33  O   UNL     1      16.552 -34.804  -1.088  1.00  0.00    -0.384 OA
ATOM     34  H   UNL     1      17.500 -34.976  -0.849  1.00  0.00     0.211 HD
ENDBRANCH  28  33
BRANCH  30  35
ATOM     35  O   UNL     1      16.752 -34.386   1.753  1.00  0.00    -0.387 OA
ATOM     36  H   UNL     1      16.705 -34.760   2.670  1.00  0.00     0.211 HD
ENDBRANCH  30  35
BRANCH  31  37
ATOM     37  C   UNL     1      13.783 -33.001  -1.606  1.00  0.00     0.191 C 
BRANCH  37  38
ATOM     38  O   UNL     1      12.706 -33.304  -2.452  1.00  0.00    -0.394 OA
ATOM     39  H   UNL     1      12.330 -34.168  -2.138  1.00  0.00     0.210 HD
ENDBRANCH  37  38
ENDBRANCH  31  37
BRANCH  32  40
ATOM     40  O   UNL     1      14.249 -32.818   1.944  1.00  0.00    -0.387 OA
ATOM     41  H   UNL     1      14.472 -31.850   1.929  1.00  0.00     0.211 HD
ENDBRANCH  32  40
ENDBRANCH   1  27
TORSDOF 12
ENDMDL
MODEL 2
REMARK VINA RESULT:    -6.465      1.224      2.249
REMARK INTER + INTRA:         -11.428
REMARK INTER:                  -9.679
REMARK INTRA:                  -1.749
REMARK UNBOUND:                -1.940
REMARK SMILES O=c1c(O[C@@H]2O[C@H](CO)[C@@H](O)[C@H](O)[C@@H]2O)c(-c2ccc(O)c(O)c2)oc2cc(O)cc(O)c12
REMARK SMILES IDX 4 1 3 2 16 3 25 4 2 5 26 6 1 7 33 8 27 9 31 10 28 11 30 12
REMARK SMILES IDX 17 13 18 14 19 15 20 16 24 17 22 18 21 19 23 21 32 23 29 25
REMARK SMILES IDX 5 27 14 28 6 29 12 30 7 31 10 32 15 33 13 35 8 37 9 38 11 40
REMARK H PARENT 21 20 23 22 32 24 29 26 15 34 13 36 9 39 11 41
REMARK Flexibility Score: inf
ROOT
ATOM      1  O   UNL     1      14.322 -36.661  -0.835  1.00  0.00    -0.454 OA
ENDROOT
BRANCH   1   2
ATOM      2  C   UNL     1      13.698 -37.126  -2.012  1.00  0.00     0.214 A 
ATOM      3  C   UNL     1      14.503 -37.749  -2.988  1.00  0.00     0.180 A 
ATOM      4  O   UNL     1      13.960 -38.251  -4.090  1.00  0.00    -0.452 OA
ATOM      5  C   UNL     1      12.309 -37.028  -2.260  1.00  0.00     0.239 A 
ATOM      6  C   UNL     1      12.663 -38.184  -4.356  1.00  0.00     0.146 A 
ATOM      7  O   UNL     1      11.551 -36.465  -1.428  1.00  0.00    -0.285 OA
ATOM      8  C   UNL     1      11.773 -37.562  -3.452  1.00  0.00     0.111 A 
ATOM      9  C   UNL     1      12.187 -38.736  -5.550  1.00  0.00     0.094 A 
ATOM     10  C   UNL     1      10.393 -37.505  -3.775  1.00  0.00     0.134 A 
ATOM     11  C   UNL     1      10.825 -38.676  -5.863  1.00  0.00     0.123 A 
ATOM     12  C   UNL     1       9.936 -38.062  -4.978  1.00  0.00     0.093 A 
BRANCH   3  13
ATOM     13  C   UNL     1      15.962 -37.894  -2.809  1.00  0.00     0.025 A 
ATOM     14  C   UNL     1      16.836 -37.178  -3.637  1.00  0.00     0.016 A 
ATOM     15  C   UNL     1      18.219 -37.300  -3.473  1.00  0.00     0.051 A 
ATOM     16  C   UNL     1      18.750 -38.125  -2.474  1.00  0.00     0.157 A 
ATOM     17  C   UNL     1      16.488 -38.699  -1.788  1.00  0.00     0.062 A 
ATOM     18  C   UNL     1      17.871 -38.831  -1.617  1.00  0.00     0.158 A 
BRANCH  16  19
ATOM     19  O   UNL     1      20.139 -38.211  -2.369  1.00  0.00    -0.504 OA
ATOM     20  H   UNL     1      20.722 -38.735  -3.005  1.00  0.00     0.293 HD
ENDBRANCH  16  19
BRANCH  18  21
ATOM     21  O   UNL     1      18.325 -39.660  -0.589  1.00  0.00    -0.504 OA
ATOM     22  H   UNL     1      19.299 -39.791  -0.359  1.00  0.00     0.293 HD
ENDBRANCH  18  21
ENDBRANCH   3  13
BRANCH  10  23
ATOM     23  O   UNL     1       9.477 -36.900  -2.913  1.00  0.00    -0.507 OA
ATOM     24  H   UNL     1       8.890 -37.445  -2.290  1.00  0.00     0.293 HD
ENDBRANCH  10  23
BRANCH  11  25
ATOM     25  O   UNL     1      10.345 -39.223  -7.051  1.00  0.00    -0.508 OA
ATOM     26  H   UNL     1       9.374 -39.495  -7.154  1.00  0.00     0.293 HD
ENDBRANCH  11  25
ENDBRANCH   1   2
BRANCH   1  27
ATOM     27  C   UNL     1      14.885 -35.364  -0.607  1.00  0.00     0.339 C 
ATOM     28  C   UNL     1      13.902 -34.468   0.194  1.00  0.00     0.214 C 
ATOM     29  O   UNL     1      16.188 -35.468  -0.036  1.00  0.00    -0.332 OA
ATOM     30  C   UNL     1      14.692 -33.572   1.158  1.00  0.00     0.180 C 
ATOM     31  C   UNL     1      16.210 -35.617   1.378  1.00  0.00     0.179 C 
ATOM     32  C   UNL     1      15.526 -34.434   2.126  1.00  0.00     0.177 C 
BRANCH  28  33
ATOM     33  O   UNL     1      12.981 -35.263   0.903  1.00  0.00    -0.384 OA
ATOM     34  H   UNL     1      13.243 -36.211   0.766  1.00  0.00     0.211 HD
ENDBRANCH  28  33
BRANCH  30  35
ATOM     35  O   UNL     1      13.845 -32.685   1.849  1.00  0.00    -0.387 OA
ATOM     36  H   UNL     1      12.912 -33.002   1.742  1.00  0.00     0.211 HD
ENDBRANCH  30  35
BRANCH  31  37
ATOM     37  C   UNL     1      15.688 -37.000   1.819  1.00  0.00     0.191 C 
BRANCH  37  38
ATOM     38  O   UNL     1      14.645 -36.861   2.746  1.00  0.00    -0.394 OA
ATOM     39  H   UNL     1      13.847 -36.562   2.237  1.00  0.00     0.210 HD
ENDBRANCH  37  38
ENDBRANCH  31  37
BRANCH  32  40
ATOM     40  O   UNL     1      16.507 -33.631   2.733  1.00  0.00    -0.387 OA
ATOM     41  H   UNL     1      16.566 -32.793   2.204  1.00  0.00     0.211 HD
ENDBRANCH  32  40
ENDBRANCH   1  27
TORSDOF 12
ENDMDL
MODEL 3
REMARK VINA RESULT:    -6.233      1.673      4.819
REMARK INTER + INTRA:         -11.088
REMARK INTER:                  -9.815
REMARK INTRA:                  -1.273
REMARK UNBOUND:                -1.940
REMARK SMILES O=c1c(O[C@@H]2O[C@H](CO)[C@@H](O)[C@H](O)[C@@H]2O)c(-c2ccc(O)c(O)c2)oc2cc(O)cc(O)c12
REMARK SMILES IDX 4 1 3 2 16 3 25 4 2 5 26 6 1 7 33 8 27 9 31 10 28 11 30 12
REMARK SMILES IDX 17 13 18 14 19 15 20 16 24 17 22 18 21 19 23 21 32 23 29 25
REMARK SMILES IDX 5 27 14 28 6 29 12 30 7 31 10 32 15 33 13 35 8 37 9 38 11 40
REMARK H PARENT 21 20 23 22 32 24 29 26 15 34 13 36 9 39 11 41
REMARK Flexibility Score: inf
ROOT
ATOM      1  O   UNL     1      15.004 -37.738  -2.479  1.00  0.00    -0.454 OA
ENDROOT
BRANCH   1   2
ATOM      2  C   UNL     1      13.840 -37.997  -3.235  1.00  0.00     0.214 A 
ATOM      3  C   UNL     1      12.838 -37.005  -3.270  1.00  0.00     0.180 A 
ATOM      4  O   UNL     1      11.747 -37.176  -4.007  1.00  0.00    -0.452 OA
ATOM      5  C   UNL     1      13.629 -39.181  -3.978  1.00  0.00     0.239 A 
ATOM      6  C   UNL     1      11.516 -38.268  -4.722  1.00  0.00     0.146 A 
ATOM      7  O   UNL     1      14.486 -40.104  -3.965  1.00  0.00    -0.285 OA
ATOM      8  C   UNL     1      12.448 -39.329  -4.737  1.00  0.00     0.111 A 
ATOM      9  C   UNL     1      10.331 -38.357  -5.460  1.00  0.00     0.094 A 
ATOM     10  C   UNL     1      12.163 -40.484  -5.509  1.00  0.00     0.134 A 
ATOM     11  C   UNL     1      10.055 -39.498  -6.219  1.00  0.00     0.123 A 
ATOM     12  C   UNL     1      10.968 -40.554  -6.240  1.00  0.00     0.093 A 
BRANCH   3  13
ATOM     13  C   UNL     1      12.977 -35.739  -2.524  1.00  0.00     0.025 A 
ATOM     14  C   UNL     1      13.497 -34.608  -3.167  1.00  0.00     0.016 A 
ATOM     15  C   UNL     1      13.627 -33.402  -2.474  1.00  0.00     0.051 A 
ATOM     16  C   UNL     1      13.227 -33.300  -1.136  1.00  0.00     0.157 A 
ATOM     17  C   UNL     1      12.548 -35.634  -1.193  1.00  0.00     0.062 A 
ATOM     18  C   UNL     1      12.675 -34.431  -0.488  1.00  0.00     0.158 A 
BRANCH  16  19
ATOM     19  O   UNL     1      13.391 -32.069  -0.498  1.00  0.00    -0.504 OA
ATOM     20  H   UNL     1      12.687 -31.636   0.082  1.00  0.00     0.293 HD
ENDBRANCH  16  19
BRANCH  18  21
ATOM     21  O   UNL     1      12.240 -34.403   0.838  1.00  0.00    -0.504 OA
ATOM     22  H   UNL     1      12.169 -35.221   1.425  1.00  0.00     0.293 HD
ENDBRANCH  18  21
ENDBRANCH   3  13
BRANCH  10  23
ATOM     23  O   UNL     1      13.054 -41.557  -5.555  1.00  0.00    -0.507 OA
ATOM     24  H   UNL     1      13.261 -42.043  -6.421  1.00  0.00     0.293 HD
ENDBRANCH  10  23
BRANCH  11  25
ATOM     25  O   UNL     1       8.876 -39.593  -6.955  1.00  0.00    -0.508 OA
ATOM     26  H   UNL     1       7.974 -39.393  -6.538  1.00  0.00     0.293 HD
ENDBRANCH  11  25
ENDBRANCH   1   2
BRANCH   1  27
ATOM     27  C   UNL     1      15.751 -38.671  -1.692  1.00  0.00     0.339 C 
ATOM     28  C   UNL     1      17.146 -38.933  -2.320  1.00  0.00     0.214 C 
ATOM     29  O   UNL     1      15.785 -38.271  -0.323  1.00  0.00    -0.332 OA
ATOM     30  C   UNL     1      18.186 -39.117  -1.206  1.00  0.00     0.180 C 
ATOM     31  C   UNL     1      16.806 -37.334  -0.002  1.00  0.00     0.179 C 
ATOM     32  C   UNL     1      18.238 -37.863  -0.312  1.00  0.00     0.177 C 
BRANCH  28  33
ATOM     33  O   UNL     1      17.511 -37.866  -3.163  1.00  0.00    -0.384 OA
ATOM     34  H   UNL     1      17.464 -38.199  -4.098  1.00  0.00     0.211 HD
ENDBRANCH  28  33
BRANCH  30  35
ATOM     35  O   UNL     1      19.453 -39.436  -1.730  1.00  0.00    -0.387 OA
ATOM     36  H   UNL     1      19.326 -39.807  -2.641  1.00  0.00     0.211 HD
ENDBRANCH  30  35
BRANCH  31  37
ATOM     37  C   UNL     1      16.524 -35.944  -0.610  1.00  0.00     0.191 C 
BRANCH  37  38
ATOM     38  O   UNL     1      17.624 -35.502  -1.360  1.00  0.00    -0.394 OA
ATOM     39  H   UNL     1      18.364 -35.346  -0.718  1.00  0.00     0.210 HD
ENDBRANCH  37  38
ENDBRANCH  31  37
BRANCH  32  40
ATOM     40  O   UNL     1      18.894 -38.178   0.891  1.00  0.00    -0.387 OA
ATOM     41  H   UNL     1      18.494 -39.023   1.228  1.00  0.00     0.211 HD
ENDBRANCH  32  40
ENDBRANCH   1  27
TORSDOF 12
ENDMDL
MODEL 4
REMARK VINA RESULT:    -6.179      2.020      6.671
REMARK INTER + INTRA:         -11.008
REMARK INTER:                  -9.860
REMARK INTRA:                  -1.149
REMARK UNBOUND:                -1.940
REMARK SMILES O=c1c(O[C@@H]2O[C@H](CO)[C@@H](O)[C@H](O)[C@@H]2O)c(-c2ccc(O)c(O)c2)oc2cc(O)cc(O)c12
REMARK SMILES IDX 4 1 3 2 16 3 25 4 2 5 26 6 1 7 33 8 27 9 31 10 28 11 30 12
REMARK SMILES IDX 17 13 18 14 19 15 20 16 24 17 22 18 21 19 23 21 32 23 29 25
REMARK SMILES IDX 5 27 14 28 6 29 12 30 7 31 10 32 15 33 13 35 8 37 9 38 11 40
REMARK H PARENT 21 20 23 22 32 24 29 26 15 34 13 36 9 39 11 41
REMARK Flexibility Score: inf
ROOT
ATOM      1  O   UNL     1      13.453 -37.338  -1.918  1.00  0.00    -0.454 OA
ENDROOT
BRANCH   1   2
ATOM      2  C   UNL     1      13.508 -36.203  -1.081  1.00  0.00     0.214 A 
ATOM      3  C   UNL     1      14.737 -35.520  -0.970  1.00  0.00     0.180 A 
ATOM      4  O   UNL     1      14.831 -34.417  -0.238  1.00  0.00    -0.452 OA
ATOM      5  C   UNL     1      12.399 -35.695  -0.366  1.00  0.00     0.239 A 
ATOM      6  C   UNL     1      13.813 -33.906   0.442  1.00  0.00     0.146 A 
ATOM      7  O   UNL     1      11.285 -36.279  -0.419  1.00  0.00    -0.285 OA
ATOM      8  C   UNL     1      12.544 -34.527   0.413  1.00  0.00     0.111 A 
ATOM      9  C   UNL     1      14.014 -32.743   1.192  1.00  0.00     0.094 A 
ATOM     10  C   UNL     1      11.482 -33.954   1.157  1.00  0.00     0.134 A 
ATOM     11  C   UNL     1      12.963 -32.184   1.923  1.00  0.00     0.123 A 
ATOM     12  C   UNL     1      11.705 -32.789   1.904  1.00  0.00     0.093 A 
BRANCH   3  13
ATOM     13  C   UNL     1      15.946 -35.982  -1.682  1.00  0.00     0.025 A 
ATOM     14  C   UNL     1      16.359 -37.314  -1.555  1.00  0.00     0.016 A 
ATOM     15  C   UNL     1      17.496 -37.766  -2.229  1.00  0.00     0.051 A 
ATOM     16  C   UNL     1      18.230 -36.902  -3.050  1.00  0.00     0.157 A 
ATOM     17  C   UNL     1      16.660 -35.119  -2.526  1.00  0.00     0.062 A 
ATOM     18  C   UNL     1      17.803 -35.561  -3.204  1.00  0.00     0.158 A 
BRANCH  16  19
ATOM     19  O   UNL     1      19.361 -37.412  -3.688  1.00  0.00    -0.504 OA
ATOM     20  H   UNL     1      19.403 -38.324  -4.119  1.00  0.00     0.293 HD
ENDBRANCH  16  19
BRANCH  18  21
ATOM     21  O   UNL     1      18.473 -34.644  -4.017  1.00  0.00    -0.504 OA
ATOM     22  H   UNL     1      18.829 -34.861  -4.936  1.00  0.00     0.293 HD
ENDBRANCH  18  21
ENDBRANCH   3  13
BRANCH  10  23
ATOM     23  O   UNL     1      10.211 -34.533   1.159  1.00  0.00    -0.507 OA
ATOM     24  H   UNL     1       9.994 -35.345   0.591  1.00  0.00     0.293 HD
ENDBRANCH  10  23
BRANCH  11  25
ATOM     25  O   UNL     1      13.157 -31.026   2.674  1.00  0.00    -0.508 OA
ATOM     26  H   UNL     1      14.011 -30.484   2.600  1.00  0.00     0.293 HD
ENDBRANCH  11  25
ENDBRANCH   1   2
BRANCH   1  27
ATOM     27  C   UNL     1      12.487 -37.617  -2.937  1.00  0.00     0.339 C 
ATOM     28  C   UNL     1      13.129 -37.523  -4.347  1.00  0.00     0.214 C 
ATOM     29  O   UNL     1      11.811 -38.846  -2.676  1.00  0.00    -0.332 OA
ATOM     30  C   UNL     1      12.514 -38.590  -5.265  1.00  0.00     0.180 C 
ATOM     31  C   UNL     1      12.488 -40.008  -3.138  1.00  0.00     0.179 C 
ATOM     32  C   UNL     1      12.741 -39.996  -4.676  1.00  0.00     0.177 C 
BRANCH  28  33
ATOM     33  O   UNL     1      14.524 -37.692  -4.263  1.00  0.00    -0.384 OA
ATOM     34  H   UNL     1      14.813 -37.325  -3.386  1.00  0.00     0.211 HD
ENDBRANCH  28  33
BRANCH  30  35
ATOM     35  O   UNL     1      13.010 -38.489  -6.578  1.00  0.00    -0.387 OA
ATOM     36  H   UNL     1      13.569 -39.288  -6.759  1.00  0.00     0.211 HD
ENDBRANCH  30  35
BRANCH  31  37
ATOM     37  C   UNL     1      13.760 -40.300  -2.314  1.00  0.00     0.191 C 
BRANCH  37  38
ATOM     38  O   UNL     1      14.885 -40.368  -3.150  1.00  0.00    -0.394 OA
ATOM     39  H   UNL     1      15.323 -41.240  -2.969  1.00  0.00     0.210 HD
ENDBRANCH  37  38
ENDBRANCH  31  37
BRANCH  32  40
ATOM     40  O   UNL     1      11.873 -40.906  -5.302  1.00  0.00    -0.387 OA
ATOM     41  H   UNL     1      12.391 -41.356  -6.020  1.00  0.00     0.211 HD
ENDBRANCH  32  40
ENDBRANCH   1  27
TORSDOF 12
ENDMDL
MODEL 5
REMARK VINA RESULT:    -6.128      1.940      6.462
REMARK INTER + INTRA:         -10.934
REMARK INTER:                  -9.678
REMARK INTRA:                  -1.256
REMARK UNBOUND:                -1.940
REMARK SMILES O=c1c(O[C@@H]2O[C@H](CO)[C@@H](O)[C@H](O)[C@@H]2O)c(-c2ccc(O)c(O)c2)oc2cc(O)cc(O)c12
REMARK SMILES IDX 4 1 3 2 16 3 25 4 2 5 26 6 1 7 33 8 27 9 31 10 28 11 30 12
REMARK SMILES IDX 17 13 18 14 19 15 20 16 24 17 22 18 21 19 23 21 32 23 29 25
REMARK SMILES IDX 5 27 14 28 6 29 12 30 7 31 10 32 15 33 13 35 8 37 9 38 11 40
REMARK H PARENT 21 20 23 22 32 24 29 26 15 34 13 36 9 39 11 41
REMARK Flexibility Score: inf
ROOT
ATOM      1  O   UNL     1      15.504 -36.273  -1.495  1.00  0.00    -0.454 OA
ENDROOT
BRANCH   1   2
ATOM      2  C   UNL     1      14.343 -35.698  -0.936  1.00  0.00     0.214 A 
ATOM      3  C   UNL     1      13.095 -36.055  -1.485  1.00  0.00     0.180 A 
ATOM      4  O   UNL     1      11.969 -35.583  -0.963  1.00  0.00    -0.452 OA
ATOM      5  C   UNL     1      14.356 -34.803   0.159  1.00  0.00     0.239 A 
ATOM      6  C   UNL     1      11.939 -34.748   0.066  1.00  0.00     0.146 A 
ATOM      7  O   UNL     1      15.446 -34.439   0.674  1.00  0.00    -0.285 OA
ATOM      8  C   UNL     1      13.137 -34.312   0.676  1.00  0.00     0.111 A 
ATOM      9  C   UNL     1      10.701 -34.300   0.539  1.00  0.00     0.094 A 
ATOM     10  C   UNL     1      13.064 -33.414   1.770  1.00  0.00     0.134 A 
ATOM     11  C   UNL     1      10.637 -33.413   1.619  1.00  0.00     0.123 A 
ATOM     12  C   UNL     1      11.814 -32.975   2.228  1.00  0.00     0.093 A 
BRANCH   3  13
ATOM     13  C   UNL     1      12.990 -36.984  -2.628  1.00  0.00     0.025 A 
ATOM     14  C   UNL     1      13.281 -36.527  -3.921  1.00  0.00     0.016 A 
ATOM     15  C   UNL     1      13.193 -37.397  -5.010  1.00  0.00     0.051 A 
ATOM     16  C   UNL     1      12.829 -38.736  -4.828  1.00  0.00     0.157 A 
ATOM     17  C   UNL     1      12.654 -38.331  -2.437  1.00  0.00     0.062 A 
ATOM     18  C   UNL     1      12.561 -39.211  -3.522  1.00  0.00     0.158 A 
BRANCH  16  19
ATOM     19  O   UNL     1      12.751 -39.551  -5.959  1.00  0.00    -0.504 OA
ATOM     20  H   UNL     1      13.487 -40.175  -6.257  1.00  0.00     0.293 HD
ENDBRANCH  16  19
BRANCH  18  21
ATOM     21  O   UNL     1      12.207 -40.536  -3.258  1.00  0.00    -0.504 OA
ATOM     22  H   UNL     1      11.291 -40.920  -3.434  1.00  0.00     0.293 HD
ENDBRANCH  18  21
ENDBRANCH   3  13
BRANCH  10  23
ATOM     23  O   UNL     1      14.221 -32.956   2.403  1.00  0.00    -0.507 OA
ATOM     24  H   UNL     1      15.138 -33.070   1.986  1.00  0.00     0.293 HD
ENDBRANCH  10  23
BRANCH  11  25
ATOM     25  O   UNL     1       9.407 -32.962   2.093  1.00  0.00    -0.508 OA
ATOM     26  H   UNL     1       9.186 -32.970   3.083  1.00  0.00     0.293 HD
ENDBRANCH  11  25
ENDBRANCH   1   2
BRANCH   1  27
ATOM     27  C   UNL     1      16.743 -36.544  -0.831  1.00  0.00     0.339 C 
ATOM     28  C   UNL     1      16.756 -37.984  -0.251  1.00  0.00     0.214 C 
ATOM     29  O   UNL     1      17.852 -36.238  -1.675  1.00  0.00    -0.332 OA
ATOM     30  C   UNL     1      18.167 -38.577  -0.375  1.00  0.00     0.180 C 
ATOM     31  C   UNL     1      18.221 -37.276  -2.575  1.00  0.00     0.179 C 
ATOM     32  C   UNL     1      18.608 -38.601  -1.851  1.00  0.00     0.177 C 
BRANCH  28  33
ATOM     33  O   UNL     1      15.821 -38.793  -0.926  1.00  0.00    -0.384 OA
ATOM     34  H   UNL     1      16.325 -39.539  -1.345  1.00  0.00     0.211 HD
ENDBRANCH  28  33
BRANCH  30  35
ATOM     35  O   UNL     1      18.243 -39.854   0.212  1.00  0.00    -0.387 OA
ATOM     36  H   UNL     1      18.842 -40.414  -0.345  1.00  0.00     0.211 HD
ENDBRANCH  30  35
BRANCH  31  37
ATOM     37  C   UNL     1      17.170 -37.474  -3.687  1.00  0.00     0.191 C 
BRANCH  37  38
ATOM     38  O   UNL     1      16.511 -38.703  -3.531  1.00  0.00    -0.394 OA
ATOM     39  H   UNL     1      16.937 -39.338  -4.164  1.00  0.00     0.210 HD
ENDBRANCH  37  38
ENDBRANCH  31  37
BRANCH  32  40
ATOM     40  O   UNL     1      20.000 -38.782  -1.916  1.00  0.00    -0.387 OA
ATOM     41  H   UNL     1      20.160 -39.630  -2.408  1.00  0.00     0.211 HD
ENDBRANCH  32  40
ENDBRANCH   1  27
TORSDOF 12
ENDMDL
MODEL 6
REMARK VINA RESULT:    -6.127      2.101      7.843
REMARK INTER + INTRA:         -10.932
REMARK INTER:                  -9.129
REMARK INTRA:                  -1.803
REMARK UNBOUND:                -1.940
REMARK SMILES O=c1c(O[C@@H]2O[C@H](CO)[C@@H](O)[C@H](O)[C@@H]2O)c(-c2ccc(O)c(O)c2)oc2cc(O)cc(O)c12
REMARK SMILES IDX 4 1 3 2 16 3 25 4 2 5 26 6 1 7 33 8 27 9 31 10 28 11 30 12
REMARK SMILES IDX 17 13 18 14 19 15 20 16 24 17 22 18 21 19 23 21 32 23 29 25
REMARK SMILES IDX 5 27 14 28 6 29 12 30 7 31 10 32 15 33 13 35 8 37 9 38 11 40
REMARK H PARENT 21 20 23 22 32 24 29 26 15 34 13 36 9 39 11 41
REMARK Flexibility Score: inf
ROOT
ATOM      1  O   UNL     1      13.927 -37.523  -1.919  1.00  0.00    -0.454 OA
ENDROOT
BRANCH   1   2
ATOM      2  C   UNL     1      14.862 -36.938  -1.038  1.00  0.00     0.214 A 
ATOM      3  C   UNL     1      14.679 -35.587  -0.677  1.00  0.00     0.180 A 
ATOM      4  O   UNL     1      15.499 -35.004   0.188  1.00  0.00    -0.452 OA
ATOM      5  C   UNL     1      15.957 -37.634  -0.475  1.00  0.00     0.239 A 
ATOM      6  C   UNL     1      16.533 -35.623   0.741  1.00  0.00     0.146 A 
ATOM      7  O   UNL     1      16.173 -38.836  -0.778  1.00  0.00    -0.285 OA
ATOM      8  C   UNL     1      16.815 -36.972   0.431  1.00  0.00     0.111 A 
ATOM      9  C   UNL     1      17.345 -34.919   1.637  1.00  0.00     0.094 A 
ATOM     10  C   UNL     1      17.932 -37.598   1.038  1.00  0.00     0.134 A 
ATOM     11  C   UNL     1      18.446 -35.542   2.232  1.00  0.00     0.123 A 
ATOM     12  C   UNL     1      18.735 -36.874   1.932  1.00  0.00     0.093 A 
BRANCH   3  13
ATOM     13  C   UNL     1      13.562 -34.787  -1.218  1.00  0.00     0.025 A 
ATOM     14  C   UNL     1      13.752 -34.026  -2.378  1.00  0.00     0.016 A 
ATOM     15  C   UNL     1      12.701 -33.270  -2.905  1.00  0.00     0.051 A 
ATOM     16  C   UNL     1      11.443 -33.273  -2.292  1.00  0.00     0.157 A 
ATOM     17  C   UNL     1      12.295 -34.817  -0.617  1.00  0.00     0.062 A 
ATOM     18  C   UNL     1      11.236 -34.062  -1.134  1.00  0.00     0.158 A 
BRANCH  16  19
ATOM     19  O   UNL     1      10.438 -32.490  -2.862  1.00  0.00    -0.504 OA
ATOM     20  H   UNL     1       9.653 -32.118  -2.348  1.00  0.00     0.293 HD
ENDBRANCH  16  19
BRANCH  18  21
ATOM     21  O   UNL     1      10.006 -34.128  -0.477  1.00  0.00    -0.504 OA
ATOM     22  H   UNL     1       9.142 -33.776  -0.861  1.00  0.00     0.293 HD
ENDBRANCH  18  21
ENDBRANCH   3  13
BRANCH  10  23
ATOM     23  O   UNL     1      18.250 -38.929   0.762  1.00  0.00    -0.507 OA
ATOM     24  H   UNL     1      19.159 -39.197   0.400  1.00  0.00     0.293 HD
ENDBRANCH  10  23
BRANCH  11  25
ATOM     25  O   UNL     1      19.259 -34.846   3.123  1.00  0.00    -0.508 OA
ATOM     26  H   UNL     1      18.866 -34.281   3.868  1.00  0.00     0.293 HD
ENDBRANCH  11  25
ENDBRANCH   1   2
BRANCH   1  27
ATOM     27  C   UNL     1      14.085 -37.753  -3.323  1.00  0.00     0.339 C 
ATOM     28  C   UNL     1      13.979 -39.266  -3.651  1.00  0.00     0.214 C 
ATOM     29  O   UNL     1      13.205 -36.922  -4.078  1.00  0.00    -0.332 OA
ATOM     30  C   UNL     1      13.272 -39.452  -5.001  1.00  0.00     0.180 C 
ATOM     31  C   UNL     1      11.891 -37.440  -4.242  1.00  0.00     0.179 C 
ATOM     32  C   UNL     1      11.866 -38.823  -4.958  1.00  0.00     0.177 C 
BRANCH  28  33
ATOM     33  O   UNL     1      13.280 -39.941  -2.632  1.00  0.00    -0.384 OA
ATOM     34  H   UNL     1      12.677 -40.595  -3.072  1.00  0.00     0.211 HD
ENDBRANCH  28  33
BRANCH  30  35
ATOM     35  O   UNL     1      13.225 -40.808  -5.377  1.00  0.00    -0.387 OA
ATOM     36  H   UNL     1      12.732 -40.873  -6.234  1.00  0.00     0.211 HD
ENDBRANCH  30  35
BRANCH  31  37
ATOM     37  C   UNL     1      11.096 -37.424  -2.919  1.00  0.00     0.191 C 
BRANCH  37  38
ATOM     38  O   UNL     1      10.606 -38.704  -2.623  1.00  0.00    -0.394 OA
ATOM     39  H   UNL     1      10.609 -39.216  -3.473  1.00  0.00     0.210 HD
ENDBRANCH  37  38
ENDBRANCH  31  37
BRANCH  32  40
ATOM     40  O   UNL     1      11.389 -38.665  -6.270  1.00  0.00    -0.387 OA
ATOM     41  H   UNL     1      10.630 -38.025  -6.229  1.00  0.00     0.211 HD
ENDBRANCH  32  40
ENDBRANCH   1  27
TORSDOF 12
ENDMDL
MODEL 7
REMARK VINA RESULT:    -5.910      1.653      2.832
REMARK INTER + INTRA:         -10.614
REMARK INTER:                  -8.825
REMARK INTRA:                  -1.789
REMARK UNBOUND:                -1.940
REMARK SMILES O=c1c(O[C@@H]2O[C@H](CO)[C@@H](O)[C@H](O)[C@@H]2O)c(-c2ccc(O)c(O)c2)oc2cc(O)cc(O)c12
REMARK SMILES IDX 4 1 3 2 16 3 25 4 2 5 26 6 1 7 33 8 27 9 31 10 28 11 30 12
REMARK SMILES IDX 17 13 18 14 19 15 20 16 24 17 22 18 21 19 23 21 32 23 29 25
REMARK SMILES IDX 5 27 14 28 6 29 12 30 7 31 10 32 15 33 13 35 8 37 9 38 11 40
REMARK H PARENT 21 20 23 22 32 24 29 26 15 34 13 36 9 39 11 41
REMARK Flexibility Score: inf
ROOT
ATOM      1  O   UNL     1      12.931 -36.791  -2.373  1.00  0.00    -0.454 OA
ENDROOT
BRANCH   1   2
ATOM      2  C   UNL     1      12.785 -37.884  -3.255  1.00  0.00     0.214 A 
ATOM      3  C   UNL     1      13.884 -38.750  -3.426  1.00  0.00     0.180 A 
ATOM      4  O   UNL     1      13.782 -39.822  -4.202  1.00  0.00    -0.452 OA
ATOM      5  C   UNL     1      11.593 -38.175  -3.958  1.00  0.00     0.239 A 
ATOM      6  C   UNL     1      12.681 -40.133  -4.873  1.00  0.00     0.146 A 
ATOM      7  O   UNL     1      10.589 -37.422  -3.851  1.00  0.00    -0.285 OA
ATOM      8  C   UNL     1      11.530 -39.318  -4.785  1.00  0.00     0.111 A 
ATOM      9  C   UNL     1      12.675 -41.280  -5.673  1.00  0.00     0.094 A 
ATOM     10  C   UNL     1      10.374 -39.679  -5.521  1.00  0.00     0.134 A 
ATOM     11  C   UNL     1      11.532 -41.630  -6.397  1.00  0.00     0.123 A 
ATOM     12  C   UNL     1      10.389 -40.832  -6.319  1.00  0.00     0.093 A 
BRANCH   3  13
ATOM     13  C   UNL     1      15.166 -38.520  -2.730  1.00  0.00     0.025 A 
ATOM     14  C   UNL     1      15.270 -38.794  -1.360  1.00  0.00     0.016 A 
ATOM     15  C   UNL     1      16.479 -38.587  -0.691  1.00  0.00     0.051 A 
ATOM     16  C   UNL     1      17.605 -38.120  -1.379  1.00  0.00     0.157 A 
ATOM     17  C   UNL     1      16.298 -38.079  -3.430  1.00  0.00     0.062 A 
ATOM     18  C   UNL     1      17.514 -37.866  -2.769  1.00  0.00     0.158 A 
BRANCH  16  19
ATOM     19  O   UNL     1      18.780 -37.926  -0.651  1.00  0.00    -0.504 OA
ATOM     20  H   UNL     1      19.443 -38.659  -0.444  1.00  0.00     0.293 HD
ENDBRANCH  16  19
BRANCH  18  21
ATOM     21  O   UNL     1      18.597 -37.414  -3.526  1.00  0.00    -0.504 OA
ATOM     22  H   UNL     1      19.321 -38.015  -3.889  1.00  0.00     0.293 HD
ENDBRANCH  18  21
ENDBRANCH   3  13
BRANCH  10  23
ATOM     23  O   UNL     1       9.214 -38.904  -5.466  1.00  0.00    -0.507 OA
ATOM     24  H   UNL     1       8.382 -39.223  -4.981  1.00  0.00     0.293 HD
ENDBRANCH  10  23
BRANCH  11  25
ATOM     25  O   UNL     1      11.521 -42.771  -7.196  1.00  0.00    -0.508 OA
ATOM     26  H   UNL     1      10.876 -43.534  -7.022  1.00  0.00     0.293 HD
ENDBRANCH  11  25
ENDBRANCH   1   2
BRANCH   1  27
ATOM     27  C   UNL     1      13.440 -35.490  -2.683  1.00  0.00     0.339 C 
ATOM     28  C   UNL     1      12.280 -34.486  -2.925  1.00  0.00     0.214 C 
ATOM     29  O   UNL     1      14.392 -35.068  -1.708  1.00  0.00    -0.332 OA
ATOM     30  C   UNL     1      12.672 -33.105  -2.379  1.00  0.00     0.180 C 
ATOM     31  C   UNL     1      13.830 -34.464  -0.549  1.00  0.00     0.179 C 
ATOM     32  C   UNL     1      12.984 -33.197  -0.873  1.00  0.00     0.177 C 
BRANCH  28  33
ATOM     33  O   UNL     1      11.100 -34.943  -2.308  1.00  0.00    -0.384 OA
ATOM     34  H   UNL     1      11.371 -35.524  -1.550  1.00  0.00     0.211 HD
ENDBRANCH  28  33
BRANCH  30  35
ATOM     35  O   UNL     1      11.681 -32.144  -2.648  1.00  0.00    -0.387 OA
ATOM     36  H   UNL     1      11.596 -31.557  -1.854  1.00  0.00     0.211 HD
ENDBRANCH  30  35
BRANCH  31  37
ATOM     37  C   UNL     1      13.083 -35.489   0.329  1.00  0.00     0.191 C 
BRANCH  37  38
ATOM     38  O   UNL     1      11.764 -35.071   0.561  1.00  0.00    -0.394 OA
ATOM     39  H   UNL     1      11.744 -34.090   0.410  1.00  0.00     0.210 HD
ENDBRANCH  37  38
ENDBRANCH  31  37
BRANCH  32  40
ATOM     40  O   UNL     1      13.688 -32.047  -0.475  1.00  0.00    -0.387 OA
ATOM     41  H   UNL     1      14.492 -31.983  -1.055  1.00  0.00     0.211 HD
ENDBRANCH  32  40
ENDBRANCH   1  27
TORSDOF 12
ENDMDL
MODEL 8
REMARK VINA RESULT:    -5.859      2.210      4.881
REMARK INTER + INTRA:         -10.539
REMARK INTER:                  -8.926
REMARK INTRA:                  -1.612
REMARK UNBOUND:                -1.940
REMARK SMILES O=c1c(O[C@@H]2O[C@H](CO)[C@@H](O)[C@H](O)[C@@H]2O)c(-c2ccc(O)c(O)c2)oc2cc(O)cc(O)c12
REMARK SMILES IDX 4 1 3 2 16 3 25 4 2 5 26 6 1 7 33 8 27 9 31 10 28 11 30 12
REMARK SMILES IDX 17 13 18 14 19 15 20 16 24 17 22 18 21 19 23 21 32 23 29 25
REMARK SMILES IDX 5 27 14 28 6 29 12 30 7 31 10 32 15 33 13 35 8 37 9 38 11 40
REMARK H PARENT 21 20 23 22 32 24 29 26 15 34 13 36 9 39 11 41
REMARK Flexibility Score: inf
ROOT
ATOM      1  O   UNL     1      14.800 -37.601  -2.593  1.00  0.00    -0.454 OA
ENDROOT
BRANCH   1   2
ATOM      2  C   UNL     1      13.851 -38.454  -3.198  1.00  0.00     0.214 A 
ATOM      3  C   UNL     1      12.598 -37.910  -3.546  1.00  0.00     0.180 A 
ATOM      4  O   UNL     1      11.689 -38.655  -4.164  1.00  0.00    -0.452 OA
ATOM      5  C   UNL     1      14.093 -39.814  -3.499  1.00  0.00     0.239 A 
ATOM      6  C   UNL     1      11.879 -39.931  -4.469  1.00  0.00     0.146 A 
ATOM      7  O   UNL     1      15.190 -40.350  -3.193  1.00  0.00    -0.285 OA
ATOM      8  C   UNL     1      13.094 -40.575  -4.145  1.00  0.00     0.111 A 
ATOM      9  C   UNL     1      10.857 -40.634  -5.114  1.00  0.00     0.094 A 
ATOM     10  C   UNL     1      13.258 -41.943  -4.482  1.00  0.00     0.134 A 
ATOM     11  C   UNL     1      11.025 -41.982  -5.443  1.00  0.00     0.123 A 
ATOM     12  C   UNL     1      12.220 -42.630  -5.127  1.00  0.00     0.093 A 
BRANCH   3  13
ATOM     13  C   UNL     1      12.262 -36.500  -3.268  1.00  0.00     0.025 A 
ATOM     14  C   UNL     1      12.841 -35.484  -4.040  1.00  0.00     0.016 A 
ATOM     15  C   UNL     1      12.526 -34.146  -3.792  1.00  0.00     0.051 A 
ATOM     16  C   UNL     1      11.621 -33.800  -2.782  1.00  0.00     0.157 A 
ATOM     17  C   UNL     1      11.332 -36.160  -2.274  1.00  0.00     0.062 A 
ATOM     18  C   UNL     1      11.012 -34.822  -2.015  1.00  0.00     0.158 A 
BRANCH  16  19
ATOM     19  O   UNL     1      11.356 -32.444  -2.579  1.00  0.00    -0.504 OA
ATOM     20  H   UNL     1      12.061 -31.761  -2.346  1.00  0.00     0.293 HD
ENDBRANCH  16  19
BRANCH  18  21
ATOM     21  O   UNL     1      10.088 -34.558  -1.002  1.00  0.00    -0.504 OA
ATOM     22  H   UNL     1      10.056 -35.056  -0.125  1.00  0.00     0.293 HD
ENDBRANCH  18  21
ENDBRANCH   3  13
BRANCH  10  23
ATOM     23  O   UNL     1      14.441 -42.621  -4.181  1.00  0.00    -0.507 OA
ATOM     24  H   UNL     1      15.348 -42.173  -4.259  1.00  0.00     0.293 HD
ENDBRANCH  10  23
BRANCH  11  25
ATOM     25  O   UNL     1      10.009 -42.688  -6.085  1.00  0.00    -0.508 OA
ATOM     26  H   UNL     1       9.440 -43.365  -5.589  1.00  0.00     0.293 HD
ENDBRANCH  11  25
ENDBRANCH   1   2
BRANCH   1  27
ATOM     27  C   UNL     1      15.204 -37.591  -1.220  1.00  0.00     0.339 C 
ATOM     28  C   UNL     1      16.600 -38.249  -1.049  1.00  0.00     0.214 C 
ATOM     29  O   UNL     1      15.097 -36.281  -0.666  1.00  0.00    -0.332 OA
ATOM     30  C   UNL     1      17.386 -37.511   0.044  1.00  0.00     0.180 C 
ATOM     31  C   UNL     1      16.221 -35.441  -0.900  1.00  0.00     0.179 C 
ATOM     32  C   UNL     1      17.547 -36.024  -0.325  1.00  0.00     0.177 C 
BRANCH  28  33
ATOM     33  O   UNL     1      17.306 -38.222  -2.267  1.00  0.00    -0.384 OA
ATOM     34  H   UNL     1      17.284 -37.286  -2.600  1.00  0.00     0.211 HD
ENDBRANCH  28  33
BRANCH  30  35
ATOM     35  O   UNL     1      18.630 -38.124   0.288  1.00  0.00    -0.387 OA
ATOM     36  H   UNL     1      19.104 -37.595   0.979  1.00  0.00     0.211 HD
ENDBRANCH  30  35
BRANCH  31  37
ATOM     37  C   UNL     1      16.330 -35.025  -2.382  1.00  0.00     0.191 C 
BRANCH  37  38
ATOM     38  O   UNL     1      17.655 -35.134  -2.829  1.00  0.00    -0.394 OA
ATOM     39  H   UNL     1      17.617 -35.222  -3.817  1.00  0.00     0.210 HD
ENDBRANCH  37  38
ENDBRANCH  31  37
BRANCH  32  40
ATOM     40  O   UNL     1      17.921 -35.300   0.820  1.00  0.00    -0.387 OA
ATOM     41  H   UNL     1      18.477 -34.536   0.513  1.00  0.00     0.211 HD
ENDBRANCH  32  40
ENDBRANCH   1  27
TORSDOF 12
ENDMDL
MODEL 9
REMARK VINA RESULT:    -5.832      2.396      7.927
REMARK INTER + INTRA:         -10.500
REMARK INTER:                  -8.619
REMARK INTRA:                  -1.881
REMARK UNBOUND:                -1.940
REMARK SMILES O=c1c(O[C@@H]2O[C@H](CO)[C@@H](O)[C@H](O)[C@@H]2O)c(-c2ccc(O)c(O)c2)oc2cc(O)cc(O)c12
REMARK SMILES IDX 4 1 3 2 16 3 25 4 2 5 26 6 1 7 33 8 27 9 31 10 28 11 30 12
REMARK SMILES IDX 17 13 18 14 19 15 20 16 24 17 22 18 21 19 23 21 32 23 29 25
REMARK SMILES IDX 5 27 14 28 6 29 12 30 7 31 10 32 15 33 13 35 8 37 9 38 11 40
REMARK H PARENT 21 20 23 22 32 24 29 26 15 34 13 36 9 39 11 41
REMARK Flexibility Score: inf
ROOT
ATOM      1  O   UNL     1      14.005 -37.591  -1.950  1.00  0.00    -0.454 OA
ENDROOT
BRANCH   1   2
ATOM      2  C   UNL     1      14.921 -36.980  -1.067  1.00  0.00     0.214 A 
ATOM      3  C   UNL     1      14.734 -35.617  -0.756  1.00  0.00     0.180 A 
ATOM      4  O   UNL     1      15.535 -35.007   0.109  1.00  0.00    -0.452 OA
ATOM      5  C   UNL     1      16.000 -37.659  -0.456  1.00  0.00     0.239 A 
ATOM      6  C   UNL     1      16.554 -35.610   0.706  1.00  0.00     0.146 A 
ATOM      7  O   UNL     1      16.220 -38.871  -0.714  1.00  0.00    -0.285 OA
ATOM      8  C   UNL     1      16.838 -36.969   0.448  1.00  0.00     0.111 A 
ATOM      9  C   UNL     1      17.346 -34.879   1.597  1.00  0.00     0.094 A 
ATOM     10  C   UNL     1      17.940 -37.578   1.101  1.00  0.00     0.134 A 
ATOM     11  C   UNL     1      18.431 -35.484   2.238  1.00  0.00     0.123 A 
ATOM     12  C   UNL     1      18.723 -36.827   1.989  1.00  0.00     0.093 A 
BRANCH   3  13
ATOM     13  C   UNL     1      13.632 -34.833  -1.349  1.00  0.00     0.025 A 
ATOM     14  C   UNL     1      13.750 -34.353  -2.660  1.00  0.00     0.016 A 
ATOM     15  C   UNL     1      12.712 -33.616  -3.236  1.00  0.00     0.051 A 
ATOM     16  C   UNL     1      11.536 -33.359  -2.520  1.00  0.00     0.157 A 
ATOM     17  C   UNL     1      12.445 -34.603  -0.639  1.00  0.00     0.062 A 
ATOM     18  C   UNL     1      11.399 -33.864  -1.205  1.00  0.00     0.158 A 
BRANCH  16  19
ATOM     19  O   UNL     1      10.541 -32.609  -3.149  1.00  0.00    -0.504 OA
ATOM     20  H   UNL     1      10.695 -32.042  -3.970  1.00  0.00     0.293 HD
ENDBRANCH  16  19
BRANCH  18  21
ATOM     21  O   UNL     1      10.252 -33.662  -0.434  1.00  0.00    -0.504 OA
ATOM     22  H   UNL     1       9.532 -34.357  -0.304  1.00  0.00     0.293 HD
ENDBRANCH  18  21
ENDBRANCH   3  13
BRANCH  10  23
ATOM     23  O   UNL     1      18.259 -38.918   0.876  1.00  0.00    -0.507 OA
ATOM     24  H   UNL     1      17.618 -39.666   1.114  1.00  0.00     0.293 HD
ENDBRANCH  10  23
BRANCH  11  25
ATOM     25  O   UNL     1      19.225 -34.761   3.125  1.00  0.00    -0.508 OA
ATOM     26  H   UNL     1      20.002 -34.197   2.801  1.00  0.00     0.293 HD
ENDBRANCH  11  25
ENDBRANCH   1   2
BRANCH   1  27
ATOM     27  C   UNL     1      12.742 -38.178  -1.619  1.00  0.00     0.339 C 
ATOM     28  C   UNL     1      11.639 -37.709  -2.607  1.00  0.00     0.214 C 
ATOM     29  O   UNL     1      12.855 -39.594  -1.488  1.00  0.00    -0.332 OA
ATOM     30  C   UNL     1      10.660 -38.862  -2.868  1.00  0.00     0.180 C 
ATOM     31  C   UNL     1      12.757 -40.314  -2.711  1.00  0.00     0.179 C 
ATOM     32  C   UNL     1      11.408 -40.076  -3.452  1.00  0.00     0.177 C 
BRANCH  28  33
ATOM     33  O   UNL     1      12.217 -37.270  -3.813  1.00  0.00    -0.384 OA
ATOM     34  H   UNL     1      12.405 -36.300  -3.713  1.00  0.00     0.211 HD
ENDBRANCH  28  33
BRANCH  30  35
ATOM     35  O   UNL     1       9.597 -38.458  -3.698  1.00  0.00    -0.387 OA
ATOM     36  H   UNL     1       9.866 -37.623  -4.160  1.00  0.00     0.211 HD
ENDBRANCH  30  35
BRANCH  31  37
ATOM     37  C   UNL     1      13.994 -40.096  -3.608  1.00  0.00     0.191 C 
BRANCH  37  38
ATOM     38  O   UNL     1      15.174 -40.310  -2.882  1.00  0.00    -0.394 OA
ATOM     39  H   UNL     1      15.295 -39.519  -2.294  1.00  0.00     0.210 HD
ENDBRANCH  37  38
ENDBRANCH  31  37
BRANCH  32  40
ATOM     40  O   UNL     1      10.599 -41.219  -3.335  1.00  0.00    -0.387 OA
ATOM     41  H   UNL     1      10.961 -41.756  -2.582  1.00  0.00     0.211 HD
ENDBRANCH  32  40
ENDBRANCH   1  27
TORSDOF 12
ENDMDL
