MODEL 1
REMARK VINA RESULT:    -3.224      0.000      0.000
REMARK INTER + INTRA:          -3.814
REMARK INTER:                  -3.601
REMARK INTRA:                  -0.213
REMARK UNBOUND:                -0.213
REMARK SMILES CC(C)c1ccc(C(=O)[O-])cc1
REMARK SMILES IDX 7 1 6 2 11 3 5 4 12 5 4 6 8 7 9 8 10 9 2 10 1 11 3 12
REMARK H PARENT
REMARK Flexibility Score: inf
ROOT
ATOM      1  C   UNL     1      20.701   4.524   6.641  1.00  0.00    -0.003 A 
ATOM      2  C   UNL     1      20.375   3.474   7.516  1.00  0.00     0.010 A 
ATOM      3  C   UNL     1      21.726   4.332   5.701  1.00  0.00     0.010 A 
ATOM      4  C   UNL     1      21.060   2.257   7.450  1.00  0.00     0.004 A 
ATOM      5  C   UNL     1      22.412   3.116   5.635  1.00  0.00     0.004 A 
ATOM      6  C   UNL     1      22.087   2.065   6.508  1.00  0.00    -0.045 A 
ENDROOT
BRANCH   1   7
ATOM      7  C   UNL     1      19.978   5.813   6.707  1.00  0.00     0.071 C 
ATOM      8  O   UNL     1      18.790   5.903   6.300  1.00  0.00    -0.545 OA
ATOM      9  O   UNL     1      20.601   6.944   7.222  1.00  0.00    -0.545 OA
ENDBRANCH   1   7
BRANCH   6  10
ATOM     10  C   UNL     1      22.840   0.749   6.426  1.00  0.00     0.013 C 
ATOM     11  C   UNL     1      21.984  -0.411   6.946  1.00  0.00     0.012 C 
ATOM     12  C   UNL     1      23.326   0.480   4.997  1.00  0.00     0.012 C 
ENDBRANCH   6  10
TORSDOF 2
ENDMDL
MODEL 2
REMARK VINA RESULT:    -2.768      3.201      6.716
REMARK INTER + INTRA:          -3.305
REMARK INTER:                  -3.091
REMARK INTRA:                  -0.214
REMARK UNBOUND:                -0.213
REMARK SMILES CC(C)c1ccc(C(=O)[O-])cc1
REMARK SMILES IDX 7 1 6 2 11 3 5 4 12 5 4 6 8 7 9 8 10 9 2 10 1 11 3 12
REMARK H PARENT
REMARK Flexibility Score: inf
ROOT
ATOM      1  C   UNL     1      19.866   5.971   6.503  1.00  0.00    -0.003 A 
ATOM      2  C   UNL     1      18.494   6.156   6.256  1.00  0.00     0.010 A 
ATOM      3  C   UNL     1      20.713   7.090   6.506  1.00  0.00     0.010 A 
ATOM      4  C   UNL     1      17.984   7.435   6.016  1.00  0.00     0.004 A 
ATOM      5  C   UNL     1      20.203   8.369   6.267  1.00  0.00     0.004 A 
ATOM      6  C   UNL     1      18.832   8.557   6.020  1.00  0.00    -0.045 A 
ENDROOT
BRANCH   1   7
ATOM      7  C   UNL     1      20.410   4.619   6.757  1.00  0.00     0.071 C 
ATOM      8  O   UNL     1      20.096   3.987   7.800  1.00  0.00    -0.545 OA
ATOM      9  O   UNL     1      21.276   4.026   5.845  1.00  0.00    -0.545 OA
ENDBRANCH   1   7
BRANCH   6  10
ATOM     10  C   UNL     1      18.292   9.951   5.761  1.00  0.00     0.013 C 
ATOM     11  C   UNL     1      16.875  10.108   6.325  1.00  0.00     0.012 C 
ATOM     12  C   UNL     1      19.233  11.022   6.326  1.00  0.00     0.012 C 
ENDBRANCH   6  10
TORSDOF 2
ENDMDL
MODEL 3
REMARK VINA RESULT:    -2.419      3.023      5.056
REMARK INTER + INTRA:          -2.914
REMARK INTER:                  -2.704
REMARK INTRA:                  -0.210
REMARK UNBOUND:                -0.213
REMARK SMILES CC(C)c1ccc(C(=O)[O-])cc1
REMARK SMILES IDX 7 1 6 2 11 3 5 4 12 5 4 6 8 7 9 8 10 9 2 10 1 11 3 12
REMARK H PARENT
REMARK Flexibility Score: inf
ROOT
ATOM      1  C   UNL     1      21.848   1.914   6.482  1.00  0.00    -0.003 A 
ATOM      2  C   UNL     1      21.060   2.141   7.624  1.00  0.00     0.010 A 
ATOM      3  C   UNL     1      21.972   2.937   5.528  1.00  0.00     0.010 A 
ATOM      4  C   UNL     1      20.411   3.365   7.806  1.00  0.00     0.004 A 
ATOM      5  C   UNL     1      21.324   4.162   5.710  1.00  0.00     0.004 A 
ATOM      6  C   UNL     1      20.537   4.390   6.852  1.00  0.00    -0.045 A 
ENDROOT
BRANCH   1   7
ATOM      7  C   UNL     1      22.535   0.619   6.286  1.00  0.00     0.071 C 
ATOM      8  O   UNL     1      23.343   0.460   5.333  1.00  0.00    -0.545 OA
ATOM      9  O   UNL     1      22.300  -0.442   7.154  1.00  0.00    -0.545 OA
ENDBRANCH   1   7
BRANCH   6  10
ATOM     10  C   UNL     1      19.838   5.725   7.037  1.00  0.00     0.013 C 
ATOM     11  C   UNL     1      20.850   6.874   7.111  1.00  0.00     0.012 C 
ATOM     12  C   UNL     1      18.808   5.967   5.927  1.00  0.00     0.012 C 
ENDBRANCH   6  10
TORSDOF 2
ENDMDL
MODEL 4
REMARK VINA RESULT:    -2.391      3.025      5.241
REMARK INTER + INTRA:          -2.883
REMARK INTER:                  -2.675
REMARK INTRA:                  -0.208
REMARK UNBOUND:                -0.213
REMARK SMILES CC(C)c1ccc(C(=O)[O-])cc1
REMARK SMILES IDX 7 1 6 2 11 3 5 4 12 5 4 6 8 7 9 8 10 9 2 10 1 11 3 12
REMARK H PARENT
REMARK Flexibility Score: inf
ROOT
ATOM      1  C   UNL     1      21.843   1.916   6.430  1.00  0.00    -0.003 A 
ATOM      2  C   UNL     1      21.991   2.944   5.483  1.00  0.00     0.010 A 
ATOM      3  C   UNL     1      21.045   2.145   7.563  1.00  0.00     0.010 A 
ATOM      4  C   UNL     1      21.352   4.174   5.666  1.00  0.00     0.004 A 
ATOM      5  C   UNL     1      20.406   3.375   7.746  1.00  0.00     0.004 A 
ATOM      6  C   UNL     1      20.552   4.403   6.799  1.00  0.00    -0.045 A 
ENDROOT
BRANCH   1   7
ATOM      7  C   UNL     1      22.518   0.614   6.240  1.00  0.00     0.071 C 
ATOM      8  O   UNL     1      23.271   0.420   5.250  1.00  0.00    -0.545 OA
ATOM      9  O   UNL     1      22.329  -0.417   7.155  1.00  0.00    -0.545 OA
ENDBRANCH   1   7
BRANCH   6  10
ATOM     10  C   UNL     1      19.853   5.733   7.011  1.00  0.00     0.013 C 
ATOM     11  C   UNL     1      20.863   6.883   7.088  1.00  0.00     0.012 C 
ATOM     12  C   UNL     1      18.809   5.989   5.916  1.00  0.00     0.012 C 
ENDBRANCH   6  10
TORSDOF 2
ENDMDL
MODEL 5
REMARK VINA RESULT:    -2.021      2.716      4.489
REMARK INTER + INTRA:          -2.470
REMARK INTER:                  -2.263
REMARK INTRA:                  -0.207
REMARK UNBOUND:                -0.213
REMARK SMILES CC(C)c1ccc(C(=O)[O-])cc1
REMARK SMILES IDX 7 1 6 2 11 3 5 4 12 5 4 6 8 7 9 8 10 9 2 10 1 11 3 12
REMARK H PARENT
REMARK Flexibility Score: inf
ROOT
ATOM      1  C   UNL     1      19.128   8.243   6.195  1.00  0.00    -0.003 A 
ATOM      2  C   UNL     1      20.429   7.908   6.607  1.00  0.00     0.010 A 
ATOM      3  C   UNL     1      18.206   7.213   5.948  1.00  0.00     0.010 A 
ATOM      4  C   UNL     1      20.799   6.569   6.767  1.00  0.00     0.004 A 
ATOM      5  C   UNL     1      18.576   5.875   6.108  1.00  0.00     0.004 A 
ATOM      6  C   UNL     1      19.876   5.538   6.520  1.00  0.00    -0.045 A 
ENDROOT
BRANCH   1   7
ATOM      7  C   UNL     1      18.733   9.658   6.024  1.00  0.00     0.071 C 
ATOM      8  O   UNL     1      19.606  10.559   5.913  1.00  0.00    -0.545 OA
ATOM      9  O   UNL     1      17.389  10.014   5.983  1.00  0.00    -0.545 OA
ENDBRANCH   1   7
BRANCH   6  10
ATOM     10  C   UNL     1      20.265   4.080   6.690  1.00  0.00     0.013 C 
ATOM     11  C   UNL     1      21.459   3.719   5.801  1.00  0.00     0.012 C 
ATOM     12  C   UNL     1      20.552   3.753   8.160  1.00  0.00     0.012 C 
ENDBRANCH   6  10
TORSDOF 2
ENDMDL
