MODEL 1
REMARK VINA RESULT:    -6.928      0.000      0.000
REMARK INTER + INTRA:          -6.928
REMARK INTER:                  -6.928
REMARK INTRA:                   0.000
REMARK UNBOUND:                 0.000
REMARK SMILES C=C1CCC[C@@]2(C)CC(=O)C(=C(C)C)C[C@@H]12
REMARK SMILES IDX 13 1 12 2 11 3 15 4 16 5 2 6 1 7 3 8 4 9 5 10 6 11 8 12 9 13
REMARK SMILES IDX 10 14 7 15 14 16
REMARK H PARENT
REMARK Flexibility Score: inf
ROOT
ATOM      1  C   UNL     1     -15.435 -15.131  32.568  1.00  0.00     0.039 C 
ATOM      2  C   UNL     1     -13.981 -15.215  32.975  1.00  0.00    -0.070 C 
ATOM      3  C   UNL     1     -13.083 -15.910  32.221  1.00  0.00    -0.006 C 
ATOM      4  C   UNL     1     -13.485 -16.569  30.915  1.00  0.00     0.047 C 
ATOM      5  C   UNL     1     -12.485 -17.678  30.527  1.00  0.00     0.025 C 
ATOM      6  C   UNL     1     -12.987 -18.429  29.303  1.00  0.00    -0.073 C 
ATOM      7  C   UNL     1     -13.741 -19.531  29.444  1.00  0.00     0.008 C 
ATOM      8  C   UNL     1     -12.762 -17.836  27.935  1.00  0.00     0.031 C 
ATOM      9  C   UNL     1     -11.304 -17.417  27.769  1.00  0.00     0.005 C 
ATOM     10  C   UNL     1     -10.859 -16.495  28.912  1.00  0.00     0.008 C 
ATOM     11  C   UNL     1     -11.024 -17.129  30.329  1.00  0.00    -0.018 C 
ATOM     12  C   UNL     1     -10.655 -16.037  31.399  1.00  0.00     0.088 C 
ATOM     13  C   UNL     1     -11.633 -15.961  32.536  1.00  0.00     0.159 C 
ATOM     14  O   UNL     1     -11.210 -15.956  33.723  1.00  0.00    -0.295 OA
ATOM     15  C   UNL     1     -10.031 -18.309  30.486  1.00  0.00     0.012 C 
ATOM     16  C   UNL     1     -13.559 -14.461  34.215  1.00  0.00     0.039 C 
ENDROOT
TORSDOF 0
ENDMDL
MODEL 2
REMARK VINA RESULT:    -6.063      2.169      4.016
REMARK INTER + INTRA:          -6.063
REMARK INTER:                  -6.063
REMARK INTRA:                   0.000
REMARK UNBOUND:                 0.000
REMARK SMILES C=C1CCC[C@@]2(C)CC(=O)C(=C(C)C)C[C@@H]12
REMARK SMILES IDX 13 1 12 2 11 3 15 4 16 5 2 6 1 7 3 8 4 9 5 10 6 11 8 12 9 13
REMARK SMILES IDX 10 14 7 15 14 16
REMARK H PARENT
REMARK Flexibility Score: inf
ROOT
ATOM      1  C   UNL     1     -13.592 -21.137  29.310  1.00  0.00     0.039 C 
ATOM      2  C   UNL     1     -12.840 -20.273  30.297  1.00  0.00    -0.070 C 
ATOM      3  C   UNL     1     -12.526 -18.981  29.997  1.00  0.00    -0.006 C 
ATOM      4  C   UNL     1     -12.970 -18.337  28.697  1.00  0.00     0.047 C 
ATOM      5  C   UNL     1     -12.097 -17.109  28.364  1.00  0.00     0.025 C 
ATOM      6  C   UNL     1     -12.455 -16.572  26.986  1.00  0.00    -0.073 C 
ATOM      7  C   UNL     1     -11.794 -17.000  25.898  1.00  0.00     0.008 C 
ATOM      8  C   UNL     1     -13.659 -15.678  26.836  1.00  0.00     0.031 C 
ATOM      9  C   UNL     1     -13.625 -14.560  27.875  1.00  0.00     0.005 C 
ATOM     10  C   UNL     1     -13.459 -15.125  29.291  1.00  0.00     0.008 C 
ATOM     11  C   UNL     1     -12.176 -15.996  29.473  1.00  0.00    -0.018 C 
ATOM     12  C   UNL     1     -12.203 -16.609  30.921  1.00  0.00     0.088 C 
ATOM     13  C   UNL     1     -11.856 -18.069  30.958  1.00  0.00     0.159 C 
ATOM     14  O   UNL     1     -11.001 -18.486  31.785  1.00  0.00    -0.295 OA
ATOM     15  C   UNL     1     -10.920 -15.097  29.355  1.00  0.00     0.012 C 
ATOM     16  C   UNL     1     -12.500 -20.880  31.638  1.00  0.00     0.039 C 
ENDROOT
TORSDOF 0
ENDMDL
MODEL 3
REMARK VINA RESULT:    -6.060      2.211      3.480
REMARK INTER + INTRA:          -6.060
REMARK INTER:                  -6.060
REMARK INTRA:                   0.000
REMARK UNBOUND:                 0.000
REMARK SMILES C=C1CCC[C@@]2(C)CC(=O)C(=C(C)C)C[C@@H]12
REMARK SMILES IDX 13 1 12 2 11 3 15 4 16 5 2 6 1 7 3 8 4 9 5 10 6 11 8 12 9 13
REMARK SMILES IDX 10 14 7 15 14 16
REMARK H PARENT
REMARK Flexibility Score: inf
ROOT
ATOM      1  C   UNL     1     -15.266 -14.432  32.280  1.00  0.00     0.039 C 
ATOM      2  C   UNL     1     -14.788 -14.494  30.847  1.00  0.00    -0.070 C 
ATOM      3  C   UNL     1     -13.773 -15.327  30.484  1.00  0.00    -0.006 C 
ATOM      4  C   UNL     1     -13.125 -16.271  31.481  1.00  0.00     0.047 C 
ATOM      5  C   UNL     1     -11.728 -16.709  30.997  1.00  0.00     0.025 C 
ATOM      6  C   UNL     1     -11.034 -17.526  32.077  1.00  0.00    -0.073 C 
ATOM      7  C   UNL     1     -10.238 -16.926  32.977  1.00  0.00     0.008 C 
ATOM      8  C   UNL     1     -11.372 -18.988  32.223  1.00  0.00     0.031 C 
ATOM      9  C   UNL     1     -11.305 -19.688  30.868  1.00  0.00     0.005 C 
ATOM     10  C   UNL     1     -12.168 -18.965  29.827  1.00  0.00     0.008 C 
ATOM     11  C   UNL     1     -11.778 -17.468  29.620  1.00  0.00    -0.018 C 
ATOM     12  C   UNL     1     -12.818 -16.824  28.631  1.00  0.00     0.088 C 
ATOM     13  C   UNL     1     -13.316 -15.481  29.080  1.00  0.00     0.159 C 
ATOM     14  O   UNL     1     -13.324 -14.516  28.270  1.00  0.00    -0.295 OA
ATOM     15  C   UNL     1     -10.377 -17.384  28.963  1.00  0.00     0.012 C 
ATOM     16  C   UNL     1     -15.512 -13.638  29.833  1.00  0.00     0.039 C 
ENDROOT
TORSDOF 0
ENDMDL
MODEL 4
REMARK VINA RESULT:    -5.940      1.579      2.106
REMARK INTER + INTRA:          -5.940
REMARK INTER:                  -5.940
REMARK INTRA:                   0.000
REMARK UNBOUND:                 0.000
REMARK SMILES C=C1CCC[C@@]2(C)CC(=O)C(=C(C)C)C[C@@H]12
REMARK SMILES IDX 13 1 12 2 11 3 15 4 16 5 2 6 1 7 3 8 4 9 5 10 6 11 8 12 9 13
REMARK SMILES IDX 10 14 7 15 14 16
REMARK H PARENT
REMARK Flexibility Score: inf
ROOT
ATOM      1  C   UNL     1     -15.208 -13.711  30.803  1.00  0.00     0.039 C 
ATOM      2  C   UNL     1     -14.870 -14.870  31.713  1.00  0.00    -0.070 C 
ATOM      3  C   UNL     1     -14.006 -15.845  31.313  1.00  0.00    -0.006 C 
ATOM      4  C   UNL     1     -13.300 -15.777  29.971  1.00  0.00     0.047 C 
ATOM      5  C   UNL     1     -12.808 -17.173  29.537  1.00  0.00     0.025 C 
ATOM      6  C   UNL     1     -12.243 -17.111  28.125  1.00  0.00    -0.073 C 
ATOM      7  C   UNL     1     -13.032 -17.356  27.067  1.00  0.00     0.008 C 
ATOM      8  C   UNL     1     -10.832 -16.620  27.921  1.00  0.00     0.031 C 
ATOM      9  C   UNL     1      -9.875 -17.336  28.870  1.00  0.00     0.005 C 
ATOM     10  C   UNL     1     -10.352 -17.226  30.324  1.00  0.00     0.008 C 
ATOM     11  C   UNL     1     -11.786 -17.796  30.559  1.00  0.00    -0.018 C 
ATOM     12  C   UNL     1     -12.192 -17.502  32.049  1.00  0.00     0.088 C 
ATOM     13  C   UNL     1     -13.585 -16.962  32.194  1.00  0.00     0.159 C 
ATOM     14  O   UNL     1     -14.366 -17.472  33.042  1.00  0.00    -0.295 OA
ATOM     15  C   UNL     1     -11.770 -19.333  30.359  1.00  0.00     0.012 C 
ATOM     16  C   UNL     1     -15.486 -14.875  33.094  1.00  0.00     0.039 C 
ENDROOT
TORSDOF 0
ENDMDL
MODEL 5
REMARK VINA RESULT:    -5.497      2.600      4.680
REMARK INTER + INTRA:          -5.497
REMARK INTER:                  -5.497
REMARK INTRA:                   0.000
REMARK UNBOUND:                 0.000
REMARK SMILES C=C1CCC[C@@]2(C)CC(=O)C(=C(C)C)C[C@@H]12
REMARK SMILES IDX 13 1 12 2 11 3 15 4 16 5 2 6 1 7 3 8 4 9 5 10 6 11 8 12 9 13
REMARK SMILES IDX 10 14 7 15 14 16
REMARK H PARENT
REMARK Flexibility Score: inf
ROOT
ATOM      1  C   UNL     1     -14.170 -14.127  28.248  1.00  0.00     0.039 C 
ATOM      2  C   UNL     1     -13.626 -15.416  27.677  1.00  0.00    -0.070 C 
ATOM      3  C   UNL     1     -12.805 -16.217  28.415  1.00  0.00    -0.006 C 
ATOM      4  C   UNL     1     -12.457 -15.884  29.853  1.00  0.00     0.047 C 
ATOM      5  C   UNL     1     -11.168 -16.609  30.289  1.00  0.00     0.025 C 
ATOM      6  C   UNL     1     -10.750 -16.144  31.677  1.00  0.00    -0.073 C 
ATOM      7  C   UNL     1      -9.900 -15.115  31.821  1.00  0.00     0.008 C 
ATOM      8  C   UNL     1     -11.422 -16.746  32.885  1.00  0.00     0.031 C 
ATOM      9  C   UNL     1     -11.426 -18.269  32.789  1.00  0.00     0.005 C 
ATOM     10  C   UNL     1     -12.032 -18.739  31.460  1.00  0.00     0.008 C 
ATOM     11  C   UNL     1     -11.298 -18.175  30.203  1.00  0.00    -0.018 C 
ATOM     12  C   UNL     1     -12.097 -18.629  28.926  1.00  0.00     0.088 C 
ATOM     13  C   UNL     1     -12.305 -17.527  27.929  1.00  0.00     0.159 C 
ATOM     14  O   UNL     1     -12.039 -17.728  26.714  1.00  0.00    -0.295 OA
ATOM     15  C   UNL     1      -9.875 -18.782  30.120  1.00  0.00     0.012 C 
ATOM     16  C   UNL     1     -14.067 -15.804  26.284  1.00  0.00     0.039 C 
ENDROOT
TORSDOF 0
ENDMDL
MODEL 6
REMARK VINA RESULT:    -5.489      2.249      3.409
REMARK INTER + INTRA:          -5.489
REMARK INTER:                  -5.489
REMARK INTRA:                   0.000
REMARK UNBOUND:                 0.000
REMARK SMILES C=C1CCC[C@@]2(C)CC(=O)C(=C(C)C)C[C@@H]12
REMARK SMILES IDX 13 1 12 2 11 3 15 4 16 5 2 6 1 7 3 8 4 9 5 10 6 11 8 12 9 13
REMARK SMILES IDX 10 14 7 15 14 16
REMARK H PARENT
REMARK Flexibility Score: inf
ROOT
ATOM      1  C   UNL     1      -9.896 -15.646  33.118  1.00  0.00     0.039 C 
ATOM      2  C   UNL     1     -10.328 -17.076  32.884  1.00  0.00    -0.070 C 
ATOM      3  C   UNL     1     -11.058 -17.415  31.784  1.00  0.00    -0.006 C 
ATOM      4  C   UNL     1     -11.411 -16.392  30.720  1.00  0.00     0.047 C 
ATOM      5  C   UNL     1     -12.620 -16.862  29.885  1.00  0.00     0.025 C 
ATOM      6  C   UNL     1     -13.055 -15.759  28.930  1.00  0.00    -0.073 C 
ATOM      7  C   UNL     1     -13.995 -14.873  29.298  1.00  0.00     0.008 C 
ATOM      8  C   UNL     1     -12.310 -15.576  27.633  1.00  0.00     0.031 C 
ATOM      9  C   UNL     1     -12.165 -16.912  26.908  1.00  0.00     0.005 C 
ATOM     10  C   UNL     1     -11.541 -17.974  27.823  1.00  0.00     0.008 C 
ATOM     11  C   UNL     1     -12.346 -18.219  29.138  1.00  0.00    -0.018 C 
ATOM     12  C   UNL     1     -11.530 -19.226  30.029  1.00  0.00     0.088 C 
ATOM     13  C   UNL     1     -11.443 -18.814  31.470  1.00  0.00     0.159 C 
ATOM     14  O   UNL     1     -11.709 -19.649  32.375  1.00  0.00    -0.295 OA
ATOM     15  C   UNL     1     -13.708 -18.875  28.797  1.00  0.00     0.012 C 
ATOM     16  C   UNL     1      -9.877 -18.114  33.886  1.00  0.00     0.039 C 
ENDROOT
TORSDOF 0
ENDMDL
MODEL 7
REMARK VINA RESULT:    -5.001      2.176      4.736
REMARK INTER + INTRA:          -5.001
REMARK INTER:                  -5.001
REMARK INTRA:                   0.000
REMARK UNBOUND:                 0.000
REMARK SMILES C=C1CCC[C@@]2(C)CC(=O)C(=C(C)C)C[C@@H]12
REMARK SMILES IDX 13 1 12 2 11 3 15 4 16 5 2 6 1 7 3 8 4 9 5 10 6 11 8 12 9 13
REMARK SMILES IDX 10 14 7 15 14 16
REMARK H PARENT
REMARK Flexibility Score: inf
ROOT
ATOM      1  C   UNL     1     -13.919 -16.063  26.570  1.00  0.00     0.039 C 
ATOM      2  C   UNL     1     -12.559 -16.625  26.919  1.00  0.00    -0.070 C 
ATOM      3  C   UNL     1     -12.239 -16.932  28.207  1.00  0.00    -0.006 C 
ATOM      4  C   UNL     1     -13.248 -16.787  29.331  1.00  0.00     0.047 C 
ATOM      5  C   UNL     1     -12.540 -16.696  30.698  1.00  0.00     0.025 C 
ATOM      6  C   UNL     1     -13.554 -16.395  31.793  1.00  0.00    -0.073 C 
ATOM      7  C   UNL     1     -13.817 -15.127  32.146  1.00  0.00     0.008 C 
ATOM      8  C   UNL     1     -14.373 -17.525  32.364  1.00  0.00     0.031 C 
ATOM      9  C   UNL     1     -13.471 -18.696  32.749  1.00  0.00     0.005 C 
ATOM     10  C   UNL     1     -12.585 -19.122  31.572  1.00  0.00     0.008 C 
ATOM     11  C   UNL     1     -11.682 -17.975  31.019  1.00  0.00    -0.018 C 
ATOM     12  C   UNL     1     -10.931 -18.514  29.747  1.00  0.00     0.088 C 
ATOM     13  C   UNL     1     -10.948 -17.554  28.592  1.00  0.00     0.159 C 
ATOM     14  O   UNL     1      -9.875 -17.287  27.988  1.00  0.00    -0.295 OA
ATOM     15  C   UNL     1     -10.617 -17.597  32.081  1.00  0.00     0.012 C 
ATOM     16  C   UNL     1     -11.596 -16.877  25.782  1.00  0.00     0.039 C 
ENDROOT
TORSDOF 0
ENDMDL
MODEL 8
REMARK VINA RESULT:    -4.957      2.335      4.876
REMARK INTER + INTRA:          -4.957
REMARK INTER:                  -4.957
REMARK INTRA:                   0.000
REMARK UNBOUND:                 0.000
REMARK SMILES C=C1CCC[C@@]2(C)CC(=O)C(=C(C)C)C[C@@H]12
REMARK SMILES IDX 13 1 12 2 11 3 15 4 16 5 2 6 1 7 3 8 4 9 5 10 6 11 8 12 9 13
REMARK SMILES IDX 10 14 7 15 14 16
REMARK H PARENT
REMARK Flexibility Score: inf
ROOT
ATOM      1  C   UNL     1     -12.723 -21.155  30.873  1.00  0.00     0.039 C 
ATOM      2  C   UNL     1     -13.220 -20.376  29.677  1.00  0.00    -0.070 C 
ATOM      3  C   UNL     1     -12.948 -19.047  29.545  1.00  0.00    -0.006 C 
ATOM      4  C   UNL     1     -12.086 -18.310  30.553  1.00  0.00     0.047 C 
ATOM      5  C   UNL     1     -12.340 -16.790  30.487  1.00  0.00     0.025 C 
ATOM      6  C   UNL     1     -11.586 -16.085  31.606  1.00  0.00    -0.073 C 
ATOM      7  C   UNL     1     -12.179 -15.861  32.789  1.00  0.00     0.008 C 
ATOM      8  C   UNL     1     -10.119 -15.785  31.426  1.00  0.00     0.031 C 
ATOM      9  C   UNL     1      -9.875 -15.107  30.080  1.00  0.00     0.005 C 
ATOM     10  C   UNL     1     -10.473 -15.927  28.930  1.00  0.00     0.008 C 
ATOM     11  C   UNL     1     -12.006 -16.184  29.074  1.00  0.00    -0.018 C 
ATOM     12  C   UNL     1     -12.454 -17.137  27.905  1.00  0.00     0.088 C 
ATOM     13  C   UNL     1     -13.349 -18.254  28.355  1.00  0.00     0.159 C 
ATOM     14  O   UNL     1     -14.418 -18.487  27.731  1.00  0.00    -0.295 OA
ATOM     15  C   UNL     1     -12.771 -14.845  28.921  1.00  0.00     0.012 C 
ATOM     16  C   UNL     1     -13.981 -21.138  28.616  1.00  0.00     0.039 C 
ENDROOT
TORSDOF 0
ENDMDL
MODEL 9
REMARK VINA RESULT:    -4.751      2.262      3.158
REMARK INTER + INTRA:          -4.751
REMARK INTER:                  -4.751
REMARK INTRA:                   0.000
REMARK UNBOUND:                 0.000
REMARK SMILES C=C1CCC[C@@]2(C)CC(=O)C(=C(C)C)C[C@@H]12
REMARK SMILES IDX 13 1 12 2 11 3 15 4 16 5 2 6 1 7 3 8 4 9 5 10 6 11 8 12 9 13
REMARK SMILES IDX 10 14 7 15 14 16
REMARK H PARENT
REMARK Flexibility Score: inf
ROOT
ATOM      1  C   UNL     1     -14.909 -13.557  28.120  1.00  0.00     0.039 C 
ATOM      2  C   UNL     1     -15.119 -13.906  29.576  1.00  0.00    -0.070 C 
ATOM      3  C   UNL     1     -14.344 -14.844  30.189  1.00  0.00    -0.006 C 
ATOM      4  C   UNL     1     -13.202 -15.528  29.462  1.00  0.00     0.047 C 
ATOM      5  C   UNL     1     -12.826 -16.856  30.152  1.00  0.00     0.025 C 
ATOM      6  C   UNL     1     -11.789 -17.600  29.323  1.00  0.00    -0.073 C 
ATOM      7  C   UNL     1     -12.173 -18.499  28.402  1.00  0.00     0.008 C 
ATOM      8  C   UNL     1     -10.339 -17.204  29.436  1.00  0.00     0.031 C 
ATOM      9  C   UNL     1      -9.921 -17.121  30.902  1.00  0.00     0.005 C 
ATOM     10  C   UNL     1     -10.864 -16.207  31.694  1.00  0.00     0.008 C 
ATOM     11  C   UNL     1     -12.359 -16.650  31.641  1.00  0.00    -0.018 C 
ATOM     12  C   UNL     1     -13.219 -15.561  32.381  1.00  0.00     0.088 C 
ATOM     13  C   UNL     1     -14.460 -15.169  31.633  1.00  0.00     0.159 C 
ATOM     14  O   UNL     1     -15.567 -15.139  32.234  1.00  0.00    -0.295 OA
ATOM     15  C   UNL     1     -12.529 -17.992  32.397  1.00  0.00     0.012 C 
ATOM     16  C   UNL     1     -16.182 -13.140  30.330  1.00  0.00     0.039 C 
ENDROOT
TORSDOF 0
ENDMDL
