MODEL 1
REMARK VINA RESULT:    -2.417      0.000      0.000
REMARK INTER + INTRA:          -2.417
REMARK INTER:                  -2.417
REMARK INTRA:                   0.000
REMARK UNBOUND:                 0.000
REMARK SMILES CC(=O)[O-]
REMARK SMILES IDX 1 1 2 2 3 3 4 4
REMARK H PARENT
REMARK Flexibility Score: inf
ROOT
ATOM      1  C   UNL     1     -12.567   2.067  -9.346  1.00  0.00     0.063 C 
ATOM      2  C   UNL     1     -12.158   3.404  -8.831  1.00  0.00     0.038 C 
ATOM      3  O   UNL     1     -12.947   4.381  -8.912  1.00  0.00    -0.550 OA
ATOM      4  O   UNL     1     -10.925   3.564  -8.210  1.00  0.00    -0.550 OA
ENDROOT
TORSDOF 0
ENDMDL
MODEL 2
REMARK VINA RESULT:    -2.353      1.714      2.341
REMARK INTER + INTRA:          -2.353
REMARK INTER:                  -2.353
REMARK INTRA:                   0.000
REMARK UNBOUND:                 0.000
REMARK SMILES CC(=O)[O-]
REMARK SMILES IDX 1 1 2 2 3 3 4 4
REMARK H PARENT
REMARK Flexibility Score: inf
ROOT
ATOM      1  C   UNL     1     -14.618   1.667  -9.612  1.00  0.00     0.063 C 
ATOM      2  C   UNL     1     -13.728   2.752  -9.109  1.00  0.00     0.038 C 
ATOM      3  O   UNL     1     -12.490   2.705  -9.327  1.00  0.00    -0.550 OA
ATOM      4  O   UNL     1     -14.271   3.845  -8.445  1.00  0.00    -0.550 OA
ENDROOT
TORSDOF 0
ENDMDL
MODEL 3
REMARK VINA RESULT:    -2.337      2.043      2.262
REMARK INTER + INTRA:          -2.337
REMARK INTER:                  -2.337
REMARK INTRA:                   0.000
REMARK UNBOUND:                 0.000
REMARK SMILES CC(=O)[O-]
REMARK SMILES IDX 1 1 2 2 3 3 4 4
REMARK H PARENT
REMARK Flexibility Score: inf
ROOT
ATOM      1  C   UNL     1     -12.067   3.547  -8.896  1.00  0.00     0.063 C 
ATOM      2  C   UNL     1     -13.524   3.235  -8.849  1.00  0.00     0.038 C 
ATOM      3  O   UNL     1     -14.310   3.983  -8.212  1.00  0.00    -0.550 OA
ATOM      4  O   UNL     1     -14.026   2.149  -9.555  1.00  0.00    -0.550 OA
ENDROOT
TORSDOF 0
ENDMDL
MODEL 4
REMARK VINA RESULT:    -2.265      7.621      8.272
REMARK INTER + INTRA:          -2.265
REMARK INTER:                  -2.265
REMARK INTRA:                   0.000
REMARK UNBOUND:                 0.000
REMARK SMILES CC(=O)[O-]
REMARK SMILES IDX 1 1 2 2 3 3 4 4
REMARK H PARENT
REMARK Flexibility Score: inf
ROOT
ATOM      1  C   UNL     1      -9.503  -3.210  -7.559  1.00  0.00     0.063 C 
ATOM      2  C   UNL     1      -9.514  -4.221  -8.655  1.00  0.00     0.038 C 
ATOM      3  O   UNL     1      -9.491  -5.449  -8.382  1.00  0.00    -0.550 OA
ATOM      4  O   UNL     1      -9.604  -3.811  -9.979  1.00  0.00    -0.550 OA
ENDROOT
TORSDOF 0
ENDMDL
MODEL 5
REMARK VINA RESULT:    -2.242      7.635      8.211
REMARK INTER + INTRA:          -2.242
REMARK INTER:                  -2.242
REMARK INTRA:                   0.000
REMARK UNBOUND:                 0.000
REMARK SMILES CC(=O)[O-]
REMARK SMILES IDX 1 1 2 2 3 3 4 4
REMARK H PARENT
REMARK Flexibility Score: inf
ROOT
ATOM      1  C   UNL     1      -9.498  -3.214  -7.488  1.00  0.00     0.063 C 
ATOM      2  C   UNL     1      -9.503  -4.181  -8.623  1.00  0.00     0.038 C 
ATOM      3  O   UNL     1      -9.477  -3.763  -9.809  1.00  0.00    -0.550 OA
ATOM      4  O   UNL     1      -9.481  -5.547  -8.373  1.00  0.00    -0.550 OA
ENDROOT
TORSDOF 0
ENDMDL
MODEL 6
REMARK VINA RESULT:    -2.169     16.505     16.879
REMARK INTER + INTRA:          -2.169
REMARK INTER:                  -2.169
REMARK INTRA:                   0.000
REMARK UNBOUND:                 0.000
REMARK SMILES CC(=O)[O-]
REMARK SMILES IDX 1 1 2 2 3 3 4 4
REMARK H PARENT
REMARK Flexibility Score: inf
ROOT
ATOM      1  C   UNL     1     -11.372   3.154   7.651  1.00  0.00     0.063 C 
ATOM      2  C   UNL     1     -10.506   4.334   7.931  1.00  0.00     0.038 C 
ATOM      3  O   UNL     1     -10.205   4.630   9.116  1.00  0.00    -0.550 OA
ATOM      4  O   UNL     1      -9.982   5.077   6.881  1.00  0.00    -0.550 OA
ENDROOT
TORSDOF 0
ENDMDL
MODEL 7
REMARK VINA RESULT:    -2.157     16.408     16.756
REMARK INTER + INTRA:          -2.157
REMARK INTER:                  -2.157
REMARK INTRA:                   0.000
REMARK UNBOUND:                 0.000
REMARK SMILES CC(=O)[O-]
REMARK SMILES IDX 1 1 2 2 3 3 4 4
REMARK H PARENT
REMARK Flexibility Score: inf
ROOT
ATOM      1  C   UNL     1     -11.461   3.191   9.125  1.00  0.00     0.063 C 
ATOM      2  C   UNL     1     -11.005   3.614   7.770  1.00  0.00     0.038 C 
ATOM      3  O   UNL     1     -11.360   2.964   6.753  1.00  0.00    -0.550 OA
ATOM      4  O   UNL     1     -10.232   4.758   7.622  1.00  0.00    -0.550 OA
ENDROOT
TORSDOF 0
ENDMDL
MODEL 8
REMARK VINA RESULT:    -2.067      7.137      7.751
REMARK INTER + INTRA:          -2.067
REMARK INTER:                  -2.067
REMARK INTRA:                   0.000
REMARK UNBOUND:                 0.000
REMARK SMILES CC(=O)[O-]
REMARK SMILES IDX 1 1 2 2 3 3 4 4
REMARK H PARENT
REMARK Flexibility Score: inf
ROOT
ATOM      1  C   UNL     1      -9.849  -3.518  -9.665  1.00  0.00     0.063 C 
ATOM      2  C   UNL     1      -9.626  -3.792  -8.217  1.00  0.00     0.038 C 
ATOM      3  O   UNL     1      -9.585  -2.843  -7.393  1.00  0.00    -0.550 OA
ATOM      4  O   UNL     1      -9.517  -5.102  -7.765  1.00  0.00    -0.550 OA
ENDROOT
TORSDOF 0
ENDMDL
MODEL 9
REMARK VINA RESULT:    -2.029     17.153     17.493
REMARK INTER + INTRA:          -2.029
REMARK INTER:                  -2.029
REMARK INTRA:                   0.000
REMARK UNBOUND:                 0.000
REMARK SMILES CC(=O)[O-]
REMARK SMILES IDX 1 1 2 2 3 3 4 4
REMARK H PARENT
REMARK Flexibility Score: inf
ROOT
ATOM      1  C   UNL     1     -11.317   3.124   7.482  1.00  0.00     0.063 C 
ATOM      2  C   UNL     1     -11.330   4.114   8.596  1.00  0.00     0.038 C 
ATOM      3  O   UNL     1     -10.250   4.594   9.028  1.00  0.00    -0.550 OA
ATOM      4  O   UNL     1     -12.538   4.552   9.125  1.00  0.00    -0.550 OA
ENDROOT
TORSDOF 0
ENDMDL
