MODEL 1
REMARK VINA RESULT:    -6.845      0.000      0.000
REMARK INTER + INTRA:          -8.222
REMARK INTER:                 -10.846
REMARK INTRA:                   2.625
REMARK UNBOUND:                 2.625
REMARK SMILES C[C@H]1O[C@@H](O[C@H]2CC[C@]3(C)[C@@H](CC[C@]4(C)[C@H]3C=C[C@]35OC[C@@]6(CCC(C)(C)C[C@H]63)[C@H](O)C[C@]54C)[C@]2(C)CO)[C@H](O)[C@@H](O[C@H]2O[C@H](CO)[C@H](O)[C@H](O)[C@@H]2O)[C@H]1O
REMARK SMILES IDX 1 1 2 2 54 3 41 4 39 5 4 6 3 7 55 8 42 10 43 11 52 12 44 13
REMARK SMILES IDX 50 14 45 15 48 16 53 17 51 19 46 21 47 22 49 24 5 26 6 27
REMARK SMILES IDX 7 28 35 29 8 30 11 31 36 32 9 33 12 34 10 35 16 36 13 37
REMARK SMILES IDX 14 38 17 39 15 40 33 41 18 42 19 43 32 44 34 45 29 46 20 47
REMARK SMILES IDX 30 48 22 49 28 50 21 51 23 52 25 53 24 54 26 55 27 56 37 57
REMARK SMILES IDX 38 58 31 60 40 62
REMARK H PARENT 55 9 53 18 51 20 47 23 49 25 38 59 31 61 40 63
REMARK Flexibility Score: inf
ROOT
ATOM      1  C   UNL     1       4.121  49.775  18.094  1.00  0.00     0.041 C 
ATOM      2  C   UNL     1       5.310  49.948  17.124  1.00  0.00     0.150 C 
ATOM      3  C   UNL     1       5.077  49.205  15.762  1.00  0.00     0.175 C 
ATOM      4  C   UNL     1       6.240  48.250  15.466  1.00  0.00     0.186 C 
ATOM      5  C   UNL     1       7.564  49.052  15.606  1.00  0.00     0.202 C 
ATOM      6  C   UNL     1       7.643  49.822  16.963  1.00  0.00     0.282 C 
ATOM      7  O   UNL     1       6.519  49.537  17.779  1.00  0.00    -0.344 OA
ENDROOT
BRANCH   3   8
ATOM      8  O   UNL     1       3.875  48.447  15.770  1.00  0.00    -0.388 OA
ATOM      9  H   UNL     1       3.406  48.676  16.618  1.00  0.00     0.211 HD
ENDBRANCH   3   8
BRANCH   4  10
ATOM     10  O   UNL     1       6.129  47.198  16.408  1.00  0.00    -0.341 OA
BRANCH  10  11
ATOM     11  C   UNL     1       6.771  45.977  16.054  1.00  0.00     0.282 C 
ATOM     12  C   UNL     1       8.043  46.129  15.135  1.00  0.00     0.202 C 
ATOM     13  O   UNL     1       5.795  45.138  15.430  1.00  0.00    -0.341 OA
ATOM     14  C   UNL     1       7.745  46.334  13.629  1.00  0.00     0.179 C 
ATOM     15  C   UNL     1       5.384  45.721  14.190  1.00  0.00     0.178 C 
ATOM     16  C   UNL     1       6.504  45.559  13.153  1.00  0.00     0.177 C 
BRANCH  12  17
ATOM     17  O   UNL     1       8.900  45.026  15.311  1.00  0.00    -0.385 OA
ATOM     18  H   UNL     1       9.629  45.299  15.921  1.00  0.00     0.211 HD
ENDBRANCH  12  17
BRANCH  14  19
ATOM     19  O   UNL     1       8.862  45.918  12.876  1.00  0.00    -0.387 OA
ATOM     20  H   UNL     1       8.587  45.106  12.370  1.00  0.00     0.211 HD
ENDBRANCH  14  19
BRANCH  15  21
ATOM     21  C   UNL     1       4.057  45.110  13.714  1.00  0.00     0.191 C 
BRANCH  21  22
ATOM     22  O   UNL     1       4.269  43.895  13.040  1.00  0.00    -0.394 OA
ATOM     23  H   UNL     1       5.192  43.938  12.663  1.00  0.00     0.210 HD
ENDBRANCH  21  22
ENDBRANCH  15  21
BRANCH  16  24
ATOM     24  O   UNL     1       6.798  44.190  12.966  1.00  0.00    -0.387 OA
ATOM     25  H   UNL     1       7.353  44.126  12.148  1.00  0.00     0.211 HD
ENDBRANCH  16  24
ENDBRANCH  10  11
ENDBRANCH   4  10
BRANCH   6  26
ATOM     26  O   UNL     1       8.825  49.395  17.638  1.00  0.00    -0.346 OA
BRANCH  26  27
ATOM     27  C   UNL     1       8.771  49.569  19.057  1.00  0.00     0.130 C 
ATOM     28  C   UNL     1       7.360  50.076  19.449  1.00  0.00     0.033 C 
ATOM     29  C   UNL     1       9.149  48.221  19.781  1.00  0.00     0.020 C 
ATOM     30  C   UNL     1       6.895  49.771  20.891  1.00  0.00     0.010 C 
ATOM     31  C   UNL     1       8.865  48.247  21.381  1.00  0.00     0.006 C 
ATOM     32  C   UNL     1       8.357  47.088  19.054  1.00  0.00     0.017 C 
ATOM     33  C   UNL     1       8.026  49.477  21.919  1.00  0.00    -0.022 C 
ATOM     34  C   UNL     1       8.352  46.872  21.889  1.00  0.00     0.005 C 
ATOM     35  C   UNL     1       8.915  50.796  21.957  1.00  0.00     0.012 C 
ATOM     36  C   UNL     1       7.440  49.245  23.410  1.00  0.00     0.024 C 
ATOM     37  C   UNL     1       8.018  46.800  23.381  1.00  0.00     0.008 C 
ATOM     38  C   UNL     1       6.911  47.801  23.852  1.00  0.00    -0.017 C 
ATOM     39  C   UNL     1       8.379  49.737  24.514  1.00  0.00    -0.024 C 
ATOM     40  C   UNL     1       5.602  47.468  23.085  1.00  0.00     0.013 C 
ATOM     41  C   UNL     1       6.627  47.701  25.502  1.00  0.00     0.009 C 
ATOM     42  C   UNL     1       7.941  49.828  25.767  1.00  0.00     0.005 C 
ATOM     43  C   UNL     1       6.636  49.159  26.142  1.00  0.00     0.096 C 
ATOM     44  C   UNL     1       5.248  47.048  25.899  1.00  0.00     0.043 C 
ATOM     45  C   UNL     1       7.720  46.816  26.202  1.00  0.00     0.015 C 
ATOM     46  C   UNL     1       6.360  49.302  27.651  1.00  0.00     0.037 C 
ATOM     47  O   UNL     1       5.536  49.864  25.577  1.00  0.00    -0.369 OA
ATOM     48  C   UNL     1       4.692  47.401  27.313  1.00  0.00     0.124 C 
ATOM     49  C   UNL     1       4.907  48.913  27.685  1.00  0.00     0.026 C 
ATOM     50  C   UNL     1       7.188  48.773  28.846  1.00  0.00     0.014 C 
ATOM     51  C   UNL     1       4.456  49.795  26.503  1.00  0.00     0.171 C 
ATOM     52  C   UNL     1       4.242  49.269  29.051  1.00  0.00     0.013 C 
ATOM     53  C   UNL     1       6.585  49.278  30.219  1.00  0.00    -0.035 C 
ATOM     54  C   UNL     1       5.189  49.987  30.045  1.00  0.00     0.007 C 
ATOM     55  C   UNL     1       6.432  48.101  31.196  1.00  0.00     0.011 C 
ATOM     56  C   UNL     1       7.559  50.314  30.848  1.00  0.00     0.011 C 
BRANCH  29  57
ATOM     57  C   UNL     1      10.662  47.924  19.529  1.00  0.00     0.165 C 
BRANCH  57  58
ATOM     58  O   UNL     1      11.320  49.008  18.905  1.00  0.00    -0.396 OA
ATOM     59  H   UNL     1      11.543  49.677  19.610  1.00  0.00     0.210 HD
ENDBRANCH  57  58
ENDBRANCH  29  57
BRANCH  48  60
ATOM     60  O   UNL     1       5.239  46.557  28.292  1.00  0.00    -0.392 OA
ATOM     61  H   UNL     1       4.630  46.596  29.085  1.00  0.00     0.210 HD
ENDBRANCH  48  60
ENDBRANCH  26  27
ENDBRANCH   6  26
BRANCH   5  62
ATOM     62  O   UNL     1       7.718  49.956  14.521  1.00  0.00    -0.385 OA
ATOM     63  H   UNL     1       6.830  50.374  14.345  1.00  0.00     0.211 HD
ENDBRANCH   5  62
TORSDOF 14
ENDMDL
MODEL 2
REMARK VINA RESULT:    -5.599      1.427      2.066
REMARK INTER + INTRA:          -6.248
REMARK INTER:                  -7.613
REMARK INTRA:                   1.365
REMARK UNBOUND:                 2.625
REMARK SMILES C[C@H]1O[C@@H](O[C@H]2CC[C@]3(C)[C@@H](CC[C@]4(C)[C@H]3C=C[C@]35OC[C@@]6(CCC(C)(C)C[C@H]63)[C@H](O)C[C@]54C)[C@]2(C)CO)[C@H](O)[C@@H](O[C@H]2O[C@H](CO)[C@H](O)[C@H](O)[C@@H]2O)[C@H]1O
REMARK SMILES IDX 1 1 2 2 54 3 41 4 39 5 4 6 3 7 55 8 42 10 43 11 52 12 44 13
REMARK SMILES IDX 50 14 45 15 48 16 53 17 51 19 46 21 47 22 49 24 5 26 6 27
REMARK SMILES IDX 7 28 35 29 8 30 11 31 36 32 9 33 12 34 10 35 16 36 13 37
REMARK SMILES IDX 14 38 17 39 15 40 33 41 18 42 19 43 32 44 34 45 29 46 20 47
REMARK SMILES IDX 30 48 22 49 28 50 21 51 23 52 25 53 24 54 26 55 27 56 37 57
REMARK SMILES IDX 38 58 31 60 40 62
REMARK H PARENT 55 9 53 18 51 20 47 23 49 25 38 59 31 61 40 63
REMARK Flexibility Score: inf
ROOT
ATOM      1  C   UNL     1       5.263  46.486  14.814  1.00  0.00     0.041 C 
ATOM      2  C   UNL     1       5.870  47.816  15.312  1.00  0.00     0.150 C 
ATOM      3  C   UNL     1       6.100  48.837  14.143  1.00  0.00     0.175 C 
ATOM      4  C   UNL     1       7.559  49.310  14.124  1.00  0.00     0.186 C 
ATOM      5  C   UNL     1       7.922  49.795  15.554  1.00  0.00     0.202 C 
ATOM      6  C   UNL     1       7.565  48.732  16.642  1.00  0.00     0.282 C 
ATOM      7  O   UNL     1       7.068  47.543  16.051  1.00  0.00    -0.344 OA
ENDROOT
BRANCH   3   8
ATOM      8  O   UNL     1       5.804  48.267  12.875  1.00  0.00    -0.388 OA
ATOM      9  H   UNL     1       6.629  48.364  12.325  1.00  0.00     0.211 HD
ENDBRANCH   3   8
BRANCH   4  10
ATOM     10  O   UNL     1       8.325  48.194  13.706  1.00  0.00    -0.341 OA
BRANCH  10  11
ATOM     11  C   UNL     1       9.140  47.592  14.706  1.00  0.00     0.282 C 
ATOM     12  C   UNL     1      10.694  47.691  14.456  1.00  0.00     0.202 C 
ATOM     13  O   UNL     1       8.736  46.226  14.833  1.00  0.00    -0.341 OA
ATOM     14  C   UNL     1      11.265  46.655  13.458  1.00  0.00     0.179 C 
ATOM     15  C   UNL     1       9.040  45.522  13.625  1.00  0.00     0.178 C 
ATOM     16  C   UNL     1      10.556  45.292  13.535  1.00  0.00     0.177 C 
BRANCH  12  17
ATOM     17  O   UNL     1      11.385  47.614  15.680  1.00  0.00    -0.385 OA
ATOM     18  H   UNL     1      12.335  47.424  15.483  1.00  0.00     0.211 HD
ENDBRANCH  12  17
BRANCH  14  19
ATOM     19  O   UNL     1      12.640  46.471  13.718  1.00  0.00    -0.387 OA
ATOM     20  H   UNL     1      12.957  47.285  14.195  1.00  0.00     0.211 HD
ENDBRANCH  14  19
BRANCH  15  21
ATOM     21  C   UNL     1       8.247  44.210  13.544  1.00  0.00     0.191 C 
BRANCH  21  22
ATOM     22  O   UNL     1       6.888  44.452  13.274  1.00  0.00    -0.394 OA
ATOM     23  H   UNL     1       6.417  44.433  14.153  1.00  0.00     0.210 HD
ENDBRANCH  21  22
ENDBRANCH  15  21
BRANCH  16  24
ATOM     24  O   UNL     1      11.000  44.548  14.650  1.00  0.00    -0.387 OA
ATOM     25  H   UNL     1      11.129  43.616  14.338  1.00  0.00     0.211 HD
ENDBRANCH  16  24
ENDBRANCH  10  11
ENDBRANCH   4  10
BRANCH   6  26
ATOM     26  O   UNL     1       8.759  48.428  17.362  1.00  0.00    -0.346 OA
BRANCH  26  27
ATOM     27  C   UNL     1       8.702  48.786  18.746  1.00  0.00     0.130 C 
ATOM     28  C   UNL     1       7.265  49.253  19.087  1.00  0.00     0.033 C 
ATOM     29  C   UNL     1       9.168  47.571  19.636  1.00  0.00     0.020 C 
ATOM     30  C   UNL     1       6.828  49.114  20.563  1.00  0.00     0.010 C 
ATOM     31  C   UNL     1       8.892  47.792  21.223  1.00  0.00     0.006 C 
ATOM     32  C   UNL     1       8.444  46.305  19.077  1.00  0.00     0.017 C 
ATOM     33  C   UNL     1       7.981  49.030  21.605  1.00  0.00    -0.022 C 
ATOM     34  C   UNL     1       8.468  46.469  21.915  1.00  0.00     0.005 C 
ATOM     35  C   UNL     1       8.787  50.393  21.456  1.00  0.00     0.012 C 
ATOM     36  C   UNL     1       7.420  48.962  23.122  1.00  0.00     0.024 C 
ATOM     37  C   UNL     1       8.148  46.575  23.408  1.00  0.00     0.008 C 
ATOM     38  C   UNL     1       6.984  47.560  23.758  1.00  0.00    -0.017 C 
ATOM     39  C   UNL     1       8.332  49.653  24.137  1.00  0.00    -0.024 C 
ATOM     40  C   UNL     1       5.693  47.049  23.060  1.00  0.00     0.013 C 
ATOM     41  C   UNL     1       6.715  47.664  25.411  1.00  0.00     0.009 C 
ATOM     42  C   UNL     1       7.897  49.883  25.374  1.00  0.00     0.005 C 
ATOM     43  C   UNL     1       6.637  49.191  25.852  1.00  0.00     0.096 C 
ATOM     44  C   UNL     1       5.382  46.986  25.910  1.00  0.00     0.043 C 
ATOM     45  C   UNL     1       7.865  46.948  26.206  1.00  0.00     0.015 C 
ATOM     46  C   UNL     1       6.362  49.516  27.333  1.00  0.00     0.037 C 
ATOM     47  O   UNL     1       5.493  49.747  25.214  1.00  0.00    -0.369 OA
ATOM     48  C   UNL     1       4.814  47.489  27.272  1.00  0.00     0.124 C 
ATOM     49  C   UNL     1       4.936  49.047  27.438  1.00  0.00     0.026 C 
ATOM     50  C   UNL     1       7.228  49.203  28.575  1.00  0.00     0.014 C 
ATOM     51  C   UNL     1       4.425  49.736  26.156  1.00  0.00     0.171 C 
ATOM     52  C   UNL     1       4.258  49.541  28.754  1.00  0.00     0.013 C 
ATOM     53  C   UNL     1       6.603  49.848  29.878  1.00  0.00    -0.035 C 
ATOM     54  C   UNL     1       5.164  50.440  29.631  1.00  0.00     0.007 C 
ATOM     55  C   UNL     1       6.529  48.804  31.004  1.00  0.00     0.011 C 
ATOM     56  C   UNL     1       7.514  51.016  30.351  1.00  0.00     0.011 C 
BRANCH  29  57
ATOM     57  C   UNL     1      10.695  47.336  19.405  1.00  0.00     0.165 C 
BRANCH  57  58
ATOM     58  O   UNL     1      11.289  48.386  18.667  1.00  0.00    -0.396 OA
ATOM     59  H   UNL     1      10.571  48.829  18.136  1.00  0.00     0.210 HD
ENDBRANCH  57  58
ENDBRANCH  29  57
BRANCH  48  60
ATOM     60  O   UNL     1       5.418  46.817  28.347  1.00  0.00    -0.392 OA
ATOM     61  H   UNL     1       5.087  45.874  28.324  1.00  0.00     0.210 HD
ENDBRANCH  48  60
ENDBRANCH  26  27
ENDBRANCH   6  26
BRANCH   5  62
ATOM     62  O   UNL     1       7.277  51.027  15.845  1.00  0.00    -0.385 OA
ATOM     63  H   UNL     1       7.966  51.747  15.807  1.00  0.00     0.211 HD
ENDBRANCH   5  62
TORSDOF 14
ENDMDL
MODEL 3
REMARK VINA RESULT:    -4.140      1.800      3.068
REMARK INTER + INTRA:          -3.936
REMARK INTER:                  -4.660
REMARK INTRA:                   0.725
REMARK UNBOUND:                 2.625
REMARK SMILES C[C@H]1O[C@@H](O[C@H]2CC[C@]3(C)[C@@H](CC[C@]4(C)[C@H]3C=C[C@]35OC[C@@]6(CCC(C)(C)C[C@H]63)[C@H](O)C[C@]54C)[C@]2(C)CO)[C@H](O)[C@@H](O[C@H]2O[C@H](CO)[C@H](O)[C@H](O)[C@@H]2O)[C@H]1O
REMARK SMILES IDX 1 1 2 2 54 3 41 4 39 5 4 6 3 7 55 8 42 10 43 11 52 12 44 13
REMARK SMILES IDX 50 14 45 15 48 16 53 17 51 19 46 21 47 22 49 24 5 26 6 27
REMARK SMILES IDX 7 28 35 29 8 30 11 31 36 32 9 33 12 34 10 35 16 36 13 37
REMARK SMILES IDX 14 38 17 39 15 40 33 41 18 42 19 43 32 44 34 45 29 46 20 47
REMARK SMILES IDX 30 48 22 49 28 50 21 51 23 52 25 53 24 54 26 55 27 56 37 57
REMARK SMILES IDX 38 58 31 60 40 62
REMARK H PARENT 55 9 53 18 51 20 47 23 49 25 38 59 31 61 40 63
REMARK Flexibility Score: inf
ROOT
ATOM      1  C   UNL     1       7.018  50.884  18.603  1.00  0.00     0.041 C 
ATOM      2  C   UNL     1       8.236  50.004  18.247  1.00  0.00     0.150 C 
ATOM      3  C   UNL     1       8.367  49.769  16.701  1.00  0.00     0.175 C 
ATOM      4  C   UNL     1       8.428  48.269  16.389  1.00  0.00     0.186 C 
ATOM      5  C   UNL     1       9.530  47.640  17.286  1.00  0.00     0.202 C 
ATOM      6  C   UNL     1       9.348  48.016  18.791  1.00  0.00     0.282 C 
ATOM      7  O   UNL     1       8.168  48.778  18.988  1.00  0.00    -0.344 OA
ENDROOT
BRANCH   3   8
ATOM      8  O   UNL     1       7.272  50.325  15.986  1.00  0.00    -0.388 OA
ATOM      9  H   UNL     1       6.483  50.263  16.591  1.00  0.00     0.211 HD
ENDBRANCH   3   8
BRANCH   4  10
ATOM     10  O   UNL     1       7.135  47.761  16.664  1.00  0.00    -0.341 OA
BRANCH  10  11
ATOM     11  C   UNL     1       6.221  47.763  15.572  1.00  0.00     0.282 C 
ATOM     12  C   UNL     1       5.034  46.732  15.687  1.00  0.00     0.202 C 
ATOM     13  O   UNL     1       6.972  47.537  14.376  1.00  0.00    -0.341 OA
ATOM     14  C   UNL     1       5.391  45.275  15.302  1.00  0.00     0.179 C 
ATOM     15  C   UNL     1       7.527  46.218  14.401  1.00  0.00     0.178 C 
ATOM     16  C   UNL     1       6.412  45.191  14.155  1.00  0.00     0.177 C 
BRANCH  12  17
ATOM     17  O   UNL     1       3.934  47.176  14.929  1.00  0.00    -0.385 OA
ATOM     18  H   UNL     1       4.265  47.830  14.264  1.00  0.00     0.211 HD
ENDBRANCH  12  17
BRANCH  14  19
ATOM     19  O   UNL     1       4.214  44.597  14.918  1.00  0.00    -0.387 OA
ATOM     20  H   UNL     1       4.182  43.751  15.442  1.00  0.00     0.211 HD
ENDBRANCH  14  19
BRANCH  15  21
ATOM     21  C   UNL     1       8.672  46.090  13.385  1.00  0.00     0.191 C 
BRANCH  21  22
ATOM     22  O   UNL     1       9.821  45.542  13.981  1.00  0.00    -0.394 OA
ATOM     23  H   UNL     1       9.855  45.899  14.912  1.00  0.00     0.210 HD
ENDBRANCH  21  22
ENDBRANCH  15  21
BRANCH  16  24
ATOM     24  O   UNL     1       5.799  45.431  12.906  1.00  0.00    -0.387 OA
ATOM     25  H   UNL     1       5.197  44.664  12.731  1.00  0.00     0.211 HD
ENDBRANCH  16  24
ENDBRANCH  10  11
ENDBRANCH   4  10
BRANCH   6  26
ATOM     26  O   UNL     1       9.245  46.802  19.533  1.00  0.00    -0.346 OA
BRANCH  26  27
ATOM     27  C   UNL     1       9.229  46.996  20.951  1.00  0.00     0.130 C 
ATOM     28  C   UNL     1       8.860  48.470  21.255  1.00  0.00     0.033 C 
ATOM     29  C   UNL     1       8.235  45.975  21.624  1.00  0.00     0.020 C 
ATOM     30  C   UNL     1       8.219  48.749  22.633  1.00  0.00     0.010 C 
ATOM     31  C   UNL     1       7.954  46.288  23.194  1.00  0.00     0.006 C 
ATOM     32  C   UNL     1       6.927  45.998  20.769  1.00  0.00     0.017 C 
ATOM     33  C   UNL     1       8.485  47.679  23.732  1.00  0.00    -0.022 C 
ATOM     34  C   UNL     1       6.479  45.992  23.577  1.00  0.00     0.005 C 
ATOM     35  C   UNL     1      10.064  47.649  23.920  1.00  0.00     0.012 C 
ATOM     36  C   UNL     1       7.836  48.101  25.154  1.00  0.00     0.024 C 
ATOM     37  C   UNL     1       6.100  46.290  25.030  1.00  0.00     0.008 C 
ATOM     38  C   UNL     1       6.300  47.779  25.465  1.00  0.00    -0.017 C 
ATOM     39  C   UNL     1       8.649  47.622  26.357  1.00  0.00    -0.024 C 
ATOM     40  C   UNL     1       5.389  48.669  24.575  1.00  0.00     0.013 C 
ATOM     41  C   UNL     1       5.909  48.027  27.078  1.00  0.00     0.009 C 
ATOM     42  C   UNL     1       8.374  48.086  27.573  1.00  0.00     0.005 C 
ATOM     43  C   UNL     1       7.076  48.833  27.800  1.00  0.00     0.096 C 
ATOM     44  C   UNL     1       4.584  48.845  27.322  1.00  0.00     0.043 C 
ATOM     45  C   UNL     1       5.689  46.656  27.813  1.00  0.00     0.015 C 
ATOM     46  C   UNL     1       6.907  49.199  29.287  1.00  0.00     0.037 C 
ATOM     47  O   UNL     1       7.130  50.118  27.188  1.00  0.00    -0.369 OA
ATOM     48  C   UNL     1       4.449  49.556  28.703  1.00  0.00     0.124 C 
ATOM     49  C   UNL     1       5.797  50.209  29.178  1.00  0.00     0.026 C 
ATOM     50  C   UNL     1       6.797  48.263  30.513  1.00  0.00     0.014 C 
ATOM     51  C   UNL     1       6.405  51.022  28.017  1.00  0.00     0.171 C 
ATOM     52  C   UNL     1       5.611  51.013  30.503  1.00  0.00     0.013 C 
ATOM     53  C   UNL     1       6.768  49.094  31.860  1.00  0.00    -0.035 C 
ATOM     54  C   UNL     1       6.628  50.644  31.612  1.00  0.00     0.007 C 
ATOM     55  C   UNL     1       5.608  48.622  32.750  1.00  0.00     0.011 C 
ATOM     56  C   UNL     1       8.101  48.863  32.626  1.00  0.00     0.011 C 
BRANCH  29  57
ATOM     57  C   UNL     1       8.822  44.534  21.481  1.00  0.00     0.165 C 
BRANCH  57  58
ATOM     58  O   UNL     1       8.399  43.681  22.526  1.00  0.00    -0.396 OA
ATOM     59  H   UNL     1       8.538  44.162  23.388  1.00  0.00     0.210 HD
ENDBRANCH  57  58
ENDBRANCH  29  57
BRANCH  48  60
ATOM     60  O   UNL     1       3.944  48.676  29.673  1.00  0.00    -0.392 OA
ATOM     61  H   UNL     1       4.726  48.187  30.060  1.00  0.00     0.210 HD
ENDBRANCH  48  60
ENDBRANCH  26  27
ENDBRANCH   6  26
BRANCH   5  62
ATOM     62  O   UNL     1      10.822  48.028  16.838  1.00  0.00    -0.385 OA
ATOM     63  H   UNL     1      11.295  47.207  16.529  1.00  0.00     0.211 HD
ENDBRANCH   5  62
TORSDOF 14
ENDMDL
