MODEL 1
REMARK VINA RESULT:    -6.561      0.000      0.000
REMARK INTER + INTRA:         -10.653
REMARK INTER:                 -10.012
REMARK INTRA:                  -0.641
REMARK UNBOUND:                -0.641
REMARK SMILES COc1cc(C=CCOC(=O)C=Cc2ccc(O)c(OC)c2)ccc1O
REMARK SMILES IDX 9 1 8 2 7 3 6 4 5 5 3 6 25 7 4 8 24 9 23 10 2 11 1 12 26 13
REMARK SMILES IDX 10 15 11 16 12 17 13 18 14 19 22 20 15 21 19 22 16 23 17 24
REMARK SMILES IDX 20 25 21 26 18 27
REMARK H PARENT 26 14 18 28
REMARK Flexibility Score: inf
ROOT
ATOM      1  O   UNL     1       1.641  36.579  63.168  1.00  0.00    -0.458 OA
ENDROOT
BRANCH   1   2
ATOM      2  C   UNL     1       1.519  35.356  62.449  1.00  0.00     0.261 C 
BRANCH   2   3
ATOM      3  C   UNL     1       0.077  34.967  62.359  1.00  0.00     0.015 C 
ATOM      4  C   UNL     1      -0.819  35.435  63.237  1.00  0.00     0.007 C 
BRANCH   4   5
ATOM      5  C   UNL     1      -2.259  35.081  63.219  1.00  0.00    -0.022 A 
ATOM      6  C   UNL     1      -4.460  35.016  62.147  1.00  0.00     0.161 A 
ATOM      7  C   UNL     1      -4.990  34.398  63.287  1.00  0.00     0.157 A 
ATOM      8  C   UNL     1      -3.094  35.361  62.117  1.00  0.00     0.058 A 
ATOM      9  C   UNL     1      -4.168  34.135  64.389  1.00  0.00     0.051 A 
ATOM     10  C   UNL     1      -2.815  34.478  64.357  1.00  0.00     0.012 A 
BRANCH   6  11
ATOM     11  O   UNL     1      -5.321  35.274  61.067  1.00  0.00    -0.493 OA
ATOM     12  C   UNL     1      -4.916  35.853  59.832  1.00  0.00     0.278 C 
ENDBRANCH   6  11
BRANCH   7  13
ATOM     13  O   UNL     1      -6.340  34.052  63.320  1.00  0.00    -0.504 OA
ATOM     14  H   UNL     1      -6.697  33.370  63.979  1.00  0.00     0.293 HD
ENDBRANCH   7  13
ENDBRANCH   4   5
ENDBRANCH   2   3
ENDBRANCH   1   2
BRANCH   1  15
ATOM     15  C   UNL     1       1.892  37.801  62.539  1.00  0.00     0.331 C 
ATOM     16  O   UNL     1       1.170  38.806  62.788  1.00  0.00    -0.247 OA
BRANCH  15  17
ATOM     17  C   UNL     1       3.011  37.892  61.587  1.00  0.00     0.094 C 
ATOM     18  C   UNL     1       4.290  37.924  61.987  1.00  0.00     0.016 C 
BRANCH  18  19
ATOM     19  C   UNL     1       5.442  38.027  61.056  1.00  0.00    -0.021 A 
ATOM     20  C   UNL     1       5.288  38.373  59.698  1.00  0.00     0.058 A 
ATOM     21  C   UNL     1       6.724  37.734  61.542  1.00  0.00     0.012 A 
ATOM     22  C   UNL     1       6.409  38.452  58.846  1.00  0.00     0.161 A 
ATOM     23  C   UNL     1       7.837  37.810  60.702  1.00  0.00     0.051 A 
ATOM     24  C   UNL     1       7.683  38.171  59.358  1.00  0.00     0.157 A 
BRANCH  22  25
ATOM     25  O   UNL     1       6.296  38.798  57.491  1.00  0.00    -0.493 OA
ATOM     26  C   UNL     1       5.643  39.967  57.007  1.00  0.00     0.278 C 
ENDBRANCH  22  25
BRANCH  24  27
ATOM     27  O   UNL     1       8.795  38.250  58.521  1.00  0.00    -0.504 OA
ATOM     28  H   UNL     1       9.183  37.427  58.075  1.00  0.00     0.293 HD
ENDBRANCH  24  27
ENDBRANCH  18  19
ENDBRANCH  15  17
ENDBRANCH   1  15
TORSDOF 10
ENDMDL
MODEL 2
REMARK VINA RESULT:    -6.520      1.293      2.449
REMARK INTER + INTRA:         -10.592
REMARK INTER:                  -9.971
REMARK INTRA:                  -0.621
REMARK UNBOUND:                -0.641
REMARK SMILES COc1cc(C=CCOC(=O)C=Cc2ccc(O)c(OC)c2)ccc1O
REMARK SMILES IDX 9 1 8 2 7 3 6 4 5 5 3 6 25 7 4 8 24 9 23 10 2 11 1 12 26 13
REMARK SMILES IDX 10 15 11 16 12 17 13 18 14 19 22 20 15 21 19 22 16 23 17 24
REMARK SMILES IDX 20 25 21 26 18 27
REMARK H PARENT 26 14 18 28
REMARK Flexibility Score: inf
ROOT
ATOM      1  O   UNL     1       1.848  35.911  62.331  1.00  0.00    -0.458 OA
ENDROOT
BRANCH   1   2
ATOM      2  C   UNL     1       1.176  36.989  62.974  1.00  0.00     0.261 C 
BRANCH   2   3
ATOM      3  C   UNL     1      -0.206  36.561  63.360  1.00  0.00     0.015 C 
ATOM      4  C   UNL     1      -0.793  35.514  62.767  1.00  0.00     0.007 C 
BRANCH   4   5
ATOM      5  C   UNL     1      -2.163  35.044  63.086  1.00  0.00    -0.022 A 
ATOM      6  C   UNL     1      -3.778  33.886  64.518  1.00  0.00     0.161 A 
ATOM      7  C   UNL     1      -4.790  34.167  63.591  1.00  0.00     0.157 A 
ATOM      8  C   UNL     1      -2.462  34.322  64.260  1.00  0.00     0.058 A 
ATOM      9  C   UNL     1      -4.494  34.867  62.417  1.00  0.00     0.051 A 
ATOM     10  C   UNL     1      -3.190  35.297  62.164  1.00  0.00     0.012 A 
BRANCH   6  11
ATOM     11  O   UNL     1      -4.114  33.170  65.678  1.00  0.00    -0.493 OA
ATOM     12  C   UNL     1      -3.610  31.880  66.007  1.00  0.00     0.278 C 
ENDBRANCH   6  11
BRANCH   7  13
ATOM     13  O   UNL     1      -6.094  33.740  63.844  1.00  0.00    -0.504 OA
ATOM     14  H   UNL     1      -6.808  33.765  63.127  1.00  0.00     0.293 HD
ENDBRANCH   7  13
ENDBRANCH   4   5
ENDBRANCH   2   3
ENDBRANCH   1   2
BRANCH   1  15
ATOM     15  C   UNL     1       3.093  35.438  62.754  1.00  0.00     0.331 C 
ATOM     16  O   UNL     1       3.167  34.542  63.640  1.00  0.00    -0.247 OA
BRANCH  15  17
ATOM     17  C   UNL     1       4.309  36.001  62.146  1.00  0.00     0.094 C 
ATOM     18  C   UNL     1       4.264  36.839  61.100  1.00  0.00     0.016 C 
BRANCH  18  19
ATOM     19  C   UNL     1       5.471  37.416  60.456  1.00  0.00    -0.021 A 
ATOM     20  C   UNL     1       5.426  38.059  59.202  1.00  0.00     0.058 A 
ATOM     21  C   UNL     1       6.706  37.283  61.108  1.00  0.00     0.012 A 
ATOM     22  C   UNL     1       6.598  38.586  58.624  1.00  0.00     0.161 A 
ATOM     23  C   UNL     1       7.869  37.804  60.538  1.00  0.00     0.051 A 
ATOM     24  C   UNL     1       7.819  38.457  59.301  1.00  0.00     0.157 A 
BRANCH  22  25
ATOM     25  O   UNL     1       6.592  39.237  57.380  1.00  0.00    -0.493 OA
ATOM     26  C   UNL     1       6.181  40.585  57.176  1.00  0.00     0.278 C 
ENDBRANCH  22  25
BRANCH  24  27
ATOM     27  O   UNL     1       8.980  38.979  58.734  1.00  0.00    -0.504 OA
ATOM     28  H   UNL     1       9.126  39.977  58.647  1.00  0.00     0.293 HD
ENDBRANCH  24  27
ENDBRANCH  18  19
ENDBRANCH  15  17
ENDBRANCH   1  15
TORSDOF 10
ENDMDL
MODEL 3
REMARK VINA RESULT:    -6.432      1.088     10.592
REMARK INTER + INTRA:         -10.457
REMARK INTER:                  -9.857
REMARK INTRA:                  -0.600
REMARK UNBOUND:                -0.641
REMARK SMILES COc1cc(C=CCOC(=O)C=Cc2ccc(O)c(OC)c2)ccc1O
REMARK SMILES IDX 9 1 8 2 7 3 6 4 5 5 3 6 25 7 4 8 24 9 23 10 2 11 1 12 26 13
REMARK SMILES IDX 10 15 11 16 12 17 13 18 14 19 22 20 15 21 19 22 16 23 17 24
REMARK SMILES IDX 20 25 21 26 18 27
REMARK H PARENT 26 14 18 28
REMARK Flexibility Score: inf
ROOT
ATOM      1  O   UNL     1       2.040  35.558  62.404  1.00  0.00    -0.458 OA
ENDROOT
BRANCH   1   2
ATOM      2  C   UNL     1       3.171  35.433  63.260  1.00  0.00     0.261 C 
BRANCH   2   3
ATOM      3  C   UNL     1       4.368  36.051  62.607  1.00  0.00     0.015 C 
ATOM      4  C   UNL     1       4.276  36.618  61.398  1.00  0.00     0.007 C 
BRANCH   4   5
ATOM      5  C   UNL     1       5.421  37.235  60.684  1.00  0.00    -0.022 A 
ATOM      6  C   UNL     1       6.372  38.599  58.886  1.00  0.00     0.161 A 
ATOM      7  C   UNL     1       7.657  38.339  59.379  1.00  0.00     0.157 A 
ATOM      8  C   UNL     1       5.254  38.041  59.539  1.00  0.00     0.058 A 
ATOM      9  C   UNL     1       7.827  37.526  60.505  1.00  0.00     0.051 A 
ATOM     10  C   UNL     1       6.718  36.974  61.148  1.00  0.00     0.012 A 
BRANCH   6  11
ATOM     11  O   UNL     1       6.245  39.410  57.747  1.00  0.00    -0.493 OA
ATOM     12  C   UNL     1       5.006  39.861  57.210  1.00  0.00     0.278 C 
ENDBRANCH   6  11
BRANCH   7  13
ATOM     13  O   UNL     1       8.766  38.892  58.738  1.00  0.00    -0.504 OA
ATOM     14  H   UNL     1       9.687  38.871  59.159  1.00  0.00     0.293 HD
ENDBRANCH   7  13
ENDBRANCH   4   5
ENDBRANCH   2   3
ENDBRANCH   1   2
BRANCH   1  15
ATOM     15  C   UNL     1       0.852  36.172  62.808  1.00  0.00     0.331 C 
ATOM     16  O   UNL     1       0.853  37.374  63.193  1.00  0.00    -0.247 OA
BRANCH  15  17
ATOM     17  C   UNL     1      -0.396  35.392  62.774  1.00  0.00     0.094 C 
ATOM     18  C   UNL     1      -1.435  35.667  63.575  1.00  0.00     0.016 C 
BRANCH  18  19
ATOM     19  C   UNL     1      -2.702  34.894  63.575  1.00  0.00    -0.021 A 
ATOM     20  C   UNL     1      -3.550  34.829  62.451  1.00  0.00     0.058 A 
ATOM     21  C   UNL     1      -3.083  34.234  64.753  1.00  0.00     0.012 A 
ATOM     22  C   UNL     1      -4.748  34.089  62.497  1.00  0.00     0.161 A 
ATOM     23  C   UNL     1      -4.270  33.499  64.802  1.00  0.00     0.051 A 
ATOM     24  C   UNL     1      -5.100  33.422  63.679  1.00  0.00     0.157 A 
BRANCH  22  25
ATOM     25  O   UNL     1      -5.614  33.996  61.396  1.00  0.00    -0.493 OA
ATOM     26  C   UNL     1      -5.219  33.591  60.089  1.00  0.00     0.278 C 
ENDBRANCH  22  25
BRANCH  24  27
ATOM     27  O   UNL     1      -6.283  32.687  63.729  1.00  0.00    -0.504 OA
ATOM     28  H   UNL     1      -6.797  32.567  64.593  1.00  0.00     0.293 HD
ENDBRANCH  24  27
ENDBRANCH  18  19
ENDBRANCH  15  17
ENDBRANCH   1  15
TORSDOF 10
ENDMDL
MODEL 4
REMARK VINA RESULT:    -6.222      5.834      8.883
REMARK INTER + INTRA:         -10.136
REMARK INTER:                  -9.277
REMARK INTRA:                  -0.858
REMARK UNBOUND:                -0.641
REMARK SMILES COc1cc(C=CCOC(=O)C=Cc2ccc(O)c(OC)c2)ccc1O
REMARK SMILES IDX 9 1 8 2 7 3 6 4 5 5 3 6 25 7 4 8 24 9 23 10 2 11 1 12 26 13
REMARK SMILES IDX 10 15 11 16 12 17 13 18 14 19 22 20 15 21 19 22 16 23 17 24
REMARK SMILES IDX 20 25 21 26 18 27
REMARK H PARENT 26 14 18 28
REMARK Flexibility Score: inf
ROOT
ATOM      1  O   UNL     1      -5.754  32.277  56.476  1.00  0.00    -0.458 OA
ENDROOT
BRANCH   1   2
ATOM      2  C   UNL     1      -6.086  33.321  57.385  1.00  0.00     0.261 C 
BRANCH   2   3
ATOM      3  C   UNL     1      -5.117  33.323  58.526  1.00  0.00     0.015 C 
ATOM      4  C   UNL     1      -4.178  34.271  58.630  1.00  0.00     0.007 C 
BRANCH   4   5
ATOM      5  C   UNL     1      -3.176  34.328  59.722  1.00  0.00    -0.022 A 
ATOM      6  C   UNL     1      -2.519  34.774  62.039  1.00  0.00     0.161 A 
ATOM      7  C   UNL     1      -1.198  34.432  61.723  1.00  0.00     0.157 A 
ATOM      8  C   UNL     1      -3.506  34.725  61.034  1.00  0.00     0.058 A 
ATOM      9  C   UNL     1      -0.863  34.054  60.418  1.00  0.00     0.051 A 
ATOM     10  C   UNL     1      -1.842  34.008  59.424  1.00  0.00     0.012 A 
BRANCH   6  11
ATOM     11  O   UNL     1      -2.812  35.159  63.357  1.00  0.00    -0.493 OA
ATOM     12  C   UNL     1      -3.542  34.366  64.287  1.00  0.00     0.278 C 
ENDBRANCH   6  11
BRANCH   7  13
ATOM     13  O   UNL     1      -0.218  34.476  62.715  1.00  0.00    -0.504 OA
ATOM     14  H   UNL     1       0.680  34.914  62.553  1.00  0.00     0.293 HD
ENDBRANCH   7  13
ENDBRANCH   4   5
ENDBRANCH   2   3
ENDBRANCH   1   2
BRANCH   1  15
ATOM     15  C   UNL     1      -5.782  32.446  55.089  1.00  0.00     0.331 C 
ATOM     16  O   UNL     1      -6.840  32.218  54.440  1.00  0.00    -0.247 OA
BRANCH  15  17
ATOM     17  C   UNL     1      -4.559  32.896  54.405  1.00  0.00     0.094 C 
ATOM     18  C   UNL     1      -3.348  32.403  54.706  1.00  0.00     0.016 C 
BRANCH  18  19
ATOM     19  C   UNL     1      -2.094  32.842  54.045  1.00  0.00    -0.021 A 
ATOM     20  C   UNL     1      -1.915  34.150  53.552  1.00  0.00     0.058 A 
ATOM     21  C   UNL     1      -1.064  31.904  53.874  1.00  0.00     0.012 A 
ATOM     22  C   UNL     1      -0.709  34.522  52.924  1.00  0.00     0.161 A 
ATOM     23  C   UNL     1       0.132  32.269  53.253  1.00  0.00     0.051 A 
ATOM     24  C   UNL     1       0.313  33.574  52.781  1.00  0.00     0.157 A 
BRANCH  22  25
ATOM     25  O   UNL     1      -0.493  35.817  52.427  1.00  0.00    -0.493 OA
ATOM     26  C   UNL     1      -0.271  36.967  53.236  1.00  0.00     0.278 C 
ENDBRANCH  22  25
BRANCH  24  27
ATOM     27  O   UNL     1       1.508  33.937  52.162  1.00  0.00    -0.504 OA
ATOM     28  H   UNL     1       2.403  33.604  52.499  1.00  0.00     0.293 HD
ENDBRANCH  24  27
ENDBRANCH  18  19
ENDBRANCH  15  17
ENDBRANCH   1  15
TORSDOF 10
ENDMDL
MODEL 5
REMARK VINA RESULT:    -6.191      1.045      2.065
REMARK INTER + INTRA:         -10.090
REMARK INTER:                  -9.480
REMARK INTRA:                  -0.610
REMARK UNBOUND:                -0.641
REMARK SMILES COc1cc(C=CCOC(=O)C=Cc2ccc(O)c(OC)c2)ccc1O
REMARK SMILES IDX 9 1 8 2 7 3 6 4 5 5 3 6 25 7 4 8 24 9 23 10 2 11 1 12 26 13
REMARK SMILES IDX 10 15 11 16 12 17 13 18 14 19 22 20 15 21 19 22 16 23 17 24
REMARK SMILES IDX 20 25 21 26 18 27
REMARK H PARENT 26 14 18 28
REMARK Flexibility Score: inf
ROOT
ATOM      1  O   UNL     1       1.412  36.208  61.956  1.00  0.00    -0.458 OA
ENDROOT
BRANCH   1   2
ATOM      2  C   UNL     1       1.263  35.139  62.885  1.00  0.00     0.261 C 
BRANCH   2   3
ATOM      3  C   UNL     1      -0.139  34.619  62.833  1.00  0.00     0.015 C 
ATOM      4  C   UNL     1      -1.165  35.360  63.272  1.00  0.00     0.007 C 
BRANCH   4   5
ATOM      5  C   UNL     1      -2.577  34.905  63.266  1.00  0.00    -0.022 A 
ATOM      6  C   UNL     1      -4.685  34.400  62.127  1.00  0.00     0.161 A 
ATOM      7  C   UNL     1      -5.259  34.056  63.358  1.00  0.00     0.157 A 
ATOM      8  C   UNL     1      -3.344  34.829  62.085  1.00  0.00     0.058 A 
ATOM      9  C   UNL     1      -4.507  34.146  64.534  1.00  0.00     0.051 A 
ATOM     10  C   UNL     1      -3.178  34.572  64.489  1.00  0.00     0.012 A 
BRANCH   6  11
ATOM     11  O   UNL     1      -5.478  34.307  60.971  1.00  0.00    -0.493 OA
ATOM     12  C   UNL     1      -4.993  33.932  59.687  1.00  0.00     0.278 C 
ENDBRANCH   6  11
BRANCH   7  13
ATOM     13  O   UNL     1      -6.586  33.628  63.404  1.00  0.00    -0.504 OA
ATOM     14  H   UNL     1      -6.854  32.786  63.899  1.00  0.00     0.293 HD
ENDBRANCH   7  13
ENDBRANCH   4   5
ENDBRANCH   2   3
ENDBRANCH   1   2
BRANCH   1  15
ATOM     15  C   UNL     1       1.852  37.480  62.333  1.00  0.00     0.331 C 
ATOM     16  O   UNL     1       1.125  38.218  63.054  1.00  0.00    -0.247 OA
BRANCH  15  17
ATOM     17  C   UNL     1       3.174  37.937  61.875  1.00  0.00     0.094 C 
ATOM     18  C   UNL     1       3.872  37.281  60.936  1.00  0.00     0.016 C 
BRANCH  18  19
ATOM     19  C   UNL     1       5.212  37.707  60.460  1.00  0.00    -0.021 A 
ATOM     20  C   UNL     1       6.356  37.670  61.284  1.00  0.00     0.058 A 
ATOM     21  C   UNL     1       5.333  38.197  59.151  1.00  0.00     0.012 A 
ATOM     22  C   UNL     1       7.608  38.091  60.793  1.00  0.00     0.161 A 
ATOM     23  C   UNL     1       6.571  38.615  58.661  1.00  0.00     0.051 A 
ATOM     24  C   UNL     1       7.708  38.561  59.475  1.00  0.00     0.157 A 
BRANCH  22  25
ATOM     25  O   UNL     1       8.769  38.063  61.581  1.00  0.00    -0.493 OA
ATOM     26  C   UNL     1       8.899  37.345  62.803  1.00  0.00     0.278 C 
ENDBRANCH  22  25
BRANCH  24  27
ATOM     27  O   UNL     1       8.944  38.977  58.984  1.00  0.00    -0.504 OA
ATOM     28  H   UNL     1       9.132  39.024  57.990  1.00  0.00     0.293 HD
ENDBRANCH  24  27
ENDBRANCH  18  19
ENDBRANCH  15  17
ENDBRANCH   1  15
TORSDOF 10
ENDMDL
MODEL 6
REMARK VINA RESULT:    -6.186      5.798     10.910
REMARK INTER + INTRA:         -10.082
REMARK INTER:                  -9.443
REMARK INTRA:                  -0.639
REMARK UNBOUND:                -0.641
REMARK SMILES COc1cc(C=CCOC(=O)C=Cc2ccc(O)c(OC)c2)ccc1O
REMARK SMILES IDX 9 1 8 2 7 3 6 4 5 5 3 6 25 7 4 8 24 9 23 10 2 11 1 12 26 13
REMARK SMILES IDX 10 15 11 16 12 17 13 18 14 19 22 20 15 21 19 22 16 23 17 24
REMARK SMILES IDX 20 25 21 26 18 27
REMARK H PARENT 26 14 18 28
REMARK Flexibility Score: inf
ROOT
ATOM      1  O   UNL     1      -5.422  33.496  56.747  1.00  0.00    -0.458 OA
ENDROOT
BRANCH   1   2
ATOM      2  C   UNL     1      -4.573  32.363  56.597  1.00  0.00     0.261 C 
BRANCH   2   3
ATOM      3  C   UNL     1      -3.323  32.764  55.877  1.00  0.00     0.015 C 
ATOM      4  C   UNL     1      -3.159  32.486  54.577  1.00  0.00     0.007 C 
BRANCH   4   5
ATOM      5  C   UNL     1      -1.943  32.838  53.803  1.00  0.00    -0.022 A 
ATOM      6  C   UNL     1      -0.701  34.270  52.253  1.00  0.00     0.161 A 
ATOM      7  C   UNL     1       0.399  33.407  52.348  1.00  0.00     0.157 A 
ATOM      8  C   UNL     1      -1.874  33.980  52.979  1.00  0.00     0.058 A 
ATOM      9  C   UNL     1       0.327  32.264  53.152  1.00  0.00     0.051 A 
ATOM     10  C   UNL     1      -0.836  31.978  53.869  1.00  0.00     0.012 A 
BRANCH   6  11
ATOM     11  O   UNL     1      -0.592  35.400  51.427  1.00  0.00    -0.493 OA
ATOM     12  C   UNL     1      -0.992  36.715  51.800  1.00  0.00     0.278 C 
ENDBRANCH   6  11
BRANCH   7  13
ATOM     13  O   UNL     1       1.563  33.692  51.635  1.00  0.00    -0.504 OA
ATOM     14  H   UNL     1       2.477  33.632  52.066  1.00  0.00     0.293 HD
ENDBRANCH   7  13
ENDBRANCH   4   5
ENDBRANCH   2   3
ENDBRANCH   1   2
BRANCH   1  15
ATOM     15  C   UNL     1      -5.142  34.538  57.635  1.00  0.00     0.331 C 
ATOM     16  O   UNL     1      -5.147  35.735  57.236  1.00  0.00    -0.247 OA
BRANCH  15  17
ATOM     17  C   UNL     1      -4.844  34.210  59.039  1.00  0.00     0.094 C 
ATOM     18  C   UNL     1      -4.905  35.127  60.016  1.00  0.00     0.016 C 
BRANCH  18  19
ATOM     19  C   UNL     1      -4.600  34.834  61.439  1.00  0.00    -0.021 A 
ATOM     20  C   UNL     1      -3.352  35.133  62.023  1.00  0.00     0.058 A 
ATOM     21  C   UNL     1      -5.582  34.204  62.218  1.00  0.00     0.012 A 
ATOM     22  C   UNL     1      -3.103  34.830  63.377  1.00  0.00     0.161 A 
ATOM     23  C   UNL     1      -5.339  33.902  63.559  1.00  0.00     0.051 A 
ATOM     24  C   UNL     1      -4.105  34.216  64.141  1.00  0.00     0.157 A 
BRANCH  22  25
ATOM     25  O   UNL     1      -1.876  35.118  63.995  1.00  0.00    -0.493 OA
ATOM     26  C   UNL     1      -0.941  36.083  63.525  1.00  0.00     0.278 C 
ENDBRANCH  22  25
BRANCH  24  27
ATOM     27  O   UNL     1      -3.864  33.917  65.481  1.00  0.00    -0.504 OA
ATOM     28  H   UNL     1      -2.949  34.041  65.896  1.00  0.00     0.293 HD
ENDBRANCH  24  27
ENDBRANCH  18  19
ENDBRANCH  15  17
ENDBRANCH   1  15
TORSDOF 10
ENDMDL
MODEL 7
REMARK VINA RESULT:    -6.113      1.602      2.355
REMARK INTER + INTRA:          -9.971
REMARK INTER:                  -9.523
REMARK INTRA:                  -0.448
REMARK UNBOUND:                -0.641
REMARK SMILES COc1cc(C=CCOC(=O)C=Cc2ccc(O)c(OC)c2)ccc1O
REMARK SMILES IDX 9 1 8 2 7 3 6 4 5 5 3 6 25 7 4 8 24 9 23 10 2 11 1 12 26 13
REMARK SMILES IDX 10 15 11 16 12 17 13 18 14 19 22 20 15 21 19 22 16 23 17 24
REMARK SMILES IDX 20 25 21 26 18 27
REMARK H PARENT 26 14 18 28
REMARK Flexibility Score: inf
ROOT
ATOM      1  O   UNL     1       2.318  36.491  61.969  1.00  0.00    -0.458 OA
ENDROOT
BRANCH   1   2
ATOM      2  C   UNL     1       1.746  35.477  62.788  1.00  0.00     0.261 C 
BRANCH   2   3
ATOM      3  C   UNL     1       0.253  35.554  62.714  1.00  0.00     0.015 C 
ATOM      4  C   UNL     1      -0.515  34.638  63.318  1.00  0.00     0.007 C 
BRANCH   4   5
ATOM      5  C   UNL     1      -1.997  34.642  63.275  1.00  0.00    -0.022 A 
ATOM      6  C   UNL     1      -4.131  35.168  62.195  1.00  0.00     0.161 A 
ATOM      7  C   UNL     1      -4.812  34.631  63.295  1.00  0.00     0.157 A 
ATOM      8  C   UNL     1      -2.722  35.177  62.190  1.00  0.00     0.058 A 
ATOM      9  C   UNL     1      -4.096  34.115  64.381  1.00  0.00     0.051 A 
ATOM     10  C   UNL     1      -2.701  34.125  64.373  1.00  0.00     0.012 A 
BRANCH   6  11
ATOM     11  O   UNL     1      -4.887  35.686  61.131  1.00  0.00    -0.493 OA
ATOM     12  C   UNL     1      -4.699  35.340  59.762  1.00  0.00     0.278 C 
ENDBRANCH   6  11
BRANCH   7  13
ATOM     13  O   UNL     1      -6.207  34.617  63.303  1.00  0.00    -0.504 OA
ATOM     14  H   UNL     1      -6.741  35.328  63.788  1.00  0.00     0.293 HD
ENDBRANCH   7  13
ENDBRANCH   4   5
ENDBRANCH   2   3
ENDBRANCH   1   2
BRANCH   1  15
ATOM     15  C   UNL     1       3.689  36.565  61.706  1.00  0.00     0.331 C 
ATOM     16  O   UNL     1       4.503  35.855  62.359  1.00  0.00    -0.247 OA
BRANCH  15  17
ATOM     17  C   UNL     1       4.160  37.481  60.655  1.00  0.00     0.094 C 
ATOM     18  C   UNL     1       5.460  37.762  60.481  1.00  0.00     0.016 C 
BRANCH  18  19
ATOM     19  C   UNL     1       5.969  38.690  59.439  1.00  0.00    -0.021 A 
ATOM     20  C   UNL     1       6.875  39.730  59.729  1.00  0.00     0.058 A 
ATOM     21  C   UNL     1       5.499  38.545  58.126  1.00  0.00     0.012 A 
ATOM     22  C   UNL     1       7.327  40.593  58.711  1.00  0.00     0.161 A 
ATOM     23  C   UNL     1       5.944  39.397  57.114  1.00  0.00     0.051 A 
ATOM     24  C   UNL     1       6.857  40.418  57.401  1.00  0.00     0.157 A 
BRANCH  22  25
ATOM     25  O   UNL     1       8.233  41.636  58.960  1.00  0.00    -0.493 OA
ATOM     26  C   UNL     1       9.649  41.489  58.977  1.00  0.00     0.278 C 
ENDBRANCH  22  25
BRANCH  24  27
ATOM     27  O   UNL     1       7.302  41.268  56.390  1.00  0.00    -0.504 OA
ATOM     28  H   UNL     1       7.558  42.229  56.579  1.00  0.00     0.293 HD
ENDBRANCH  24  27
ENDBRANCH  18  19
ENDBRANCH  15  17
ENDBRANCH   1  15
TORSDOF 10
ENDMDL
MODEL 8
REMARK VINA RESULT:    -6.101      5.868      8.575
REMARK INTER + INTRA:          -9.951
REMARK INTER:                  -9.432
REMARK INTRA:                  -0.520
REMARK UNBOUND:                -0.641
REMARK SMILES COc1cc(C=CCOC(=O)C=Cc2ccc(O)c(OC)c2)ccc1O
REMARK SMILES IDX 9 1 8 2 7 3 6 4 5 5 3 6 25 7 4 8 24 9 23 10 2 11 1 12 26 13
REMARK SMILES IDX 10 15 11 16 12 17 13 18 14 19 22 20 15 21 19 22 16 23 17 24
REMARK SMILES IDX 20 25 21 26 18 27
REMARK H PARENT 26 14 18 28
REMARK Flexibility Score: inf
ROOT
ATOM      1  O   UNL     1      -5.107  32.220  57.137  1.00  0.00    -0.458 OA
ENDROOT
BRANCH   1   2
ATOM      2  C   UNL     1      -5.762  33.294  57.802  1.00  0.00     0.261 C 
BRANCH   2   3
ATOM      3  C   UNL     1      -5.562  33.168  59.280  1.00  0.00     0.015 C 
ATOM      4  C   UNL     1      -4.946  34.132  59.976  1.00  0.00     0.007 C 
BRANCH   4   5
ATOM      5  C   UNL     1      -4.698  34.068  61.437  1.00  0.00    -0.022 A 
ATOM      6  C   UNL     1      -3.345  34.522  63.427  1.00  0.00     0.161 A 
ATOM      7  C   UNL     1      -4.302  33.873  64.217  1.00  0.00     0.157 A 
ATOM      8  C   UNL     1      -3.544  34.614  62.035  1.00  0.00     0.058 A 
ATOM      9  C   UNL     1      -5.440  33.315  63.626  1.00  0.00     0.051 A 
ATOM     10  C   UNL     1      -5.634  33.407  62.246  1.00  0.00     0.012 A 
BRANCH   6  11
ATOM     11  O   UNL     1      -2.210  35.059  64.058  1.00  0.00    -0.493 OA
ATOM     12  C   UNL     1      -1.211  35.832  63.402  1.00  0.00     0.278 C 
ENDBRANCH   6  11
BRANCH   7  13
ATOM     13  O   UNL     1      -4.111  33.782  65.596  1.00  0.00    -0.504 OA
ATOM     14  H   UNL     1      -3.895  32.900  66.044  1.00  0.00     0.293 HD
ENDBRANCH   7  13
ENDBRANCH   4   5
ENDBRANCH   2   3
ENDBRANCH   1   2
BRANCH   1  15
ATOM     15  C   UNL     1      -5.148  32.053  55.750  1.00  0.00     0.331 C 
ATOM     16  O   UNL     1      -6.251  31.885  55.160  1.00  0.00    -0.247 OA
BRANCH  15  17
ATOM     17  C   UNL     1      -3.885  32.081  54.995  1.00  0.00     0.094 C 
ATOM     18  C   UNL     1      -3.255  33.226  54.695  1.00  0.00     0.016 C 
BRANCH  18  19
ATOM     19  C   UNL     1      -1.986  33.290  53.926  1.00  0.00    -0.021 A 
ATOM     20  C   UNL     1      -1.615  34.420  53.170  1.00  0.00     0.058 A 
ATOM     21  C   UNL     1      -1.146  32.167  53.927  1.00  0.00     0.012 A 
ATOM     22  C   UNL     1      -0.404  34.435  52.449  1.00  0.00     0.161 A 
ATOM     23  C   UNL     1       0.054  32.177  53.214  1.00  0.00     0.051 A 
ATOM     24  C   UNL     1       0.429  33.308  52.478  1.00  0.00     0.157 A 
BRANCH  22  25
ATOM     25  O   UNL     1       0.001  35.544  51.690  1.00  0.00    -0.493 OA
ATOM     26  C   UNL     1       0.785  36.622  52.189  1.00  0.00     0.278 C 
ENDBRANCH  22  25
BRANCH  24  27
ATOM     27  O   UNL     1       1.628  33.318  51.768  1.00  0.00    -0.504 OA
ATOM     28  H   UNL     1       1.700  32.914  50.842  1.00  0.00     0.293 HD
ENDBRANCH  24  27
ENDBRANCH  18  19
ENDBRANCH  15  17
ENDBRANCH   1  15
TORSDOF 10
ENDMDL
MODEL 9
REMARK VINA RESULT:    -5.969      1.216     10.932
REMARK INTER + INTRA:          -9.751
REMARK INTER:                  -9.222
REMARK INTRA:                  -0.529
REMARK UNBOUND:                -0.641
REMARK SMILES COc1cc(C=CCOC(=O)C=Cc2ccc(O)c(OC)c2)ccc1O
REMARK SMILES IDX 9 1 8 2 7 3 6 4 5 5 3 6 25 7 4 8 24 9 23 10 2 11 1 12 26 13
REMARK SMILES IDX 10 15 11 16 12 17 13 18 14 19 22 20 15 21 19 22 16 23 17 24
REMARK SMILES IDX 20 25 21 26 18 27
REMARK H PARENT 26 14 18 28
REMARK Flexibility Score: inf
ROOT
ATOM      1  O   UNL     1       1.439  36.117  61.910  1.00  0.00    -0.458 OA
ENDROOT
BRANCH   1   2
ATOM      2  C   UNL     1       1.930  37.315  62.501  1.00  0.00     0.261 C 
BRANCH   2   3
ATOM      3  C   UNL     1       3.352  37.533  62.090  1.00  0.00     0.015 C 
ATOM      4  C   UNL     1       3.678  37.709  60.804  1.00  0.00     0.007 C 
BRANCH   4   5
ATOM      5  C   UNL     1       5.066  37.914  60.322  1.00  0.00    -0.022 A 
ATOM      6  C   UNL     1       7.494  37.907  60.643  1.00  0.00     0.161 A 
ATOM      7  C   UNL     1       7.662  38.360  59.329  1.00  0.00     0.157 A 
ATOM      8  C   UNL     1       6.193  37.690  61.140  1.00  0.00     0.058 A 
ATOM      9  C   UNL     1       6.546  38.600  58.520  1.00  0.00     0.051 A 
ATOM     10  C   UNL     1       5.258  38.385  59.014  1.00  0.00     0.012 A 
BRANCH   6  11
ATOM     11  O   UNL     1       8.640  37.689  61.426  1.00  0.00    -0.493 OA
ATOM     12  C   UNL     1       8.889  38.308  62.683  1.00  0.00     0.278 C 
ENDBRANCH   6  11
BRANCH   7  13
ATOM     13  O   UNL     1       8.948  38.573  58.832  1.00  0.00    -0.504 OA
ATOM     14  H   UNL     1       9.157  38.482  57.845  1.00  0.00     0.293 HD
ENDBRANCH   7  13
ENDBRANCH   4   5
ENDBRANCH   2   3
ENDBRANCH   1   2
BRANCH   1  15
ATOM     15  C   UNL     1       0.973  35.038  62.666  1.00  0.00     0.331 C 
ATOM     16  O   UNL     1       1.760  34.396  63.415  1.00  0.00    -0.247 OA
BRANCH  15  17
ATOM     17  C   UNL     1      -0.449  34.670  62.573  1.00  0.00     0.094 C 
ATOM     18  C   UNL     1      -1.312  34.885  63.577  1.00  0.00     0.016 C 
BRANCH  18  19
ATOM     19  C   UNL     1      -2.749  34.516  63.521  1.00  0.00    -0.021 A 
ATOM     20  C   UNL     1      -3.484  34.513  62.318  1.00  0.00     0.058 A 
ATOM     21  C   UNL     1      -3.404  34.193  64.719  1.00  0.00     0.012 A 
ATOM     22  C   UNL     1      -4.849  34.162  62.312  1.00  0.00     0.161 A 
ATOM     23  C   UNL     1      -4.756  33.846  64.717  1.00  0.00     0.051 A 
ATOM     24  C   UNL     1      -5.479  33.826  63.519  1.00  0.00     0.157 A 
BRANCH  22  25
ATOM     25  O   UNL     1      -5.611  34.142  61.134  1.00  0.00    -0.493 OA
ATOM     26  C   UNL     1      -5.066  34.113  59.819  1.00  0.00     0.278 C 
ENDBRANCH  22  25
BRANCH  24  27
ATOM     27  O   UNL     1      -6.828  33.477  63.518  1.00  0.00    -0.504 OA
ATOM     28  H   UNL     1      -7.474  33.859  62.838  1.00  0.00     0.293 HD
ENDBRANCH  24  27
ENDBRANCH  18  19
ENDBRANCH  15  17
ENDBRANCH   1  15
TORSDOF 10
ENDMDL
