MODEL 1
REMARK VINA RESULT:    -4.680      0.000      0.000
REMARK INTER + INTRA:         -11.090
REMARK INTER:                  -8.510
REMARK INTRA:                  -2.579
REMARK UNBOUND:                -2.579
REMARK SMILES CCCCCCCCCCCCCC[C@@H](C)C(=O)[O-]
REMARK SMILES IDX 9 1 10 2 11 3 12 4 13 5 14 6 15 7 16 8 17 9 18 10 19 11 8 12
REMARK SMILES IDX 7 13 6 14 5 15 4 16 3 17 2 18 1 19
REMARK H PARENT
REMARK Flexibility Score: inf
ROOT
ATOM      1  C   UNL     1      -1.516 -47.747  17.346  1.00  0.00     0.000 C 
ENDROOT
BRANCH   1   2
ATOM      2  C   UNL     1      -1.678 -46.629  18.391  1.00  0.00     0.000 C 
BRANCH   2   3
ATOM      3  C   UNL     1      -2.053 -45.280  17.757  1.00  0.00     0.000 C 
BRANCH   3   4
ATOM      4  C   UNL     1      -1.699 -45.214  16.262  1.00  0.00     0.000 C 
BRANCH   4   5
ATOM      5  C   UNL     1      -2.886 -44.772  15.387  1.00  0.00     0.001 C 
BRANCH   5   6
ATOM      6  C   UNL     1      -4.082 -45.747  15.365  1.00  0.00     0.009 C 
BRANCH   6   7
ATOM      7  C   UNL     1      -5.426 -45.148  15.839  1.00  0.00     0.032 C 
ATOM      8  C   UNL     1      -5.253 -43.779  16.514  1.00  0.00     0.014 C 
BRANCH   7   9
ATOM      9  C   UNL     1      -6.367 -45.027  14.672  1.00  0.00     0.044 C 
ATOM     10  O   UNL     1      -7.572 -45.382  14.780  1.00  0.00    -0.550 OA
ATOM     11  O   UNL     1      -5.913 -44.508  13.466  1.00  0.00    -0.550 OA
ENDBRANCH   7   9
ENDBRANCH   6   7
ENDBRANCH   5   6
ENDBRANCH   4   5
ENDBRANCH   3   4
ENDBRANCH   2   3
ENDBRANCH   1   2
BRANCH   1  12
ATOM     12  C   UNL     1      -2.358 -48.990  17.675  1.00  0.00     0.000 C 
BRANCH  12  13
ATOM     13  C   UNL     1      -3.674 -49.037  16.884  1.00  0.00    -0.000 C 
BRANCH  13  14
ATOM     14  C   UNL     1      -4.852 -48.574  17.751  1.00  0.00    -0.000 C 
BRANCH  14  15
ATOM     15  C   UNL     1      -4.543 -48.757  19.243  1.00  0.00    -0.000 C 
BRANCH  15  16
ATOM     16  C   UNL     1      -4.648 -47.447  20.045  1.00  0.00    -0.000 C 
BRANCH  16  17
ATOM     17  C   UNL     1      -5.306 -46.275  19.291  1.00  0.00    -0.000 C 
BRANCH  17  18
ATOM     18  C   UNL     1      -6.269 -45.464  20.171  1.00  0.00    -0.003 C 
ATOM     19  C   UNL     1      -5.857 -43.995  20.226  1.00  0.00     0.004 C 
ENDBRANCH  17  18
ENDBRANCH  16  17
ENDBRANCH  15  16
ENDBRANCH  14  15
ENDBRANCH  13  14
ENDBRANCH  12  13
ENDBRANCH   1  12
TORSDOF 14
ENDMDL
MODEL 2
REMARK VINA RESULT:    -4.585      1.628      4.323
REMARK INTER + INTRA:         -10.916
REMARK INTER:                  -8.066
REMARK INTRA:                  -2.850
REMARK UNBOUND:                -2.579
REMARK SMILES CCCCCCCCCCCCCC[C@@H](C)C(=O)[O-]
REMARK SMILES IDX 9 1 10 2 11 3 12 4 13 5 14 6 15 7 16 8 17 9 18 10 19 11 8 12
REMARK SMILES IDX 7 13 6 14 5 15 4 16 3 17 2 18 1 19
REMARK H PARENT
REMARK Flexibility Score: inf
ROOT
ATOM      1  C   UNL     1      -3.944 -48.797  16.983  1.00  0.00     0.000 C 
ENDROOT
BRANCH   1   2
ATOM      2  C   UNL     1      -5.012 -48.264  17.955  1.00  0.00     0.000 C 
BRANCH   2   3
ATOM      3  C   UNL     1      -4.626 -48.478  19.427  1.00  0.00     0.000 C 
BRANCH   3   4
ATOM      4  C   UNL     1      -4.707 -47.182  20.251  1.00  0.00     0.000 C 
BRANCH   4   5
ATOM      5  C   UNL     1      -5.255 -45.993  19.441  1.00  0.00     0.001 C 
BRANCH   5   6
ATOM      6  C   UNL     1      -6.068 -44.965  20.256  1.00  0.00     0.009 C 
BRANCH   6   7
ATOM      7  C   UNL     1      -5.763 -43.483  19.935  1.00  0.00     0.032 C 
ATOM      8  C   UNL     1      -4.278 -43.244  19.626  1.00  0.00     0.014 C 
BRANCH   7   9
ATOM      9  C   UNL     1      -6.605 -43.033  18.774  1.00  0.00     0.044 C 
ATOM     10  O   UNL     1      -6.261 -42.039  18.079  1.00  0.00    -0.550 OA
ATOM     11  O   UNL     1      -7.768 -43.722  18.452  1.00  0.00    -0.550 OA
ENDBRANCH   7   9
ENDBRANCH   6   7
ENDBRANCH   5   6
ENDBRANCH   4   5
ENDBRANCH   3   4
ENDBRANCH   2   3
ENDBRANCH   1   2
BRANCH   1  12
ATOM     12  C   UNL     1      -2.568 -48.957  17.647  1.00  0.00     0.000 C 
BRANCH  12  13
ATOM     13  C   UNL     1      -1.592 -47.834  17.263  1.00  0.00    -0.000 C 
BRANCH  13  14
ATOM     14  C   UNL     1      -1.589 -46.725  18.322  1.00  0.00    -0.000 C 
BRANCH  14  15
ATOM     15  C   UNL     1      -2.101 -45.402  17.735  1.00  0.00    -0.000 C 
BRANCH  15  16
ATOM     16  C   UNL     1      -1.884 -45.294  16.216  1.00  0.00    -0.000 C 
BRANCH  16  17
ATOM     17  C   UNL     1      -3.172 -45.149  15.383  1.00  0.00    -0.000 C 
BRANCH  17  18
ATOM     18  C   UNL     1      -4.353 -44.603  16.199  1.00  0.00    -0.003 C 
ATOM     19  C   UNL     1      -5.657 -45.290  15.805  1.00  0.00     0.004 C 
ENDBRANCH  17  18
ENDBRANCH  16  17
ENDBRANCH  15  16
ENDBRANCH  14  15
ENDBRANCH  13  14
ENDBRANCH  12  13
ENDBRANCH   1  12
TORSDOF 14
ENDMDL
MODEL 3
REMARK VINA RESULT:    -4.578      2.216      4.952
REMARK INTER + INTRA:         -10.905
REMARK INTER:                  -8.138
REMARK INTRA:                  -2.766
REMARK UNBOUND:                -2.579
REMARK SMILES CCCCCCCCCCCCCC[C@@H](C)C(=O)[O-]
REMARK SMILES IDX 9 1 10 2 11 3 12 4 13 5 14 6 15 7 16 8 17 9 18 10 19 11 8 12
REMARK SMILES IDX 7 13 6 14 5 15 4 16 3 17 2 18 1 19
REMARK H PARENT
REMARK Flexibility Score: inf
ROOT
ATOM      1  C   UNL     1      -2.689 -44.613  15.533  1.00  0.00     0.000 C 
ENDROOT
BRANCH   1   2
ATOM      2  C   UNL     1      -3.542 -45.659  14.794  1.00  0.00     0.000 C 
BRANCH   2   3
ATOM      3  C   UNL     1      -4.866 -45.955  15.516  1.00  0.00     0.000 C 
BRANCH   3   4
ATOM      4  C   UNL     1      -4.837 -47.291  16.276  1.00  0.00     0.000 C 
BRANCH   4   5
ATOM      5  C   UNL     1      -5.441 -47.189  17.688  1.00  0.00     0.001 C 
BRANCH   5   6
ATOM      6  C   UNL     1      -6.349 -45.963  17.924  1.00  0.00     0.009 C 
BRANCH   6   7
ATOM      7  C   UNL     1      -6.115 -45.220  19.260  1.00  0.00     0.032 C 
ATOM      8  C   UNL     1      -5.244 -46.027  20.234  1.00  0.00     0.014 C 
BRANCH   7   9
ATOM      9  C   UNL     1      -5.481 -43.884  18.993  1.00  0.00     0.044 C 
ATOM     10  O   UNL     1      -5.382 -43.445  17.816  1.00  0.00    -0.550 OA
ATOM     11  O   UNL     1      -5.010 -43.116  20.051  1.00  0.00    -0.550 OA
ENDBRANCH   7   9
ENDBRANCH   6   7
ENDBRANCH   5   6
ENDBRANCH   4   5
ENDBRANCH   3   4
ENDBRANCH   2   3
ENDBRANCH   1   2
BRANCH   1  12
ATOM     12  C   UNL     1      -1.688 -45.250  16.510  1.00  0.00     0.000 C 
BRANCH  12  13
ATOM     13  C   UNL     1      -2.197 -45.253  17.959  1.00  0.00    -0.000 C 
BRANCH  13  14
ATOM     14  C   UNL     1      -1.941 -46.609  18.627  1.00  0.00    -0.000 C 
BRANCH  14  15
ATOM     15  C   UNL     1      -1.362 -47.617  17.624  1.00  0.00    -0.000 C 
BRANCH  15  16
ATOM     16  C   UNL     1      -2.038 -48.997  17.700  1.00  0.00    -0.000 C 
BRANCH  16  17
ATOM     17  C   UNL     1      -2.136 -49.747  16.358  1.00  0.00    -0.000 C 
BRANCH  17  18
ATOM     18  C   UNL     1      -1.497 -48.976  15.194  1.00  0.00    -0.003 C 
ATOM     19  C   UNL     1      -0.338 -49.761  14.585  1.00  0.00     0.004 C 
ENDBRANCH  17  18
ENDBRANCH  16  17
ENDBRANCH  15  16
ENDBRANCH  14  15
ENDBRANCH  13  14
ENDBRANCH  12  13
ENDBRANCH   1  12
TORSDOF 14
ENDMDL
MODEL 4
REMARK VINA RESULT:    -4.571      0.922      1.870
REMARK INTER + INTRA:         -10.892
REMARK INTER:                  -8.431
REMARK INTRA:                  -2.461
REMARK UNBOUND:                -2.579
REMARK SMILES CCCCCCCCCCCCCC[C@@H](C)C(=O)[O-]
REMARK SMILES IDX 9 1 10 2 11 3 12 4 13 5 14 6 15 7 16 8 17 9 18 10 19 11 8 12
REMARK SMILES IDX 7 13 6 14 5 15 4 16 3 17 2 18 1 19
REMARK H PARENT
REMARK Flexibility Score: inf
ROOT
ATOM      1  C   UNL     1      -2.405 -49.034  17.491  1.00  0.00     0.000 C 
ENDROOT
BRANCH   1   2
ATOM      2  C   UNL     1      -1.590 -47.774  17.147  1.00  0.00     0.000 C 
BRANCH   2   3
ATOM      3  C   UNL     1      -1.636 -46.720  18.266  1.00  0.00     0.000 C 
BRANCH   3   4
ATOM      4  C   UNL     1      -1.989 -45.319  17.741  1.00  0.00     0.000 C 
BRANCH   4   5
ATOM      5  C   UNL     1      -1.777 -45.180  16.223  1.00  0.00     0.001 C 
BRANCH   5   6
ATOM      6  C   UNL     1      -2.926 -44.485  15.462  1.00  0.00     0.009 C 
BRANCH   6   7
ATOM      7  C   UNL     1      -4.050 -45.426  14.968  1.00  0.00     0.032 C 
ATOM      8  C   UNL     1      -5.280 -45.402  15.887  1.00  0.00     0.014 C 
BRANCH   7   9
ATOM      9  C   UNL     1      -4.449 -45.048  13.569  1.00  0.00     0.044 C 
ATOM     10  O   UNL     1      -3.813 -44.161  12.938  1.00  0.00    -0.550 OA
ATOM     11  O   UNL     1      -5.519 -45.689  12.956  1.00  0.00    -0.550 OA
ENDBRANCH   7   9
ENDBRANCH   6   7
ENDBRANCH   5   6
ENDBRANCH   4   5
ENDBRANCH   3   4
ENDBRANCH   2   3
ENDBRANCH   1   2
BRANCH   1  12
ATOM     12  C   UNL     1      -3.800 -49.028  16.847  1.00  0.00     0.000 C 
BRANCH  12  13
ATOM     13  C   UNL     1      -4.881 -48.473  17.787  1.00  0.00    -0.000 C 
BRANCH  13  14
ATOM     14  C   UNL     1      -4.538 -48.767  19.252  1.00  0.00    -0.000 C 
BRANCH  14  15
ATOM     15  C   UNL     1      -4.601 -47.488  20.100  1.00  0.00    -0.000 C 
BRANCH  15  16
ATOM     16  C   UNL     1      -5.366 -46.346  19.409  1.00  0.00    -0.000 C 
BRANCH  16  17
ATOM     17  C   UNL     1      -6.070 -45.363  20.365  1.00  0.00    -0.000 C 
BRANCH  17  18
ATOM     18  C   UNL     1      -6.053 -43.916  19.852  1.00  0.00    -0.003 C 
ATOM     19  C   UNL     1      -4.680 -43.544  19.300  1.00  0.00     0.004 C 
ENDBRANCH  17  18
ENDBRANCH  16  17
ENDBRANCH  15  16
ENDBRANCH  14  15
ENDBRANCH  13  14
ENDBRANCH  12  13
ENDBRANCH   1  12
TORSDOF 14
ENDMDL
MODEL 5
REMARK VINA RESULT:    -4.550      1.208      1.899
REMARK INTER + INTRA:         -10.853
REMARK INTER:                  -7.957
REMARK INTRA:                  -2.896
REMARK UNBOUND:                -2.579
REMARK SMILES CCCCCCCCCCCCCC[C@@H](C)C(=O)[O-]
REMARK SMILES IDX 9 1 10 2 11 3 12 4 13 5 14 6 15 7 16 8 17 9 18 10 19 11 8 12
REMARK SMILES IDX 7 13 6 14 5 15 4 16 3 17 2 18 1 19
REMARK H PARENT
REMARK Flexibility Score: inf
ROOT
ATOM      1  C   UNL     1      -1.320 -47.297  16.496  1.00  0.00     0.000 C 
ENDROOT
BRANCH   1   2
ATOM      2  C   UNL     1      -1.618 -46.676  17.872  1.00  0.00     0.000 C 
BRANCH   2   3
ATOM      3  C   UNL     1      -2.227 -45.270  17.764  1.00  0.00     0.000 C 
BRANCH   3   4
ATOM      4  C   UNL     1      -2.580 -44.891  16.316  1.00  0.00     0.000 C 
BRANCH   4   5
ATOM      5  C   UNL     1      -4.094 -44.728  16.093  1.00  0.00     0.001 C 
BRANCH   5   6
ATOM      6  C   UNL     1      -4.767 -45.872  15.306  1.00  0.00     0.009 C 
BRANCH   6   7
ATOM      7  C   UNL     1      -4.260 -46.059  13.857  1.00  0.00     0.032 C 
ATOM      8  C   UNL     1      -3.684 -47.461  13.614  1.00  0.00     0.014 C 
BRANCH   7   9
ATOM      9  C   UNL     1      -5.380 -45.791  12.890  1.00  0.00     0.044 C 
ATOM     10  O   UNL     1      -6.145 -44.803  13.053  1.00  0.00    -0.550 OA
ATOM     11  O   UNL     1      -5.568 -46.629  11.798  1.00  0.00    -0.550 OA
ENDBRANCH   7   9
ENDBRANCH   6   7
ENDBRANCH   5   6
ENDBRANCH   4   5
ENDBRANCH   3   4
ENDBRANCH   2   3
ENDBRANCH   1   2
BRANCH   1  12
ATOM     12  C   UNL     1      -1.517 -48.821  16.480  1.00  0.00     0.000 C 
BRANCH  12  13
ATOM     13  C   UNL     1      -2.617 -49.284  17.446  1.00  0.00    -0.000 C 
BRANCH  13  14
ATOM     14  C   UNL     1      -4.000 -49.193  16.788  1.00  0.00    -0.000 C 
BRANCH  14  15
ATOM     15  C   UNL     1      -5.041 -48.634  17.768  1.00  0.00    -0.000 C 
BRANCH  15  16
ATOM     16  C   UNL     1      -4.547 -48.619  19.226  1.00  0.00    -0.000 C 
BRANCH  16  17
ATOM     17  C   UNL     1      -4.626 -47.248  19.923  1.00  0.00    -0.000 C 
BRANCH  17  18
ATOM     18  C   UNL     1      -5.508 -46.242  19.169  1.00  0.00    -0.003 C 
ATOM     19  C   UNL     1      -6.157 -45.251  20.131  1.00  0.00     0.004 C 
ENDBRANCH  17  18
ENDBRANCH  16  17
ENDBRANCH  15  16
ENDBRANCH  14  15
ENDBRANCH  13  14
ENDBRANCH  12  13
ENDBRANCH   1  12
TORSDOF 14
ENDMDL
MODEL 6
REMARK VINA RESULT:    -4.503      1.151      3.267
REMARK INTER + INTRA:         -10.767
REMARK INTER:                  -7.910
REMARK INTRA:                  -2.857
REMARK UNBOUND:                -2.579
REMARK SMILES CCCCCCCCCCCCCC[C@@H](C)C(=O)[O-]
REMARK SMILES IDX 9 1 10 2 11 3 12 4 13 5 14 6 15 7 16 8 17 9 18 10 19 11 8 12
REMARK SMILES IDX 7 13 6 14 5 15 4 16 3 17 2 18 1 19
REMARK H PARENT
REMARK Flexibility Score: inf
ROOT
ATOM      1  C   UNL     1      -3.132 -45.807  19.628  1.00  0.00     0.000 C 
ENDROOT
BRANCH   1   2
ATOM      2  C   UNL     1      -3.091 -44.959  18.344  1.00  0.00     0.000 C 
BRANCH   2   3
ATOM      3  C   UNL     1      -1.907 -45.325  17.435  1.00  0.00     0.000 C 
BRANCH   3   4
ATOM      4  C   UNL     1      -2.180 -45.010  15.956  1.00  0.00     0.000 C 
BRANCH   4   5
ATOM      5  C   UNL     1      -3.325 -45.854  15.368  1.00  0.00     0.001 C 
BRANCH   5   6
ATOM      6  C   UNL     1      -4.318 -45.079  14.476  1.00  0.00     0.009 C 
BRANCH   6   7
ATOM      7  C   UNL     1      -5.693 -44.789  15.121  1.00  0.00     0.032 C 
ATOM      8  C   UNL     1      -5.656 -43.572  16.057  1.00  0.00     0.014 C 
BRANCH   7   9
ATOM      9  C   UNL     1      -6.723 -44.577  14.047  1.00  0.00     0.044 C 
ATOM     10  O   UNL     1      -7.773 -45.275  14.019  1.00  0.00    -0.550 OA
ATOM     11  O   UNL     1      -6.528 -43.596  13.082  1.00  0.00    -0.550 OA
ENDBRANCH   7   9
ENDBRANCH   6   7
ENDBRANCH   5   6
ENDBRANCH   4   5
ENDBRANCH   3   4
ENDBRANCH   2   3
ENDBRANCH   1   2
BRANCH   1  12
ATOM     12  C   UNL     1      -4.412 -46.649  19.740  1.00  0.00     0.000 C 
BRANCH  12  13
ATOM     13  C   UNL     1      -5.423 -46.337  18.625  1.00  0.00    -0.000 C 
BRANCH  13  14
ATOM     14  C   UNL     1      -5.560 -47.522  17.662  1.00  0.00    -0.000 C 
BRANCH  14  15
ATOM     15  C   UNL     1      -4.699 -48.708  18.121  1.00  0.00    -0.000 C 
BRANCH  15  16
ATOM     16  C   UNL     1      -3.522 -48.999  17.174  1.00  0.00    -0.000 C 
BRANCH  16  17
ATOM     17  C   UNL     1      -2.131 -48.953  17.833  1.00  0.00    -0.000 C 
BRANCH  17  18
ATOM     18  C   UNL     1      -0.990 -48.818  16.813  1.00  0.00    -0.003 C 
ATOM     19  C   UNL     1      -1.502 -49.010  15.388  1.00  0.00     0.004 C 
ENDBRANCH  17  18
ENDBRANCH  16  17
ENDBRANCH  15  16
ENDBRANCH  14  15
ENDBRANCH  13  14
ENDBRANCH  12  13
ENDBRANCH   1  12
TORSDOF 14
ENDMDL
MODEL 7
REMARK VINA RESULT:    -4.503      1.895      3.668
REMARK INTER + INTRA:         -10.767
REMARK INTER:                  -7.917
REMARK INTRA:                  -2.850
REMARK UNBOUND:                -2.579
REMARK SMILES CCCCCCCCCCCCCC[C@@H](C)C(=O)[O-]
REMARK SMILES IDX 9 1 10 2 11 3 12 4 13 5 14 6 15 7 16 8 17 9 18 10 19 11 8 12
REMARK SMILES IDX 7 13 6 14 5 15 4 16 3 17 2 18 1 19
REMARK H PARENT
REMARK Flexibility Score: inf
ROOT
ATOM      1  C   UNL     1      -2.871 -44.879  18.427  1.00  0.00     0.000 C 
ENDROOT
BRANCH   1   2
ATOM      2  C   UNL     1      -1.935 -45.275  17.270  1.00  0.00     0.000 C 
BRANCH   2   3
ATOM      3  C   UNL     1      -2.491 -44.864  15.898  1.00  0.00     0.000 C 
BRANCH   3   4
ATOM      4  C   UNL     1      -3.305 -45.985  15.232  1.00  0.00     0.000 C 
BRANCH   4   5
ATOM      5  C   UNL     1      -4.824 -45.743  15.305  1.00  0.00     0.001 C 
BRANCH   5   6
ATOM      6  C   UNL     1      -5.240 -44.323  15.744  1.00  0.00     0.009 C 
BRANCH   6   7
ATOM      7  C   UNL     1      -6.674 -44.206  16.311  1.00  0.00     0.032 C 
ATOM      8  C   UNL     1      -7.361 -45.571  16.456  1.00  0.00     0.014 C 
BRANCH   7   9
ATOM      9  C   UNL     1      -6.636 -43.508  17.642  1.00  0.00     0.044 C 
ATOM     10  O   UNL     1      -6.964 -44.118  18.695  1.00  0.00    -0.550 OA
ATOM     11  O   UNL     1      -6.225 -42.183  17.720  1.00  0.00    -0.550 OA
ENDBRANCH   7   9
ENDBRANCH   6   7
ENDBRANCH   5   6
ENDBRANCH   4   5
ENDBRANCH   3   4
ENDBRANCH   2   3
ENDBRANCH   1   2
BRANCH   1  12
ATOM     12  C   UNL     1      -2.852 -45.898  19.577  1.00  0.00     0.000 C 
BRANCH  12  13
ATOM     13  C   UNL     1      -4.263 -46.325  20.010  1.00  0.00    -0.000 C 
BRANCH  13  14
ATOM     14  C   UNL     1      -5.010 -47.003  18.855  1.00  0.00    -0.000 C 
BRANCH  14  15
ATOM     15  C   UNL     1      -4.549 -48.457  18.680  1.00  0.00    -0.000 C 
BRANCH  15  16
ATOM     16  C   UNL     1      -4.611 -48.935  17.218  1.00  0.00    -0.000 C 
BRANCH  16  17
ATOM     17  C   UNL     1      -3.258 -49.353  16.613  1.00  0.00    -0.000 C 
BRANCH  17  18
ATOM     18  C   UNL     1      -2.064 -48.979  17.503  1.00  0.00    -0.003 C 
ATOM     19  C   UNL     1      -0.840 -48.626  16.662  1.00  0.00     0.004 C 
ENDBRANCH  17  18
ENDBRANCH  16  17
ENDBRANCH  15  16
ENDBRANCH  14  15
ENDBRANCH  13  14
ENDBRANCH  12  13
ENDBRANCH   1  12
TORSDOF 14
ENDMDL
MODEL 8
REMARK VINA RESULT:    -4.484      1.133      3.762
REMARK INTER + INTRA:         -10.733
REMARK INTER:                  -8.182
REMARK INTRA:                  -2.551
REMARK UNBOUND:                -2.579
REMARK SMILES CCCCCCCCCCCCCC[C@@H](C)C(=O)[O-]
REMARK SMILES IDX 9 1 10 2 11 3 12 4 13 5 14 6 15 7 16 8 17 9 18 10 19 11 8 12
REMARK SMILES IDX 7 13 6 14 5 15 4 16 3 17 2 18 1 19
REMARK H PARENT
REMARK Flexibility Score: inf
ROOT
ATOM      1  C   UNL     1      -4.938 -48.708  17.792  1.00  0.00     0.000 C 
ENDROOT
BRANCH   1   2
ATOM      2  C   UNL     1      -4.596 -48.417  19.264  1.00  0.00     0.000 C 
BRANCH   2   3
ATOM      3  C   UNL     1      -4.990 -46.994  19.690  1.00  0.00     0.000 C 
BRANCH   3   4
ATOM      4  C   UNL     1      -5.574 -46.173  18.529  1.00  0.00     0.000 C 
BRANCH   4   5
ATOM      5  C   UNL     1      -5.788 -44.693  18.894  1.00  0.00     0.001 C 
BRANCH   5   6
ATOM      6  C   UNL     1      -5.421 -43.685  17.784  1.00  0.00     0.009 C 
BRANCH   6   7
ATOM      7  C   UNL     1      -6.623 -42.978  17.115  1.00  0.00     0.032 C 
ATOM      8  C   UNL     1      -6.232 -41.640  16.472  1.00  0.00     0.014 C 
BRANCH   7   9
ATOM      9  C   UNL     1      -7.233 -43.884  16.082  1.00  0.00     0.044 C 
ATOM     10  O   UNL     1      -6.722 -43.982  14.934  1.00  0.00    -0.550 OA
ATOM     11  O   UNL     1      -8.361 -44.632  16.395  1.00  0.00    -0.550 OA
ENDBRANCH   7   9
ENDBRANCH   6   7
ENDBRANCH   5   6
ENDBRANCH   4   5
ENDBRANCH   3   4
ENDBRANCH   2   3
ENDBRANCH   1   2
BRANCH   1  12
ATOM     12  C   UNL     1      -3.691 -48.998  16.942  1.00  0.00     0.000 C 
BRANCH  12  13
ATOM     13  C   UNL     1      -2.395 -48.973  17.768  1.00  0.00    -0.000 C 
BRANCH  13  14
ATOM     14  C   UNL     1      -1.517 -47.779  17.374  1.00  0.00    -0.000 C 
BRANCH  14  15
ATOM     15  C   UNL     1      -1.646 -46.640  18.395  1.00  0.00    -0.000 C 
BRANCH  15  16
ATOM     16  C   UNL     1      -2.057 -45.302  17.755  1.00  0.00    -0.000 C 
BRANCH  16  17
ATOM     17  C   UNL     1      -1.692 -45.154  16.266  1.00  0.00    -0.000 C 
BRANCH  17  18
ATOM     18  C   UNL     1      -2.877 -44.696  15.403  1.00  0.00    -0.003 C 
ATOM     19  C   UNL     1      -3.775 -45.874  15.033  1.00  0.00     0.004 C 
ENDBRANCH  17  18
ENDBRANCH  16  17
ENDBRANCH  15  16
ENDBRANCH  14  15
ENDBRANCH  13  14
ENDBRANCH  12  13
ENDBRANCH   1  12
TORSDOF 14
ENDMDL
MODEL 9
REMARK VINA RESULT:    -4.424      1.987      2.739
REMARK INTER + INTRA:         -10.624
REMARK INTER:                  -7.955
REMARK INTRA:                  -2.669
REMARK UNBOUND:                -2.579
REMARK SMILES CCCCCCCCCCCCCC[C@@H](C)C(=O)[O-]
REMARK SMILES IDX 9 1 10 2 11 3 12 4 13 5 14 6 15 7 16 8 17 9 18 10 19 11 8 12
REMARK SMILES IDX 7 13 6 14 5 15 4 16 3 17 2 18 1 19
REMARK H PARENT
REMARK Flexibility Score: inf
ROOT
ATOM      1  C   UNL     1      -2.061 -47.100  16.048  1.00  0.00     0.000 C 
ENDROOT
BRANCH   1   2
ATOM      2  C   UNL     1      -1.628 -45.634  16.228  1.00  0.00     0.000 C 
BRANCH   2   3
ATOM      3  C   UNL     1      -2.738 -44.642  15.848  1.00  0.00     0.000 C 
BRANCH   3   4
ATOM      4  C   UNL     1      -3.801 -45.270  14.932  1.00  0.00     0.000 C 
BRANCH   4   5
ATOM      5  C   UNL     1      -5.139 -44.509  14.960  1.00  0.00     0.001 C 
BRANCH   5   6
ATOM      6  C   UNL     1      -5.409 -43.708  16.252  1.00  0.00     0.009 C 
BRANCH   6   7
ATOM      7  C   UNL     1      -6.701 -44.097  17.007  1.00  0.00     0.032 C 
ATOM      8  C   UNL     1      -6.900 -45.617  17.083  1.00  0.00     0.014 C 
BRANCH   7   9
ATOM      9  C   UNL     1      -6.673 -43.514  18.393  1.00  0.00     0.044 C 
ATOM     10  O   UNL     1      -7.591 -43.774  19.217  1.00  0.00    -0.550 OA
ATOM     11  O   UNL     1      -5.620 -42.693  18.779  1.00  0.00    -0.550 OA
ENDBRANCH   7   9
ENDBRANCH   6   7
ENDBRANCH   5   6
ENDBRANCH   4   5
ENDBRANCH   3   4
ENDBRANCH   2   3
ENDBRANCH   1   2
BRANCH   1  12
ATOM     12  C   UNL     1      -1.408 -48.040  17.074  1.00  0.00     0.000 C 
BRANCH  12  13
ATOM     13  C   UNL     1      -2.430 -48.947  17.776  1.00  0.00    -0.000 C 
BRANCH  13  14
ATOM     14  C   UNL     1      -3.768 -48.948  17.028  1.00  0.00    -0.000 C 
BRANCH  14  15
ATOM     15  C   UNL     1      -4.919 -48.529  17.955  1.00  0.00    -0.000 C 
BRANCH  15  16
ATOM     16  C   UNL     1      -4.468 -48.308  19.410  1.00  0.00    -0.000 C 
BRANCH  16  17
ATOM     17  C   UNL     1      -4.691 -46.883  19.950  1.00  0.00    -0.000 C 
BRANCH  17  18
ATOM     18  C   UNL     1      -3.930 -45.815  19.149  1.00  0.00    -0.003 C 
ATOM     19  C   UNL     1      -2.531 -45.595  19.718  1.00  0.00     0.004 C 
ENDBRANCH  17  18
ENDBRANCH  16  17
ENDBRANCH  15  16
ENDBRANCH  14  15
ENDBRANCH  13  14
ENDBRANCH  12  13
ENDBRANCH   1  12
TORSDOF 14
ENDMDL
