MODEL 1
REMARK VINA RESULT:    -2.163      0.000      0.000
REMARK INTER + INTRA:          -2.163
REMARK INTER:                  -2.163
REMARK INTRA:                   0.000
REMARK UNBOUND:                 0.000
REMARK SMILES CC(=O)[O-]
REMARK SMILES IDX 1 1 2 2 3 3 4 4
REMARK H PARENT
REMARK Flexibility Score: inf
ROOT
ATOM      1  C   UNL     1      68.709  51.583  49.917  1.00  0.00     0.063 C 
ATOM      2  C   UNL     1      68.649  50.551  50.991  1.00  0.00     0.038 C 
ATOM      3  O   UNL     1      67.993  49.491  50.811  1.00  0.00    -0.550 OA
ATOM      4  O   UNL     1      69.270  50.778  52.212  1.00  0.00    -0.550 OA
ENDROOT
TORSDOF 0
ENDMDL
MODEL 2
REMARK VINA RESULT:    -2.150      0.101      1.619
REMARK INTER + INTRA:          -2.150
REMARK INTER:                  -2.150
REMARK INTRA:                   0.000
REMARK UNBOUND:                 0.000
REMARK SMILES CC(=O)[O-]
REMARK SMILES IDX 1 1 2 2 3 3 4 4
REMARK H PARENT
REMARK Flexibility Score: inf
ROOT
ATOM      1  C   UNL     1      68.755  51.607  49.877  1.00  0.00     0.063 C 
ATOM      2  C   UNL     1      68.683  50.624  50.996  1.00  0.00     0.038 C 
ATOM      3  O   UNL     1      69.308  50.840  52.067  1.00  0.00    -0.550 OA
ATOM      4  O   UNL     1      67.972  49.442  50.839  1.00  0.00    -0.550 OA
ENDROOT
TORSDOF 0
ENDMDL
MODEL 3
REMARK VINA RESULT:    -2.035     14.795     15.537
REMARK INTER + INTRA:          -2.035
REMARK INTER:                  -2.035
REMARK INTRA:                   0.000
REMARK UNBOUND:                 0.000
REMARK SMILES CC(=O)[O-]
REMARK SMILES IDX 1 1 2 2 3 3 4 4
REMARK H PARENT
REMARK Flexibility Score: inf
ROOT
ATOM      1  C   UNL     1      61.716  36.093  47.801  1.00  0.00     0.063 C 
ATOM      2  C   UNL     1      61.284  37.516  47.908  1.00  0.00     0.038 C 
ATOM      3  O   UNL     1      62.058  38.375  48.407  1.00  0.00    -0.550 OA
ATOM      4  O   UNL     1      60.008  37.889  47.508  1.00  0.00    -0.550 OA
ENDROOT
TORSDOF 0
ENDMDL
MODEL 4
REMARK VINA RESULT:    -2.021     11.535     12.198
REMARK INTER + INTRA:          -2.021
REMARK INTER:                  -2.021
REMARK INTRA:                   0.000
REMARK UNBOUND:                 0.000
REMARK SMILES CC(=O)[O-]
REMARK SMILES IDX 1 1 2 2 3 3 4 4
REMARK H PARENT
REMARK Flexibility Score: inf
ROOT
ATOM      1  C   UNL     1      63.520  46.516  39.963  1.00  0.00     0.063 C 
ATOM      2  C   UNL     1      64.285  45.639  40.895  1.00  0.00     0.038 C 
ATOM      3  O   UNL     1      64.365  45.935  42.116  1.00  0.00    -0.550 OA
ATOM      4  O   UNL     1      64.957  44.525  40.410  1.00  0.00    -0.550 OA
ENDROOT
TORSDOF 0
ENDMDL
MODEL 5
REMARK VINA RESULT:    -1.994     15.202     15.771
REMARK INTER + INTRA:          -1.994
REMARK INTER:                  -1.994
REMARK INTRA:                   0.000
REMARK UNBOUND:                 0.000
REMARK SMILES CC(=O)[O-]
REMARK SMILES IDX 1 1 2 2 3 3 4 4
REMARK H PARENT
REMARK Flexibility Score: inf
ROOT
ATOM      1  C   UNL     1      59.379  37.774  47.070  1.00  0.00     0.063 C 
ATOM      2  C   UNL     1      60.513  37.464  47.987  1.00  0.00     0.038 C 
ATOM      3  O   UNL     1      60.412  36.526  48.820  1.00  0.00    -0.550 OA
ATOM      4  O   UNL     1      61.661  38.244  47.964  1.00  0.00    -0.550 OA
ENDROOT
TORSDOF 0
ENDMDL
MODEL 6
REMARK VINA RESULT:    -1.982     17.453     17.809
REMARK INTER + INTRA:          -1.982
REMARK INTER:                  -1.982
REMARK INTRA:                   0.000
REMARK UNBOUND:                 0.000
REMARK SMILES CC(=O)[O-]
REMARK SMILES IDX 1 1 2 2 3 3 4 4
REMARK H PARENT
REMARK Flexibility Score: inf
ROOT
ATOM      1  C   UNL     1      57.091  37.138  52.829  1.00  0.00     0.063 C 
ATOM      2  C   UNL     1      58.015  36.730  53.926  1.00  0.00     0.038 C 
ATOM      3  O   UNL     1      58.311  37.546  54.838  1.00  0.00    -0.550 OA
ATOM      4  O   UNL     1      58.595  35.469  53.915  1.00  0.00    -0.550 OA
ENDROOT
TORSDOF 0
ENDMDL
MODEL 7
REMARK VINA RESULT:    -1.969      1.939      2.440
REMARK INTER + INTRA:          -1.969
REMARK INTER:                  -1.969
REMARK INTRA:                   0.000
REMARK UNBOUND:                 0.000
REMARK SMILES CC(=O)[O-]
REMARK SMILES IDX 1 1 2 2 3 3 4 4
REMARK H PARENT
REMARK Flexibility Score: inf
ROOT
ATOM      1  C   UNL     1      68.330  50.208  50.955  1.00  0.00     0.063 C 
ATOM      2  C   UNL     1      68.947  51.383  50.278  1.00  0.00     0.038 C 
ATOM      3  O   UNL     1      70.198  51.529  50.284  1.00  0.00    -0.550 OA
ATOM      4  O   UNL     1      68.144  52.349  49.687  1.00  0.00    -0.550 OA
ENDROOT
TORSDOF 0
ENDMDL
MODEL 8
REMARK VINA RESULT:    -1.928      8.391      8.948
REMARK INTER + INTRA:          -1.928
REMARK INTER:                  -1.928
REMARK INTRA:                   0.000
REMARK UNBOUND:                 0.000
REMARK SMILES CC(=O)[O-]
REMARK SMILES IDX 1 1 2 2 3 3 4 4
REMARK H PARENT
REMARK Flexibility Score: inf
ROOT
ATOM      1  C   UNL     1      64.985  45.363  58.054  1.00  0.00     0.063 C 
ATOM      2  C   UNL     1      65.661  44.915  56.803  1.00  0.00     0.038 C 
ATOM      3  O   UNL     1      66.067  45.764  55.967  1.00  0.00    -0.550 OA
ATOM      4  O   UNL     1      65.796  43.560  56.531  1.00  0.00    -0.550 OA
ENDROOT
TORSDOF 0
ENDMDL
MODEL 9
REMARK VINA RESULT:    -1.918     11.751     12.359
REMARK INTER + INTRA:          -1.918
REMARK INTER:                  -1.918
REMARK INTRA:                   0.000
REMARK UNBOUND:                 0.000
REMARK SMILES CC(=O)[O-]
REMARK SMILES IDX 1 1 2 2 3 3 4 4
REMARK H PARENT
REMARK Flexibility Score: inf
ROOT
ATOM      1  C   UNL     1      65.043  44.248  40.015  1.00  0.00     0.063 C 
ATOM      2  C   UNL     1      64.638  45.569  40.575  1.00  0.00     0.038 C 
ATOM      3  O   UNL     1      64.615  46.588  39.836  1.00  0.00    -0.550 OA
ATOM      4  O   UNL     1      64.339  45.691  41.925  1.00  0.00    -0.550 OA
ENDROOT
TORSDOF 0
ENDMDL
