MODEL 1
REMARK VINA RESULT:    -3.632      0.000      0.000
REMARK INTER + INTRA:          -6.161
REMARK INTER:                  -5.331
REMARK INTRA:                  -0.830
REMARK UNBOUND:                -0.830
REMARK SMILES O=C([O-])CCCCCCCC(=O)[O-]
REMARK SMILES IDX 7 1 6 2 5 3 4 4 2 5 1 6 3 7 8 8 9 9 10 10 11 11 12 12 13 13
REMARK H PARENT
REMARK Flexibility Score: inf
ROOT
ATOM      1  C   UNL     1     183.373 180.735 201.204  1.00  0.00     0.000 C 
ENDROOT
BRANCH   1   2
ATOM      2  C   UNL     1     182.483 181.718 201.988  1.00  0.00     0.000 C 
BRANCH   2   3
ATOM      3  C   UNL     1     182.517 183.171 201.482  1.00  0.00     0.006 C 
BRANCH   3   4
ATOM      4  C   UNL     1     183.915 183.799 201.562  1.00  0.00     0.053 C 
BRANCH   4   5
ATOM      5  C   UNL     1     184.435 184.089 200.189  1.00  0.00     0.041 C 
ATOM      6  O   UNL     1     183.763 183.766 199.175  1.00  0.00    -0.550 OA
ATOM      7  O   UNL     1     185.641 184.762 200.031  1.00  0.00    -0.550 OA
ENDBRANCH   4   5
ENDBRANCH   3   4
ENDBRANCH   2   3
ENDBRANCH   1   2
BRANCH   1   8
ATOM      8  C   UNL     1     184.488 180.121 202.065  1.00  0.00     0.000 C 
BRANCH   8   9
ATOM      9  C   UNL     1     185.864 180.366 201.436  1.00  0.00     0.006 C 
BRANCH   9  10
ATOM     10  C   UNL     1     185.748 180.574 199.923  1.00  0.00     0.053 C 
BRANCH  10  11
ATOM     11  C   UNL     1     186.870 181.428 199.424  1.00  0.00     0.041 C 
ATOM     12  O   UNL     1     187.724 181.886 200.228  1.00  0.00    -0.550 OA
ATOM     13  O   UNL     1     187.002 181.678 198.064  1.00  0.00    -0.550 OA
ENDBRANCH  10  11
ENDBRANCH   9  10
ENDBRANCH   8   9
ENDBRANCH   1   8
TORSDOF 8
ENDMDL
MODEL 2
REMARK VINA RESULT:    -3.511      0.716      3.765
REMARK INTER + INTRA:          -5.983
REMARK INTER:                  -5.221
REMARK INTRA:                  -0.762
REMARK UNBOUND:                -0.830
REMARK SMILES O=C([O-])CCCCCCCC(=O)[O-]
REMARK SMILES IDX 7 1 6 2 5 3 4 4 2 5 1 6 3 7 8 8 9 9 10 10 11 11 12 12 13 13
REMARK H PARENT
REMARK Flexibility Score: inf
ROOT
ATOM      1  C   UNL     1     183.323 181.005 201.133  1.00  0.00     0.000 C 
ENDROOT
BRANCH   1   2
ATOM      2  C   UNL     1     184.380 180.027 201.680  1.00  0.00     0.000 C 
BRANCH   2   3
ATOM      3  C   UNL     1     185.822 180.305 201.222  1.00  0.00     0.006 C 
BRANCH   3   4
ATOM      4  C   UNL     1     185.970 180.329 199.695  1.00  0.00     0.053 C 
BRANCH   4   5
ATOM      5  C   UNL     1     186.888 181.434 199.277  1.00  0.00     0.041 C 
ATOM      6  O   UNL     1     187.770 181.859 200.068  1.00  0.00    -0.550 OA
ATOM      7  O   UNL     1     186.801 181.963 197.994  1.00  0.00    -0.550 OA
ENDBRANCH   4   5
ENDBRANCH   3   4
ENDBRANCH   2   3
ENDBRANCH   1   2
BRANCH   1   8
ATOM      8  C   UNL     1     183.005 182.149 202.107  1.00  0.00     0.000 C 
BRANCH   8   9
ATOM      9  C   UNL     1     183.614 183.469 201.620  1.00  0.00     0.006 C 
BRANCH   9  10
ATOM     10  C   UNL     1     183.810 183.457 200.101  1.00  0.00     0.053 C 
BRANCH  10  11
ATOM     11  C   UNL     1     184.629 184.631 199.669  1.00  0.00     0.041 C 
ATOM     12  O   UNL     1     184.107 185.549 198.982  1.00  0.00    -0.550 OA
ATOM     13  O   UNL     1     185.956 184.738 200.065  1.00  0.00    -0.550 OA
ENDBRANCH  10  11
ENDBRANCH   9  10
ENDBRANCH   8   9
ENDBRANCH   1   8
TORSDOF 8
ENDMDL
MODEL 3
REMARK VINA RESULT:    -3.497      1.831      3.106
REMARK INTER + INTRA:          -5.962
REMARK INTER:                  -5.358
REMARK INTRA:                  -0.604
REMARK UNBOUND:                -0.830
REMARK SMILES O=C([O-])CCCCCCCC(=O)[O-]
REMARK SMILES IDX 7 1 6 2 5 3 4 4 2 5 1 6 3 7 8 8 9 9 10 10 11 11 12 12 13 13
REMARK H PARENT
REMARK Flexibility Score: inf
ROOT
ATOM      1  C   UNL     1     185.599 180.492 201.244  1.00  0.00     0.000 C 
ENDROOT
BRANCH   1   2
ATOM      2  C   UNL     1     184.155 180.319 201.749  1.00  0.00     0.000 C 
BRANCH   2   3
ATOM      3  C   UNL     1     183.427 181.628 202.100  1.00  0.00     0.006 C 
BRANCH   3   4
ATOM      4  C   UNL     1     182.050 181.745 201.434  1.00  0.00     0.053 C 
BRANCH   4   5
ATOM      5  C   UNL     1     181.486 183.115 201.637  1.00  0.00     0.041 C 
ATOM      6  O   UNL     1     182.230 184.057 202.016  1.00  0.00    -0.550 OA
ATOM      7  O   UNL     1     180.147 183.364 201.361  1.00  0.00    -0.550 OA
ENDBRANCH   4   5
ENDBRANCH   3   4
ENDBRANCH   2   3
ENDBRANCH   1   2
BRANCH   1   8
ATOM      8  C   UNL     1     185.785 180.024 199.792  1.00  0.00     0.000 C 
BRANCH   8   9
ATOM      9  C   UNL     1     186.595 181.047 198.986  1.00  0.00     0.006 C 
BRANCH   9  10
ATOM     10  C   UNL     1     186.499 182.441 199.612  1.00  0.00     0.053 C 
BRANCH  10  11
ATOM     11  C   UNL     1     185.614 183.325 198.791  1.00  0.00     0.041 C 
ATOM     12  O   UNL     1     186.076 183.922 197.782  1.00  0.00    -0.550 OA
ATOM     13  O   UNL     1     184.268 183.450 199.108  1.00  0.00    -0.550 OA
ENDBRANCH  10  11
ENDBRANCH   9  10
ENDBRANCH   8   9
ENDBRANCH   1   8
TORSDOF 8
ENDMDL
MODEL 4
REMARK VINA RESULT:    -3.466     16.529     18.005
REMARK INTER + INTRA:          -5.916
REMARK INTER:                  -5.481
REMARK INTRA:                  -0.436
REMARK UNBOUND:                -0.830
REMARK SMILES O=C([O-])CCCCCCCC(=O)[O-]
REMARK SMILES IDX 7 1 6 2 5 3 4 4 2 5 1 6 3 7 8 8 9 9 10 10 11 11 12 12 13 13
REMARK H PARENT
REMARK Flexibility Score: inf
ROOT
ATOM      1  C   UNL     1     195.187 197.725 201.205  1.00  0.00     0.000 C 
ENDROOT
BRANCH   1   2
ATOM      2  C   UNL     1     196.338 197.238 202.105  1.00  0.00     0.000 C 
BRANCH   2   3
ATOM      3  C   UNL     1     197.461 196.482 201.373  1.00  0.00     0.006 C 
BRANCH   3   4
ATOM      4  C   UNL     1     196.948 195.278 200.572  1.00  0.00     0.053 C 
BRANCH   4   5
ATOM      5  C   UNL     1     197.258 194.003 201.291  1.00  0.00     0.041 C 
ATOM      6  O   UNL     1     196.441 193.531 202.125  1.00  0.00    -0.550 OA
ATOM      7  O   UNL     1     198.427 193.309 201.004  1.00  0.00    -0.550 OA
ENDBRANCH   4   5
ENDBRANCH   3   4
ENDBRANCH   2   3
ENDBRANCH   1   2
BRANCH   1   8
ATOM      8  C   UNL     1     193.810 197.602 201.876  1.00  0.00     0.000 C 
BRANCH   8   9
ATOM      9  C   UNL     1     192.933 196.578 201.146  1.00  0.00     0.006 C 
BRANCH   9  10
ATOM     10  C   UNL     1     191.704 197.250 200.526  1.00  0.00     0.053 C 
BRANCH  10  11
ATOM     11  C   UNL     1     192.021 197.760 199.156  1.00  0.00     0.041 C 
ATOM     12  O   UNL     1     192.357 198.963 198.990  1.00  0.00    -0.550 OA
ATOM     13  O   UNL     1     191.994 196.897 198.068  1.00  0.00    -0.550 OA
ENDBRANCH  10  11
ENDBRANCH   9  10
ENDBRANCH   8   9
ENDBRANCH   1   8
TORSDOF 8
ENDMDL
MODEL 5
REMARK VINA RESULT:    -3.455      2.747      4.999
REMARK INTER + INTRA:          -5.900
REMARK INTER:                  -5.536
REMARK INTRA:                  -0.364
REMARK UNBOUND:                -0.830
REMARK SMILES O=C([O-])CCCCCCCC(=O)[O-]
REMARK SMILES IDX 7 1 6 2 5 3 4 4 2 5 1 6 3 7 8 8 9 9 10 10 11 11 12 12 13 13
REMARK H PARENT
REMARK Flexibility Score: inf
ROOT
ATOM      1  C   UNL     1     186.630 180.788 201.094  1.00  0.00     0.000 C 
ENDROOT
BRANCH   1   2
ATOM      2  C   UNL     1     187.445 181.835 200.311  1.00  0.00     0.000 C 
BRANCH   2   3
ATOM      3  C   UNL     1     188.000 182.993 201.158  1.00  0.00     0.006 C 
BRANCH   3   4
ATOM      4  C   UNL     1     189.179 182.573 202.046  1.00  0.00     0.053 C 
BRANCH   4   5
ATOM      5  C   UNL     1     190.419 183.312 201.650  1.00  0.00     0.041 C 
ATOM      6  O   UNL     1     190.371 184.547 201.410  1.00  0.00    -0.550 OA
ATOM      7  O   UNL     1     191.637 182.647 201.596  1.00  0.00    -0.550 OA
ENDBRANCH   4   5
ENDBRANCH   3   4
ENDBRANCH   2   3
ENDBRANCH   1   2
BRANCH   1   8
ATOM      8  C   UNL     1     185.533 180.127 200.246  1.00  0.00     0.000 C 
BRANCH   8   9
ATOM      9  C   UNL     1     184.297 179.810 201.097  1.00  0.00     0.006 C 
BRANCH   9  10
ATOM     10  C   UNL     1     183.980 180.963 202.054  1.00  0.00     0.053 C 
BRANCH  10  11
ATOM     11  C   UNL     1     182.981 181.893 201.442  1.00  0.00     0.041 C 
ATOM     12  O   UNL     1     183.365 182.835 200.699  1.00  0.00    -0.550 OA
ATOM     13  O   UNL     1     181.623 181.691 201.651  1.00  0.00    -0.550 OA
ENDBRANCH  10  11
ENDBRANCH   9  10
ENDBRANCH   8   9
ENDBRANCH   1   8
TORSDOF 8
ENDMDL
MODEL 6
REMARK VINA RESULT:    -3.422     15.932     17.490
REMARK INTER + INTRA:          -5.853
REMARK INTER:                  -5.229
REMARK INTRA:                  -0.623
REMARK UNBOUND:                -0.830
REMARK SMILES O=C([O-])CCCCCCCC(=O)[O-]
REMARK SMILES IDX 7 1 6 2 5 3 4 4 2 5 1 6 3 7 8 8 9 9 10 10 11 11 12 12 13 13
REMARK H PARENT
REMARK Flexibility Score: inf
ROOT
ATOM      1  C   UNL     1     195.882 197.341 202.124  1.00  0.00     0.000 C 
ENDROOT
BRANCH   1   2
ATOM      2  C   UNL     1     194.906 198.226 201.327  1.00  0.00     0.000 C 
BRANCH   2   3
ATOM      3  C   UNL     1     193.495 197.641 201.147  1.00  0.00     0.006 C 
BRANCH   3   4
ATOM      4  C   UNL     1     193.346 196.822 199.858  1.00  0.00     0.053 C 
BRANCH   4   5
ATOM      5  C   UNL     1     192.421 197.512 198.906  1.00  0.00     0.041 C 
ATOM      6  O   UNL     1     192.057 198.698 199.122  1.00  0.00    -0.550 OA
ATOM      7  O   UNL     1     192.000 196.863 197.752  1.00  0.00    -0.550 OA
ENDBRANCH   4   5
ENDBRANCH   3   4
ENDBRANCH   2   3
ENDBRANCH   1   2
BRANCH   1   8
ATOM      8  C   UNL     1     197.224 197.131 201.406  1.00  0.00     0.000 C 
BRANCH   8   9
ATOM      9  C   UNL     1     197.522 195.638 201.225  1.00  0.00     0.006 C 
BRANCH   9  10
ATOM     10  C   UNL     1     196.360 194.780 201.734  1.00  0.00     0.053 C 
BRANCH  10  11
ATOM     11  C   UNL     1     195.803 193.942 200.627  1.00  0.00     0.041 C 
ATOM     12  O   UNL     1     195.267 192.831 200.882  1.00  0.00    -0.550 OA
ATOM     13  O   UNL     1     195.831 194.408 199.319  1.00  0.00    -0.550 OA
ENDBRANCH  10  11
ENDBRANCH   9  10
ENDBRANCH   8   9
ENDBRANCH   1   8
TORSDOF 8
ENDMDL
