MODEL 1
REMARK VINA RESULT:    -7.777      0.000      0.000
REMARK INTER + INTRA:          -8.459
REMARK INTER:                  -8.459
REMARK INTRA:                   0.000
REMARK UNBOUND:                 0.000
REMARK SMILES Cc1cc(O)c2c(c1)C(=O)c1cc(O)cc(O)c1C2=O
REMARK SMILES IDX 1 1 2 2 8 3 7 4 6 5 4 6 3 7 19 8 20 9 18 10 11 11 9 12 10 13
REMARK SMILES IDX 12 14 13 15 15 16 16 17 5 18 17 20 14 22
REMARK H PARENT 5 19 17 21 14 23
REMARK Flexibility Score: inf
ROOT
ATOM      1  C   UNL     1      18.502 -61.376   5.998  1.00  0.00     0.044 C 
ATOM      2  C   UNL     1      19.182 -60.395   5.088  1.00  0.00    -0.047 A 
ATOM      3  C   UNL     1      18.732 -59.072   5.017  1.00  0.00     0.016 A 
ATOM      4  C   UNL     1      19.379 -58.140   4.189  1.00  0.00     0.038 A 
ATOM      5  C   UNL     1      20.497 -58.538   3.421  1.00  0.00     0.076 A 
ATOM      6  C   UNL     1      20.999 -59.856   3.562  1.00  0.00     0.127 A 
ATOM      7  C   UNL     1      20.325 -60.773   4.376  1.00  0.00     0.050 A 
ATOM      8  C   UNL     1      21.063 -57.567   2.449  1.00  0.00     0.201 C 
ATOM      9  O   UNL     1      21.615 -57.984   1.397  1.00  0.00    -0.288 OA
ATOM     10  C   UNL     1      20.809 -56.113   2.624  1.00  0.00     0.076 A 
ATOM     11  C   UNL     1      19.692 -55.719   3.397  1.00  0.00     0.041 A 
ATOM     12  C   UNL     1      18.901 -56.738   4.124  1.00  0.00     0.194 C 
ATOM     13  O   UNL     1      17.832 -56.409   4.710  1.00  0.00    -0.289 OA
ATOM     14  C   UNL     1      19.340 -54.360   3.473  1.00  0.00     0.059 A 
ATOM     15  C   UNL     1      20.095 -53.394   2.805  1.00  0.00     0.120 A 
ATOM     16  C   UNL     1      21.222 -53.775   2.076  1.00  0.00     0.093 A 
ATOM     17  C   UNL     1      21.605 -55.118   2.000  1.00  0.00     0.131 A 
ENDROOT
BRANCH   6  18
ATOM     18  O   UNL     1      22.177 -60.286   2.946  1.00  0.00    -0.507 OA
ATOM     19  H   UNL     1      23.093 -60.182   3.360  1.00  0.00     0.293 HD
ENDBRANCH   6  18
BRANCH  17  20
ATOM     20  O   UNL     1      22.794 -55.412   1.329  1.00  0.00    -0.507 OA
ATOM     21  H   UNL     1      22.905 -55.335   0.328  1.00  0.00     0.293 HD
ENDBRANCH  17  20
BRANCH  15  22
ATOM     22  O   UNL     1      19.743 -52.048   2.868  1.00  0.00    -0.508 OA
ATOM     23  H   UNL     1      20.121 -51.434   3.581  1.00  0.00     0.293 HD
ENDBRANCH  15  22
TORSDOF 3
ENDMDL
MODEL 2
REMARK VINA RESULT:    -7.653      2.059      5.683
REMARK INTER + INTRA:          -8.324
REMARK INTER:                  -8.324
REMARK INTRA:                   0.000
REMARK UNBOUND:                 0.000
REMARK SMILES Cc1cc(O)c2c(c1)C(=O)c1cc(O)cc(O)c1C2=O
REMARK SMILES IDX 1 1 2 2 8 3 7 4 6 5 4 6 3 7 19 8 20 9 18 10 11 11 9 12 10 13
REMARK SMILES IDX 12 14 13 15 15 16 16 17 5 18 17 20 14 22
REMARK H PARENT 5 19 17 21 14 23
REMARK Flexibility Score: inf
ROOT
ATOM      1  C   UNL     1      21.220 -54.658   1.758  1.00  0.00     0.044 C 
ATOM      2  C   UNL     1      20.856 -55.920   2.484  1.00  0.00    -0.047 A 
ATOM      3  C   UNL     1      19.736 -55.950   3.324  1.00  0.00     0.016 A 
ATOM      4  C   UNL     1      19.371 -57.134   3.986  1.00  0.00     0.038 A 
ATOM      5  C   UNL     1      20.137 -58.307   3.805  1.00  0.00     0.076 A 
ATOM      6  C   UNL     1      21.219 -58.291   2.888  1.00  0.00     0.127 A 
ATOM      7  C   UNL     1      21.576 -57.096   2.256  1.00  0.00     0.050 A 
ATOM      8  C   UNL     1      19.809 -59.496   4.633  1.00  0.00     0.201 C 
ATOM      9  O   UNL     1      20.717 -60.308   4.951  1.00  0.00    -0.288 OA
ATOM     10  C   UNL     1      18.458 -59.623   5.240  1.00  0.00     0.076 A 
ATOM     11  C   UNL     1      17.693 -58.447   5.417  1.00  0.00     0.041 A 
ATOM     12  C   UNL     1      18.180 -57.160   4.869  1.00  0.00     0.194 C 
ATOM     13  O   UNL     1      17.566 -56.088   5.131  1.00  0.00    -0.289 OA
ATOM     14  C   UNL     1      16.472 -58.506   6.110  1.00  0.00     0.059 A 
ATOM     15  C   UNL     1      15.999 -59.721   6.612  1.00  0.00     0.120 A 
ATOM     16  C   UNL     1      16.732 -60.890   6.404  1.00  0.00     0.093 A 
ATOM     17  C   UNL     1      17.941 -60.861   5.700  1.00  0.00     0.131 A 
ENDROOT
BRANCH   6  18
ATOM     18  O   UNL     1      21.937 -59.440   2.548  1.00  0.00    -0.507 OA
ATOM     19  H   UNL     1      22.468 -59.984   3.214  1.00  0.00     0.293 HD
ENDBRANCH   6  18
BRANCH  17  20
ATOM     20  O   UNL     1      18.570 -62.083   5.452  1.00  0.00    -0.507 OA
ATOM     21  H   UNL     1      19.061 -62.613   6.159  1.00  0.00     0.293 HD
ENDBRANCH  17  20
BRANCH  15  22
ATOM     22  O   UNL     1      14.796 -59.782   7.310  1.00  0.00    -0.508 OA
ATOM     23  H   UNL     1      14.762 -59.684   8.319  1.00  0.00     0.293 HD
ENDBRANCH  15  22
TORSDOF 3
ENDMDL
MODEL 3
REMARK VINA RESULT:    -7.572      1.881      2.933
REMARK INTER + INTRA:          -8.236
REMARK INTER:                  -8.236
REMARK INTRA:                   0.000
REMARK UNBOUND:                 0.000
REMARK SMILES Cc1cc(O)c2c(c1)C(=O)c1cc(O)cc(O)c1C2=O
REMARK SMILES IDX 1 1 2 2 8 3 7 4 6 5 4 6 3 7 19 8 20 9 18 10 11 11 9 12 10 13
REMARK SMILES IDX 12 14 13 15 15 16 16 17 5 18 17 20 14 22
REMARK H PARENT 5 19 17 21 14 23
REMARK Flexibility Score: inf
ROOT
ATOM      1  C   UNL     1      15.427 -60.157   8.042  1.00  0.00     0.044 C 
ATOM      2  C   UNL     1      16.477 -60.015   6.979  1.00  0.00    -0.047 A 
ATOM      3  C   UNL     1      16.741 -58.763   6.412  1.00  0.00     0.016 A 
ATOM      4  C   UNL     1      17.740 -58.616   5.436  1.00  0.00     0.038 A 
ATOM      5  C   UNL     1      18.490 -59.739   5.022  1.00  0.00     0.076 A 
ATOM      6  C   UNL     1      18.276 -60.987   5.660  1.00  0.00     0.127 A 
ATOM      7  C   UNL     1      17.261 -61.114   6.614  1.00  0.00     0.050 A 
ATOM      8  C   UNL     1      19.434 -59.574   3.886  1.00  0.00     0.201 C 
ATOM      9  O   UNL     1      19.675 -60.548   3.125  1.00  0.00    -0.288 OA
ATOM     10  C   UNL     1      19.940 -58.221   3.538  1.00  0.00     0.076 A 
ATOM     11  C   UNL     1      19.189 -57.099   3.958  1.00  0.00     0.041 A 
ATOM     12  C   UNL     1      18.018 -57.284   4.846  1.00  0.00     0.194 C 
ATOM     13  O   UNL     1      17.272 -56.304   5.121  1.00  0.00    -0.289 OA
ATOM     14  C   UNL     1      19.560 -55.811   3.533  1.00  0.00     0.059 A 
ATOM     15  C   UNL     1      20.675 -55.629   2.711  1.00  0.00     0.120 A 
ATOM     16  C   UNL     1      21.442 -56.730   2.329  1.00  0.00     0.093 A 
ATOM     17  C   UNL     1      21.106 -58.019   2.754  1.00  0.00     0.131 A 
ENDROOT
BRANCH   6  18
ATOM     18  O   UNL     1      19.067 -62.111   5.407  1.00  0.00    -0.507 OA
ATOM     19  H   UNL     1      19.213 -62.852   6.077  1.00  0.00     0.293 HD
ENDBRANCH   6  18
BRANCH  17  20
ATOM     20  O   UNL     1      21.972 -59.058   2.407  1.00  0.00    -0.507 OA
ATOM     21  H   UNL     1      22.977 -59.005   2.507  1.00  0.00     0.293 HD
ENDBRANCH  17  20
BRANCH  15  22
ATOM     22  O   UNL     1      21.039 -54.357   2.278  1.00  0.00    -0.508 OA
ATOM     23  H   UNL     1      22.004 -54.123   2.071  1.00  0.00     0.293 HD
ENDBRANCH  15  22
TORSDOF 3
ENDMDL
MODEL 4
REMARK VINA RESULT:    -7.153      1.583      6.101
REMARK INTER + INTRA:          -7.780
REMARK INTER:                  -7.780
REMARK INTRA:                   0.000
REMARK UNBOUND:                 0.000
REMARK SMILES Cc1cc(O)c2c(c1)C(=O)c1cc(O)cc(O)c1C2=O
REMARK SMILES IDX 1 1 2 2 8 3 7 4 6 5 4 6 3 7 19 8 20 9 18 10 11 11 9 12 10 13
REMARK SMILES IDX 12 14 13 15 15 16 16 17 5 18 17 20 14 22
REMARK H PARENT 5 19 17 21 14 23
REMARK Flexibility Score: inf
ROOT
ATOM      1  C   UNL     1      23.740 -54.633   0.711  1.00  0.00     0.044 C 
ATOM      2  C   UNL     1      22.556 -54.995   1.560  1.00  0.00    -0.047 A 
ATOM      3  C   UNL     1      22.231 -56.339   1.777  1.00  0.00     0.016 A 
ATOM      4  C   UNL     1      21.142 -56.688   2.593  1.00  0.00     0.038 A 
ATOM      5  C   UNL     1      20.366 -55.677   3.202  1.00  0.00     0.076 A 
ATOM      6  C   UNL     1      20.752 -54.321   3.046  1.00  0.00     0.127 A 
ATOM      7  C   UNL     1      21.827 -53.996   2.213  1.00  0.00     0.050 A 
ATOM      8  C   UNL     1      19.137 -56.079   3.935  1.00  0.00     0.201 C 
ATOM      9  O   UNL     1      18.155 -55.292   3.990  1.00  0.00    -0.288 OA
ATOM     10  C   UNL     1      18.998 -57.472   4.434  1.00  0.00     0.076 A 
ATOM     11  C   UNL     1      19.779 -58.480   3.825  1.00  0.00     0.041 A 
ATOM     12  C   UNL     1      20.808 -58.114   2.824  1.00  0.00     0.194 C 
ATOM     13  O   UNL     1      21.419 -59.016   2.186  1.00  0.00    -0.289 OA
ATOM     14  C   UNL     1      19.577 -59.827   4.174  1.00  0.00     0.059 A 
ATOM     15  C   UNL     1      18.622 -60.175   5.132  1.00  0.00     0.120 A 
ATOM     16  C   UNL     1      17.879 -59.179   5.765  1.00  0.00     0.093 A 
ATOM     17  C   UNL     1      18.074 -57.831   5.449  1.00  0.00     0.131 A 
ENDROOT
BRANCH   6  18
ATOM     18  O   UNL     1      20.123 -53.274   3.725  1.00  0.00    -0.507 OA
ATOM     19  H   UNL     1      19.532 -53.409   4.533  1.00  0.00     0.293 HD
ENDBRANCH   6  18
BRANCH  17  20
ATOM     20  O   UNL     1      17.360 -56.886   6.190  1.00  0.00    -0.507 OA
ATOM     21  H   UNL     1      17.689 -56.494   7.062  1.00  0.00     0.293 HD
ENDBRANCH  17  20
BRANCH  15  22
ATOM     22  O   UNL     1      18.410 -61.509   5.472  1.00  0.00    -0.508 OA
ATOM     23  H   UNL     1      17.550 -61.813   5.915  1.00  0.00     0.293 HD
ENDBRANCH  15  22
TORSDOF 3
ENDMDL
MODEL 5
REMARK VINA RESULT:    -7.041      1.527      3.752
REMARK INTER + INTRA:          -7.658
REMARK INTER:                  -7.658
REMARK INTRA:                   0.000
REMARK UNBOUND:                 0.000
REMARK SMILES Cc1cc(O)c2c(c1)C(=O)c1cc(O)cc(O)c1C2=O
REMARK SMILES IDX 1 1 2 2 8 3 7 4 6 5 4 6 3 7 19 8 20 9 18 10 11 11 9 12 10 13
REMARK SMILES IDX 12 14 13 15 15 16 16 17 5 18 17 20 14 22
REMARK H PARENT 5 19 17 21 14 23
REMARK Flexibility Score: inf
ROOT
ATOM      1  C   UNL     1      16.859 -60.626   5.634  1.00  0.00     0.044 C 
ATOM      2  C   UNL     1      17.216 -59.229   5.219  1.00  0.00    -0.047 A 
ATOM      3  C   UNL     1      18.479 -58.956   4.681  1.00  0.00     0.016 A 
ATOM      4  C   UNL     1      18.813 -57.657   4.264  1.00  0.00     0.038 A 
ATOM      5  C   UNL     1      17.867 -56.614   4.383  1.00  0.00     0.076 A 
ATOM      6  C   UNL     1      16.562 -56.915   4.849  1.00  0.00     0.127 A 
ATOM      7  C   UNL     1      16.259 -58.211   5.279  1.00  0.00     0.050 A 
ATOM      8  C   UNL     1      18.304 -55.229   4.070  1.00  0.00     0.201 C 
ATOM      9  O   UNL     1      17.772 -54.255   4.664  1.00  0.00    -0.288 OA
ATOM     10  C   UNL     1      19.491 -55.008   3.204  1.00  0.00     0.076 A 
ATOM     11  C   UNL     1      20.434 -56.055   3.083  1.00  0.00     0.041 A 
ATOM     12  C   UNL     1      20.151 -57.377   3.689  1.00  0.00     0.194 C 
ATOM     13  O   UNL     1      21.039 -58.273   3.693  1.00  0.00    -0.289 OA
ATOM     14  C   UNL     1      21.635 -55.837   2.386  1.00  0.00     0.059 A 
ATOM     15  C   UNL     1      21.897 -54.598   1.796  1.00  0.00     0.120 A 
ATOM     16  C   UNL     1      20.951 -53.576   1.878  1.00  0.00     0.093 A 
ATOM     17  C   UNL     1      19.741 -53.774   2.550  1.00  0.00     0.131 A 
ENDROOT
BRANCH   6  18
ATOM     18  O   UNL     1      15.530 -55.973   4.867  1.00  0.00    -0.507 OA
ATOM     19  H   UNL     1      15.450 -55.221   4.197  1.00  0.00     0.293 HD
ENDBRANCH   6  18
BRANCH  17  20
ATOM     20  O   UNL     1      18.806 -52.736   2.511  1.00  0.00    -0.507 OA
ATOM     21  H   UNL     1      18.031 -52.707   1.863  1.00  0.00     0.293 HD
ENDBRANCH  17  20
BRANCH  15  22
ATOM     22  O   UNL     1      23.091 -54.374   1.114  1.00  0.00    -0.508 OA
ATOM     23  H   UNL     1      23.763 -53.686   1.435  1.00  0.00     0.293 HD
ENDBRANCH  15  22
TORSDOF 3
ENDMDL
MODEL 6
REMARK VINA RESULT:    -6.989      2.618      5.052
REMARK INTER + INTRA:          -7.602
REMARK INTER:                  -7.602
REMARK INTRA:                   0.000
REMARK UNBOUND:                 0.000
REMARK SMILES Cc1cc(O)c2c(c1)C(=O)c1cc(O)cc(O)c1C2=O
REMARK SMILES IDX 1 1 2 2 8 3 7 4 6 5 4 6 3 7 19 8 20 9 18 10 11 11 9 12 10 13
REMARK SMILES IDX 12 14 13 15 15 16 16 17 5 18 17 20 14 22
REMARK H PARENT 5 19 17 21 14 23
REMARK Flexibility Score: inf
ROOT
ATOM      1  C   UNL     1      14.712 -61.471   7.309  1.00  0.00     0.044 C 
ATOM      2  C   UNL     1      15.705 -60.635   6.556  1.00  0.00    -0.047 A 
ATOM      3  C   UNL     1      17.031 -61.065   6.428  1.00  0.00     0.016 A 
ATOM      4  C   UNL     1      17.962 -60.304   5.702  1.00  0.00     0.038 A 
ATOM      5  C   UNL     1      17.560 -59.094   5.093  1.00  0.00     0.076 A 
ATOM      6  C   UNL     1      16.197 -58.708   5.156  1.00  0.00     0.127 A 
ATOM      7  C   UNL     1      15.293 -59.471   5.902  1.00  0.00     0.050 A 
ATOM      8  C   UNL     1      18.603 -58.245   4.460  1.00  0.00     0.201 C 
ATOM      9  O   UNL     1      18.457 -56.994   4.428  1.00  0.00    -0.288 OA
ATOM     10  C   UNL     1      19.893 -58.850   4.041  1.00  0.00     0.076 A 
ATOM     11  C   UNL     1      20.291 -60.063   4.650  1.00  0.00     0.041 A 
ATOM     12  C   UNL     1      19.363 -60.768   5.564  1.00  0.00     0.194 C 
ATOM     13  O   UNL     1      19.758 -61.781   6.207  1.00  0.00    -0.289 OA
ATOM     14  C   UNL     1      21.564 -60.594   4.382  1.00  0.00     0.059 A 
ATOM     15  C   UNL     1      22.434 -59.942   3.505  1.00  0.00     0.120 A 
ATOM     16  C   UNL     1      22.029 -58.768   2.871  1.00  0.00     0.093 A 
ATOM     17  C   UNL     1      20.760 -58.229   3.106  1.00  0.00     0.131 A 
ENDROOT
BRANCH   6  18
ATOM     18  O   UNL     1      15.692 -57.603   4.466  1.00  0.00    -0.507 OA
ATOM     19  H   UNL     1      14.895 -57.066   4.779  1.00  0.00     0.293 HD
ENDBRANCH   6  18
BRANCH  17  20
ATOM     20  O   UNL     1      20.392 -57.103   2.365  1.00  0.00    -0.507 OA
ATOM     21  H   UNL     1      20.968 -56.698   1.640  1.00  0.00     0.293 HD
ENDBRANCH  17  20
BRANCH  15  22
ATOM     22  O   UNL     1      23.701 -60.459   3.246  1.00  0.00    -0.508 OA
ATOM     23  H   UNL     1      23.831 -61.278   2.662  1.00  0.00     0.293 HD
ENDBRANCH  15  22
TORSDOF 3
ENDMDL
MODEL 7
REMARK VINA RESULT:    -6.868      1.414      6.321
REMARK INTER + INTRA:          -7.470
REMARK INTER:                  -7.470
REMARK INTRA:                   0.000
REMARK UNBOUND:                 0.000
REMARK SMILES Cc1cc(O)c2c(c1)C(=O)c1cc(O)cc(O)c1C2=O
REMARK SMILES IDX 1 1 2 2 8 3 7 4 6 5 4 6 3 7 19 8 20 9 18 10 11 11 9 12 10 13
REMARK SMILES IDX 12 14 13 15 15 16 16 17 5 18 17 20 14 22
REMARK H PARENT 5 19 17 21 14 23
REMARK Flexibility Score: inf
ROOT
ATOM      1  C   UNL     1      20.751 -52.671   1.750  1.00  0.00     0.044 C 
ATOM      2  C   UNL     1      20.136 -53.854   2.441  1.00  0.00    -0.047 A 
ATOM      3  C   UNL     1      20.746 -55.110   2.361  1.00  0.00     0.016 A 
ATOM      4  C   UNL     1      20.194 -56.217   3.028  1.00  0.00     0.038 A 
ATOM      5  C   UNL     1      19.013 -56.064   3.787  1.00  0.00     0.076 A 
ATOM      6  C   UNL     1      18.448 -54.771   3.933  1.00  0.00     0.127 A 
ATOM      7  C   UNL     1      19.003 -53.688   3.243  1.00  0.00     0.050 A 
ATOM      8  C   UNL     1      18.379 -57.282   4.354  1.00  0.00     0.201 C 
ATOM      9  O   UNL     1      17.130 -57.321   4.515  1.00  0.00    -0.288 OA
ATOM     10  C   UNL     1      19.189 -58.512   4.551  1.00  0.00     0.076 A 
ATOM     11  C   UNL     1      20.372 -58.660   3.792  1.00  0.00     0.041 A 
ATOM     12  C   UNL     1      20.850 -57.544   2.944  1.00  0.00     0.194 C 
ATOM     13  O   UNL     1      21.833 -57.714   2.170  1.00  0.00    -0.289 OA
ATOM     14  C   UNL     1      21.091 -59.867   3.848  1.00  0.00     0.059 A 
ATOM     15  C   UNL     1      20.654 -60.916   4.660  1.00  0.00     0.120 A 
ATOM     16  C   UNL     1      19.510 -60.757   5.442  1.00  0.00     0.093 A 
ATOM     17  C   UNL     1      18.788 -59.560   5.419  1.00  0.00     0.131 A 
ENDROOT
BRANCH   6  18
ATOM     18  O   UNL     1      17.364 -54.511   4.776  1.00  0.00    -0.507 OA
ATOM     19  H   UNL     1      17.419 -53.908   5.585  1.00  0.00     0.293 HD
ENDBRANCH   6  18
BRANCH  17  20
ATOM     20  O   UNL     1      17.707 -59.443   6.297  1.00  0.00    -0.507 OA
ATOM     21  H   UNL     1      17.740 -59.732   7.265  1.00  0.00     0.293 HD
ENDBRANCH  17  20
BRANCH  15  22
ATOM     22  O   UNL     1      21.357 -62.117   4.709  1.00  0.00    -0.508 OA
ATOM     23  H   UNL     1      22.371 -62.139   4.708  1.00  0.00     0.293 HD
ENDBRANCH  15  22
TORSDOF 3
ENDMDL
MODEL 8
REMARK VINA RESULT:    -6.653      1.675      5.509
REMARK INTER + INTRA:          -7.237
REMARK INTER:                  -7.237
REMARK INTRA:                   0.000
REMARK UNBOUND:                 0.000
REMARK SMILES Cc1cc(O)c2c(c1)C(=O)c1cc(O)cc(O)c1C2=O
REMARK SMILES IDX 1 1 2 2 8 3 7 4 6 5 4 6 3 7 19 8 20 9 18 10 11 11 9 12 10 13
REMARK SMILES IDX 12 14 13 15 15 16 16 17 5 18 17 20 14 22
REMARK H PARENT 5 19 17 21 14 23
REMARK Flexibility Score: inf
ROOT
ATOM      1  C   UNL     1      16.977 -52.145   3.993  1.00  0.00     0.044 C 
ATOM      2  C   UNL     1      17.902 -53.305   3.767  1.00  0.00    -0.047 A 
ATOM      3  C   UNL     1      17.657 -54.532   4.392  1.00  0.00     0.016 A 
ATOM      4  C   UNL     1      18.502 -55.632   4.165  1.00  0.00     0.038 A 
ATOM      5  C   UNL     1      19.608 -55.502   3.297  1.00  0.00     0.076 A 
ATOM      6  C   UNL     1      19.801 -54.281   2.601  1.00  0.00     0.127 A 
ATOM      7  C   UNL     1      18.960 -53.194   2.859  1.00  0.00     0.050 A 
ATOM      8  C   UNL     1      20.560 -56.638   3.196  1.00  0.00     0.201 C 
ATOM      9  O   UNL     1      21.774 -56.417   2.944  1.00  0.00    -0.288 OA
ATOM     10  C   UNL     1      20.121 -58.005   3.578  1.00  0.00     0.076 A 
ATOM     11  C   UNL     1      19.011 -58.131   4.445  1.00  0.00     0.041 A 
ATOM     12  C   UNL     1      18.232 -56.931   4.827  1.00  0.00     0.194 C 
ATOM     13  O   UNL     1      17.320 -57.019   5.696  1.00  0.00    -0.289 OA
ATOM     14  C   UNL     1      18.650 -59.398   4.937  1.00  0.00     0.059 A 
ATOM     15  C   UNL     1      19.370 -60.535   4.564  1.00  0.00     0.120 A 
ATOM     16  C   UNL     1      20.440 -60.419   3.677  1.00  0.00     0.093 A 
ATOM     17  C   UNL     1      20.807 -59.173   3.157  1.00  0.00     0.131 A 
ENDROOT
BRANCH   6  18
ATOM     18  O   UNL     1      20.786 -54.116   1.623  1.00  0.00    -0.507 OA
ATOM     19  H   UNL     1      21.129 -54.870   1.045  1.00  0.00     0.293 HD
ENDBRANCH   6  18
BRANCH  17  20
ATOM     20  O   UNL     1      21.828 -59.149   2.205  1.00  0.00    -0.507 OA
ATOM     21  H   UNL     1      22.022 -59.914   1.574  1.00  0.00     0.293 HD
ENDBRANCH  17  20
BRANCH  15  22
ATOM     22  O   UNL     1      19.023 -61.790   5.060  1.00  0.00    -0.508 OA
ATOM     23  H   UNL     1      19.569 -62.616   4.840  1.00  0.00     0.293 HD
ENDBRANCH  15  22
TORSDOF 3
ENDMDL
MODEL 9
REMARK VINA RESULT:    -6.603      1.878      6.964
REMARK INTER + INTRA:          -7.182
REMARK INTER:                  -7.182
REMARK INTRA:                   0.000
REMARK UNBOUND:                 0.000
REMARK SMILES Cc1cc(O)c2c(c1)C(=O)c1cc(O)cc(O)c1C2=O
REMARK SMILES IDX 1 1 2 2 8 3 7 4 6 5 4 6 3 7 19 8 20 9 18 10 11 11 9 12 10 13
REMARK SMILES IDX 12 14 13 15 15 16 16 17 5 18 17 20 14 22
REMARK H PARENT 5 19 17 21 14 23
REMARK Flexibility Score: inf
ROOT
ATOM      1  C   UNL     1      23.175 -49.486   2.190  1.00  0.00     0.044 C 
ATOM      2  C   UNL     1      22.272 -50.646   2.493  1.00  0.00    -0.047 A 
ATOM      3  C   UNL     1      22.622 -51.936   2.080  1.00  0.00     0.016 A 
ATOM      4  C   UNL     1      21.798 -53.032   2.383  1.00  0.00     0.038 A 
ATOM      5  C   UNL     1      20.605 -52.835   3.113  1.00  0.00     0.076 A 
ATOM      6  C   UNL     1      20.299 -51.539   3.601  1.00  0.00     0.127 A 
ATOM      7  C   UNL     1      21.124 -50.459   3.269  1.00  0.00     0.050 A 
ATOM      8  C   UNL     1      19.687 -53.991   3.286  1.00  0.00     0.201 C 
ATOM      9  O   UNL     1      18.447 -53.797   3.385  1.00  0.00    -0.288 OA
ATOM     10  C   UNL     1      20.210 -55.375   3.152  1.00  0.00     0.076 A 
ATOM     11  C   UNL     1      21.407 -55.568   2.424  1.00  0.00     0.041 A 
ATOM     12  C   UNL     1      22.179 -54.397   1.947  1.00  0.00     0.194 C 
ATOM     13  O   UNL     1      23.177 -54.563   1.192  1.00  0.00    -0.289 OA
ATOM     14  C   UNL     1      21.861 -56.872   2.159  1.00  0.00     0.059 A 
ATOM     15  C   UNL     1      21.146 -57.979   2.623  1.00  0.00     0.120 A 
ATOM     16  C   UNL     1      19.988 -57.791   3.376  1.00  0.00     0.093 A 
ATOM     17  C   UNL     1      19.526 -56.504   3.671  1.00  0.00     0.131 A 
ENDROOT
BRANCH   6  18
ATOM     18  O   UNL     1      19.214 -51.285   4.444  1.00  0.00    -0.507 OA
ATOM     19  H   UNL     1      19.094 -50.422   4.954  1.00  0.00     0.293 HD
ENDBRANCH   6  18
BRANCH  17  20
ATOM     20  O   UNL     1      18.413 -56.395   4.507  1.00  0.00    -0.507 OA
ATOM     21  H   UNL     1      18.428 -55.922   5.399  1.00  0.00     0.293 HD
ENDBRANCH  17  20
BRANCH  15  22
ATOM     22  O   UNL     1      21.585 -59.273   2.351  1.00  0.00    -0.508 OA
ATOM     23  H   UNL     1      21.520 -59.671   1.421  1.00  0.00     0.293 HD
ENDBRANCH  15  22
TORSDOF 3
ENDMDL
