MODEL 1
REMARK VINA RESULT:    -3.264      0.000      0.000
REMARK INTER + INTRA:          -3.701
REMARK INTER:                  -3.646
REMARK INTRA:                  -0.055
REMARK UNBOUND:                -0.055
REMARK SMILES CCCC(=O)[O-]
REMARK SMILES IDX 3 1 4 2 5 3 6 4 2 5 1 6
REMARK H PARENT
REMARK Flexibility Score: inf
ROOT
ATOM      1  C   UNL     1     -38.750  20.009 -29.612  1.00  0.00     0.052 C 
ENDROOT
BRANCH   1   2
ATOM      2  C   UNL     1     -39.200  19.214 -28.424  1.00  0.00     0.041 C 
ATOM      3  O   UNL     1     -40.390  19.297 -28.020  1.00  0.00    -0.550 OA
ATOM      4  O   UNL     1     -38.296  18.409 -27.742  1.00  0.00    -0.550 OA
ENDBRANCH   1   2
BRANCH   1   5
ATOM      5  C   UNL     1     -37.950  19.151 -30.600  1.00  0.00     0.003 C 
ATOM      6  C   UNL     1     -38.776  17.998 -31.171  1.00  0.00     0.004 C 
ENDBRANCH   1   5
TORSDOF 2
ENDMDL
MODEL 2
REMARK VINA RESULT:    -3.247     16.444     16.928
REMARK INTER + INTRA:          -3.681
REMARK INTER:                  -3.646
REMARK INTRA:                  -0.035
REMARK UNBOUND:                -0.055
REMARK SMILES CCCC(=O)[O-]
REMARK SMILES IDX 3 1 4 2 5 3 6 4 2 5 1 6
REMARK H PARENT
REMARK Flexibility Score: inf
ROOT
ATOM      1  C   UNL     1     -52.314  23.407 -37.508  1.00  0.00     0.052 C 
ENDROOT
BRANCH   1   2
ATOM      2  C   UNL     1     -53.417  22.664 -36.818  1.00  0.00     0.041 C 
ATOM      3  O   UNL     1     -53.698  22.919 -35.617  1.00  0.00    -0.550 OA
ATOM      4  O   UNL     1     -54.112  21.667 -37.491  1.00  0.00    -0.550 OA
ENDBRANCH   1   2
BRANCH   1   5
ATOM      5  C   UNL     1     -52.621  23.629 -38.995  1.00  0.00     0.003 C 
ATOM      6  C   UNL     1     -51.757  22.754 -39.903  1.00  0.00     0.004 C 
ENDBRANCH   1   5
TORSDOF 2
ENDMDL
MODEL 3
REMARK VINA RESULT:    -3.221      2.358      3.136
REMARK INTER + INTRA:          -3.653
REMARK INTER:                  -3.607
REMARK INTRA:                  -0.046
REMARK UNBOUND:                -0.055
REMARK SMILES CCCC(=O)[O-]
REMARK SMILES IDX 3 1 4 2 5 3 6 4 2 5 1 6
REMARK H PARENT
REMARK Flexibility Score: inf
ROOT
ATOM      1  C   UNL     1     -37.735  19.294 -29.506  1.00  0.00     0.052 C 
ENDROOT
BRANCH   1   2
ATOM      2  C   UNL     1     -38.363  19.086 -30.850  1.00  0.00     0.041 C 
ATOM      3  O   UNL     1     -38.769  17.944 -31.189  1.00  0.00    -0.550 OA
ATOM      4  O   UNL     1     -38.469  20.147 -31.740  1.00  0.00    -0.550 OA
ENDBRANCH   1   2
BRANCH   1   5
ATOM      5  C   UNL     1     -38.571  18.666 -28.383  1.00  0.00     0.003 C 
ATOM      6  C   UNL     1     -39.937  19.335 -28.232  1.00  0.00     0.004 C 
ENDBRANCH   1   5
TORSDOF 2
ENDMDL
MODEL 4
REMARK VINA RESULT:    -3.211      2.360      3.053
REMARK INTER + INTRA:          -3.641
REMARK INTER:                  -3.583
REMARK INTRA:                  -0.058
REMARK UNBOUND:                -0.055
REMARK SMILES CCCC(=O)[O-]
REMARK SMILES IDX 3 1 4 2 5 3 6 4 2 5 1 6
REMARK H PARENT
REMARK Flexibility Score: inf
ROOT
ATOM      1  C   UNL     1     -37.706  19.304 -29.535  1.00  0.00     0.052 C 
ENDROOT
BRANCH   1   2
ATOM      2  C   UNL     1     -38.327  19.116 -30.886  1.00  0.00     0.041 C 
ATOM      3  O   UNL     1     -38.438  20.092 -31.674  1.00  0.00    -0.550 OA
ATOM      4  O   UNL     1     -38.815  17.870 -31.260  1.00  0.00    -0.550 OA
ENDBRANCH   1   2
BRANCH   1   5
ATOM      5  C   UNL     1     -38.560  18.679 -28.425  1.00  0.00     0.003 C 
ATOM      6  C   UNL     1     -39.927  19.350 -28.295  1.00  0.00     0.004 C 
ENDBRANCH   1   5
TORSDOF 2
ENDMDL
MODEL 5
REMARK VINA RESULT:    -3.173      0.963      1.854
REMARK INTER + INTRA:          -3.600
REMARK INTER:                  -3.585
REMARK INTRA:                  -0.015
REMARK UNBOUND:                -0.055
REMARK SMILES CCCC(=O)[O-]
REMARK SMILES IDX 3 1 4 2 5 3 6 4 2 5 1 6
REMARK H PARENT
REMARK Flexibility Score: inf
ROOT
ATOM      1  C   UNL     1     -38.791  18.752 -30.047  1.00  0.00     0.052 C 
ENDROOT
BRANCH   1   2
ATOM      2  C   UNL     1     -38.994  18.936 -28.574  1.00  0.00     0.041 C 
ATOM      3  O   UNL     1     -38.079  18.631 -27.765  1.00  0.00    -0.550 OA
ATOM      4  O   UNL     1     -40.207  19.414 -28.093  1.00  0.00    -0.550 OA
ENDBRANCH   1   2
BRANCH   1   5
ATOM      5  C   UNL     1     -37.782  19.760 -30.613  1.00  0.00     0.003 C 
ATOM      6  C   UNL     1     -38.416  20.706 -31.634  1.00  0.00     0.004 C 
ENDBRANCH   1   5
TORSDOF 2
ENDMDL
MODEL 6
REMARK VINA RESULT:    -3.072      2.237      3.148
REMARK INTER + INTRA:          -3.486
REMARK INTER:                  -3.415
REMARK INTRA:                  -0.071
REMARK UNBOUND:                -0.055
REMARK SMILES CCCC(=O)[O-]
REMARK SMILES IDX 3 1 4 2 5 3 6 4 2 5 1 6
REMARK H PARENT
REMARK Flexibility Score: inf
ROOT
ATOM      1  C   UNL     1     -37.775  19.229 -30.090  1.00  0.00     0.052 C 
ENDROOT
BRANCH   1   2
ATOM      2  C   UNL     1     -37.941  17.815 -30.554  1.00  0.00     0.041 C 
ATOM      3  O   UNL     1     -37.194  16.908 -30.102  1.00  0.00    -0.550 OA
ATOM      4  O   UNL     1     -38.900  17.504 -31.510  1.00  0.00    -0.550 OA
ENDBRANCH   1   2
BRANCH   1   5
ATOM      5  C   UNL     1     -38.138  19.389 -28.608  1.00  0.00     0.003 C 
ATOM      6  C   UNL     1     -39.610  19.077 -28.334  1.00  0.00     0.004 C 
ENDBRANCH   1   5
TORSDOF 2
ENDMDL
MODEL 7
REMARK VINA RESULT:    -3.031      2.398      3.044
REMARK INTER + INTRA:          -3.440
REMARK INTER:                  -3.403
REMARK INTRA:                  -0.037
REMARK UNBOUND:                -0.055
REMARK SMILES CCCC(=O)[O-]
REMARK SMILES IDX 3 1 4 2 5 3 6 4 2 5 1 6
REMARK H PARENT
REMARK Flexibility Score: inf
ROOT
ATOM      1  C   UNL     1     -38.834  18.925 -29.861  1.00  0.00     0.052 C 
ENDROOT
BRANCH   1   2
ATOM      2  C   UNL     1     -38.635  20.325 -30.358  1.00  0.00     0.041 C 
ATOM      3  O   UNL     1     -38.627  21.289 -29.549  1.00  0.00    -0.550 OA
ATOM      4  O   UNL     1     -38.493  20.567 -31.719  1.00  0.00    -0.550 OA
ENDBRANCH   1   2
BRANCH   1   5
ATOM      5  C   UNL     1     -38.855  18.863 -28.328  1.00  0.00     0.003 C 
ATOM      6  C   UNL     1     -37.600  18.204 -27.756  1.00  0.00     0.004 C 
ENDBRANCH   1   5
TORSDOF 2
ENDMDL
MODEL 8
REMARK VINA RESULT:    -2.980      2.089      2.672
REMARK INTER + INTRA:          -3.383
REMARK INTER:                  -3.372
REMARK INTRA:                  -0.011
REMARK UNBOUND:                -0.055
REMARK SMILES CCCC(=O)[O-]
REMARK SMILES IDX 3 1 4 2 5 3 6 4 2 5 1 6
REMARK H PARENT
REMARK Flexibility Score: inf
ROOT
ATOM      1  C   UNL     1     -38.932  18.917 -28.278  1.00  0.00     0.052 C 
ENDROOT
BRANCH   1   2
ATOM      2  C   UNL     1     -37.589  18.264 -28.160  1.00  0.00     0.041 C 
ATOM      3  O   UNL     1     -36.753  18.680 -27.316  1.00  0.00    -0.550 OA
ATOM      4  O   UNL     1     -37.248  17.216 -29.007  1.00  0.00    -0.550 OA
ENDBRANCH   1   2
BRANCH   1   5
ATOM      5  C   UNL     1     -39.004  19.856 -29.489  1.00  0.00     0.003 C 
ATOM      6  C   UNL     1     -39.594  21.220 -29.133  1.00  0.00     0.004 C 
ENDBRANCH   1   5
TORSDOF 2
ENDMDL
MODEL 9
REMARK VINA RESULT:    -2.959     16.014     16.532
REMARK INTER + INTRA:          -3.361
REMARK INTER:                  -3.352
REMARK INTRA:                  -0.008
REMARK UNBOUND:                -0.055
REMARK SMILES CCCC(=O)[O-]
REMARK SMILES IDX 3 1 4 2 5 3 6 4 2 5 1 6
REMARK H PARENT
REMARK Flexibility Score: inf
ROOT
ATOM      1  C   UNL     1     -53.547  23.149 -36.280  1.00  0.00     0.052 C 
ENDROOT
BRANCH   1   2
ATOM      2  C   UNL     1     -53.618  21.730 -35.803  1.00  0.00     0.041 C 
ATOM      3  O   UNL     1     -54.120  20.840 -36.537  1.00  0.00    -0.550 OA
ATOM      4  O   UNL     1     -53.160  21.399 -34.534  1.00  0.00    -0.550 OA
ENDBRANCH   1   2
BRANCH   1   5
ATOM      5  C   UNL     1     -52.435  23.345 -37.319  1.00  0.00     0.003 C 
ATOM      6  C   UNL     1     -52.675  24.570 -38.202  1.00  0.00     0.004 C 
ENDBRANCH   1   5
TORSDOF 2
ENDMDL
