MODEL 1
REMARK VINA RESULT:    -4.209      0.000      0.000
REMARK INTER + INTRA:          -4.609
REMARK INTER:                  -4.455
REMARK INTRA:                  -0.154
REMARK UNBOUND:                -0.154
REMARK SMILES CC1=CC[C@@H](C(C)C)C=C1
REMARK SMILES IDX 1 1 2 2 3 3 4 4 5 5 9 6 10 7 6 8 7 9 8 10
REMARK H PARENT
REMARK Flexibility Score: inf
ROOT
ATOM      1  C   UNL     1     143.401 137.601 131.631  1.00  0.00     0.044 C 
ATOM      2  C   UNL     1     142.624 137.823 132.895  1.00  0.00    -0.055 C 
ATOM      3  C   UNL     1     143.221 138.343 133.976  1.00  0.00    -0.023 C 
ATOM      4  C   UNL     1     142.419 138.699 135.202  1.00  0.00     0.035 C 
ATOM      5  C   UNL     1     141.232 137.723 135.403  1.00  0.00     0.018 C 
ATOM      6  C   UNL     1     140.500 137.554 134.081  1.00  0.00    -0.023 C 
ATOM      7  C   UNL     1     141.172 137.544 132.925  1.00  0.00    -0.001 C 
ENDROOT
BRANCH   5   8
ATOM      8  C   UNL     1     140.259 138.169 136.541  1.00  0.00    -0.010 C 
ATOM      9  C   UNL     1     138.923 138.673 135.965  1.00  0.00     0.008 C 
ATOM     10  C   UNL     1     139.965 137.037 137.542  1.00  0.00     0.008 C 
ENDBRANCH   5   8
TORSDOF 1
ENDMDL
MODEL 2
REMARK VINA RESULT:    -4.204      6.095      7.066
REMARK INTER + INTRA:          -4.603
REMARK INTER:                  -4.447
REMARK INTRA:                  -0.155
REMARK UNBOUND:                -0.154
REMARK SMILES CC1=CC[C@@H](C(C)C)C=C1
REMARK SMILES IDX 1 1 2 2 3 3 4 4 5 5 9 6 10 7 6 8 7 9 8 10
REMARK H PARENT
REMARK Flexibility Score: inf
ROOT
ATOM      1  C   UNL     1     138.802 144.605 131.542  1.00  0.00     0.044 C 
ATOM      2  C   UNL     1     139.576 144.378 132.806  1.00  0.00    -0.055 C 
ATOM      3  C   UNL     1     138.999 143.779 133.858  1.00  0.00    -0.023 C 
ATOM      4  C   UNL     1     139.807 143.420 135.079  1.00  0.00     0.035 C 
ATOM      5  C   UNL     1     140.932 144.455 135.334  1.00  0.00     0.018 C 
ATOM      6  C   UNL     1     141.667 144.721 134.031  1.00  0.00    -0.023 C 
ATOM      7  C   UNL     1     141.009 144.739 132.867  1.00  0.00    -0.001 C 
ENDROOT
BRANCH   5   8
ATOM      8  C   UNL     1     141.917 144.020 136.466  1.00  0.00    -0.010 C 
ATOM      9  C   UNL     1     143.261 143.546 135.883  1.00  0.00     0.008 C 
ATOM     10  C   UNL     1     142.193 145.150 137.475  1.00  0.00     0.008 C 
ENDBRANCH   5   8
TORSDOF 1
ENDMDL
MODEL 3
REMARK VINA RESULT:    -4.198      1.897      4.233
REMARK INTER + INTRA:          -4.597
REMARK INTER:                  -4.479
REMARK INTRA:                  -0.119
REMARK UNBOUND:                -0.154
REMARK SMILES CC1=CC[C@@H](C(C)C)C=C1
REMARK SMILES IDX 1 1 2 2 3 3 4 4 5 5 9 6 10 7 6 8 7 9 8 10
REMARK H PARENT
REMARK Flexibility Score: inf
ROOT
ATOM      1  C   UNL     1     145.256 140.712 137.094  1.00  0.00     0.044 C 
ATOM      2  C   UNL     1     144.364 140.061 136.080  1.00  0.00    -0.055 C 
ATOM      3  C   UNL     1     143.405 139.208 136.467  1.00  0.00    -0.023 C 
ATOM      4  C   UNL     1     142.415 138.659 135.472  1.00  0.00     0.035 C 
ATOM      5  C   UNL     1     143.065 138.468 134.077  1.00  0.00     0.018 C 
ATOM      6  C   UNL     1     143.838 139.725 133.713  1.00  0.00    -0.023 C 
ATOM      7  C   UNL     1     144.486 140.423 134.651  1.00  0.00    -0.001 C 
ENDROOT
BRANCH   5   8
ATOM      8  C   UNL     1     142.032 138.091 132.968  1.00  0.00    -0.010 C 
ATOM      9  C   UNL     1     142.727 137.442 131.756  1.00  0.00     0.008 C 
ATOM     10  C   UNL     1     140.941 137.133 133.478  1.00  0.00     0.008 C 
ENDBRANCH   5   8
TORSDOF 1
ENDMDL
MODEL 4
REMARK VINA RESULT:    -4.196      3.799      5.002
REMARK INTER + INTRA:          -4.595
REMARK INTER:                  -4.440
REMARK INTRA:                  -0.155
REMARK UNBOUND:                -0.154
REMARK SMILES CC1=CC[C@@H](C(C)C)C=C1
REMARK SMILES IDX 1 1 2 2 3 3 4 4 5 5 9 6 10 7 6 8 7 9 8 10
REMARK H PARENT
REMARK Flexibility Score: inf
ROOT
ATOM      1  C   UNL     1     137.664 138.870 131.674  1.00  0.00     0.044 C 
ATOM      2  C   UNL     1     137.864 139.632 132.950  1.00  0.00    -0.055 C 
ATOM      3  C   UNL     1     138.376 139.024 134.030  1.00  0.00    -0.023 C 
ATOM      4  C   UNL     1     138.711 139.812 135.271  1.00  0.00     0.035 C 
ATOM      5  C   UNL     1     137.724 140.990 135.475  1.00  0.00     0.018 C 
ATOM      6  C   UNL     1     137.567 141.738 134.161  1.00  0.00    -0.023 C 
ATOM      7  C   UNL     1     137.576 141.081 132.996  1.00  0.00    -0.001 C 
ENDROOT
BRANCH   5   8
ATOM      8  C   UNL     1     138.150 141.951 136.631  1.00  0.00    -0.010 C 
ATOM      9  C   UNL     1     138.703 143.277 136.077  1.00  0.00     0.008 C 
ATOM     10  C   UNL     1     136.990 142.267 137.592  1.00  0.00     0.008 C 
ENDBRANCH   5   8
TORSDOF 1
ENDMDL
MODEL 5
REMARK VINA RESULT:    -4.178      3.891      5.098
REMARK INTER + INTRA:          -4.576
REMARK INTER:                  -4.420
REMARK INTRA:                  -0.156
REMARK UNBOUND:                -0.154
REMARK SMILES CC1=CC[C@@H](C(C)C)C=C1
REMARK SMILES IDX 1 1 2 2 3 3 4 4 5 5 9 6 10 7 6 8 7 9 8 10
REMARK H PARENT
REMARK Flexibility Score: inf
ROOT
ATOM      1  C   UNL     1     144.586 143.445 131.430  1.00  0.00     0.044 C 
ATOM      2  C   UNL     1     144.375 142.688 132.707  1.00  0.00    -0.055 C 
ATOM      3  C   UNL     1     143.752 143.266 133.744  1.00  0.00    -0.023 C 
ATOM      4  C   UNL     1     143.412 142.471 134.979  1.00  0.00     0.035 C 
ATOM      5  C   UNL     1     144.479 141.382 135.261  1.00  0.00     0.018 C 
ATOM      6  C   UNL     1     144.774 140.632 133.973  1.00  0.00    -0.023 C 
ATOM      7  C   UNL     1     144.779 141.269 132.797  1.00  0.00    -0.001 C 
ENDROOT
BRANCH   5   8
ATOM      8  C   UNL     1     144.068 140.406 136.409  1.00  0.00    -0.010 C 
ATOM      9  C   UNL     1     143.624 139.042 135.847  1.00  0.00     0.008 C 
ATOM     10  C   UNL     1     145.204 140.173 137.421  1.00  0.00     0.008 C 
ENDBRANCH   5   8
TORSDOF 1
ENDMDL
MODEL 6
REMARK VINA RESULT:    -4.165      5.225      7.146
REMARK INTER + INTRA:          -4.562
REMARK INTER:                  -4.438
REMARK INTRA:                  -0.123
REMARK UNBOUND:                -0.154
REMARK SMILES CC1=CC[C@@H](C(C)C)C=C1
REMARK SMILES IDX 1 1 2 2 3 3 4 4 5 5 9 6 10 7 6 8 7 9 8 10
REMARK H PARENT
REMARK Flexibility Score: inf
ROOT
ATOM      1  C   UNL     1     141.488 145.215 137.223  1.00  0.00     0.044 C 
ATOM      2  C   UNL     1     142.111 144.418 136.116  1.00  0.00    -0.055 C 
ATOM      3  C   UNL     1     143.073 143.523 136.382  1.00  0.00    -0.023 C 
ATOM      4  C   UNL     1     143.605 142.620 135.298  1.00  0.00     0.035 C 
ATOM      5  C   UNL     1     143.609 143.333 133.922  1.00  0.00     0.018 C 
ATOM      6  C   UNL     1     142.263 144.006 133.708  1.00  0.00    -0.023 C 
ATOM      7  C   UNL     1     141.606 144.559 134.733  1.00  0.00    -0.001 C 
ENDROOT
BRANCH   5   8
ATOM      8  C   UNL     1     143.961 142.375 132.739  1.00  0.00    -0.010 C 
ATOM      9  C   UNL     1     144.744 143.115 131.638  1.00  0.00     0.008 C 
ATOM     10  C   UNL     1     144.787 141.157 133.192  1.00  0.00     0.008 C 
ENDBRANCH   5   8
TORSDOF 1
ENDMDL
MODEL 7
REMARK VINA RESULT:    -4.165      5.585      7.122
REMARK INTER + INTRA:          -4.562
REMARK INTER:                  -4.438
REMARK INTRA:                  -0.124
REMARK UNBOUND:                -0.154
REMARK SMILES CC1=CC[C@@H](C(C)C)C=C1
REMARK SMILES IDX 1 1 2 2 3 3 4 4 5 5 9 6 10 7 6 8 7 9 8 10
REMARK H PARENT
REMARK Flexibility Score: inf
ROOT
ATOM      1  C   UNL     1     136.915 141.409 137.245  1.00  0.00     0.044 C 
ATOM      2  C   UNL     1     137.702 142.050 136.140  1.00  0.00    -0.055 C 
ATOM      3  C   UNL     1     138.565 143.040 136.408  1.00  0.00    -0.023 C 
ATOM      4  C   UNL     1     139.461 143.593 135.329  1.00  0.00     0.035 C 
ATOM      5  C   UNL     1     138.761 143.566 133.946  1.00  0.00     0.018 C 
ATOM      6  C   UNL     1     138.130 142.200 133.735  1.00  0.00    -0.023 C 
ATOM      7  C   UNL     1     137.588 141.532 134.759  1.00  0.00    -0.001 C 
ENDROOT
BRANCH   5   8
ATOM      8  C   UNL     1     139.717 143.941 132.769  1.00  0.00    -0.010 C 
ATOM      9  C   UNL     1     138.969 144.716 131.668  1.00  0.00     0.008 C 
ATOM     10  C   UNL     1     140.919 144.785 133.231  1.00  0.00     0.008 C 
ENDBRANCH   5   8
TORSDOF 1
ENDMDL
MODEL 8
REMARK VINA RESULT:    -4.148      2.405      4.488
REMARK INTER + INTRA:          -4.545
REMARK INTER:                  -4.349
REMARK INTRA:                  -0.196
REMARK UNBOUND:                -0.154
REMARK SMILES CC1=CC[C@@H](C(C)C)C=C1
REMARK SMILES IDX 1 1 2 2 3 3 4 4 5 5 9 6 10 7 6 8 7 9 8 10
REMARK H PARENT
REMARK Flexibility Score: inf
ROOT
ATOM      1  C   UNL     1     140.623 137.209 136.941  1.00  0.00     0.044 C 
ATOM      2  C   UNL     1     139.898 138.043 135.927  1.00  0.00    -0.055 C 
ATOM      3  C   UNL     1     139.015 138.973 136.320  1.00  0.00    -0.023 C 
ATOM      4  C   UNL     1     138.387 139.909 135.319  1.00  0.00     0.035 C 
ATOM      5  C   UNL     1     138.179 139.213 133.949  1.00  0.00     0.018 C 
ATOM      6  C   UNL     1     139.457 138.489 133.562  1.00  0.00    -0.023 C 
ATOM      7  C   UNL     1     140.216 137.898 134.491  1.00  0.00    -0.001 C 
ENDROOT
BRANCH   5   8
ATOM      8  C   UNL     1     137.718 140.198 132.828  1.00  0.00    -0.010 C 
ATOM      9  C   UNL     1     137.226 141.530 133.424  1.00  0.00     0.008 C 
ATOM     10  C   UNL     1     138.834 140.499 131.811  1.00  0.00     0.008 C 
ENDBRANCH   5   8
TORSDOF 1
ENDMDL
MODEL 9
REMARK VINA RESULT:    -4.116      4.699      6.579
REMARK INTER + INTRA:          -4.510
REMARK INTER:                  -4.317
REMARK INTRA:                  -0.193
REMARK UNBOUND:                -0.154
REMARK SMILES CC1=CC[C@@H](C(C)C)C=C1
REMARK SMILES IDX 1 1 2 2 3 3 4 4 5 5 9 6 10 7 6 8 7 9 8 10
REMARK H PARENT
REMARK Flexibility Score: inf
ROOT
ATOM      1  C   UNL     1     144.677 140.449 136.394  1.00  0.00     0.044 C 
ATOM      2  C   UNL     1     144.446 141.204 135.118  1.00  0.00    -0.055 C 
ATOM      3  C   UNL     1     144.905 140.724 133.953  1.00  0.00    -0.023 C 
ATOM      4  C   UNL     1     144.558 141.402 132.652  1.00  0.00     0.035 C 
ATOM      5  C   UNL     1     144.434 142.937 132.831  1.00  0.00     0.018 C 
ATOM      6  C   UNL     1     143.576 143.227 134.050  1.00  0.00    -0.023 C 
ATOM      7  C   UNL     1     143.638 142.442 135.131  1.00  0.00    -0.001 C 
ENDROOT
BRANCH   5   8
ATOM      8  C   UNL     1     143.882 143.657 131.559  1.00  0.00    -0.010 C 
ATOM      9  C   UNL     1     144.173 142.841 130.286  1.00  0.00     0.008 C 
ATOM     10  C   UNL     1     142.366 143.916 131.639  1.00  0.00     0.008 C 
ENDBRANCH   5   8
TORSDOF 1
ENDMDL
