MODEL 1
REMARK VINA RESULT:    -0.648      0.000      0.000
REMARK INTER + INTRA:          -0.648
REMARK INTER:                  -0.648
REMARK INTRA:                   0.000
REMARK UNBOUND:                 0.000
REMARK SMILES C=C1CCC[C@]2(C)CC(=O)C(=C(C)C)C[C@H]12
REMARK SMILES IDX 13 1 12 2 11 3 15 4 16 5 2 6 1 7 3 8 4 9 5 10 6 11 8 12 9 13
REMARK SMILES IDX 10 14 7 15 14 16
REMARK H PARENT
REMARK Flexibility Score: inf
ROOT
ATOM      1  C   UNL     1      75.452  31.764  53.143  1.00  0.00     0.039 C 
ATOM      2  C   UNL     1      75.325  33.198  52.682  1.00  0.00    -0.070 C 
ATOM      3  C   UNL     1      76.419  33.922  52.305  1.00  0.00    -0.006 C 
ATOM      4  C   UNL     1      77.816  33.328  52.326  1.00  0.00     0.047 C 
ATOM      5  C   UNL     1      78.740  33.895  51.221  1.00  0.00     0.025 C 
ATOM      6  C   UNL     1      80.156  33.392  51.442  1.00  0.00    -0.073 C 
ATOM      7  C   UNL     1      80.539  32.211  50.935  1.00  0.00     0.008 C 
ATOM      8  C   UNL     1      81.149  34.227  52.219  1.00  0.00     0.031 C 
ATOM      9  C   UNL     1      80.465  35.289  53.088  1.00  0.00     0.005 C 
ATOM     10  C   UNL     1      79.380  36.125  52.370  1.00  0.00     0.008 C 
ATOM     11  C   UNL     1      78.721  35.453  51.119  1.00  0.00    -0.018 C 
ATOM     12  C   UNL     1      77.260  35.944  50.952  1.00  0.00     0.088 C 
ATOM     13  C   UNL     1      76.339  35.367  51.982  1.00  0.00     0.159 C 
ATOM     14  O   UNL     1      75.515  36.124  52.562  1.00  0.00    -0.295 OA
ATOM     15  C   UNL     1      79.485  35.899  49.843  1.00  0.00     0.012 C 
ATOM     16  C   UNL     1      73.932  33.780  52.619  1.00  0.00     0.039 C 
ENDROOT
TORSDOF 0
ENDMDL
MODEL 2
REMARK VINA RESULT:    -0.622     14.025     15.490
REMARK INTER + INTRA:          -0.622
REMARK INTER:                  -0.622
REMARK INTRA:                   0.000
REMARK UNBOUND:                 0.000
REMARK SMILES C=C1CCC[C@]2(C)CC(=O)C(=C(C)C)C[C@H]12
REMARK SMILES IDX 13 1 12 2 11 3 15 4 16 5 2 6 1 7 3 8 4 9 5 10 6 11 8 12 9 13
REMARK SMILES IDX 10 14 7 15 14 16
REMARK H PARENT
REMARK Flexibility Score: inf
ROOT
ATOM      1  C   UNL     1      82.607  28.326  64.448  1.00  0.00     0.039 C 
ATOM      2  C   UNL     1      82.694  29.822  64.251  1.00  0.00    -0.070 C 
ATOM      3  C   UNL     1      83.825  30.515  64.572  1.00  0.00    -0.006 C 
ATOM      4  C   UNL     1      85.053  29.823  65.137  1.00  0.00     0.047 C 
ATOM      5  C   UNL     1      86.383  30.497  64.720  1.00  0.00     0.025 C 
ATOM      6  C   UNL     1      87.531  29.860  65.484  1.00  0.00    -0.073 C 
ATOM      7  C   UNL     1      88.125  28.754  65.011  1.00  0.00     0.008 C 
ATOM      8  C   UNL     1      88.024  30.477  66.774  1.00  0.00     0.031 C 
ATOM      9  C   UNL     1      86.993  31.426  67.398  1.00  0.00     0.005 C 
ATOM     10  C   UNL     1      86.369  32.449  66.421  1.00  0.00     0.008 C 
ATOM     11  C   UNL     1      86.393  32.047  64.908  1.00  0.00    -0.018 C 
ATOM     12  C   UNL     1      85.180  32.667  64.167  1.00  0.00     0.088 C 
ATOM     13  C   UNL     1      83.889  31.996  64.519  1.00  0.00     0.159 C 
ATOM     14  O   UNL     1      82.877  32.705  64.771  1.00  0.00    -0.295 OA
ATOM     15  C   UNL     1      87.665  32.642  64.245  1.00  0.00     0.012 C 
ATOM     16  C   UNL     1      81.490  30.509  63.649  1.00  0.00     0.039 C 
ENDROOT
TORSDOF 0
ENDMDL
MODEL 3
REMARK VINA RESULT:    -0.132     13.843     16.040
REMARK INTER + INTRA:          -0.132
REMARK INTER:                  -0.132
REMARK INTRA:                   0.000
REMARK UNBOUND:                 0.000
REMARK SMILES C=C1CCC[C@]2(C)CC(=O)C(=C(C)C)C[C@H]12
REMARK SMILES IDX 13 1 12 2 11 3 15 4 16 5 2 6 1 7 3 8 4 9 5 10 6 11 8 12 9 13
REMARK SMILES IDX 10 14 7 15 14 16
REMARK H PARENT
REMARK Flexibility Score: inf
ROOT
ATOM      1  C   UNL     1      85.123  35.601  62.446  1.00  0.00     0.039 C 
ATOM      2  C   UNL     1      86.331  35.270  63.291  1.00  0.00    -0.070 C 
ATOM      3  C   UNL     1      86.320  34.224  64.167  1.00  0.00    -0.006 C 
ATOM      4  C   UNL     1      85.099  33.337  64.336  1.00  0.00     0.047 C 
ATOM      5  C   UNL     1      85.450  31.871  64.686  1.00  0.00     0.025 C 
ATOM      6  C   UNL     1      84.176  31.115  65.025  1.00  0.00    -0.073 C 
ATOM      7  C   UNL     1      83.452  30.544  64.051  1.00  0.00     0.008 C 
ATOM      8  C   UNL     1      83.725  30.987  66.462  1.00  0.00     0.031 C 
ATOM      9  C   UNL     1      84.375  32.036  67.373  1.00  0.00     0.005 C 
ATOM     10  C   UNL     1      85.906  32.183  67.215  1.00  0.00     0.008 C 
ATOM     11  C   UNL     1      86.494  31.728  65.838  1.00  0.00    -0.018 C 
ATOM     12  C   UNL     1      87.761  32.554  65.494  1.00  0.00     0.088 C 
ATOM     13  C   UNL     1      87.439  33.963  65.104  1.00  0.00     0.159 C 
ATOM     14  O   UNL     1      88.123  34.905  65.587  1.00  0.00    -0.295 OA
ATOM     15  C   UNL     1      86.950  30.247  65.945  1.00  0.00     0.012 C 
ATOM     16  C   UNL     1      87.563  36.124  63.096  1.00  0.00     0.039 C 
ENDROOT
TORSDOF 0
ENDMDL
MODEL 4
REMARK VINA RESULT:    -0.129     15.022     16.662
REMARK INTER + INTRA:          -0.129
REMARK INTER:                  -0.129
REMARK INTRA:                   0.000
REMARK UNBOUND:                 0.000
REMARK SMILES C=C1CCC[C@]2(C)CC(=O)C(=C(C)C)C[C@H]12
REMARK SMILES IDX 13 1 12 2 11 3 15 4 16 5 2 6 1 7 3 8 4 9 5 10 6 11 8 12 9 13
REMARK SMILES IDX 10 14 7 15 14 16
REMARK H PARENT
REMARK Flexibility Score: inf
ROOT
ATOM      1  C   UNL     1      84.070  27.002  64.750  1.00  0.00     0.039 C 
ATOM      2  C   UNL     1      85.547  27.296  64.628  1.00  0.00    -0.070 C 
ATOM      3  C   UNL     1      86.039  28.553  64.829  1.00  0.00    -0.006 C 
ATOM      4  C   UNL     1      85.133  29.717  65.187  1.00  0.00     0.047 C 
ATOM      5  C   UNL     1      85.816  30.766  66.099  1.00  0.00     0.025 C 
ATOM      6  C   UNL     1      84.907  31.976  66.241  1.00  0.00    -0.073 C 
ATOM      7  C   UNL     1      83.959  32.000  67.189  1.00  0.00     0.008 C 
ATOM      8  C   UNL     1      85.077  33.168  65.326  1.00  0.00     0.031 C 
ATOM      9  C   UNL     1      85.860  32.821  64.054  1.00  0.00     0.005 C 
ATOM     10  C   UNL     1      87.165  32.026  64.284  1.00  0.00     0.008 C 
ATOM     11  C   UNL     1      87.234  31.200  65.612  1.00  0.00    -0.018 C 
ATOM     12  C   UNL     1      88.123  29.944  65.420  1.00  0.00     0.088 C 
ATOM     13  C   UNL     1      87.460  28.896  64.582  1.00  0.00     0.159 C 
ATOM     14  O   UNL     1      88.124  28.326  63.674  1.00  0.00    -0.295 OA
ATOM     15  C   UNL     1      87.919  32.061  66.709  1.00  0.00     0.012 C 
ATOM     16  C   UNL     1      86.457  26.131  64.313  1.00  0.00     0.039 C 
ENDROOT
TORSDOF 0
ENDMDL
MODEL 5
REMARK VINA RESULT:     0.587      1.865      5.646
REMARK INTER + INTRA:           0.587
REMARK INTER:                   0.587
REMARK INTRA:                   0.000
REMARK UNBOUND:                 0.000
REMARK SMILES C=C1CCC[C@]2(C)CC(=O)C(=C(C)C)C[C@H]12
REMARK SMILES IDX 13 1 12 2 11 3 15 4 16 5 2 6 1 7 3 8 4 9 5 10 6 11 8 12 9 13
REMARK SMILES IDX 10 14 7 15 14 16
REMARK H PARENT
REMARK Flexibility Score: inf
ROOT
ATOM      1  C   UNL     1      77.557  31.771  52.001  1.00  0.00     0.039 C 
ATOM      2  C   UNL     1      77.441  33.278  51.970  1.00  0.00    -0.070 C 
ATOM      3  C   UNL     1      76.321  33.912  52.424  1.00  0.00    -0.006 C 
ATOM      4  C   UNL     1      75.139  33.143  52.985  1.00  0.00     0.047 C 
ATOM      5  C   UNL     1      74.382  33.908  54.098  1.00  0.00     0.025 C 
ATOM      6  C   UNL     1      73.114  33.151  54.456  1.00  0.00    -0.073 C 
ATOM      7  C   UNL     1      73.149  32.171  55.371  1.00  0.00     0.008 C 
ATOM      8  C   UNL     1      71.801  33.509  53.797  1.00  0.00     0.031 C 
ATOM      9  C   UNL     1      71.997  34.299  52.497  1.00  0.00     0.005 C 
ATOM     10  C   UNL     1      72.985  35.484  52.593  1.00  0.00     0.008 C 
ATOM     11  C   UNL     1      74.051  35.389  53.735  1.00  0.00    -0.018 C 
ATOM     12  C   UNL     1      75.353  36.124  53.319  1.00  0.00     0.088 C 
ATOM     13  C   UNL     1      76.125  35.375  52.277  1.00  0.00     0.159 C 
ATOM     14  O   UNL     1      76.592  36.004  51.289  1.00  0.00    -0.295 OA
ATOM     15  C   UNL     1      73.514  36.125  54.993  1.00  0.00     0.012 C 
ATOM     16  C   UNL     1      78.632  34.050  51.452  1.00  0.00     0.039 C 
ENDROOT
TORSDOF 0
ENDMDL
MODEL 6
REMARK VINA RESULT:     0.739     13.710     15.934
REMARK INTER + INTRA:           0.739
REMARK INTER:                   0.739
REMARK INTRA:                   0.000
REMARK UNBOUND:                 0.000
REMARK SMILES C=C1CCC[C@]2(C)CC(=O)C(=C(C)C)C[C@H]12
REMARK SMILES IDX 13 1 12 2 11 3 15 4 16 5 2 6 1 7 3 8 4 9 5 10 6 11 8 12 9 13
REMARK SMILES IDX 10 14 7 15 14 16
REMARK H PARENT
REMARK Flexibility Score: inf
ROOT
ATOM      1  C   UNL     1      87.856  36.125  63.760  1.00  0.00     0.039 C 
ATOM      2  C   UNL     1      86.588  35.427  63.323  1.00  0.00    -0.070 C 
ATOM      3  C   UNL     1      86.178  34.267  63.913  1.00  0.00    -0.006 C 
ATOM      4  C   UNL     1      86.966  33.620  65.038  1.00  0.00     0.047 C 
ATOM      5  C   UNL     1      86.076  32.871  66.058  1.00  0.00     0.025 C 
ATOM      6  C   UNL     1      86.958  32.100  67.026  1.00  0.00    -0.073 C 
ATOM      7  C   UNL     1      87.439  32.701  68.125  1.00  0.00     0.008 C 
ATOM      8  C   UNL     1      87.286  30.647  66.767  1.00  0.00     0.031 C 
ATOM      9  C   UNL     1      87.056  30.249  65.304  1.00  0.00     0.005 C 
ATOM     10  C   UNL     1      85.701  30.694  64.708  1.00  0.00     0.008 C 
ATOM     11  C   UNL     1      85.023  31.922  65.403  1.00  0.00    -0.018 C 
ATOM     12  C   UNL     1      84.174  32.719  64.379  1.00  0.00     0.088 C 
ATOM     13  C   UNL     1      85.017  33.491  63.413  1.00  0.00     0.159 C 
ATOM     14  O   UNL     1      84.727  33.463  62.186  1.00  0.00    -0.295 OA
ATOM     15  C   UNL     1      84.038  31.410  66.489  1.00  0.00     0.012 C 
ATOM     16  C   UNL     1      85.778  36.089  62.233  1.00  0.00     0.039 C 
ENDROOT
TORSDOF 0
ENDMDL
MODEL 7
REMARK VINA RESULT:     1.222      1.781      3.261
REMARK INTER + INTRA:           1.222
REMARK INTER:                   1.222
REMARK INTRA:                   0.000
REMARK UNBOUND:                 0.000
REMARK SMILES C=C1CCC[C@]2(C)CC(=O)C(=C(C)C)C[C@H]12
REMARK SMILES IDX 13 1 12 2 11 3 15 4 16 5 2 6 1 7 3 8 4 9 5 10 6 11 8 12 9 13
REMARK SMILES IDX 10 14 7 15 14 16
REMARK H PARENT
REMARK Flexibility Score: inf
ROOT
ATOM      1  C   UNL     1      75.103  35.506  52.112  1.00  0.00     0.039 C 
ATOM      2  C   UNL     1      75.454  34.062  52.389  1.00  0.00    -0.070 C 
ATOM      3  C   UNL     1      76.718  33.588  52.187  1.00  0.00    -0.006 C 
ATOM      4  C   UNL     1      77.834  34.482  51.679  1.00  0.00     0.047 C 
ATOM      5  C   UNL     1      79.229  34.092  52.226  1.00  0.00     0.025 C 
ATOM      6  C   UNL     1      80.295  34.910  51.517  1.00  0.00    -0.073 C 
ATOM      7  C   UNL     1      80.629  36.125  51.977  1.00  0.00     0.008 C 
ATOM      8  C   UNL     1      80.998  34.354  50.300  1.00  0.00     0.031 C 
ATOM      9  C   UNL     1      80.220  33.203  49.650  1.00  0.00     0.005 C 
ATOM     10  C   UNL     1      79.722  32.115  50.629  1.00  0.00     0.008 C 
ATOM     11  C   UNL     1      79.547  32.567  52.117  1.00  0.00    -0.018 C 
ATOM     12  C   UNL     1      78.416  31.752  52.797  1.00  0.00     0.088 C 
ATOM     13  C   UNL     1      77.054  32.150  52.318  1.00  0.00     0.159 C 
ATOM     14  O   UNL     1      76.219  31.252  52.029  1.00  0.00    -0.295 OA
ATOM     15  C   UNL     1      80.850  32.251  52.900  1.00  0.00     0.012 C 
ATOM     16  C   UNL     1      74.356  33.178  52.935  1.00  0.00     0.039 C 
ENDROOT
TORSDOF 0
ENDMDL
MODEL 8
REMARK VINA RESULT:     1.560     14.590     16.376
REMARK INTER + INTRA:           1.560
REMARK INTER:                   1.560
REMARK INTRA:                   0.000
REMARK UNBOUND:                 0.000
REMARK SMILES C=C1CCC[C@]2(C)CC(=O)C(=C(C)C)C[C@H]12
REMARK SMILES IDX 13 1 12 2 11 3 15 4 16 5 2 6 1 7 3 8 4 9 5 10 6 11 8 12 9 13
REMARK SMILES IDX 10 14 7 15 14 16
REMARK H PARENT
REMARK Flexibility Score: inf
ROOT
ATOM      1  C   UNL     1      88.125  27.300  64.763  1.00  0.00     0.039 C 
ATOM      2  C   UNL     1      86.641  27.494  64.550  1.00  0.00    -0.070 C 
ATOM      3  C   UNL     1      86.034  28.684  64.827  1.00  0.00    -0.006 C 
ATOM      4  C   UNL     1      86.813  29.873  65.359  1.00  0.00     0.047 C 
ATOM      5  C   UNL     1      86.244  31.236  64.893  1.00  0.00     0.025 C 
ATOM      6  C   UNL     1      86.961  32.357  65.625  1.00  0.00    -0.073 C 
ATOM      7  C   UNL     1      88.112  32.850  65.143  1.00  0.00     0.008 C 
ATOM      8  C   UNL     1      86.375  32.937  66.892  1.00  0.00     0.031 C 
ATOM      9  C   UNL     1      85.346  32.003  67.540  1.00  0.00     0.005 C 
ATOM     10  C   UNL     1      84.285  31.426  66.575  1.00  0.00     0.008 C 
ATOM     11  C   UNL     1      84.699  31.370  65.066  1.00  0.00    -0.018 C 
ATOM     12  C   UNL     1      83.994  30.183  64.358  1.00  0.00     0.088 C 
ATOM     13  C   UNL     1      84.563  28.857  64.759  1.00  0.00     0.159 C 
ATOM     14  O   UNL     1      83.777  27.911  65.036  1.00  0.00    -0.295 OA
ATOM     15  C   UNL     1      84.206  32.660  64.357  1.00  0.00     0.012 C 
ATOM     16  C   UNL     1      85.869  26.325  63.981  1.00  0.00     0.039 C 
ENDROOT
TORSDOF 0
ENDMDL
