MODEL 1
REMARK VINA RESULT:    -4.329      0.000      0.000
REMARK INTER + INTRA:          -7.514
REMARK INTER:                  -6.733
REMARK INTRA:                  -0.781
REMARK UNBOUND:                -0.781
REMARK SMILES COc1cc(CNC(=O)CCCCC=CC(C)C)ccc1O
REMARK SMILES IDX 11 1 12 2 13 3 14 4 15 5 16 6 17 7 18 8 10 9 8 10 9 11 7 12
REMARK SMILES IDX 6 14 5 15 4 16 19 17 3 18 20 19 21 20 2 21 1 22 22 23
REMARK H PARENT 7 13 22 24
REMARK Flexibility Score: inf
ROOT
ATOM      1  C   UNL     1     236.788 234.917 233.011  1.00  0.00     0.010 C 
ENDROOT
BRANCH   1   2
ATOM      2  C   UNL     1     237.560 236.145 232.511  1.00  0.00     0.005 C 
BRANCH   2   3
ATOM      3  C   UNL     1     239.037 236.111 232.930  1.00  0.00     0.027 C 
BRANCH   3   4
ATOM      4  C   UNL     1     239.402 237.251 233.850  1.00  0.00    -0.031 C 
ATOM      5  C   UNL     1     240.219 237.158 234.919  1.00  0.00    -0.028 C 
BRANCH   5   6
ATOM      6  C   UNL     1     240.907 235.896 235.390  1.00  0.00     0.005 C 
ATOM      7  C   UNL     1     242.221 236.257 236.089  1.00  0.00     0.012 C 
ATOM      8  C   UNL     1     239.986 235.131 236.344  1.00  0.00     0.012 C 
ENDBRANCH   5   6
ENDBRANCH   3   4
ENDBRANCH   2   3
ENDBRANCH   1   2
BRANCH   1   9
ATOM      9  C   UNL     1     236.913 233.751 232.023  1.00  0.00     0.100 C 
BRANCH   9  10
ATOM     10  C   UNL     1     235.974 232.646 232.403  1.00  0.00     0.220 C 
ATOM     11  O   UNL     1     234.857 232.931 232.912  1.00  0.00    -0.275 OA
ATOM     12  N   UNL     1     236.369 231.275 232.240  1.00  0.00    -0.352 N 
ATOM     13  H   UNL     1     237.289 231.056 231.786  1.00  0.00     0.163 HD
BRANCH  12  14
ATOM     14  C   UNL     1     235.579 230.165 232.764  1.00  0.00     0.151 C 
BRANCH  14  15
ATOM     15  C   UNL     1     236.479 229.172 233.448  1.00  0.00    -0.025 A 
ATOM     16  C   UNL     1     237.622 229.618 234.134  1.00  0.00     0.056 A 
ATOM     17  C   UNL     1     236.165 227.806 233.447  1.00  0.00     0.009 A 
ATOM     18  C   UNL     1     238.460 228.703 234.804  1.00  0.00     0.160 A 
ATOM     19  C   UNL     1     236.989 226.895 234.112  1.00  0.00     0.050 A 
ATOM     20  C   UNL     1     238.132 227.335 234.789  1.00  0.00     0.157 A 
BRANCH  18  21
ATOM     21  O   UNL     1     239.617 229.117 235.484  1.00  0.00    -0.493 OA
ATOM     22  C   UNL     1     239.622 229.742 236.761  1.00  0.00     0.278 C 
ENDBRANCH  18  21
BRANCH  20  23
ATOM     23  O   UNL     1     238.930 226.395 235.441  1.00  0.00    -0.504 OA
ATOM     24  H   UNL     1     239.912 226.276 235.224  1.00  0.00     0.293 HD
ENDBRANCH  20  23
ENDBRANCH  14  15
ENDBRANCH  12  14
ENDBRANCH   9  10
ENDBRANCH   1   9
TORSDOF 10
ENDMDL
MODEL 2
REMARK VINA RESULT:    -4.315      3.683      5.954
REMARK INTER + INTRA:          -7.493
REMARK INTER:                  -5.385
REMARK INTRA:                  -2.108
REMARK UNBOUND:                -0.781
REMARK SMILES COc1cc(CNC(=O)CCCCC=CC(C)C)ccc1O
REMARK SMILES IDX 11 1 12 2 13 3 14 4 15 5 16 6 17 7 18 8 10 9 8 10 9 11 7 12
REMARK SMILES IDX 6 14 5 15 4 16 19 17 3 18 20 19 21 20 2 21 1 22 22 23
REMARK H PARENT 7 13 22 24
REMARK Flexibility Score: inf
ROOT
ATOM      1  C   UNL     1     236.698 230.543 232.923  1.00  0.00     0.010 C 
ENDROOT
BRANCH   1   2
ATOM      2  C   UNL     1     236.178 231.622 233.881  1.00  0.00     0.005 C 
BRANCH   2   3
ATOM      3  C   UNL     1     235.339 231.028 235.021  1.00  0.00     0.027 C 
BRANCH   3   4
ATOM      4  C   UNL     1     236.131 230.861 236.295  1.00  0.00    -0.031 C 
ATOM      5  C   UNL     1     236.174 229.740 237.045  1.00  0.00    -0.028 C 
BRANCH   5   6
ATOM      6  C   UNL     1     235.431 228.457 236.746  1.00  0.00     0.005 C 
ATOM      7  C   UNL     1     236.232 227.265 237.277  1.00  0.00     0.012 C 
ATOM      8  C   UNL     1     234.044 228.500 237.394  1.00  0.00     0.012 C 
ENDBRANCH   5   6
ENDBRANCH   3   4
ENDBRANCH   2   3
ENDBRANCH   1   2
BRANCH   1   9
ATOM      9  C   UNL     1     235.851 229.269 233.019  1.00  0.00     0.100 C 
BRANCH   9  10
ATOM     10  C   UNL     1     236.687 228.124 233.505  1.00  0.00     0.220 C 
ATOM     11  O   UNL     1     236.178 226.973 233.577  1.00  0.00    -0.275 OA
ATOM     12  N   UNL     1     238.037 228.350 233.938  1.00  0.00    -0.352 N 
ATOM     13  H   UNL     1     238.455 229.307 233.841  1.00  0.00     0.163 HD
BRANCH  12  14
ATOM     14  C   UNL     1     238.833 227.315 234.593  1.00  0.00     0.151 C 
BRANCH  14  15
ATOM     15  C   UNL     1     239.574 227.904 235.763  1.00  0.00    -0.025 A 
ATOM     16  C   UNL     1     239.639 229.298 235.924  1.00  0.00     0.056 A 
ATOM     17  C   UNL     1     240.164 227.071 236.724  1.00  0.00     0.009 A 
ATOM     18  C   UNL     1     240.305 229.863 237.030  1.00  0.00     0.160 A 
ATOM     19  C   UNL     1     240.822 227.625 237.825  1.00  0.00     0.050 A 
ATOM     20  C   UNL     1     240.895 229.013 237.983  1.00  0.00     0.157 A 
BRANCH  18  21
ATOM     21  O   UNL     1     240.400 231.253 237.208  1.00  0.00    -0.493 OA
ATOM     22  C   UNL     1     239.370 232.069 237.754  1.00  0.00     0.278 C 
ENDBRANCH  18  21
BRANCH  20  23
ATOM     23  O   UNL     1     241.561 229.528 239.095  1.00  0.00    -0.504 OA
ATOM     24  H   UNL     1     241.191 229.441 240.034  1.00  0.00     0.293 HD
ENDBRANCH  20  23
ENDBRANCH  14  15
ENDBRANCH  12  14
ENDBRANCH   9  10
ENDBRANCH   1   9
TORSDOF 10
ENDMDL
MODEL 3
REMARK VINA RESULT:    -4.312      5.622      8.107
REMARK INTER + INTRA:          -7.488
REMARK INTER:                  -6.317
REMARK INTRA:                  -1.171
REMARK UNBOUND:                -0.781
REMARK SMILES COc1cc(CNC(=O)CCCCC=CC(C)C)ccc1O
REMARK SMILES IDX 11 1 12 2 13 3 14 4 15 5 16 6 17 7 18 8 10 9 8 10 9 11 7 12
REMARK SMILES IDX 6 14 5 15 4 16 19 17 3 18 20 19 21 20 2 21 1 22 22 23
REMARK H PARENT 7 13 22 24
REMARK Flexibility Score: inf
ROOT
ATOM      1  C   UNL     1     233.959 233.444 233.212  1.00  0.00     0.010 C 
ENDROOT
BRANCH   1   2
ATOM      2  C   UNL     1     235.468 233.545 232.954  1.00  0.00     0.005 C 
BRANCH   2   3
ATOM      3  C   UNL     1     236.290 232.854 234.052  1.00  0.00     0.027 C 
BRANCH   3   4
ATOM      4  C   UNL     1     235.516 231.765 234.754  1.00  0.00    -0.031 C 
ATOM      5  C   UNL     1     235.511 230.462 234.404  1.00  0.00    -0.028 C 
BRANCH   5   6
ATOM      6  C   UNL     1     236.274 229.864 233.242  1.00  0.00     0.005 C 
ATOM      7  C   UNL     1     236.825 228.492 233.642  1.00  0.00     0.012 C 
ATOM      8  C   UNL     1     235.349 229.735 232.029  1.00  0.00     0.012 C 
ENDBRANCH   5   6
ENDBRANCH   3   4
ENDBRANCH   2   3
ENDBRANCH   1   2
BRANCH   1   9
ATOM      9  C   UNL     1     233.221 232.940 231.966  1.00  0.00     0.100 C 
BRANCH   9  10
ATOM     10  C   UNL     1     231.808 233.439 231.962  1.00  0.00     0.220 C 
ATOM     11  O   UNL     1     231.591 234.680 231.911  1.00  0.00    -0.275 OA
ATOM     12  N   UNL     1     230.716 232.515 232.071  1.00  0.00    -0.352 N 
ATOM     13  H   UNL     1     230.913 231.485 232.080  1.00  0.00     0.163 HD
BRANCH  12  14
ATOM     14  C   UNL     1     229.335 232.952 232.261  1.00  0.00     0.151 C 
BRANCH  14  15
ATOM     15  C   UNL     1     228.664 232.093 233.297  1.00  0.00    -0.025 A 
ATOM     16  C   UNL     1     229.407 231.126 233.997  1.00  0.00     0.056 A 
ATOM     17  C   UNL     1     227.309 232.278 233.608  1.00  0.00     0.009 A 
ATOM     18  C   UNL     1     228.798 230.333 234.991  1.00  0.00     0.160 A 
ATOM     19  C   UNL     1     226.702 231.498 234.595  1.00  0.00     0.050 A 
ATOM     20  C   UNL     1     227.436 230.529 235.287  1.00  0.00     0.157 A 
BRANCH  18  21
ATOM     21  O   UNL     1     229.511 229.349 235.694  1.00  0.00    -0.493 OA
ATOM     22  C   UNL     1     230.172 229.563 236.936  1.00  0.00     0.278 C 
ENDBRANCH  18  21
BRANCH  20  23
ATOM     23  O   UNL     1     226.794 229.771 236.265  1.00  0.00    -0.504 OA
ATOM     24  H   UNL     1     227.104 228.839 236.517  1.00  0.00     0.293 HD
ENDBRANCH  20  23
ENDBRANCH  14  15
ENDBRANCH  12  14
ENDBRANCH   9  10
ENDBRANCH   1   9
TORSDOF 10
ENDMDL
MODEL 4
REMARK VINA RESULT:    -4.260      5.644      8.470
REMARK INTER + INTRA:          -7.408
REMARK INTER:                  -5.628
REMARK INTRA:                  -1.780
REMARK UNBOUND:                -0.781
REMARK SMILES COc1cc(CNC(=O)CCCCC=CC(C)C)ccc1O
REMARK SMILES IDX 11 1 12 2 13 3 14 4 15 5 16 6 17 7 18 8 10 9 8 10 9 11 7 12
REMARK SMILES IDX 6 14 5 15 4 16 19 17 3 18 20 19 21 20 2 21 1 22 22 23
REMARK H PARENT 7 13 22 24
REMARK Flexibility Score: inf
ROOT
ATOM      1  C   UNL     1     235.212 232.413 232.182  1.00  0.00     0.010 C 
ENDROOT
BRANCH   1   2
ATOM      2  C   UNL     1     236.281 231.376 232.552  1.00  0.00     0.005 C 
BRANCH   2   3
ATOM      3  C   UNL     1     235.704 230.222 233.384  1.00  0.00     0.027 C 
BRANCH   3   4
ATOM      4  C   UNL     1     236.098 230.307 234.839  1.00  0.00    -0.031 C 
ATOM      5  C   UNL     1     235.340 230.833 235.823  1.00  0.00    -0.028 C 
BRANCH   5   6
ATOM      6  C   UNL     1     233.964 231.437 235.642  1.00  0.00     0.005 C 
ATOM      7  C   UNL     1     233.000 230.836 236.668  1.00  0.00     0.012 C 
ATOM      8  C   UNL     1     234.042 232.957 235.807  1.00  0.00     0.012 C 
ENDBRANCH   5   6
ENDBRANCH   3   4
ENDBRANCH   2   3
ENDBRANCH   1   2
BRANCH   1   9
ATOM      9  C   UNL     1     233.863 231.738 231.911  1.00  0.00     0.100 C 
BRANCH   9  10
ATOM     10  C   UNL     1     232.747 232.725 232.075  1.00  0.00     0.220 C 
ATOM     11  O   UNL     1     233.011 233.903 232.436  1.00  0.00    -0.275 OA
ATOM     12  N   UNL     1     231.386 232.315 231.875  1.00  0.00    -0.352 N 
ATOM     13  H   UNL     1     231.186 231.340 231.543  1.00  0.00     0.163 HD
BRANCH  12  14
ATOM     14  C   UNL     1     230.252 233.176 232.201  1.00  0.00     0.151 C 
BRANCH  14  15
ATOM     15  C   UNL     1     229.586 232.691 233.459  1.00  0.00    -0.025 A 
ATOM     16  C   UNL     1     228.320 232.084 233.395  1.00  0.00     0.056 A 
ATOM     17  C   UNL     1     230.236 232.798 234.697  1.00  0.00     0.009 A 
ATOM     18  C   UNL     1     227.696 231.599 234.562  1.00  0.00     0.160 A 
ATOM     19  C   UNL     1     229.625 232.316 235.856  1.00  0.00     0.050 A 
ATOM     20  C   UNL     1     228.361 231.719 235.797  1.00  0.00     0.157 A 
BRANCH  18  21
ATOM     21  O   UNL     1     226.425 231.003 234.531  1.00  0.00    -0.493 OA
ATOM     22  C   UNL     1     226.166 229.678 234.080  1.00  0.00     0.278 C 
ENDBRANCH  18  21
BRANCH  20  23
ATOM     23  O   UNL     1     227.783 231.249 236.976  1.00  0.00    -0.504 OA
ATOM     24  H   UNL     1     227.619 231.851 237.774  1.00  0.00     0.293 HD
ENDBRANCH  20  23
ENDBRANCH  14  15
ENDBRANCH  12  14
ENDBRANCH   9  10
ENDBRANCH   1   9
TORSDOF 10
ENDMDL
MODEL 5
REMARK VINA RESULT:    -4.233      5.786      9.173
REMARK INTER + INTRA:          -7.365
REMARK INTER:                  -5.929
REMARK INTRA:                  -1.436
REMARK UNBOUND:                -0.781
REMARK SMILES COc1cc(CNC(=O)CCCCC=CC(C)C)ccc1O
REMARK SMILES IDX 11 1 12 2 13 3 14 4 15 5 16 6 17 7 18 8 10 9 8 10 9 11 7 12
REMARK SMILES IDX 6 14 5 15 4 16 19 17 3 18 20 19 21 20 2 21 1 22 22 23
REMARK H PARENT 7 13 22 24
REMARK Flexibility Score: inf
ROOT
ATOM      1  C   UNL     1     237.711 236.246 232.613  1.00  0.00     0.010 C 
ENDROOT
BRANCH   1   2
ATOM      2  C   UNL     1     239.159 235.871 232.954  1.00  0.00     0.005 C 
BRANCH   2   3
ATOM      3  C   UNL     1     239.873 236.978 233.742  1.00  0.00     0.027 C 
BRANCH   3   4
ATOM      4  C   UNL     1     240.060 236.622 235.198  1.00  0.00    -0.031 C 
ATOM      5  C   UNL     1     239.370 237.158 236.226  1.00  0.00    -0.028 C 
BRANCH   5   6
ATOM      6  C   UNL     1     238.294 238.215 236.103  1.00  0.00     0.005 C 
ATOM      7  C   UNL     1     237.166 237.916 237.094  1.00  0.00     0.012 C 
ATOM      8  C   UNL     1     238.895 239.597 236.378  1.00  0.00     0.012 C 
ENDBRANCH   5   6
ENDBRANCH   3   4
ENDBRANCH   2   3
ENDBRANCH   1   2
BRANCH   1   9
ATOM      9  C   UNL     1     236.749 235.780 233.712  1.00  0.00     0.100 C 
BRANCH   9  10
ATOM     10  C   UNL     1     235.351 236.222 233.401  1.00  0.00     0.220 C 
ATOM     11  O   UNL     1     235.092 236.697 232.263  1.00  0.00    -0.275 OA
ATOM     12  N   UNL     1     234.332 236.157 234.410  1.00  0.00    -0.352 N 
ATOM     13  H   UNL     1     234.557 235.729 235.341  1.00  0.00     0.163 HD
BRANCH  12  14
ATOM     14  C   UNL     1     233.008 236.744 234.225  1.00  0.00     0.151 C 
BRANCH  14  15
ATOM     15  C   UNL     1     232.998 238.158 234.739  1.00  0.00    -0.025 A 
ATOM     16  C   UNL     1     232.364 239.170 234.000  1.00  0.00     0.056 A 
ATOM     17  C   UNL     1     233.579 238.470 235.977  1.00  0.00     0.009 A 
ATOM     18  C   UNL     1     232.322 240.494 234.482  1.00  0.00     0.160 A 
ATOM     19  C   UNL     1     233.537 239.778 236.463  1.00  0.00     0.050 A 
ATOM     20  C   UNL     1     232.914 240.790 235.724  1.00  0.00     0.157 A 
BRANCH  18  21
ATOM     21  O   UNL     1     231.710 241.529 233.757  1.00  0.00    -0.493 OA
ATOM     22  C   UNL     1     230.341 241.899 233.878  1.00  0.00     0.278 C 
ENDBRANCH  18  21
BRANCH  20  23
ATOM     23  O   UNL     1     232.892 242.085 236.243  1.00  0.00    -0.504 OA
ATOM     24  H   UNL     1     232.513 242.868 235.724  1.00  0.00     0.293 HD
ENDBRANCH  20  23
ENDBRANCH  14  15
ENDBRANCH  12  14
ENDBRANCH   9  10
ENDBRANCH   1   9
TORSDOF 10
ENDMDL
MODEL 6
REMARK VINA RESULT:    -4.232      1.160      2.254
REMARK INTER + INTRA:          -7.363
REMARK INTER:                  -6.349
REMARK INTRA:                  -1.015
REMARK UNBOUND:                -0.781
REMARK SMILES COc1cc(CNC(=O)CCCCC=CC(C)C)ccc1O
REMARK SMILES IDX 11 1 12 2 13 3 14 4 15 5 16 6 17 7 18 8 10 9 8 10 9 11 7 12
REMARK SMILES IDX 6 14 5 15 4 16 19 17 3 18 20 19 21 20 2 21 1 22 22 23
REMARK H PARENT 7 13 22 24
REMARK Flexibility Score: inf
ROOT
ATOM      1  C   UNL     1     236.601 233.910 232.857  1.00  0.00     0.010 C 
ENDROOT
BRANCH   1   2
ATOM      2  C   UNL     1     236.398 235.357 233.328  1.00  0.00     0.005 C 
BRANCH   2   3
ATOM      3  C   UNL     1     237.386 236.326 232.664  1.00  0.00     0.027 C 
BRANCH   3   4
ATOM      4  C   UNL     1     238.685 235.656 232.285  1.00  0.00    -0.031 C 
ATOM      5  C   UNL     1     239.866 235.834 232.912  1.00  0.00    -0.028 C 
BRANCH   5   6
ATOM      6  C   UNL     1     240.099 236.740 234.101  1.00  0.00     0.005 C 
ATOM      7  C   UNL     1     239.898 235.950 235.396  1.00  0.00     0.012 C 
ATOM      8  C   UNL     1     241.517 237.315 234.040  1.00  0.00     0.012 C 
ENDBRANCH   5   6
ENDBRANCH   3   4
ENDBRANCH   2   3
ENDBRANCH   1   2
BRANCH   1   9
ATOM      9  C   UNL     1     235.500 233.493 231.875  1.00  0.00     0.100 C 
BRANCH   9  10
ATOM     10  C   UNL     1     235.067 232.085 232.148  1.00  0.00     0.220 C 
ATOM     11  O   UNL     1     233.869 231.857 232.466  1.00  0.00    -0.275 OA
ATOM     12  N   UNL     1     236.023 231.014 232.102  1.00  0.00    -0.352 N 
ATOM     13  H   UNL     1     237.008 231.217 231.805  1.00  0.00     0.163 HD
BRANCH  12  14
ATOM     14  C   UNL     1     235.702 229.658 232.540  1.00  0.00     0.151 C 
BRANCH  14  15
ATOM     15  C   UNL     1     236.553 229.287 233.723  1.00  0.00    -0.025 A 
ATOM     16  C   UNL     1     237.241 228.062 233.737  1.00  0.00     0.056 A 
ATOM     17  C   UNL     1     236.706 230.175 234.798  1.00  0.00     0.009 A 
ATOM     18  C   UNL     1     238.066 227.712 234.826  1.00  0.00     0.160 A 
ATOM     19  C   UNL     1     237.525 229.836 235.877  1.00  0.00     0.050 A 
ATOM     20  C   UNL     1     238.204 228.613 235.898  1.00  0.00     0.157 A 
BRANCH  18  21
ATOM     21  O   UNL     1     238.752 226.488 234.874  1.00  0.00    -0.493 OA
ATOM     22  C   UNL     1     239.132 225.730 233.732  1.00  0.00     0.278 C 
ENDBRANCH  18  21
BRANCH  20  23
ATOM     23  O   UNL     1     239.012 228.311 236.994  1.00  0.00    -0.504 OA
ATOM     24  H   UNL     1     239.745 227.614 236.948  1.00  0.00     0.293 HD
ENDBRANCH  20  23
ENDBRANCH  14  15
ENDBRANCH  12  14
ENDBRANCH   9  10
ENDBRANCH   1   9
TORSDOF 10
ENDMDL
MODEL 7
REMARK VINA RESULT:    -4.215      5.520      8.517
REMARK INTER + INTRA:          -7.337
REMARK INTER:                  -6.430
REMARK INTRA:                  -0.907
REMARK UNBOUND:                -0.781
REMARK SMILES COc1cc(CNC(=O)CCCCC=CC(C)C)ccc1O
REMARK SMILES IDX 11 1 12 2 13 3 14 4 15 5 16 6 17 7 18 8 10 9 8 10 9 11 7 12
REMARK SMILES IDX 6 14 5 15 4 16 19 17 3 18 20 19 21 20 2 21 1 22 22 23
REMARK H PARENT 7 13 22 24
REMARK Flexibility Score: inf
ROOT
ATOM      1  C   UNL     1     234.276 231.761 233.434  1.00  0.00     0.010 C 
ENDROOT
BRANCH   1   2
ATOM      2  C   UNL     1     235.809 231.828 233.437  1.00  0.00     0.005 C 
BRANCH   2   3
ATOM      3  C   UNL     1     236.439 230.700 232.607  1.00  0.00     0.027 C 
BRANCH   3   4
ATOM      4  C   UNL     1     235.860 229.346 232.939  1.00  0.00    -0.031 C 
ATOM      5  C   UNL     1     236.441 228.423 233.732  1.00  0.00    -0.028 C 
BRANCH   5   6
ATOM      6  C   UNL     1     237.778 228.578 234.423  1.00  0.00     0.005 C 
ATOM      7  C   UNL     1     237.565 229.132 235.835  1.00  0.00     0.012 C 
ATOM      8  C   UNL     1     238.488 227.223 234.482  1.00  0.00     0.012 C 
ENDBRANCH   5   6
ENDBRANCH   3   4
ENDBRANCH   2   3
ENDBRANCH   1   2
BRANCH   1   9
ATOM      9  C   UNL     1     233.712 232.141 232.060  1.00  0.00     0.100 C 
BRANCH   9  10
ATOM     10  C   UNL     1     232.446 232.928 232.218  1.00  0.00     0.220 C 
ATOM     11  O   UNL     1     232.509 234.133 232.584  1.00  0.00    -0.275 OA
ATOM     12  N   UNL     1     231.174 232.299 232.007  1.00  0.00    -0.352 N 
ATOM     13  H   UNL     1     231.141 231.305 231.672  1.00  0.00     0.163 HD
BRANCH  12  14
ATOM     14  C   UNL     1     229.911 232.959 232.327  1.00  0.00     0.151 C 
BRANCH  14  15
ATOM     15  C   UNL     1     229.373 232.432 233.630  1.00  0.00    -0.025 A 
ATOM     16  C   UNL     1     228.334 231.487 233.630  1.00  0.00     0.056 A 
ATOM     17  C   UNL     1     229.932 232.842 234.849  1.00  0.00     0.009 A 
ATOM     18  C   UNL     1     227.839 230.963 234.842  1.00  0.00     0.160 A 
ATOM     19  C   UNL     1     229.449 232.323 236.052  1.00  0.00     0.050 A 
ATOM     20  C   UNL     1     228.409 231.389 236.056  1.00  0.00     0.157 A 
BRANCH  18  21
ATOM     21  O   UNL     1     226.790 230.030 234.874  1.00  0.00    -0.493 OA
ATOM     22  C   UNL     1     225.802 229.891 233.859  1.00  0.00     0.278 C 
ENDBRANCH  18  21
BRANCH  20  23
ATOM     23  O   UNL     1     227.954 230.894 237.279  1.00  0.00    -0.504 OA
ATOM     24  H   UNL     1     227.791 231.495 238.078  1.00  0.00     0.293 HD
ENDBRANCH  20  23
ENDBRANCH  14  15
ENDBRANCH  12  14
ENDBRANCH   9  10
ENDBRANCH   1   9
TORSDOF 10
ENDMDL
MODEL 8
REMARK VINA RESULT:    -4.170      5.251      8.208
REMARK INTER + INTRA:          -7.268
REMARK INTER:                  -6.384
REMARK INTRA:                  -0.883
REMARK UNBOUND:                -0.781
REMARK SMILES COc1cc(CNC(=O)CCCCC=CC(C)C)ccc1O
REMARK SMILES IDX 11 1 12 2 13 3 14 4 15 5 16 6 17 7 18 8 10 9 8 10 9 11 7 12
REMARK SMILES IDX 6 14 5 15 4 16 19 17 3 18 20 19 21 20 2 21 1 22 22 23
REMARK H PARENT 7 13 22 24
REMARK Flexibility Score: inf
ROOT
ATOM      1  C   UNL     1     234.330 237.011 232.512  1.00  0.00     0.010 C 
ENDROOT
BRANCH   1   2
ATOM      2  C   UNL     1     233.110 237.719 231.907  1.00  0.00     0.005 C 
BRANCH   2   3
ATOM      3  C   UNL     1     232.865 239.095 232.542  1.00  0.00     0.027 C 
BRANCH   3   4
ATOM      4  C   UNL     1     231.660 239.106 233.451  1.00  0.00    -0.031 C 
ATOM      5  C   UNL     1     231.563 239.791 234.609  1.00  0.00    -0.028 C 
BRANCH   5   6
ATOM      6  C   UNL     1     232.646 240.663 235.205  1.00  0.00     0.005 C 
ATOM      7  C   UNL     1     232.013 241.900 235.849  1.00  0.00     0.012 C 
ATOM      8  C   UNL     1     233.438 239.865 236.243  1.00  0.00     0.012 C 
ENDBRANCH   5   6
ENDBRANCH   3   4
ENDBRANCH   2   3
ENDBRANCH   1   2
BRANCH   1   9
ATOM      9  C   UNL     1     234.536 235.632 231.875  1.00  0.00     0.100 C 
BRANCH   9  10
ATOM     10  C   UNL     1     235.968 235.208 232.007  1.00  0.00     0.220 C 
ATOM     11  O   UNL     1     236.250 233.980 232.026  1.00  0.00    -0.275 OA
ATOM     12  N   UNL     1     237.000 236.193 232.165  1.00  0.00    -0.352 N 
ATOM     13  H   UNL     1     236.752 237.211 232.114  1.00  0.00     0.163 HD
BRANCH  12  14
ATOM     14  C   UNL     1     238.380 235.837 232.484  1.00  0.00     0.151 C 
BRANCH  14  15
ATOM     15  C   UNL     1     238.831 236.583 233.710  1.00  0.00    -0.025 A 
ATOM     16  C   UNL     1     240.109 237.167 233.747  1.00  0.00     0.056 A 
ATOM     17  C   UNL     1     237.969 236.743 234.804  1.00  0.00     0.009 A 
ATOM     18  C   UNL     1     240.535 237.893 234.878  1.00  0.00     0.160 A 
ATOM     19  C   UNL     1     238.383 237.465 235.925  1.00  0.00     0.050 A 
ATOM     20  C   UNL     1     239.658 238.039 235.969  1.00  0.00     0.157 A 
BRANCH  18  21
ATOM     21  O   UNL     1     241.812 238.472 234.950  1.00  0.00    -0.493 OA
ATOM     22  C   UNL     1     242.685 238.642 233.839  1.00  0.00     0.278 C 
ENDBRANCH  18  21
BRANCH  20  23
ATOM     23  O   UNL     1     240.036 238.753 237.106  1.00  0.00    -0.504 OA
ATOM     24  H   UNL     1     239.660 238.545 238.024  1.00  0.00     0.293 HD
ENDBRANCH  20  23
ENDBRANCH  14  15
ENDBRANCH  12  14
ENDBRANCH   9  10
ENDBRANCH   1   9
TORSDOF 10
ENDMDL
MODEL 9
REMARK VINA RESULT:    -4.128      5.464      7.844
REMARK INTER + INTRA:          -7.202
REMARK INTER:                  -6.032
REMARK INTRA:                  -1.170
REMARK UNBOUND:                -0.781
REMARK SMILES COc1cc(CNC(=O)CCCCC=CC(C)C)ccc1O
REMARK SMILES IDX 11 1 12 2 13 3 14 4 15 5 16 6 17 7 18 8 10 9 8 10 9 11 7 12
REMARK SMILES IDX 6 14 5 15 4 16 19 17 3 18 20 19 21 20 2 21 1 22 22 23
REMARK H PARENT 7 13 22 24
REMARK Flexibility Score: inf
ROOT
ATOM      1  C   UNL     1     233.300 236.784 232.923  1.00  0.00     0.010 C 
ENDROOT
BRANCH   1   2
ATOM      2  C   UNL     1     232.140 237.748 232.639  1.00  0.00     0.005 C 
BRANCH   2   3
ATOM      3  C   UNL     1     232.495 239.200 232.989  1.00  0.00     0.027 C 
BRANCH   3   4
ATOM      4  C   UNL     1     231.616 239.763 234.080  1.00  0.00    -0.031 C 
ATOM      5  C   UNL     1     231.967 239.888 235.376  1.00  0.00    -0.028 C 
BRANCH   5   6
ATOM      6  C   UNL     1     233.299 239.481 235.967  1.00  0.00     0.005 C 
ATOM      7  C   UNL     1     233.649 240.411 237.132  1.00  0.00     0.012 C 
ATOM      8  C   UNL     1     233.229 238.028 236.444  1.00  0.00     0.012 C 
ENDBRANCH   5   6
ENDBRANCH   3   4
ENDBRANCH   2   3
ENDBRANCH   1   2
BRANCH   1   9
ATOM      9  C   UNL     1     234.446 236.996 231.927  1.00  0.00     0.100 C 
BRANCH   9  10
ATOM     10  C   UNL     1     235.541 236.005 232.178  1.00  0.00     0.220 C 
ATOM     11  O   UNL     1     235.248 234.848 232.585  1.00  0.00    -0.275 OA
ATOM     12  N   UNL     1     236.914 236.388 232.010  1.00  0.00    -0.352 N 
ATOM     13  H   UNL     1     237.140 237.343 231.640  1.00  0.00     0.163 HD
BRANCH  12  14
ATOM     14  C   UNL     1     238.023 235.530 232.417  1.00  0.00     0.151 C 
BRANCH  14  15
ATOM     15  C   UNL     1     238.859 236.230 233.454  1.00  0.00    -0.025 A 
ATOM     16  C   UNL     1     238.247 236.785 234.591  1.00  0.00     0.056 A 
ATOM     17  C   UNL     1     240.253 236.296 233.320  1.00  0.00     0.009 A 
ATOM     18  C   UNL     1     239.020 237.419 235.585  1.00  0.00     0.160 A 
ATOM     19  C   UNL     1     241.024 236.919 234.304  1.00  0.00     0.050 A 
ATOM     20  C   UNL     1     240.418 237.480 235.433  1.00  0.00     0.157 A 
BRANCH  18  21
ATOM     21  O   UNL     1     238.435 237.997 236.724  1.00  0.00    -0.493 OA
ATOM     22  C   UNL     1     237.034 238.139 236.927  1.00  0.00     0.278 C 
ENDBRANCH  18  21
BRANCH  20  23
ATOM     23  O   UNL     1     241.222 238.094 236.393  1.00  0.00    -0.504 OA
ATOM     24  H   UNL     1     240.882 238.845 236.982  1.00  0.00     0.293 HD
ENDBRANCH  20  23
ENDBRANCH  14  15
ENDBRANCH  12  14
ENDBRANCH   9  10
ENDBRANCH   1   9
TORSDOF 10
ENDMDL
