MODEL 1
REMARK VINA RESULT:    -2.969      0.000      0.000
REMARK INTER + INTRA:          -2.969
REMARK INTER:                  -2.969
REMARK INTRA:                   0.000
REMARK UNBOUND:                 0.000
REMARK SMILES CC(C)=C1CC[C@@H](C)CC1=O
REMARK SMILES IDX 8 1 7 2 6 3 5 4 4 5 2 6 1 7 3 8 10 9 11 10 9 11
REMARK H PARENT
REMARK Flexibility Score: inf
ROOT
ATOM      1  C   UNL     1     -10.560 -21.734  19.697  1.00  0.00     0.008 C 
ATOM      2  C   UNL     1      -9.846 -21.981  21.031  1.00  0.00    -0.006 C 
ATOM      3  C   UNL     1      -9.275 -23.407  21.083  1.00  0.00     0.008 C 
ATOM      4  C   UNL     1      -8.469 -23.639  22.368  1.00  0.00     0.039 C 
ATOM      5  C   UNL     1      -9.252 -23.276  23.622  1.00  0.00    -0.006 C 
ATOM      6  C   UNL     1      -9.056 -23.941  24.799  1.00  0.00    -0.070 C 
ATOM      7  C   UNL     1      -8.040 -25.054  24.909  1.00  0.00     0.039 C 
ATOM      8  C   UNL     1      -9.867 -23.628  26.035  1.00  0.00     0.039 C 
ATOM      9  C   UNL     1     -10.149 -22.086  23.515  1.00  0.00     0.159 C 
ATOM     10  O   UNL     1     -10.365 -21.337  24.504  1.00  0.00    -0.295 OA
ATOM     11  C   UNL     1     -10.808 -21.757  22.207  1.00  0.00     0.084 C 
ENDROOT
TORSDOF 0
ENDMDL
MODEL 2
REMARK VINA RESULT:    -2.961      1.536      4.533
REMARK INTER + INTRA:          -2.961
REMARK INTER:                  -2.961
REMARK INTRA:                   0.000
REMARK UNBOUND:                 0.000
REMARK SMILES CC(C)=C1CC[C@@H](C)CC1=O
REMARK SMILES IDX 8 1 7 2 6 3 5 4 4 5 2 6 1 7 3 8 10 9 11 10 9 11
REMARK H PARENT
REMARK Flexibility Score: inf
ROOT
ATOM      1  C   UNL     1     -10.283 -22.557  27.111  1.00  0.00     0.008 C 
ATOM      2  C   UNL     1      -9.930 -22.293  25.643  1.00  0.00    -0.006 C 
ATOM      3  C   UNL     1     -11.125 -21.673  24.902  1.00  0.00     0.008 C 
ATOM      4  C   UNL     1     -10.757 -21.308  23.457  1.00  0.00     0.039 C 
ATOM      5  C   UNL     1     -10.139 -22.475  22.699  1.00  0.00    -0.006 C 
ATOM      6  C   UNL     1     -10.318 -22.621  21.353  1.00  0.00    -0.070 C 
ATOM      7  C   UNL     1     -11.125 -21.620  20.557  1.00  0.00     0.039 C 
ATOM      8  C   UNL     1      -9.758 -23.805  20.599  1.00  0.00     0.039 C 
ATOM      9  C   UNL     1      -9.240 -23.368  23.489  1.00  0.00     0.159 C 
ATOM     10  O   UNL     1      -8.252 -23.941  22.956  1.00  0.00    -0.295 OA
ATOM     11  C   UNL     1      -9.499 -23.595  24.950  1.00  0.00     0.084 C 
ENDROOT
TORSDOF 0
ENDMDL
MODEL 3
REMARK VINA RESULT:    -2.816      1.563      2.464
REMARK INTER + INTRA:          -2.816
REMARK INTER:                  -2.816
REMARK INTRA:                   0.000
REMARK UNBOUND:                 0.000
REMARK SMILES CC(C)=C1CC[C@@H](C)CC1=O
REMARK SMILES IDX 8 1 7 2 6 3 5 4 4 5 2 6 1 7 3 8 10 9 11 10 9 11
REMARK H PARENT
REMARK Flexibility Score: inf
ROOT
ATOM      1  C   UNL     1     -11.125 -21.375  19.452  1.00  0.00     0.008 C 
ATOM      2  C   UNL     1     -11.018 -22.087  20.805  1.00  0.00    -0.006 C 
ATOM      3  C   UNL     1     -11.123 -21.077  21.958  1.00  0.00     0.008 C 
ATOM      4  C   UNL     1     -11.121 -21.783  23.321  1.00  0.00     0.039 C 
ATOM      5  C   UNL     1      -9.944 -22.736  23.483  1.00  0.00    -0.006 C 
ATOM      6  C   UNL     1      -9.376 -22.961  24.704  1.00  0.00    -0.070 C 
ATOM      7  C   UNL     1      -9.904 -22.285  25.949  1.00  0.00     0.039 C 
ATOM      8  C   UNL     1      -8.173 -23.860  24.869  1.00  0.00     0.039 C 
ATOM      9  C   UNL     1      -9.535 -23.487  22.259  1.00  0.00     0.159 C 
ATOM     10  O   UNL     1      -9.058 -24.651  22.333  1.00  0.00    -0.295 OA
ATOM     11  C   UNL     1      -9.695 -22.861  20.903  1.00  0.00     0.084 C 
ENDROOT
TORSDOF 0
ENDMDL
MODEL 4
REMARK VINA RESULT:    -2.739      1.737      3.218
REMARK INTER + INTRA:          -2.739
REMARK INTER:                  -2.739
REMARK INTRA:                   0.000
REMARK UNBOUND:                 0.000
REMARK SMILES CC(C)=C1CC[C@@H](C)CC1=O
REMARK SMILES IDX 8 1 7 2 6 3 5 4 4 5 2 6 1 7 3 8 10 9 11 10 9 11
REMARK H PARENT
REMARK Flexibility Score: inf
ROOT
ATOM      1  C   UNL     1      -6.801 -25.125  20.730  1.00  0.00     0.008 C 
ATOM      2  C   UNL     1      -8.025 -24.666  21.530  1.00  0.00    -0.006 C 
ATOM      3  C   UNL     1      -8.418 -23.232  21.144  1.00  0.00     0.008 C 
ATOM      4  C   UNL     1      -9.702 -22.793  21.860  1.00  0.00     0.039 C 
ATOM      5  C   UNL     1      -9.628 -22.993  23.368  1.00  0.00    -0.006 C 
ATOM      6  C   UNL     1     -10.283 -22.159  24.227  1.00  0.00    -0.070 C 
ATOM      7  C   UNL     1     -11.125 -21.012  23.717  1.00  0.00     0.039 C 
ATOM      8  C   UNL     1     -10.172 -22.314  25.727  1.00  0.00     0.039 C 
ATOM      9  C   UNL     1      -8.900 -24.212  23.832  1.00  0.00     0.159 C 
ATOM     10  O   UNL     1      -9.239 -24.816  24.885  1.00  0.00    -0.295 OA
ATOM     11  C   UNL     1      -7.744 -24.746  23.038  1.00  0.00     0.084 C 
ENDROOT
TORSDOF 0
ENDMDL
MODEL 5
REMARK VINA RESULT:    -2.682      1.290      3.894
REMARK INTER + INTRA:          -2.682
REMARK INTER:                  -2.682
REMARK INTRA:                   0.000
REMARK UNBOUND:                 0.000
REMARK SMILES CC(C)=C1CC[C@@H](C)CC1=O
REMARK SMILES IDX 8 1 7 2 6 3 5 4 4 5 2 6 1 7 3 8 10 9 11 10 9 11
REMARK H PARENT
REMARK Flexibility Score: inf
ROOT
ATOM      1  C   UNL     1     -11.093 -22.695  27.098  1.00  0.00     0.008 C 
ATOM      2  C   UNL     1     -10.889 -23.062  25.624  1.00  0.00    -0.006 C 
ATOM      3  C   UNL     1      -9.610 -23.896  25.446  1.00  0.00     0.008 C 
ATOM      4  C   UNL     1      -9.444 -24.359  23.992  1.00  0.00     0.039 C 
ATOM      5  C   UNL     1      -9.534 -23.208  22.999  1.00  0.00    -0.006 C 
ATOM      6  C   UNL     1      -8.828 -23.222  21.830  1.00  0.00    -0.070 C 
ATOM      7  C   UNL     1      -7.941 -24.391  21.465  1.00  0.00     0.039 C 
ATOM      8  C   UNL     1      -8.866 -22.062  20.863  1.00  0.00     0.039 C 
ATOM      9  C   UNL     1     -10.520 -22.135  23.327  1.00  0.00     0.159 C 
ATOM     10  O   UNL     1     -11.125 -21.502  22.421  1.00  0.00    -0.295 OA
ATOM     11  C   UNL     1     -10.813 -21.795  24.759  1.00  0.00     0.084 C 
ENDROOT
TORSDOF 0
ENDMDL
MODEL 6
REMARK VINA RESULT:    -2.322     20.067     21.330
REMARK INTER + INTRA:          -2.322
REMARK INTER:                  -2.322
REMARK INTRA:                   0.000
REMARK UNBOUND:                 0.000
REMARK SMILES CC(C)=C1CC[C@@H](C)CC1=O
REMARK SMILES IDX 8 1 7 2 6 3 5 4 4 5 2 6 1 7 3 8 10 9 11 10 9 11
REMARK H PARENT
REMARK Flexibility Score: inf
ROOT
ATOM      1  C   UNL     1       2.769 -23.769   6.875  1.00  0.00     0.008 C 
ATOM      2  C   UNL     1       3.915 -24.437   7.644  1.00  0.00    -0.006 C 
ATOM      3  C   UNL     1       3.887 -24.022   9.124  1.00  0.00     0.008 C 
ATOM      4  C   UNL     1       4.964 -24.761   9.930  1.00  0.00     0.039 C 
ATOM      5  C   UNL     1       6.349 -24.629   9.311  1.00  0.00    -0.006 C 
ATOM      6  C   UNL     1       7.474 -24.614  10.086  1.00  0.00    -0.070 C 
ATOM      7  C   UNL     1       7.391 -24.743  11.590  1.00  0.00     0.039 C 
ATOM      8  C   UNL     1       8.849 -24.427   9.489  1.00  0.00     0.039 C 
ATOM      9  C   UNL     1       6.405 -24.639   7.819  1.00  0.00     0.159 C 
ATOM     10  O   UNL     1       7.390 -25.125   7.203  1.00  0.00    -0.295 OA
ATOM     11  C   UNL     1       5.269 -24.067   7.020  1.00  0.00     0.084 C 
ENDROOT
TORSDOF 0
ENDMDL
MODEL 7
REMARK VINA RESULT:    -1.825     20.368     21.699
REMARK INTER + INTRA:          -1.825
REMARK INTER:                  -1.825
REMARK INTRA:                   0.000
REMARK UNBOUND:                 0.000
REMARK SMILES CC(C)=C1CC[C@@H](C)CC1=O
REMARK SMILES IDX 8 1 7 2 6 3 5 4 4 5 2 6 1 7 3 8 10 9 11 10 9 11
REMARK H PARENT
REMARK Flexibility Score: inf
ROOT
ATOM      1  C   UNL     1       2.586 -24.575   7.538  1.00  0.00     0.008 C 
ATOM      2  C   UNL     1       3.938 -24.066   8.050  1.00  0.00    -0.006 C 
ATOM      3  C   UNL     1       4.878 -23.752   6.875  1.00  0.00     0.008 C 
ATOM      4  C   UNL     1       6.200 -23.145   7.365  1.00  0.00     0.039 C 
ATOM      5  C   UNL     1       6.868 -23.992   8.440  1.00  0.00    -0.006 C 
ATOM      6  C   UNL     1       8.227 -24.043   8.559  1.00  0.00    -0.070 C 
ATOM      7  C   UNL     1       9.125 -23.247   7.640  1.00  0.00     0.039 C 
ATOM      8  C   UNL     1       8.904 -24.923   9.585  1.00  0.00     0.039 C 
ATOM      9  C   UNL     1       5.953 -24.658   9.414  1.00  0.00     0.159 C 
ATOM     10  O   UNL     1       6.299 -24.855  10.610  1.00  0.00    -0.295 OA
ATOM     11  C   UNL     1       4.587 -25.103   8.980  1.00  0.00     0.084 C 
ENDROOT
TORSDOF 0
ENDMDL
