MODEL 1
REMARK VINA RESULT:     4.354      0.000      0.000
REMARK INTER + INTRA:           4.914
REMARK INTER:                   5.245
REMARK INTRA:                  -0.331
REMARK UNBOUND:                -0.331
REMARK SMILES O=c1c(O)c(-c2ccc(O)c(O)c2)oc2cc(O)cc(O)c12
REMARK SMILES IDX 5 1 3 2 2 3 1 4 22 5 20 6 19 7 17 8 16 9 15 10 14 11 6 12
REMARK SMILES IDX 7 13 8 14 9 15 13 16 11 17 10 18 12 20 4 22 21 24 18 26
REMARK H PARENT 10 19 12 21 4 23 21 25 18 27
REMARK Flexibility Score: inf
ROOT
ATOM      1  C   UNL     1     109.186 108.487 107.496  1.00  0.00     0.180 A 
ATOM      2  C   UNL     1     110.266 109.191 106.935  1.00  0.00     0.208 A 
ATOM      3  C   UNL     1     110.959 110.119 107.728  1.00  0.00     0.238 A 
ATOM      4  O   UNL     1     111.959 110.706 107.238  1.00  0.00    -0.285 OA
ATOM      5  C   UNL     1     110.554 110.345 109.066  1.00  0.00     0.111 A 
ATOM      6  C   UNL     1     111.158 111.291 109.948  1.00  0.00     0.134 A 
ATOM      7  C   UNL     1     110.760 111.338 111.289  1.00  0.00     0.093 A 
ATOM      8  C   UNL     1     109.734 110.516 111.765  1.00  0.00     0.123 A 
ATOM      9  C   UNL     1     109.098 109.631 110.898  1.00  0.00     0.094 A 
ATOM     10  C   UNL     1     109.498 109.537 109.563  1.00  0.00     0.146 A 
ATOM     11  O   UNL     1     108.871 108.673 108.773  1.00  0.00    -0.452 OA
ENDROOT
BRANCH   1  12
ATOM     12  C   UNL     1     108.391 107.511 106.716  1.00  0.00     0.025 A 
ATOM     13  C   UNL     1     107.259 107.908 105.984  1.00  0.00     0.016 A 
ATOM     14  C   UNL     1     106.510 106.965 105.274  1.00  0.00     0.051 A 
ATOM     15  C   UNL     1     106.872 105.612 105.296  1.00  0.00     0.157 A 
ATOM     16  C   UNL     1     108.738 106.150 106.752  1.00  0.00     0.062 A 
ATOM     17  C   UNL     1     107.990 105.203 106.043  1.00  0.00     0.158 A 
BRANCH  15  18
ATOM     18  O   UNL     1     106.124 104.674 104.586  1.00  0.00    -0.504 OA
ATOM     19  H   UNL     1     106.400 104.366 103.662  1.00  0.00     0.293 HD
ENDBRANCH  15  18
BRANCH  17  20
ATOM     20  O   UNL     1     108.373 103.863 106.092  1.00  0.00    -0.504 OA
ATOM     21  H   UNL     1     108.066 103.243 106.831  1.00  0.00     0.293 HD
ENDBRANCH  17  20
ENDBRANCH   1  12
BRANCH   2  22
ATOM     22  O   UNL     1     110.663 108.937 105.620  1.00  0.00    -0.502 OA
ATOM     23  H   UNL     1     110.810 109.676 104.944  1.00  0.00     0.293 HD
ENDBRANCH   2  22
BRANCH   6  24
ATOM     24  O   UNL     1     112.125 112.219 109.551  1.00  0.00    -0.507 OA
ATOM     25  H   UNL     1     112.829 112.051 108.849  1.00  0.00     0.293 HD
ENDBRANCH   6  24
BRANCH   8  26
ATOM     26  O   UNL     1     109.334 110.579 113.098  1.00  0.00    -0.508 OA
ATOM     27  H   UNL     1     108.692 109.901 113.492  1.00  0.00     0.293 HD
ENDBRANCH   8  26
TORSDOF 6
ENDMDL
MODEL 2
REMARK VINA RESULT:     6.076      0.661      1.479
REMARK INTER + INTRA:           6.988
REMARK INTER:                   7.267
REMARK INTRA:                  -0.279
REMARK UNBOUND:                -0.331
REMARK SMILES O=c1c(O)c(-c2ccc(O)c(O)c2)oc2cc(O)cc(O)c12
REMARK SMILES IDX 5 1 3 2 2 3 1 4 22 5 20 6 19 7 17 8 16 9 15 10 14 11 6 12
REMARK SMILES IDX 7 13 8 14 9 15 13 16 11 17 10 18 12 20 4 22 21 24 18 26
REMARK H PARENT 10 19 12 21 4 23 21 25 18 27
REMARK Flexibility Score: inf
ROOT
ATOM      1  C   UNL     1     109.124 108.454 107.498  1.00  0.00     0.180 A 
ATOM      2  C   UNL     1     110.245 109.107 106.957  1.00  0.00     0.208 A 
ATOM      3  C   UNL     1     110.942 110.032 107.750  1.00  0.00     0.238 A 
ATOM      4  O   UNL     1     111.977 110.573 107.280  1.00  0.00    -0.285 OA
ATOM      5  C   UNL     1     110.500 110.305 109.068  1.00  0.00     0.111 A 
ATOM      6  C   UNL     1     111.106 111.254 109.946  1.00  0.00     0.134 A 
ATOM      7  C   UNL     1     110.665 111.347 111.272  1.00  0.00     0.093 A 
ATOM      8  C   UNL     1     109.598 110.571 111.732  1.00  0.00     0.123 A 
ATOM      9  C   UNL     1     108.961 109.686 110.866  1.00  0.00     0.094 A 
ATOM     10  C   UNL     1     109.402 109.545 109.548  1.00  0.00     0.146 A 
ATOM     11  O   UNL     1     108.773 108.682 108.758  1.00  0.00    -0.452 OA
ENDROOT
BRANCH   1  12
ATOM     12  C   UNL     1     108.324 107.484 106.715  1.00  0.00     0.025 A 
ATOM     13  C   UNL     1     108.479 106.098 106.889  1.00  0.00     0.016 A 
ATOM     14  C   UNL     1     107.729 105.201 106.122  1.00  0.00     0.051 A 
ATOM     15  C   UNL     1     106.825 105.675 105.162  1.00  0.00     0.157 A 
ATOM     16  C   UNL     1     107.431 107.954 105.737  1.00  0.00     0.062 A 
ATOM     17  C   UNL     1     106.679 107.059 104.967  1.00  0.00     0.158 A 
BRANCH  15  18
ATOM     18  O   UNL     1     106.078 104.778 104.400  1.00  0.00    -0.504 OA
ATOM     19  H   UNL     1     106.506 103.974 103.959  1.00  0.00     0.293 HD
ENDBRANCH  15  18
BRANCH  17  20
ATOM     20  O   UNL     1     105.794 107.563 104.015  1.00  0.00    -0.504 OA
ATOM     21  H   UNL     1     104.791 107.463 104.108  1.00  0.00     0.293 HD
ENDBRANCH  17  20
ENDBRANCH   1  12
BRANCH   2  22
ATOM     22  O   UNL     1     110.677 108.808 105.663  1.00  0.00    -0.502 OA
ATOM     23  H   UNL     1     110.855 109.523 104.969  1.00  0.00     0.293 HD
ENDBRANCH   2  22
BRANCH   6  24
ATOM     24  O   UNL     1     112.116 112.139 109.561  1.00  0.00    -0.507 OA
ATOM     25  H   UNL     1     113.020 111.862 109.210  1.00  0.00     0.293 HD
ENDBRANCH   6  24
BRANCH   8  26
ATOM     26  O   UNL     1     109.156 110.682 113.048  1.00  0.00    -0.508 OA
ATOM     27  H   UNL     1     108.253 110.322 113.337  1.00  0.00     0.293 HD
ENDBRANCH   8  26
TORSDOF 6
ENDMDL
