MODEL 1
REMARK VINA RESULT:    -3.092      0.000      0.000
REMARK INTER + INTRA:         -13.258
REMARK INTER:                  -8.154
REMARK INTRA:                  -5.104
REMARK UNBOUND:                -5.104
REMARK SMILES CCCCCCCCCCCCCCCCCCCCCCCCCCCCCC(=O)[O-]
REMARK SMILES IDX 16 1 17 2 18 3 19 4 20 5 21 6 22 7 23 8 24 9 25 10 26 11
REMARK SMILES IDX 27 12 28 13 29 14 30 15 31 16 32 17 15 18 14 19 13 20 12 21
REMARK SMILES IDX 11 22 10 23 9 24 8 25 7 26 6 27 5 28 4 29 3 30 2 31 1 32
REMARK H PARENT
REMARK Flexibility Score: inf
ROOT
ATOM      1  C   UNL     1      10.380  -2.388  20.982  1.00  0.00     0.000 C 
ENDROOT
BRANCH   1   2
ATOM      2  C   UNL     1      10.771  -1.618  19.701  1.00  0.00     0.000 C 
BRANCH   2   3
ATOM      3  C   UNL     1      10.045  -0.275  19.503  1.00  0.00     0.000 C 
BRANCH   3   4
ATOM      4  C   UNL     1       9.616  -0.010  18.050  1.00  0.00     0.000 C 
BRANCH   4   5
ATOM      5  C   UNL     1       9.928  -1.176  17.094  1.00  0.00     0.000 C 
BRANCH   5   6
ATOM      6  C   UNL     1       8.803  -1.499  16.092  1.00  0.00     0.000 C 
BRANCH   6   7
ATOM      7  C   UNL     1       8.259  -2.932  16.239  1.00  0.00     0.000 C 
BRANCH   7   8
ATOM      8  C   UNL     1       9.080  -3.732  17.261  1.00  0.00     0.000 C 
BRANCH   8   9
ATOM      9  C   UNL     1       8.235  -4.187  18.462  1.00  0.00     0.000 C 
BRANCH   9  10
ATOM     10  C   UNL     1       6.872  -3.477  18.529  1.00  0.00     0.000 C 
BRANCH  10  11
ATOM     11  C   UNL     1       6.851  -2.346  19.567  1.00  0.00     0.000 C 
BRANCH  11  12
ATOM     12  C   UNL     1       6.228  -1.054  19.016  1.00  0.00     0.000 C 
BRANCH  12  13
ATOM     13  C   UNL     1       5.224  -1.306  17.872  1.00  0.00     0.006 C 
BRANCH  13  14
ATOM     14  C   UNL     1       5.072  -0.122  16.903  1.00  0.00     0.053 C 
BRANCH  14  15
ATOM     15  C   UNL     1       5.319  -0.505  15.479  1.00  0.00     0.041 C 
ATOM     16  O   UNL     1       5.996   0.244  14.727  1.00  0.00    -0.550 OA
ATOM     17  O   UNL     1       4.804  -1.695  14.983  1.00  0.00    -0.550 OA
ENDBRANCH  14  15
ENDBRANCH  13  14
ENDBRANCH  12  13
ENDBRANCH  11  12
ENDBRANCH  10  11
ENDBRANCH   9  10
ENDBRANCH   8   9
ENDBRANCH   7   8
ENDBRANCH   6   7
ENDBRANCH   5   6
ENDBRANCH   4   5
ENDBRANCH   3   4
ENDBRANCH   2   3
ENDBRANCH   1   2
BRANCH   1  18
ATOM     18  C   UNL     1       9.301  -1.727  21.874  1.00  0.00     0.000 C 
BRANCH  18  19
ATOM     19  C   UNL     1       9.774  -1.277  23.269  1.00  0.00     0.000 C 
BRANCH  19  20
ATOM     20  C   UNL     1       8.728  -1.528  24.370  1.00  0.00     0.000 C 
BRANCH  20  21
ATOM     21  C   UNL     1       8.697  -0.393  25.410  1.00  0.00     0.000 C 
BRANCH  21  22
ATOM     22  C   UNL     1       8.967  -0.854  26.861  1.00  0.00     0.000 C 
BRANCH  22  23
ATOM     23  C   UNL     1       8.084  -0.192  27.942  1.00  0.00     0.000 C 
BRANCH  23  24
ATOM     24  C   UNL     1       7.706  -1.107  29.128  1.00  0.00    -0.000 C 
BRANCH  24  25
ATOM     25  C   UNL     1       8.637  -2.316  29.337  1.00  0.00    -0.000 C 
BRANCH  25  26
ATOM     26  C   UNL     1       7.904  -3.663  29.183  1.00  0.00    -0.000 C 
BRANCH  26  27
ATOM     27  C   UNL     1       6.613  -3.554  28.355  1.00  0.00    -0.000 C 
BRANCH  27  28
ATOM     28  C   UNL     1       6.806  -3.958  26.883  1.00  0.00    -0.000 C 
BRANCH  28  29
ATOM     29  C   UNL     1       5.916  -3.141  25.930  1.00  0.00    -0.000 C 
BRANCH  29  30
ATOM     30  C   UNL     1       4.880  -2.287  26.686  1.00  0.00    -0.000 C 
BRANCH  30  31
ATOM     31  C   UNL     1       4.809  -0.845  26.158  1.00  0.00    -0.003 C 
ATOM     32  C   UNL     1       4.602   0.186  27.269  1.00  0.00     0.004 C 
ENDBRANCH  30  31
ENDBRANCH  29  30
ENDBRANCH  28  29
ENDBRANCH  27  28
ENDBRANCH  26  27
ENDBRANCH  25  26
ENDBRANCH  24  25
ENDBRANCH  23  24
ENDBRANCH  22  23
ENDBRANCH  21  22
ENDBRANCH  20  21
ENDBRANCH  19  20
ENDBRANCH  18  19
ENDBRANCH   1  18
TORSDOF 28
ENDMDL
MODEL 2
REMARK VINA RESULT:    -3.085      4.939     10.174
REMARK INTER + INTRA:         -13.238
REMARK INTER:                  -8.008
REMARK INTRA:                  -5.230
REMARK UNBOUND:                -5.104
REMARK SMILES CCCCCCCCCCCCCCCCCCCCCCCCCCCCCC(=O)[O-]
REMARK SMILES IDX 16 1 17 2 18 3 19 4 20 5 21 6 22 7 23 8 24 9 25 10 26 11
REMARK SMILES IDX 27 12 28 13 29 14 30 15 31 16 32 17 15 18 14 19 13 20 12 21
REMARK SMILES IDX 11 22 10 23 9 24 8 25 7 26 6 27 5 28 4 29 3 30 2 31 1 32
REMARK H PARENT
REMARK Flexibility Score: inf
ROOT
ATOM      1  C   UNL     1       4.169   4.717  16.658  1.00  0.00     0.000 C 
ENDROOT
BRANCH   1   2
ATOM      2  C   UNL     1       3.361   6.030  16.734  1.00  0.00     0.000 C 
BRANCH   2   3
ATOM      3  C   UNL     1       2.113   5.974  17.633  1.00  0.00     0.000 C 
BRANCH   3   4
ATOM      4  C   UNL     1       0.790   6.159  16.870  1.00  0.00     0.000 C 
BRANCH   4   5
ATOM      5  C   UNL     1       0.968   6.761  15.465  1.00  0.00     0.000 C 
BRANCH   5   6
ATOM      6  C   UNL     1      -0.063   6.277  14.427  1.00  0.00     0.000 C 
BRANCH   6   7
ATOM      7  C   UNL     1       0.472   6.313  12.985  1.00  0.00     0.000 C 
BRANCH   7   8
ATOM      8  C   UNL     1       1.919   5.802  12.919  1.00  0.00     0.000 C 
BRANCH   8   9
ATOM      9  C   UNL     1       2.073   4.605  11.966  1.00  0.00     0.000 C 
BRANCH   9  10
ATOM     10  C   UNL     1       3.543   4.196  11.764  1.00  0.00     0.000 C 
BRANCH  10  11
ATOM     11  C   UNL     1       3.701   2.692  11.495  1.00  0.00     0.000 C 
BRANCH  11  12
ATOM     12  C   UNL     1       2.386   1.921  11.678  1.00  0.00     0.000 C 
BRANCH  12  13
ATOM     13  C   UNL     1       2.551   0.396  11.512  1.00  0.00     0.006 C 
BRANCH  13  14
ATOM     14  C   UNL     1       2.675  -0.366  12.843  1.00  0.00     0.053 C 
BRANCH  14  15
ATOM     15  C   UNL     1       4.082  -0.767  13.151  1.00  0.00     0.041 C 
ATOM     16  O   UNL     1       4.373  -1.257  14.273  1.00  0.00    -0.550 OA
ATOM     17  O   UNL     1       5.073  -0.605  12.193  1.00  0.00    -0.550 OA
ENDBRANCH  14  15
ENDBRANCH  13  14
ENDBRANCH  12  13
ENDBRANCH  11  12
ENDBRANCH  10  11
ENDBRANCH   9  10
ENDBRANCH   8   9
ENDBRANCH   7   8
ENDBRANCH   6   7
ENDBRANCH   5   6
ENDBRANCH   4   5
ENDBRANCH   3   4
ENDBRANCH   2   3
ENDBRANCH   1   2
BRANCH   1  18
ATOM     18  C   UNL     1       4.113   3.956  15.310  1.00  0.00     0.000 C 
BRANCH  18  19
ATOM     19  C   UNL     1       3.277   2.663  15.309  1.00  0.00     0.000 C 
BRANCH  19  20
ATOM     20  C   UNL     1       1.760   2.926  15.308  1.00  0.00     0.000 C 
BRANCH  20  21
ATOM     21  C   UNL     1       1.030   2.118  16.396  1.00  0.00     0.000 C 
BRANCH  21  22
ATOM     22  C   UNL     1       1.358   2.560  17.841  1.00  0.00     0.000 C 
BRANCH  22  23
ATOM     23  C   UNL     1       2.057   1.496  18.718  1.00  0.00     0.000 C 
BRANCH  23  24
ATOM     24  C   UNL     1       3.595   1.615  18.789  1.00  0.00    -0.000 C 
BRANCH  24  25
ATOM     25  C   UNL     1       4.361   0.304  18.529  1.00  0.00    -0.000 C 
BRANCH  25  26
ATOM     26  C   UNL     1       5.280   0.388  17.296  1.00  0.00    -0.000 C 
BRANCH  26  27
ATOM     27  C   UNL     1       6.508  -0.530  17.398  1.00  0.00    -0.000 C 
BRANCH  27  28
ATOM     28  C   UNL     1       6.163  -2.019  17.218  1.00  0.00    -0.000 C 
BRANCH  28  29
ATOM     29  C   UNL     1       6.954  -2.923  18.182  1.00  0.00    -0.000 C 
BRANCH  29  30
ATOM     30  C   UNL     1       6.739  -2.534  19.656  1.00  0.00    -0.000 C 
BRANCH  30  31
ATOM     31  C   UNL     1       8.020  -2.675  20.494  1.00  0.00    -0.003 C 
ATOM     32  C   UNL     1       9.283  -2.778  19.636  1.00  0.00     0.004 C 
ENDBRANCH  30  31
ENDBRANCH  29  30
ENDBRANCH  28  29
ENDBRANCH  27  28
ENDBRANCH  26  27
ENDBRANCH  25  26
ENDBRANCH  24  25
ENDBRANCH  23  24
ENDBRANCH  22  23
ENDBRANCH  21  22
ENDBRANCH  20  21
ENDBRANCH  19  20
ENDBRANCH  18  19
ENDBRANCH   1  18
TORSDOF 28
ENDMDL
MODEL 3
REMARK VINA RESULT:    -3.064      5.032      8.015
REMARK INTER + INTRA:         -13.183
REMARK INTER:                  -7.365
REMARK INTRA:                  -5.818
REMARK UNBOUND:                -5.104
REMARK SMILES CCCCCCCCCCCCCCCCCCCCCCCCCCCCCC(=O)[O-]
REMARK SMILES IDX 16 1 17 2 18 3 19 4 20 5 21 6 22 7 23 8 24 9 25 10 26 11
REMARK SMILES IDX 27 12 28 13 29 14 30 15 31 16 32 17 15 18 14 19 13 20 12 21
REMARK SMILES IDX 11 22 10 23 9 24 8 25 7 26 6 27 5 28 4 29 3 30 2 31 1 32
REMARK H PARENT
REMARK Flexibility Score: inf
ROOT
ATOM      1  C   UNL     1       5.467  -1.553  16.673  1.00  0.00     0.000 C 
ENDROOT
BRANCH   1   2
ATOM      2  C   UNL     1       4.984  -0.207  16.090  1.00  0.00     0.000 C 
BRANCH   2   3
ATOM      3  C   UNL     1       6.007   0.941  16.170  1.00  0.00     0.000 C 
BRANCH   3   4
ATOM      4  C   UNL     1       6.085   1.792  14.891  1.00  0.00     0.000 C 
BRANCH   4   5
ATOM      5  C   UNL     1       6.739   1.062  13.704  1.00  0.00     0.000 C 
BRANCH   5   6
ATOM      6  C   UNL     1       5.743   0.513  12.664  1.00  0.00     0.000 C 
BRANCH   6   7
ATOM      7  C   UNL     1       4.456   1.350  12.563  1.00  0.00     0.000 C 
BRANCH   7   8
ATOM      8  C   UNL     1       3.212   0.480  12.800  1.00  0.00     0.000 C 
BRANCH   8   9
ATOM      9  C   UNL     1       2.340   1.007  13.951  1.00  0.00     0.000 C 
BRANCH   9  10
ATOM     10  C   UNL     1       2.509   2.520  14.176  1.00  0.00     0.000 C 
BRANCH  10  11
ATOM     11  C   UNL     1       2.465   2.901  15.663  1.00  0.00     0.000 C 
BRANCH  11  12
ATOM     12  C   UNL     1       1.411   2.100  16.443  1.00  0.00     0.000 C 
BRANCH  12  13
ATOM     13  C   UNL     1       1.583   2.205  17.973  1.00  0.00     0.006 C 
BRANCH  13  14
ATOM     14  C   UNL     1       2.729   1.344  18.533  1.00  0.00     0.053 C 
BRANCH  14  15
ATOM     15  C   UNL     1       3.835   2.163  19.116  1.00  0.00     0.041 C 
ATOM     16  O   UNL     1       4.925   1.622  19.440  1.00  0.00    -0.550 OA
ATOM     17  O   UNL     1       3.664   3.529  19.297  1.00  0.00    -0.550 OA
ENDBRANCH  14  15
ENDBRANCH  13  14
ENDBRANCH  12  13
ENDBRANCH  11  12
ENDBRANCH  10  11
ENDBRANCH   9  10
ENDBRANCH   8   9
ENDBRANCH   7   8
ENDBRANCH   6   7
ENDBRANCH   5   6
ENDBRANCH   4   5
ENDBRANCH   3   4
ENDBRANCH   2   3
ENDBRANCH   1   2
BRANCH   1  18
ATOM     18  C   UNL     1       5.098  -1.828  18.152  1.00  0.00     0.000 C 
BRANCH  18  19
ATOM     19  C   UNL     1       6.263  -2.267  19.058  1.00  0.00     0.000 C 
BRANCH  19  20
ATOM     20  C   UNL     1       7.060  -1.081  19.632  1.00  0.00     0.000 C 
BRANCH  20  21
ATOM     21  C   UNL     1       8.403  -1.524  20.240  1.00  0.00     0.000 C 
BRANCH  21  22
ATOM     22  C   UNL     1       8.584  -3.058  20.328  1.00  0.00     0.000 C 
BRANCH  22  23
ATOM     23  C   UNL     1      10.047  -3.554  20.342  1.00  0.00     0.000 C 
BRANCH  23  24
ATOM     24  C   UNL     1      10.353  -4.719  19.376  1.00  0.00    -0.000 C 
BRANCH  24  25
ATOM     25  C   UNL     1       9.243  -5.782  19.271  1.00  0.00    -0.000 C 
BRANCH  25  26
ATOM     26  C   UNL     1       8.586  -5.818  17.878  1.00  0.00    -0.000 C 
BRANCH  26  27
ATOM     27  C   UNL     1       9.313  -4.940  16.847  1.00  0.00    -0.000 C 
BRANCH  27  28
ATOM     28  C   UNL     1       8.440  -3.792  16.310  1.00  0.00    -0.000 C 
BRANCH  28  29
ATOM     29  C   UNL     1       9.009  -2.407  16.669  1.00  0.00    -0.000 C 
BRANCH  29  30
ATOM     30  C   UNL     1       8.891  -1.408  15.503  1.00  0.00    -0.000 C 
BRANCH  30  31
ATOM     31  C   UNL     1       9.663  -0.105  15.766  1.00  0.00    -0.003 C 
ATOM     32  C   UNL     1       9.570   0.358  17.221  1.00  0.00     0.004 C 
ENDBRANCH  30  31
ENDBRANCH  29  30
ENDBRANCH  28  29
ENDBRANCH  27  28
ENDBRANCH  26  27
ENDBRANCH  25  26
ENDBRANCH  24  25
ENDBRANCH  23  24
ENDBRANCH  22  23
ENDBRANCH  21  22
ENDBRANCH  20  21
ENDBRANCH  19  20
ENDBRANCH  18  19
ENDBRANCH   1  18
TORSDOF 28
ENDMDL
MODEL 4
REMARK VINA RESULT:    -3.049      4.173      6.660
REMARK INTER + INTRA:         -13.144
REMARK INTER:                  -7.854
REMARK INTRA:                  -5.289
REMARK UNBOUND:                -5.104
REMARK SMILES CCCCCCCCCCCCCCCCCCCCCCCCCCCCCC(=O)[O-]
REMARK SMILES IDX 16 1 17 2 18 3 19 4 20 5 21 6 22 7 23 8 24 9 25 10 26 11
REMARK SMILES IDX 27 12 28 13 29 14 30 15 31 16 32 17 15 18 14 19 13 20 12 21
REMARK SMILES IDX 11 22 10 23 9 24 8 25 7 26 6 27 5 28 4 29 3 30 2 31 1 32
REMARK H PARENT
REMARK Flexibility Score: inf
ROOT
ATOM      1  C   UNL     1       9.760  -5.406  19.812  1.00  0.00     0.000 C 
ENDROOT
BRANCH   1   2
ATOM      2  C   UNL     1       9.963  -6.847  19.295  1.00  0.00     0.000 C 
BRANCH   2   3
ATOM      3  C   UNL     1       9.659  -7.050  17.800  1.00  0.00     0.000 C 
BRANCH   3   4
ATOM      4  C   UNL     1       8.605  -6.077  17.244  1.00  0.00     0.000 C 
BRANCH   4   5
ATOM      5  C   UNL     1       9.169  -5.078  16.218  1.00  0.00     0.000 C 
BRANCH   5   6
ATOM      6  C   UNL     1       8.528  -3.678  16.271  1.00  0.00     0.000 C 
BRANCH   6   7
ATOM      7  C   UNL     1       9.263  -2.714  17.219  1.00  0.00     0.000 C 
BRANCH   7   8
ATOM      8  C   UNL     1       8.352  -2.276  18.375  1.00  0.00     0.000 C 
BRANCH   8   9
ATOM      9  C   UNL     1       6.994  -2.995  18.355  1.00  0.00     0.000 C 
BRANCH   9  10
ATOM     10  C   UNL     1       5.877  -2.168  19.014  1.00  0.00     0.000 C 
BRANCH  10  11
ATOM     11  C   UNL     1       4.881  -1.606  17.989  1.00  0.00     0.000 C 
BRANCH  11  12
ATOM     12  C   UNL     1       5.480  -1.513  16.578  1.00  0.00     0.000 C 
BRANCH  12  13
ATOM     13  C   UNL     1       5.762  -0.063  16.135  1.00  0.00     0.006 C 
BRANCH  13  14
ATOM     14  C   UNL     1       7.250   0.325  16.182  1.00  0.00     0.053 C 
BRANCH  14  15
ATOM     15  C   UNL     1       7.928   0.181  14.857  1.00  0.00     0.041 C 
ATOM     16  O   UNL     1       7.709  -0.828  14.137  1.00  0.00    -0.550 OA
ATOM     17  O   UNL     1       8.797   1.168  14.413  1.00  0.00    -0.550 OA
ENDBRANCH  14  15
ENDBRANCH  13  14
ENDBRANCH  12  13
ENDBRANCH  11  12
ENDBRANCH  10  11
ENDBRANCH   9  10
ENDBRANCH   8   9
ENDBRANCH   7   8
ENDBRANCH   6   7
ENDBRANCH   5   6
ENDBRANCH   4   5
ENDBRANCH   3   4
ENDBRANCH   2   3
ENDBRANCH   1   2
BRANCH   1  18
ATOM     18  C   UNL     1      10.911  -4.816  20.663  1.00  0.00     0.000 C 
BRANCH  18  19
ATOM     19  C   UNL     1      11.125  -3.297  20.533  1.00  0.00     0.000 C 
BRANCH  19  20
ATOM     20  C   UNL     1      10.802  -2.530  21.828  1.00  0.00     0.000 C 
BRANCH  20  21
ATOM     21  C   UNL     1       9.373  -1.955  21.821  1.00  0.00     0.000 C 
BRANCH  21  22
ATOM     22  C   UNL     1       9.292  -0.463  21.422  1.00  0.00     0.000 C 
BRANCH  22  23
ATOM     23  C   UNL     1       7.863   0.106  21.275  1.00  0.00     0.000 C 
BRANCH  23  24
ATOM     24  C   UNL     1       7.656   1.048  20.068  1.00  0.00    -0.000 C 
BRANCH  24  25
ATOM     25  C   UNL     1       6.185   1.294  19.682  1.00  0.00    -0.000 C 
BRANCH  25  26
ATOM     26  C   UNL     1       5.993   2.591  18.873  1.00  0.00    -0.000 C 
BRANCH  26  27
ATOM     27  C   UNL     1       4.515   2.971  18.688  1.00  0.00    -0.000 C 
BRANCH  27  28
ATOM     28  C   UNL     1       3.552   2.011  19.408  1.00  0.00    -0.000 C 
BRANCH  28  29
ATOM     29  C   UNL     1       2.487   1.431  18.460  1.00  0.00    -0.000 C 
BRANCH  29  30
ATOM     30  C   UNL     1       2.667   1.919  17.011  1.00  0.00    -0.000 C 
BRANCH  30  31
ATOM     31  C   UNL     1       1.329   2.251  16.332  1.00  0.00    -0.003 C 
ATOM     32  C   UNL     1       1.318   3.637  15.684  1.00  0.00     0.004 C 
ENDBRANCH  30  31
ENDBRANCH  29  30
ENDBRANCH  28  29
ENDBRANCH  27  28
ENDBRANCH  26  27
ENDBRANCH  25  26
ENDBRANCH  24  25
ENDBRANCH  23  24
ENDBRANCH  22  23
ENDBRANCH  21  22
ENDBRANCH  20  21
ENDBRANCH  19  20
ENDBRANCH  18  19
ENDBRANCH   1  18
TORSDOF 28
ENDMDL
MODEL 5
REMARK VINA RESULT:    -3.013      4.691      7.868
REMARK INTER + INTRA:         -13.049
REMARK INTER:                  -7.533
REMARK INTRA:                  -5.516
REMARK UNBOUND:                -5.104
REMARK SMILES CCCCCCCCCCCCCCCCCCCCCCCCCCCCCC(=O)[O-]
REMARK SMILES IDX 16 1 17 2 18 3 19 4 20 5 21 6 22 7 23 8 24 9 25 10 26 11
REMARK SMILES IDX 27 12 28 13 29 14 30 15 31 16 32 17 15 18 14 19 13 20 12 21
REMARK SMILES IDX 11 22 10 23 9 24 8 25 7 26 6 27 5 28 4 29 3 30 2 31 1 32
REMARK H PARENT
REMARK Flexibility Score: inf
ROOT
ATOM      1  C   UNL     1       9.329  -0.802  20.013  1.00  0.00     0.000 C 
ENDROOT
BRANCH   1   2
ATOM      2  C   UNL     1       8.009  -1.557  20.279  1.00  0.00     0.000 C 
BRANCH   2   3
ATOM      3  C   UNL     1       6.761  -0.937  19.623  1.00  0.00     0.000 C 
BRANCH   3   4
ATOM      4  C   UNL     1       5.849  -1.965  18.933  1.00  0.00     0.000 C 
BRANCH   4   5
ATOM      5  C   UNL     1       4.662  -1.331  18.185  1.00  0.00     0.000 C 
BRANCH   5   6
ATOM      6  C   UNL     1       4.670   0.209  18.164  1.00  0.00     0.000 C 
BRANCH   6   7
ATOM      7  C   UNL     1       3.433   0.828  18.840  1.00  0.00     0.000 C 
BRANCH   7   8
ATOM      8  C   UNL     1       2.941   2.062  18.070  1.00  0.00     0.000 C 
BRANCH   8   9
ATOM      9  C   UNL     1       1.480   1.924  17.615  1.00  0.00     0.000 C 
BRANCH   9  10
ATOM     10  C   UNL     1       1.209   2.623  16.271  1.00  0.00     0.000 C 
BRANCH  10  11
ATOM     11  C   UNL     1       2.503   2.956  15.512  1.00  0.00     0.000 C 
BRANCH  11  12
ATOM     12  C   UNL     1       2.381   2.699  14.003  1.00  0.00     0.000 C 
BRANCH  12  13
ATOM     13  C   UNL     1       2.820   1.277  13.594  1.00  0.00     0.006 C 
BRANCH  13  14
ATOM     14  C   UNL     1       3.896   0.669  14.511  1.00  0.00     0.053 C 
BRANCH  14  15
ATOM     15  C   UNL     1       4.430  -0.628  13.993  1.00  0.00     0.041 C 
ATOM     16  O   UNL     1       4.507  -0.834  12.754  1.00  0.00    -0.550 OA
ATOM     17  O   UNL     1       4.850  -1.608  14.882  1.00  0.00    -0.550 OA
ENDBRANCH  14  15
ENDBRANCH  13  14
ENDBRANCH  12  13
ENDBRANCH  11  12
ENDBRANCH  10  11
ENDBRANCH   9  10
ENDBRANCH   8   9
ENDBRANCH   7   8
ENDBRANCH   6   7
ENDBRANCH   5   6
ENDBRANCH   4   5
ENDBRANCH   3   4
ENDBRANCH   2   3
ENDBRANCH   1   2
BRANCH   1  18
ATOM     18  C   UNL     1      10.634  -1.588  20.291  1.00  0.00     0.000 C 
BRANCH  18  19
ATOM     19  C   UNL     1      10.478  -2.855  21.152  1.00  0.00     0.000 C 
BRANCH  19  20
ATOM     20  C   UNL     1      11.054  -4.115  20.479  1.00  0.00     0.000 C 
BRANCH  20  21
ATOM     21  C   UNL     1       9.966  -5.165  20.187  1.00  0.00     0.000 C 
BRANCH  21  22
ATOM     22  C   UNL     1       9.068  -4.826  18.975  1.00  0.00     0.000 C 
BRANCH  22  23
ATOM     23  C   UNL     1       9.814  -4.579  17.645  1.00  0.00     0.000 C 
BRANCH  23  24
ATOM     24  C   UNL     1       9.686  -3.147  17.079  1.00  0.00    -0.000 C 
BRANCH  24  25
ATOM     25  C   UNL     1       8.280  -2.772  16.575  1.00  0.00    -0.000 C 
BRANCH  25  26
ATOM     26  C   UNL     1       8.289  -1.533  15.660  1.00  0.00    -0.000 C 
BRANCH  26  27
ATOM     27  C   UNL     1       8.413  -0.212  16.437  1.00  0.00    -0.000 C 
BRANCH  27  28
ATOM     28  C   UNL     1       7.393   0.850  15.986  1.00  0.00    -0.000 C 
BRANCH  28  29
ATOM     29  C   UNL     1       7.631   2.213  16.661  1.00  0.00    -0.000 C 
BRANCH  29  30
ATOM     30  C   UNL     1       8.065   2.069  18.132  1.00  0.00    -0.000 C 
BRANCH  30  31
ATOM     31  C   UNL     1       7.040   2.670  19.108  1.00  0.00    -0.003 C 
ATOM     32  C   UNL     1       7.443   2.498  20.574  1.00  0.00     0.004 C 
ENDBRANCH  30  31
ENDBRANCH  29  30
ENDBRANCH  28  29
ENDBRANCH  27  28
ENDBRANCH  26  27
ENDBRANCH  25  26
ENDBRANCH  24  25
ENDBRANCH  23  24
ENDBRANCH  22  23
ENDBRANCH  21  22
ENDBRANCH  20  21
ENDBRANCH  19  20
ENDBRANCH  18  19
ENDBRANCH   1  18
TORSDOF 28
ENDMDL
MODEL 6
REMARK VINA RESULT:    -3.005      5.472      8.272
REMARK INTER + INTRA:         -13.027
REMARK INTER:                  -8.793
REMARK INTRA:                  -4.234
REMARK UNBOUND:                -5.104
REMARK SMILES CCCCCCCCCCCCCCCCCCCCCCCCCCCCCC(=O)[O-]
REMARK SMILES IDX 16 1 17 2 18 3 19 4 20 5 21 6 22 7 23 8 24 9 25 10 26 11
REMARK SMILES IDX 27 12 28 13 29 14 30 15 31 16 32 17 15 18 14 19 13 20 12 21
REMARK SMILES IDX 11 22 10 23 9 24 8 25 7 26 6 27 5 28 4 29 3 30 2 31 1 32
REMARK H PARENT
REMARK Flexibility Score: inf
ROOT
ATOM      1  C   UNL     1       7.990  -1.258  18.058  1.00  0.00     0.000 C 
ENDROOT
BRANCH   1   2
ATOM      2  C   UNL     1       7.821  -1.858  16.645  1.00  0.00     0.000 C 
BRANCH   2   3
ATOM      3  C   UNL     1       7.731  -0.825  15.506  1.00  0.00     0.000 C 
BRANCH   3   4
ATOM      4  C   UNL     1       7.367   0.591  15.982  1.00  0.00     0.000 C 
BRANCH   4   5
ATOM      5  C   UNL     1       6.101   1.159  15.315  1.00  0.00     0.000 C 
BRANCH   5   6
ATOM      6  C   UNL     1       5.097   0.093  14.837  1.00  0.00     0.000 C 
BRANCH   6   7
ATOM      7  C   UNL     1       4.256   0.554  13.634  1.00  0.00     0.000 C 
BRANCH   7   8
ATOM      8  C   UNL     1       2.798   0.812  14.046  1.00  0.00     0.000 C 
BRANCH   8   9
ATOM      9  C   UNL     1       2.326   2.226  13.668  1.00  0.00     0.000 C 
BRANCH   9  10
ATOM     10  C   UNL     1       3.401   3.297  13.925  1.00  0.00     0.000 C 
BRANCH  10  11
ATOM     11  C   UNL     1       2.906   4.414  14.855  1.00  0.00     0.000 C 
BRANCH  11  12
ATOM     12  C   UNL     1       1.516   4.119  15.440  1.00  0.00     0.000 C 
BRANCH  12  13
ATOM     13  C   UNL     1       0.828   5.370  16.024  1.00  0.00     0.006 C 
BRANCH  13  14
ATOM     14  C   UNL     1       0.952   6.621  15.138  1.00  0.00     0.053 C 
BRANCH  14  15
ATOM     15  C   UNL     1       0.043   6.582  13.952  1.00  0.00     0.041 C 
ATOM     16  O   UNL     1      -1.206   6.544  14.109  1.00  0.00    -0.550 OA
ATOM     17  O   UNL     1       0.575   6.595  12.670  1.00  0.00    -0.550 OA
ENDBRANCH  14  15
ENDBRANCH  13  14
ENDBRANCH  12  13
ENDBRANCH  11  12
ENDBRANCH  10  11
ENDBRANCH   9  10
ENDBRANCH   8   9
ENDBRANCH   7   8
ENDBRANCH   6   7
ENDBRANCH   5   6
ENDBRANCH   4   5
ENDBRANCH   3   4
ENDBRANCH   2   3
ENDBRANCH   1   2
BRANCH   1  18
ATOM     18  C   UNL     1       6.789  -1.426  19.020  1.00  0.00     0.000 C 
BRANCH  18  19
ATOM     19  C   UNL     1       5.438  -1.739  18.350  1.00  0.00     0.000 C 
BRANCH  19  20
ATOM     20  C   UNL     1       4.418  -0.594  18.486  1.00  0.00     0.000 C 
BRANCH  20  21
ATOM     21  C   UNL     1       5.082   0.724  18.926  1.00  0.00     0.000 C 
BRANCH  21  22
ATOM     22  C   UNL     1       4.297   1.995  18.522  1.00  0.00     0.000 C 
BRANCH  22  23
ATOM     23  C   UNL     1       3.116   1.764  17.554  1.00  0.00     0.000 C 
BRANCH  23  24
ATOM     24  C   UNL     1       1.719   1.778  18.212  1.00  0.00    -0.000 C 
BRANCH  24  25
ATOM     25  C   UNL     1       1.725   1.936  19.745  1.00  0.00    -0.000 C 
BRANCH  25  26
ATOM     26  C   UNL     1       0.548   1.208  20.422  1.00  0.00    -0.000 C 
BRANCH  26  27
ATOM     27  C   UNL     1       0.678  -0.323  20.369  1.00  0.00    -0.000 C 
BRANCH  27  28
ATOM     28  C   UNL     1      -0.542  -1.050  20.962  1.00  0.00    -0.000 C 
BRANCH  28  29
ATOM     29  C   UNL     1      -0.333  -1.436  22.438  1.00  0.00    -0.000 C 
BRANCH  29  30
ATOM     30  C   UNL     1      -0.067  -2.943  22.616  1.00  0.00    -0.000 C 
BRANCH  30  31
ATOM     31  C   UNL     1       0.355  -3.300  24.050  1.00  0.00    -0.003 C 
ATOM     32  C   UNL     1       1.152  -4.603  24.129  1.00  0.00     0.004 C 
ENDBRANCH  30  31
ENDBRANCH  29  30
ENDBRANCH  28  29
ENDBRANCH  27  28
ENDBRANCH  26  27
ENDBRANCH  25  26
ENDBRANCH  24  25
ENDBRANCH  23  24
ENDBRANCH  22  23
ENDBRANCH  21  22
ENDBRANCH  20  21
ENDBRANCH  19  20
ENDBRANCH  18  19
ENDBRANCH   1  18
TORSDOF 28
ENDMDL
MODEL 7
REMARK VINA RESULT:    -2.997      8.324     11.645
REMARK INTER + INTRA:         -13.006
REMARK INTER:                  -7.052
REMARK INTRA:                  -5.954
REMARK UNBOUND:                -5.104
REMARK SMILES CCCCCCCCCCCCCCCCCCCCCCCCCCCCCC(=O)[O-]
REMARK SMILES IDX 16 1 17 2 18 3 19 4 20 5 21 6 22 7 23 8 24 9 25 10 26 11
REMARK SMILES IDX 27 12 28 13 29 14 30 15 31 16 32 17 15 18 14 19 13 20 12 21
REMARK SMILES IDX 11 22 10 23 9 24 8 25 7 26 6 27 5 28 4 29 3 30 2 31 1 32
REMARK H PARENT
REMARK Flexibility Score: inf
ROOT
ATOM      1  C   UNL     1      -0.943  -1.548  22.154  1.00  0.00     0.000 C 
ENDROOT
BRANCH   1   2
ATOM      2  C   UNL     1      -0.633  -1.046  20.727  1.00  0.00     0.000 C 
BRANCH   2   3
ATOM      3  C   UNL     1       0.470   0.024  20.640  1.00  0.00     0.000 C 
BRANCH   3   4
ATOM      4  C   UNL     1       0.628   0.858  21.923  1.00  0.00     0.000 C 
BRANCH   4   5
ATOM      5  C   UNL     1       0.363   2.360  21.718  1.00  0.00     0.000 C 
BRANCH   5   6
ATOM      6  C   UNL     1      -0.929   2.877  22.380  1.00  0.00     0.000 C 
BRANCH   6   7
ATOM      7  C   UNL     1      -2.151   2.813  21.446  1.00  0.00     0.000 C 
BRANCH   7   8
ATOM      8  C   UNL     1      -3.005   1.570  21.739  1.00  0.00     0.000 C 
BRANCH   8   9
ATOM      9  C   UNL     1      -3.707   1.651  23.103  1.00  0.00     0.000 C 
BRANCH   9  10
ATOM     10  C   UNL     1      -3.250   0.546  24.071  1.00  0.00     0.000 C 
BRANCH  10  11
ATOM     11  C   UNL     1      -2.384   1.091  25.217  1.00  0.00     0.000 C 
BRANCH  11  12
ATOM     12  C   UNL     1      -0.994   0.438  25.264  1.00  0.00     0.000 C 
BRANCH  12  13
ATOM     13  C   UNL     1      -0.161   0.877  26.486  1.00  0.00     0.006 C 
BRANCH  13  14
ATOM     14  C   UNL     1      -0.490   0.106  27.776  1.00  0.00     0.053 C 
BRANCH  14  15
ATOM     15  C   UNL     1       0.295  -1.159  27.910  1.00  0.00     0.041 C 
ATOM     16  O   UNL     1      -0.109  -2.081  28.665  1.00  0.00    -0.550 OA
ATOM     17  O   UNL     1       1.472  -1.322  27.192  1.00  0.00    -0.550 OA
ENDBRANCH  14  15
ENDBRANCH  13  14
ENDBRANCH  12  13
ENDBRANCH  11  12
ENDBRANCH  10  11
ENDBRANCH   9  10
ENDBRANCH   8   9
ENDBRANCH   7   8
ENDBRANCH   6   7
ENDBRANCH   5   6
ENDBRANCH   4   5
ENDBRANCH   3   4
ENDBRANCH   2   3
ENDBRANCH   1   2
BRANCH   1  18
ATOM     18  C   UNL     1      -0.108  -2.754  22.651  1.00  0.00     0.000 C 
BRANCH  18  19
ATOM     19  C   UNL     1       0.801  -2.481  23.863  1.00  0.00     0.000 C 
BRANCH  19  20
ATOM     20  C   UNL     1       1.411  -3.763  24.460  1.00  0.00     0.000 C 
BRANCH  20  21
ATOM     21  C   UNL     1       0.570  -5.011  24.134  1.00  0.00     0.000 C 
BRANCH  21  22
ATOM     22  C   UNL     1      -0.104  -5.661  25.365  1.00  0.00     0.000 C 
BRANCH  22  23
ATOM     23  C   UNL     1      -1.591  -5.298  25.576  1.00  0.00     0.000 C 
BRANCH  23  24
ATOM     24  C   UNL     1      -1.843  -3.913  26.211  1.00  0.00    -0.000 C 
BRANCH  24  25
ATOM     25  C   UNL     1      -2.562  -2.902  25.298  1.00  0.00    -0.000 C 
BRANCH  25  26
ATOM     26  C   UNL     1      -3.819  -3.494  24.631  1.00  0.00    -0.000 C 
BRANCH  26  27
ATOM     27  C   UNL     1      -4.265  -2.709  23.386  1.00  0.00    -0.000 C 
BRANCH  27  28
ATOM     28  C   UNL     1      -5.091  -3.558  22.404  1.00  0.00    -0.000 C 
BRANCH  28  29
ATOM     29  C   UNL     1      -5.462  -2.781  21.127  1.00  0.00    -0.000 C 
BRANCH  29  30
ATOM     30  C   UNL     1      -4.328  -1.849  20.661  1.00  0.00    -0.000 C 
BRANCH  30  31
ATOM     31  C   UNL     1      -4.812  -0.794  19.653  1.00  0.00    -0.003 C 
ATOM     32  C   UNL     1      -6.128  -0.133  20.069  1.00  0.00     0.004 C 
ENDBRANCH  30  31
ENDBRANCH  29  30
ENDBRANCH  28  29
ENDBRANCH  27  28
ENDBRANCH  26  27
ENDBRANCH  25  26
ENDBRANCH  24  25
ENDBRANCH  23  24
ENDBRANCH  22  23
ENDBRANCH  21  22
ENDBRANCH  20  21
ENDBRANCH  19  20
ENDBRANCH  18  19
ENDBRANCH   1  18
TORSDOF 28
ENDMDL
MODEL 8
REMARK VINA RESULT:    -2.970      5.677     10.383
REMARK INTER + INTRA:         -12.934
REMARK INTER:                  -8.747
REMARK INTRA:                  -4.188
REMARK UNBOUND:                -5.104
REMARK SMILES CCCCCCCCCCCCCCCCCCCCCCCCCCCCCC(=O)[O-]
REMARK SMILES IDX 16 1 17 2 18 3 19 4 20 5 21 6 22 7 23 8 24 9 25 10 26 11
REMARK SMILES IDX 27 12 28 13 29 14 30 15 31 16 32 17 15 18 14 19 13 20 12 21
REMARK SMILES IDX 11 22 10 23 9 24 8 25 7 26 6 27 5 28 4 29 3 30 2 31 1 32
REMARK H PARENT
REMARK Flexibility Score: inf
ROOT
ATOM      1  C   UNL     1       2.518   2.900  13.343  1.00  0.00     0.000 C 
ENDROOT
BRANCH   1   2
ATOM      2  C   UNL     1       2.352   4.131  14.260  1.00  0.00     0.000 C 
BRANCH   2   3
ATOM      3  C   UNL     1       2.631   3.873  15.752  1.00  0.00     0.000 C 
BRANCH   3   4
ATOM      4  C   UNL     1       1.378   3.963  16.641  1.00  0.00     0.000 C 
BRANCH   4   5
ATOM      5  C   UNL     1       1.011   2.635  17.326  1.00  0.00     0.000 C 
BRANCH   5   6
ATOM      6  C   UNL     1       2.218   1.824  17.836  1.00  0.00     0.000 C 
BRANCH   6   7
ATOM      7  C   UNL     1       2.225   1.654  19.366  1.00  0.00     0.000 C 
BRANCH   7   8
ATOM      8  C   UNL     1       0.885   2.090  19.977  1.00  0.00     0.000 C 
BRANCH   8   9
ATOM      9  C   UNL     1       0.396   1.121  21.066  1.00  0.00     0.000 C 
BRANCH   9  10
ATOM     10  C   UNL     1       0.338  -0.337  20.577  1.00  0.00     0.000 C 
BRANCH  10  11
ATOM     11  C   UNL     1      -1.059  -0.955  20.739  1.00  0.00     0.000 C 
BRANCH  11  12
ATOM     12  C   UNL     1      -1.292  -1.517  22.150  1.00  0.00     0.000 C 
BRANCH  12  13
ATOM     13  C   UNL     1       0.011  -1.962  22.847  1.00  0.00     0.006 C 
BRANCH  13  14
ATOM     14  C   UNL     1       0.208  -3.487  22.887  1.00  0.00     0.053 C 
BRANCH  14  15
ATOM     15  C   UNL     1       1.017  -3.935  24.062  1.00  0.00     0.041 C 
ATOM     16  O   UNL     1       0.998  -5.140  24.425  1.00  0.00    -0.550 OA
ATOM     17  O   UNL     1       1.799  -3.020  24.753  1.00  0.00    -0.550 OA
ENDBRANCH  14  15
ENDBRANCH  13  14
ENDBRANCH  12  13
ENDBRANCH  11  12
ENDBRANCH  10  11
ENDBRANCH   9  10
ENDBRANCH   8   9
ENDBRANCH   7   8
ENDBRANCH   6   7
ENDBRANCH   5   6
ENDBRANCH   4   5
ENDBRANCH   3   4
ENDBRANCH   2   3
ENDBRANCH   1   2
BRANCH   1  18
ATOM     18  C   UNL     1       2.343   1.517  14.017  1.00  0.00     0.000 C 
BRANCH  18  19
ATOM     19  C   UNL     1       3.005   0.333  13.289  1.00  0.00     0.000 C 
BRANCH  19  20
ATOM     20  C   UNL     1       4.265  -0.187  14.005  1.00  0.00     0.000 C 
BRANCH  20  21
ATOM     21  C   UNL     1       4.456   0.463  15.388  1.00  0.00     0.000 C 
BRANCH  21  22
ATOM     22  C   UNL     1       5.704   1.369  15.495  1.00  0.00     0.000 C 
BRANCH  22  23
ATOM     23  C   UNL     1       6.667   1.318  14.288  1.00  0.00     0.000 C 
BRANCH  23  24
ATOM     24  C   UNL     1       7.862   0.353  14.446  1.00  0.00    -0.000 C 
BRANCH  24  25
ATOM     25  C   UNL     1       8.177  -0.058  15.896  1.00  0.00    -0.000 C 
BRANCH  25  26
ATOM     26  C   UNL     1       8.338  -1.582  16.060  1.00  0.00    -0.000 C 
BRANCH  26  27
ATOM     27  C   UNL     1       7.037  -2.282  16.486  1.00  0.00    -0.000 C 
BRANCH  27  28
ATOM     28  C   UNL     1       7.171  -3.042  17.817  1.00  0.00    -0.000 C 
BRANCH  28  29
ATOM     29  C   UNL     1       6.179  -2.539  18.881  1.00  0.00    -0.000 C 
BRANCH  29  30
ATOM     30  C   UNL     1       5.122  -1.588  18.290  1.00  0.00    -0.000 C 
BRANCH  30  31
ATOM     31  C   UNL     1       5.221  -0.167  18.867  1.00  0.00    -0.003 C 
ATOM     32  C   UNL     1       6.651   0.219  19.254  1.00  0.00     0.004 C 
ENDBRANCH  30  31
ENDBRANCH  29  30
ENDBRANCH  28  29
ENDBRANCH  27  28
ENDBRANCH  26  27
ENDBRANCH  25  26
ENDBRANCH  24  25
ENDBRANCH  23  24
ENDBRANCH  22  23
ENDBRANCH  21  22
ENDBRANCH  20  21
ENDBRANCH  19  20
ENDBRANCH  18  19
ENDBRANCH   1  18
TORSDOF 28
ENDMDL
MODEL 9
REMARK VINA RESULT:    -2.965      4.858      7.978
REMARK INTER + INTRA:         -12.921
REMARK INTER:                  -7.928
REMARK INTRA:                  -4.994
REMARK UNBOUND:                -5.104
REMARK SMILES CCCCCCCCCCCCCCCCCCCCCCCCCCCCCC(=O)[O-]
REMARK SMILES IDX 16 1 17 2 18 3 19 4 20 5 21 6 22 7 23 8 24 9 25 10 26 11
REMARK SMILES IDX 27 12 28 13 29 14 30 15 31 16 32 17 15 18 14 19 13 20 12 21
REMARK SMILES IDX 11 22 10 23 9 24 8 25 7 26 6 27 5 28 4 29 3 30 2 31 1 32
REMARK H PARENT
REMARK Flexibility Score: inf
ROOT
ATOM      1  C   UNL     1       4.866  -0.602  16.450  1.00  0.00     0.000 C 
ENDROOT
BRANCH   1   2
ATOM      2  C   UNL     1       5.427   0.648  15.737  1.00  0.00     0.000 C 
BRANCH   2   3
ATOM      3  C   UNL     1       5.600   0.504  14.214  1.00  0.00     0.000 C 
BRANCH   3   4
ATOM      4  C   UNL     1       4.573  -0.436  13.560  1.00  0.00     0.000 C 
BRANCH   4   5
ATOM      5  C   UNL     1       3.798   0.212  12.398  1.00  0.00     0.000 C 
BRANCH   5   6
ATOM      6  C   UNL     1       2.547   1.003  12.826  1.00  0.00     0.000 C 
BRANCH   6   7
ATOM      7  C   UNL     1       2.810   2.513  12.969  1.00  0.00     0.000 C 
BRANCH   7   8
ATOM      8  C   UNL     1       2.171   3.066  14.252  1.00  0.00     0.000 C 
BRANCH   8   9
ATOM      9  C   UNL     1       1.943   1.973  15.309  1.00  0.00     0.000 C 
BRANCH   9  10
ATOM     10  C   UNL     1       1.088   2.463  16.491  1.00  0.00     0.000 C 
BRANCH  10  11
ATOM     11  C   UNL     1       1.909   3.256  17.519  1.00  0.00     0.000 C 
BRANCH  11  12
ATOM     12  C   UNL     1       3.180   2.513  17.956  1.00  0.00     0.000 C 
BRANCH  12  13
ATOM     13  C   UNL     1       3.027   1.803  19.318  1.00  0.00     0.006 C 
BRANCH  13  14
ATOM     14  C   UNL     1       2.393   0.405  19.225  1.00  0.00     0.053 C 
BRANCH  14  15
ATOM     15  C   UNL     1       1.058   0.329  19.894  1.00  0.00     0.041 C 
ATOM     16  O   UNL     1       0.533   1.363  20.385  1.00  0.00    -0.550 OA
ATOM     17  O   UNL     1       0.388  -0.885  19.969  1.00  0.00    -0.550 OA
ENDBRANCH  14  15
ENDBRANCH  13  14
ENDBRANCH  12  13
ENDBRANCH  11  12
ENDBRANCH  10  11
ENDBRANCH   9  10
ENDBRANCH   8   9
ENDBRANCH   7   8
ENDBRANCH   6   7
ENDBRANCH   5   6
ENDBRANCH   4   5
ENDBRANCH   3   4
ENDBRANCH   2   3
ENDBRANCH   1   2
BRANCH   1  18
ATOM     18  C   UNL     1       5.882  -1.730  16.753  1.00  0.00     0.000 C 
BRANCH  18  19
ATOM     19  C   UNL     1       5.895  -2.243  18.205  1.00  0.00     0.000 C 
BRANCH  19  20
ATOM     20  C   UNL     1       6.979  -3.307  18.458  1.00  0.00     0.000 C 
BRANCH  20  21
ATOM     21  C   UNL     1       7.881  -3.520  17.228  1.00  0.00     0.000 C 
BRANCH  21  22
ATOM     22  C   UNL     1       8.778  -4.777  17.311  1.00  0.00     0.000 C 
BRANCH  22  23
ATOM     23  C   UNL     1       8.422  -5.774  18.437  1.00  0.00     0.000 C 
BRANCH  23  24
ATOM     24  C   UNL     1       9.597  -6.165  19.360  1.00  0.00    -0.000 C 
BRANCH  24  25
ATOM     25  C   UNL     1      10.705  -5.102  19.486  1.00  0.00    -0.000 C 
BRANCH  25  26
ATOM     26  C   UNL     1      10.489  -4.159  20.684  1.00  0.00    -0.000 C 
BRANCH  26  27
ATOM     27  C   UNL     1      10.200  -2.709  20.263  1.00  0.00    -0.000 C 
BRANCH  27  28
ATOM     28  C   UNL     1       9.119  -2.035  21.128  1.00  0.00    -0.000 C 
BRANCH  28  29
ATOM     29  C   UNL     1       8.696  -0.663  20.572  1.00  0.00    -0.000 C 
BRANCH  29  30
ATOM     30  C   UNL     1       9.087  -0.486  19.094  1.00  0.00    -0.000 C 
BRANCH  30  31
ATOM     31  C   UNL     1       8.338   0.676  18.423  1.00  0.00    -0.003 C 
ATOM     32  C   UNL     1       7.040   1.043  19.146  1.00  0.00     0.004 C 
ENDBRANCH  30  31
ENDBRANCH  29  30
ENDBRANCH  28  29
ENDBRANCH  27  28
ENDBRANCH  26  27
ENDBRANCH  25  26
ENDBRANCH  24  25
ENDBRANCH  23  24
ENDBRANCH  22  23
ENDBRANCH  21  22
ENDBRANCH  20  21
ENDBRANCH  19  20
ENDBRANCH  18  19
ENDBRANCH   1  18
TORSDOF 28
ENDMDL
