MODEL 1
REMARK VINA RESULT:    -4.254      0.000      0.000
REMARK INTER + INTRA:          -6.081
REMARK INTER:                  -5.249
REMARK INTRA:                  -0.832
REMARK UNBOUND:                -0.832
REMARK SMILES CCCCCc1ccccc1
REMARK SMILES IDX 4 1 3 2 2 3 1 4 5 5 6 6 7 7 11 8 8 9 10 10 9 11
REMARK H PARENT
REMARK Flexibility Score: inf
ROOT
ATOM      1  C   UNL     1      11.153  57.481 132.601  1.00  0.00     0.005 C 
ENDROOT
BRANCH   1   2
ATOM      2  C   UNL     1      10.293  56.642 133.551  1.00  0.00     0.000 C 
BRANCH   2   3
ATOM      3  C   UNL     1      10.303  57.230 134.967  1.00  0.00    -0.003 C 
ATOM      4  C   UNL     1       8.891  57.580 135.429  1.00  0.00     0.004 C 
ENDBRANCH   2   3
ENDBRANCH   1   2
BRANCH   1   5
ATOM      5  C   UNL     1      10.291  58.155 131.528  1.00  0.00     0.035 C 
BRANCH   5   6
ATOM      6  C   UNL     1       9.390  59.190 132.145  1.00  0.00    -0.048 A 
ATOM      7  C   UNL     1       9.932  60.358 132.707  1.00  0.00     0.004 A 
ATOM      8  C   UNL     1       7.995  59.024 132.115  1.00  0.00     0.004 A 
ATOM      9  C   UNL     1       9.091  61.334 133.252  1.00  0.00     0.000 A 
ATOM     10  C   UNL     1       7.157  60.002 132.661  1.00  0.00     0.000 A 
ATOM     11  C   UNL     1       7.705  61.156 133.230  1.00  0.00     0.000 A 
ENDBRANCH   5   6
ENDBRANCH   1   5
TORSDOF 4
ENDMDL
MODEL 2
REMARK VINA RESULT:    -4.225      3.661      6.305
REMARK INTER + INTRA:          -6.045
REMARK INTER:                  -5.220
REMARK INTRA:                  -0.826
REMARK UNBOUND:                -0.832
REMARK SMILES CCCCCc1ccccc1
REMARK SMILES IDX 4 1 3 2 2 3 1 4 5 5 6 6 7 7 11 8 8 9 10 10 9 11
REMARK H PARENT
REMARK Flexibility Score: inf
ROOT
ATOM      1  C   UNL     1       2.403  61.187 132.112  1.00  0.00     0.005 C 
ENDROOT
BRANCH   1   2
ATOM      2  C   UNL     1       3.215  62.100 133.036  1.00  0.00     0.000 C 
BRANCH   2   3
ATOM      3  C   UNL     1       3.159  61.605 134.486  1.00  0.00    -0.003 C 
ATOM      4  C   UNL     1       4.561  61.424 135.061  1.00  0.00     0.004 C 
ENDBRANCH   2   3
ENDBRANCH   1   2
BRANCH   1   5
ATOM      5  C   UNL     1       3.319  60.415 131.155  1.00  0.00     0.035 C 
BRANCH   5   6
ATOM      6  C   UNL     1       4.208  59.472 131.918  1.00  0.00    -0.048 A 
ATOM      7  C   UNL     1       5.591  59.707 131.996  1.00  0.00     0.004 A 
ATOM      8  C   UNL     1       3.657  58.379 132.608  1.00  0.00     0.004 A 
ATOM      9  C   UNL     1       6.412  58.848 132.733  1.00  0.00     0.000 A 
ATOM     10  C   UNL     1       4.481  57.522 133.344  1.00  0.00     0.000 A 
ATOM     11  C   UNL     1       5.858  57.755 133.405  1.00  0.00     0.000 A 
ENDBRANCH   5   6
ENDBRANCH   1   5
TORSDOF 4
ENDMDL
MODEL 3
REMARK VINA RESULT:    -4.096      3.597      5.241
REMARK INTER + INTRA:          -5.886
REMARK INTER:                  -5.004
REMARK INTRA:                  -0.882
REMARK UNBOUND:                -0.832
REMARK SMILES CCCCCc1ccccc1
REMARK SMILES IDX 4 1 3 2 2 3 1 4 5 5 6 6 7 7 11 8 8 9 10 10 9 11
REMARK H PARENT
REMARK Flexibility Score: inf
ROOT
ATOM      1  C   UNL     1       6.348  58.458 133.438  1.00  0.00     0.005 C 
ENDROOT
BRANCH   1   2
ATOM      2  C   UNL     1       5.198  57.448 133.361  1.00  0.00     0.000 C 
BRANCH   2   3
ATOM      3  C   UNL     1       4.263  57.586 134.568  1.00  0.00    -0.003 C 
ATOM      4  C   UNL     1       2.839  57.911 134.127  1.00  0.00     0.004 C 
ENDBRANCH   2   3
ENDBRANCH   1   2
BRANCH   1   5
ATOM      5  C   UNL     1       6.311  59.427 132.250  1.00  0.00     0.035 C 
BRANCH   5   6
ATOM      6  C   UNL     1       5.055  60.254 132.281  1.00  0.00    -0.048 A 
ATOM      7  C   UNL     1       4.073  60.090 131.289  1.00  0.00     0.004 A 
ATOM      8  C   UNL     1       4.825  61.157 133.333  1.00  0.00     0.004 A 
ATOM      9  C   UNL     1       2.891  60.836 131.337  1.00  0.00     0.000 A 
ATOM     10  C   UNL     1       3.642  61.902 133.377  1.00  0.00     0.000 A 
ATOM     11  C   UNL     1       2.676  61.742 132.379  1.00  0.00     0.000 A 
ENDBRANCH   5   6
ENDBRANCH   1   5
TORSDOF 4
ENDMDL
MODEL 4
REMARK VINA RESULT:    -4.062      1.081      3.938
REMARK INTER + INTRA:          -5.844
REMARK INTER:                  -4.974
REMARK INTRA:                  -0.870
REMARK UNBOUND:                -0.832
REMARK SMILES CCCCCc1ccccc1
REMARK SMILES IDX 4 1 3 2 2 3 1 4 5 5 6 6 7 7 11 8 8 9 10 10 9 11
REMARK H PARENT
REMARK Flexibility Score: inf
ROOT
ATOM      1  C   UNL     1       7.230  60.450 133.302  1.00  0.00     0.005 C 
ENDROOT
BRANCH   1   2
ATOM      2  C   UNL     1       8.429  61.399 133.202  1.00  0.00     0.000 C 
BRANCH   2   3
ATOM      3  C   UNL     1       9.227  61.416 134.511  1.00  0.00    -0.003 C 
ATOM      4  C   UNL     1      10.658  60.934 134.289  1.00  0.00     0.004 C 
ENDBRANCH   2   3
ENDBRANCH   1   2
BRANCH   1   5
ATOM      5  C   UNL     1       7.323  59.332 132.258  1.00  0.00     0.035 C 
BRANCH   5   6
ATOM      6  C   UNL     1       8.515  58.454 132.528  1.00  0.00    -0.048 A 
ATOM      7  C   UNL     1       9.619  58.470 131.659  1.00  0.00     0.004 A 
ATOM      8  C   UNL     1       8.559  57.653 133.681  1.00  0.00     0.004 A 
ATOM      9  C   UNL     1      10.740  57.678 131.929  1.00  0.00     0.000 A 
ATOM     10  C   UNL     1       9.681  56.862 133.948  1.00  0.00     0.000 A 
ATOM     11  C   UNL     1      10.770  56.873 133.071  1.00  0.00     0.000 A 
ENDBRANCH   5   6
ENDBRANCH   1   5
TORSDOF 4
ENDMDL
MODEL 5
REMARK VINA RESULT:    -4.046      4.367      6.212
REMARK INTER + INTRA:          -5.825
REMARK INTER:                  -4.924
REMARK INTRA:                  -0.901
REMARK UNBOUND:                -0.832
REMARK SMILES CCCCCc1ccccc1
REMARK SMILES IDX 4 1 3 2 2 3 1 4 5 5 6 6 7 7 11 8 8 9 10 10 9 11
REMARK H PARENT
REMARK Flexibility Score: inf
ROOT
ATOM      1  C   UNL     1       3.495  57.532 134.524  1.00  0.00     0.005 C 
ENDROOT
BRANCH   1   2
ATOM      2  C   UNL     1       4.422  57.255 133.336  1.00  0.00     0.000 C 
BRANCH   2   3
ATOM      3  C   UNL     1       5.801  57.888 133.554  1.00  0.00    -0.003 C 
ATOM      4  C   UNL     1       6.024  59.063 132.605  1.00  0.00     0.004 C 
ENDBRANCH   2   3
ENDBRANCH   1   2
BRANCH   1   5
ATOM      5  C   UNL     1       2.202  58.216 134.067  1.00  0.00     0.035 C 
BRANCH   5   6
ATOM      6  C   UNL     1       2.485  59.610 133.577  1.00  0.00    -0.048 A 
ATOM      7  C   UNL     1       3.110  60.545 134.420  1.00  0.00     0.004 A 
ATOM      8  C   UNL     1       2.180  59.974 132.255  1.00  0.00     0.004 A 
ATOM      9  C   UNL     1       3.403  61.831 133.954  1.00  0.00     0.000 A 
ATOM     10  C   UNL     1       2.473  61.261 131.792  1.00  0.00     0.000 A 
ATOM     11  C   UNL     1       3.083  62.189 132.641  1.00  0.00     0.000 A 
ENDBRANCH   5   6
ENDBRANCH   1   5
TORSDOF 4
ENDMDL
MODEL 6
REMARK VINA RESULT:    -3.978      2.157      4.812
REMARK INTER + INTRA:          -5.740
REMARK INTER:                  -5.394
REMARK INTRA:                  -0.346
REMARK UNBOUND:                -0.832
REMARK SMILES CCCCCc1ccccc1
REMARK SMILES IDX 4 1 3 2 2 3 1 4 5 5 6 6 7 7 11 8 8 9 10 10 9 11
REMARK H PARENT
REMARK Flexibility Score: inf
ROOT
ATOM      1  C   UNL     1       5.953  57.512 133.319  1.00  0.00     0.005 C 
ENDROOT
BRANCH   1   2
ATOM      2  C   UNL     1       4.495  57.918 133.085  1.00  0.00     0.000 C 
BRANCH   2   3
ATOM      3  C   UNL     1       4.407  59.320 132.470  1.00  0.00    -0.003 C 
ATOM      4  C   UNL     1       3.231  59.426 131.503  1.00  0.00     0.004 C 
ENDBRANCH   2   3
ENDBRANCH   1   2
BRANCH   1   5
ATOM      5  C   UNL     1       6.907  58.666 132.993  1.00  0.00     0.035 C 
BRANCH   5   6
ATOM      6  C   UNL     1       8.315  58.160 132.830  1.00  0.00    -0.048 A 
ATOM      7  C   UNL     1       8.807  57.150 133.673  1.00  0.00     0.004 A 
ATOM      8  C   UNL     1       9.130  58.652 131.797  1.00  0.00     0.004 A 
ATOM      9  C   UNL     1      10.105  56.657 133.500  1.00  0.00     0.000 A 
ATOM     10  C   UNL     1      10.427  58.157 131.626  1.00  0.00     0.000 A 
ATOM     11  C   UNL     1      10.914  57.161 132.478  1.00  0.00     0.000 A 
ENDBRANCH   5   6
ENDBRANCH   1   5
TORSDOF 4
ENDMDL
MODEL 7
REMARK VINA RESULT:    -3.975      2.853      4.835
REMARK INTER + INTRA:          -5.737
REMARK INTER:                  -5.406
REMARK INTRA:                  -0.331
REMARK UNBOUND:                -0.832
REMARK SMILES CCCCCc1ccccc1
REMARK SMILES IDX 4 1 3 2 2 3 1 4 5 5 6 6 7 7 11 8 8 9 10 10 9 11
REMARK H PARENT
REMARK Flexibility Score: inf
ROOT
ATOM      1  C   UNL     1       7.449  60.909 133.009  1.00  0.00     0.005 C 
ENDROOT
BRANCH   1   2
ATOM      2  C   UNL     1       8.875  60.348 133.019  1.00  0.00     0.000 C 
BRANCH   2   3
ATOM      3  C   UNL     1       8.979  59.095 132.142  1.00  0.00    -0.003 C 
ATOM      4  C   UNL     1      10.341  59.013 131.457  1.00  0.00     0.004 C 
ENDBRANCH   2   3
ENDBRANCH   1   2
BRANCH   1   5
ATOM      5  C   UNL     1       6.437  59.834 132.597  1.00  0.00     0.035 C 
BRANCH   5   6
ATOM      6  C   UNL     1       5.077  60.442 132.383  1.00  0.00    -0.048 A 
ATOM      7  C   UNL     1       4.193  59.888 131.443  1.00  0.00     0.004 A 
ATOM      8  C   UNL     1       4.658  61.533 133.162  1.00  0.00     0.004 A 
ATOM      9  C   UNL     1       2.917  60.433 131.267  1.00  0.00     0.000 A 
ATOM     10  C   UNL     1       3.381  62.077 132.984  1.00  0.00     0.000 A 
ATOM     11  C   UNL     1       2.512  61.528 132.036  1.00  0.00     0.000 A 
ENDBRANCH   5   6
ENDBRANCH   1   5
TORSDOF 4
ENDMDL
MODEL 8
REMARK VINA RESULT:    -3.929      6.490      8.788
REMARK INTER + INTRA:          -5.680
REMARK INTER:                  -5.241
REMARK INTRA:                  -0.439
REMARK UNBOUND:                -0.832
REMARK SMILES CCCCCc1ccccc1
REMARK SMILES IDX 4 1 3 2 2 3 1 4 5 5 6 6 7 7 11 8 8 9 10 10 9 11
REMARK H PARENT
REMARK Flexibility Score: inf
ROOT
ATOM      1  C   UNL     1       2.143  61.364 132.079  1.00  0.00     0.005 C 
ENDROOT
BRANCH   1   2
ATOM      2  C   UNL     1       3.348  62.135 132.627  1.00  0.00     0.000 C 
BRANCH   2   3
ATOM      3  C   UNL     1       4.186  61.255 133.561  1.00  0.00    -0.003 C 
ATOM      4  C   UNL     1       5.588  61.034 133.000  1.00  0.00     0.004 C 
ENDBRANCH   2   3
ENDBRANCH   1   2
BRANCH   1   5
ATOM      5  C   UNL     1       2.035  59.978 132.726  1.00  0.00     0.035 C 
BRANCH   5   6
ATOM      6  C   UNL     1       0.730  59.838 133.461  1.00  0.00    -0.048 A 
ATOM      7  C   UNL     1       0.661  59.086 134.646  1.00  0.00     0.004 A 
ATOM      8  C   UNL     1      -0.418  60.505 133.002  1.00  0.00     0.004 A 
ATOM      9  C   UNL     1      -0.545  58.983 135.347  1.00  0.00     0.000 A 
ATOM     10  C   UNL     1      -1.623  60.399 133.705  1.00  0.00     0.000 A 
ATOM     11  C   UNL     1      -1.686  59.638 134.876  1.00  0.00     0.000 A 
ENDBRANCH   5   6
ENDBRANCH   1   5
TORSDOF 4
ENDMDL
MODEL 9
REMARK VINA RESULT:    -3.895      3.046      4.526
REMARK INTER + INTRA:          -5.638
REMARK INTER:                  -5.374
REMARK INTRA:                  -0.264
REMARK UNBOUND:                -0.832
REMARK SMILES CCCCCc1ccccc1
REMARK SMILES IDX 4 1 3 2 2 3 1 4 5 5 6 6 7 7 11 8 8 9 10 10 9 11
REMARK H PARENT
REMARK Flexibility Score: inf
ROOT
ATOM      1  C   UNL     1       6.989  59.369 132.254  1.00  0.00     0.005 C 
ENDROOT
BRANCH   1   2
ATOM      2  C   UNL     1       8.321  58.962 132.894  1.00  0.00     0.000 C 
BRANCH   2   3
ATOM      3  C   UNL     1       8.275  57.509 133.381  1.00  0.00    -0.003 C 
ATOM      4  C   UNL     1       9.457  57.197 134.295  1.00  0.00     0.004 C 
ENDBRANCH   2   3
ENDBRANCH   1   2
BRANCH   1   5
ATOM      5  C   UNL     1       6.372  60.569 132.981  1.00  0.00     0.035 C 
BRANCH   5   6
ATOM      6  C   UNL     1       4.918  60.715 132.621  1.00  0.00    -0.048 A 
ATOM      7  C   UNL     1       4.200  61.855 133.020  1.00  0.00     0.004 A 
ATOM      8  C   UNL     1       4.280  59.741 131.834  1.00  0.00     0.004 A 
ATOM      9  C   UNL     1       2.857  62.005 132.657  1.00  0.00     0.000 A 
ATOM     10  C   UNL     1       2.938  59.894 131.474  1.00  0.00     0.000 A 
ATOM     11  C   UNL     1       2.226  61.025 131.886  1.00  0.00     0.000 A 
ENDBRANCH   5   6
ENDBRANCH   1   5
TORSDOF 4
ENDMDL
