MODEL 1
REMARK VINA RESULT:    -6.846      0.000      0.000
REMARK INTER + INTRA:         -15.464
REMARK INTER:                 -13.050
REMARK INTRA:                  -2.414
REMARK UNBOUND:                -2.414
REMARK SMILES C[C@H]1O[C@H](O[C@@H]2[C@@H](O)[C@@H](OCCc3ccc(O)c(O)c3)O[C@@H](CO)[C@H]2OC(=O)C=Cc2ccc(O)c(O)c2)[C@@H](O)[C@H](O)[C@H]1O
REMARK SMILES IDX 6 1 7 2 9 3 21 4 22 5 25 6 5 7 4 8 1 9 2 10 43 11 3 12 41 13
REMARK SMILES IDX 39 14 44 15 42 17 40 19 8 21 26 23 27 24 28 25 29 26 30 27
REMARK SMILES IDX 31 28 38 29 32 30 36 31 33 32 34 33 37 34 35 36 10 38 11 39
REMARK SMILES IDX 12 40 13 41 20 42 14 43 18 44 15 45 16 46 19 47 17 49 23 51
REMARK SMILES IDX 24 52
REMARK H PARENT 44 16 42 18 40 20 8 22 37 35 35 37 19 48 17 50 24 53
REMARK Flexibility Score: inf
ROOT
ATOM      1  C   UNL     1      14.743  25.254  45.998  1.00  0.00     0.199 C 
ATOM      2  C   UNL     1      13.733  24.674  44.991  1.00  0.00     0.203 C 
ATOM      3  C   UNL     1      12.668  23.819  45.709  1.00  0.00     0.282 C 
ATOM      4  O   UNL     1      11.995  24.549  46.726  1.00  0.00    -0.340 OA
ATOM      5  C   UNL     1      12.856  25.126  47.705  1.00  0.00     0.190 C 
ATOM      6  C   UNL     1      13.968  26.009  47.081  1.00  0.00     0.240 C 
ENDROOT
BRANCH   1   7
ATOM      7  O   UNL     1      15.596  26.184  45.348  1.00  0.00    -0.340 OA
BRANCH   7   8
ATOM      8  C   UNL     1      16.859  25.636  44.985  1.00  0.00     0.282 C 
ATOM      9  C   UNL     1      16.494  26.010  41.345  1.00  0.00     0.041 C 
ATOM     10  C   UNL     1      16.662  26.459  42.798  1.00  0.00     0.150 C 
ATOM     11  C   UNL     1      17.827  27.469  42.942  1.00  0.00     0.174 C 
ATOM     12  O   UNL     1      16.884  25.315  43.604  1.00  0.00    -0.344 OA
ATOM     13  C   UNL     1      18.052  27.846  44.426  1.00  0.00     0.179 C 
ATOM     14  C   UNL     1      17.994  26.618  45.367  1.00  0.00     0.202 C 
BRANCH  11  15
ATOM     15  O   UNL     1      19.013  26.976  42.367  1.00  0.00    -0.388 OA
ATOM     16  H   UNL     1      19.771  27.257  42.940  1.00  0.00     0.211 HD
ENDBRANCH  11  15
BRANCH  13  17
ATOM     17  O   UNL     1      17.155  28.847  44.840  1.00  0.00    -0.387 OA
ATOM     18  H   UNL     1      17.106  29.537  44.133  1.00  0.00     0.211 HD
ENDBRANCH  13  17
BRANCH  14  19
ATOM     19  O   UNL     1      19.230  25.952  45.329  1.00  0.00    -0.385 OA
ATOM     20  H   UNL     1      19.493  25.877  44.374  1.00  0.00     0.211 HD
ENDBRANCH  14  19
ENDBRANCH   7   8
ENDBRANCH   1   7
BRANCH   2  21
ATOM     21  O   UNL     1      14.374  23.932  43.982  1.00  0.00    -0.385 OA
ATOM     22  H   UNL     1      14.356  22.976  44.247  1.00  0.00     0.211 HD
ENDBRANCH   2  21
BRANCH   6  23
ATOM     23  O   UNL     1      14.887  26.464  48.075  1.00  0.00    -0.453 OA
BRANCH  23  24
ATOM     24  C   UNL     1      14.775  27.696  48.733  1.00  0.00     0.331 C 
ATOM     25  O   UNL     1      13.848  28.498  48.436  1.00  0.00    -0.247 OA
BRANCH  24  26
ATOM     26  C   UNL     1      15.743  28.074  49.772  1.00  0.00     0.094 C 
ATOM     27  C   UNL     1      15.373  28.735  50.878  1.00  0.00     0.016 C 
BRANCH  27  28
ATOM     28  C   UNL     1      16.319  29.152  51.942  1.00  0.00    -0.021 A 
ATOM     29  C   UNL     1      16.854  28.167  52.790  1.00  0.00     0.058 A 
ATOM     30  C   UNL     1      16.723  30.491  52.114  1.00  0.00     0.012 A 
ATOM     31  C   UNL     1      17.751  28.508  53.808  1.00  0.00     0.157 A 
ATOM     32  C   UNL     1      17.620  30.833  53.129  1.00  0.00     0.051 A 
ATOM     33  C   UNL     1      18.134  29.848  53.983  1.00  0.00     0.157 A 
BRANCH  31  34
ATOM     34  O   UNL     1      18.252  27.503  54.636  1.00  0.00    -0.504 OA
ATOM     35  H   UNL     1      18.551  27.688  55.586  1.00  0.00     0.293 HD
ENDBRANCH  31  34
BRANCH  33  36
ATOM     36  O   UNL     1      19.026  30.196  54.997  1.00  0.00    -0.504 OA
ATOM     37  H   UNL     1      19.899  30.671  54.798  1.00  0.00     0.293 HD
ENDBRANCH  33  36
ENDBRANCH  27  28
ENDBRANCH  24  26
ENDBRANCH  23  24
ENDBRANCH   6  23
BRANCH   3  38
ATOM     38  O   UNL     1      13.250  22.642  46.253  1.00  0.00    -0.350 OA
BRANCH  38  39
ATOM     39  C   UNL     1      12.510  21.479  45.935  1.00  0.00     0.168 C 
BRANCH  39  40
ATOM     40  C   UNL     1      12.902  20.945  44.552  1.00  0.00     0.064 C 
BRANCH  40  41
ATOM     41  C   UNL     1      14.204  20.193  44.629  1.00  0.00    -0.042 A 
ATOM     42  C   UNL     1      15.366  20.731  44.053  1.00  0.00     0.054 A 
ATOM     43  C   UNL     1      14.251  18.919  45.214  1.00  0.00     0.008 A 
ATOM     44  C   UNL     1      16.569  20.011  44.075  1.00  0.00     0.157 A 
ATOM     45  C   UNL     1      15.451  18.202  45.243  1.00  0.00     0.050 A 
ATOM     46  C   UNL     1      16.611  18.740  44.675  1.00  0.00     0.157 A 
BRANCH  44  47
ATOM     47  O   UNL     1      17.719  20.551  43.502  1.00  0.00    -0.504 OA
ATOM     48  H   UNL     1      17.686  21.066  42.629  1.00  0.00     0.293 HD
ENDBRANCH  44  47
BRANCH  46  49
ATOM     49  O   UNL     1      17.791  18.000  44.716  1.00  0.00    -0.504 OA
ATOM     50  H   UNL     1      18.702  18.441  44.687  1.00  0.00     0.293 HD
ENDBRANCH  46  49
ENDBRANCH  40  41
ENDBRANCH  39  40
ENDBRANCH  38  39
ENDBRANCH   3  38
BRANCH   5  51
ATOM     51  C   UNL     1      13.370  24.096  48.733  1.00  0.00     0.192 C 
BRANCH  51  52
ATOM     52  O   UNL     1      13.525  24.707  49.984  1.00  0.00    -0.394 OA
ATOM     53  H   UNL     1      13.888  24.010  50.591  1.00  0.00     0.210 HD
ENDBRANCH  51  52
ENDBRANCH   5  51
TORSDOF 20
ENDMDL
MODEL 2
REMARK VINA RESULT:    -6.808      2.509      7.367
REMARK INTER + INTRA:         -15.391
REMARK INTER:                 -13.029
REMARK INTRA:                  -2.361
REMARK UNBOUND:                -2.414
REMARK SMILES C[C@H]1O[C@H](O[C@@H]2[C@@H](O)[C@@H](OCCc3ccc(O)c(O)c3)O[C@@H](CO)[C@H]2OC(=O)C=Cc2ccc(O)c(O)c2)[C@@H](O)[C@H](O)[C@H]1O
REMARK SMILES IDX 6 1 7 2 9 3 21 4 22 5 25 6 5 7 4 8 1 9 2 10 43 11 3 12 41 13
REMARK SMILES IDX 39 14 44 15 42 17 40 19 8 21 26 23 27 24 28 25 29 26 30 27
REMARK SMILES IDX 31 28 38 29 32 30 36 31 33 32 34 33 37 34 35 36 10 38 11 39
REMARK SMILES IDX 12 40 13 41 20 42 14 43 18 44 15 45 16 46 19 47 17 49 23 51
REMARK SMILES IDX 24 52
REMARK H PARENT 44 16 42 18 40 20 8 22 37 35 35 37 19 48 17 50 24 53
REMARK Flexibility Score: inf
ROOT
ATOM      1  C   UNL     1      15.586  22.816  43.670  1.00  0.00     0.199 C 
ATOM      2  C   UNL     1      17.073  22.790  43.276  1.00  0.00     0.203 C 
ATOM      3  C   UNL     1      17.402  23.928  42.288  1.00  0.00     0.282 C 
ATOM      4  O   UNL     1      17.046  25.203  42.807  1.00  0.00    -0.340 OA
ATOM      5  C   UNL     1      15.681  25.319  43.201  1.00  0.00     0.190 C 
ATOM      6  C   UNL     1      15.249  24.214  44.199  1.00  0.00     0.240 C 
ENDROOT
BRANCH   1   7
ATOM      7  O   UNL     1      15.345  21.888  44.716  1.00  0.00    -0.340 OA
BRANCH   7   8
ATOM      8  C   UNL     1      14.467  20.830  44.343  1.00  0.00     0.282 C 
ATOM      9  C   UNL     1      16.959  18.127  44.396  1.00  0.00     0.041 C 
ATOM     10  C   UNL     1      16.046  19.212  44.968  1.00  0.00     0.150 C 
ATOM     11  C   UNL     1      15.206  18.673  46.151  1.00  0.00     0.174 C 
ATOM     12  O   UNL     1      15.207  19.692  43.932  1.00  0.00    -0.344 OA
ATOM     13  C   UNL     1      14.217  19.748  46.664  1.00  0.00     0.179 C 
ATOM     14  C   UNL     1      13.507  20.499  45.512  1.00  0.00     0.202 C 
BRANCH  11  15
ATOM     15  O   UNL     1      14.524  17.491  45.806  1.00  0.00    -0.388 OA
ATOM     16  H   UNL     1      15.190  16.841  45.466  1.00  0.00     0.211 HD
ENDBRANCH  11  15
BRANCH  13  17
ATOM     17  O   UNL     1      14.850  20.645  47.543  1.00  0.00    -0.387 OA
ATOM     18  H   UNL     1      15.785  20.769  47.246  1.00  0.00     0.211 HD
ENDBRANCH  13  17
BRANCH  14  19
ATOM     19  O   UNL     1      12.440  19.716  45.042  1.00  0.00    -0.385 OA
ATOM     20  H   UNL     1      12.646  18.771  45.275  1.00  0.00     0.211 HD
ENDBRANCH  14  19
ENDBRANCH   7   8
ENDBRANCH   1   7
BRANCH   2  21
ATOM     21  O   UNL     1      17.447  21.542  42.744  1.00  0.00    -0.385 OA
ATOM     22  H   UNL     1      18.412  21.406  42.933  1.00  0.00     0.211 HD
ENDBRANCH   2  21
BRANCH   6  23
ATOM     23  O   UNL     1      13.849  24.280  44.472  1.00  0.00    -0.453 OA
BRANCH  23  24
ATOM     24  C   UNL     1      13.298  25.001  45.539  1.00  0.00     0.331 C 
ATOM     25  O   UNL     1      12.093  25.370  45.509  1.00  0.00    -0.247 OA
BRANCH  24  26
ATOM     26  C   UNL     1      14.122  25.345  46.707  1.00  0.00     0.094 C 
ATOM     27  C   UNL     1      13.751  26.291  47.581  1.00  0.00     0.016 C 
BRANCH  27  28
ATOM     28  C   UNL     1      14.560  26.683  48.761  1.00  0.00    -0.021 A 
ATOM     29  C   UNL     1      15.157  27.955  48.776  1.00  0.00     0.058 A 
ATOM     30  C   UNL     1      14.728  25.840  49.878  1.00  0.00     0.012 A 
ATOM     31  C   UNL     1      15.928  28.373  49.866  1.00  0.00     0.157 A 
ATOM     32  C   UNL     1      15.496  26.257  50.968  1.00  0.00     0.051 A 
ATOM     33  C   UNL     1      16.103  27.519  50.967  1.00  0.00     0.157 A 
BRANCH  31  34
ATOM     34  O   UNL     1      16.512  29.640  49.838  1.00  0.00    -0.504 OA
ATOM     35  H   UNL     1      16.876  30.083  50.673  1.00  0.00     0.293 HD
ENDBRANCH  31  34
BRANCH  33  36
ATOM     36  O   UNL     1      16.873  27.928  52.056  1.00  0.00    -0.504 OA
ATOM     37  H   UNL     1      16.509  27.908  53.002  1.00  0.00     0.293 HD
ENDBRANCH  33  36
ENDBRANCH  27  28
ENDBRANCH  24  26
ENDBRANCH  23  24
ENDBRANCH   6  23
BRANCH   3  38
ATOM     38  O   UNL     1      16.763  23.711  41.037  1.00  0.00    -0.350 OA
BRANCH  38  39
ATOM     39  C   UNL     1      17.551  24.147  39.946  1.00  0.00     0.168 C 
BRANCH  39  40
ATOM     40  C   UNL     1      19.021  24.292  40.361  1.00  0.00     0.064 C 
BRANCH  40  41
ATOM     41  C   UNL     1      19.541  25.653  39.985  1.00  0.00    -0.042 A 
ATOM     42  C   UNL     1      20.225  26.434  40.930  1.00  0.00     0.054 A 
ATOM     43  C   UNL     1      19.285  26.180  38.710  1.00  0.00     0.008 A 
ATOM     44  C   UNL     1      20.664  27.725  40.602  1.00  0.00     0.157 A 
ATOM     45  C   UNL     1      19.728  27.465  38.379  1.00  0.00     0.050 A 
ATOM     46  C   UNL     1      20.415  28.241  39.318  1.00  0.00     0.157 A 
BRANCH  44  47
ATOM     47  O   UNL     1      21.343  28.495  41.545  1.00  0.00    -0.504 OA
ATOM     48  H   UNL     1      21.193  28.370  42.539  1.00  0.00     0.293 HD
ENDBRANCH  44  47
BRANCH  46  49
ATOM     49  O   UNL     1      20.840  29.519  38.958  1.00  0.00    -0.504 OA
ATOM     50  H   UNL     1      21.600  29.986  39.440  1.00  0.00     0.293 HD
ENDBRANCH  46  49
ENDBRANCH  40  41
ENDBRANCH  39  40
ENDBRANCH  38  39
ENDBRANCH   3  38
BRANCH   5  51
ATOM     51  C   UNL     1      14.724  25.497  42.003  1.00  0.00     0.192 C 
BRANCH  51  52
ATOM     52  O   UNL     1      15.279  26.393  41.080  1.00  0.00    -0.394 OA
ATOM     53  H   UNL     1      15.354  25.897  40.222  1.00  0.00     0.210 HD
ENDBRANCH  51  52
ENDBRANCH   5  51
TORSDOF 20
ENDMDL
MODEL 3
REMARK VINA RESULT:    -6.789      3.111      6.931
REMARK INTER + INTRA:         -15.354
REMARK INTER:                 -13.319
REMARK INTRA:                  -2.035
REMARK UNBOUND:                -2.414
REMARK SMILES C[C@H]1O[C@H](O[C@@H]2[C@@H](O)[C@@H](OCCc3ccc(O)c(O)c3)O[C@@H](CO)[C@H]2OC(=O)C=Cc2ccc(O)c(O)c2)[C@@H](O)[C@H](O)[C@H]1O
REMARK SMILES IDX 6 1 7 2 9 3 21 4 22 5 25 6 5 7 4 8 1 9 2 10 43 11 3 12 41 13
REMARK SMILES IDX 39 14 44 15 42 17 40 19 8 21 26 23 27 24 28 25 29 26 30 27
REMARK SMILES IDX 31 28 38 29 32 30 36 31 33 32 34 33 37 34 35 36 10 38 11 39
REMARK SMILES IDX 12 40 13 41 20 42 14 43 18 44 15 45 16 46 19 47 17 49 23 51
REMARK SMILES IDX 24 52
REMARK H PARENT 44 16 42 18 40 20 8 22 37 35 35 37 19 48 17 50 24 53
REMARK Flexibility Score: inf
ROOT
ATOM      1  C   UNL     1      15.975  23.329  42.904  1.00  0.00     0.199 C 
ATOM      2  C   UNL     1      17.463  23.573  42.596  1.00  0.00     0.203 C 
ATOM      3  C   UNL     1      17.645  24.805  41.687  1.00  0.00     0.282 C 
ATOM      4  O   UNL     1      17.053  25.971  42.245  1.00  0.00    -0.340 OA
ATOM      5  C   UNL     1      15.670  25.836  42.564  1.00  0.00     0.190 C 
ATOM      6  C   UNL     1      15.381  24.618  43.479  1.00  0.00     0.240 C 
ENDROOT
BRANCH   1   7
ATOM      7  O   UNL     1      15.842  22.314  43.887  1.00  0.00    -0.340 OA
BRANCH   7   8
ATOM      8  C   UNL     1      14.994  21.244  43.484  1.00  0.00     0.282 C 
ATOM      9  C   UNL     1      17.153  18.495  44.629  1.00  0.00     0.041 C 
ATOM     10  C   UNL     1      16.225  19.704  44.756  1.00  0.00     0.150 C 
ATOM     11  C   UNL     1      15.077  19.428  45.757  1.00  0.00     0.174 C 
ATOM     12  O   UNL     1      15.710  20.019  43.474  1.00  0.00    -0.344 OA
ATOM     13  C   UNL     1      14.089  20.619  45.811  1.00  0.00     0.179 C 
ATOM     14  C   UNL     1      13.751  21.174  44.406  1.00  0.00     0.202 C 
BRANCH  11  15
ATOM     15  O   UNL     1      14.400  18.233  45.452  1.00  0.00    -0.388 OA
ATOM     16  H   UNL     1      15.056  17.491  45.486  1.00  0.00     0.211 HD
ENDBRANCH  11  15
BRANCH  13  17
ATOM     17  O   UNL     1      14.563  21.637  46.659  1.00  0.00    -0.387 OA
ATOM     18  H   UNL     1      14.521  22.496  46.173  1.00  0.00     0.211 HD
ENDBRANCH  13  17
BRANCH  14  19
ATOM     19  O   UNL     1      12.769  20.362  43.815  1.00  0.00    -0.385 OA
ATOM     20  H   UNL     1      12.558  20.756  42.928  1.00  0.00     0.211 HD
ENDBRANCH  14  19
ENDBRANCH   7   8
ENDBRANCH   1   7
BRANCH   2  21
ATOM     21  O   UNL     1      18.068  22.437  42.028  1.00  0.00    -0.385 OA
ATOM     22  H   UNL     1      18.834  22.178  42.603  1.00  0.00     0.211 HD
ENDBRANCH   2  21
BRANCH   6  23
ATOM     23  O   UNL     1      13.978  24.436  43.672  1.00  0.00    -0.453 OA
BRANCH  23  24
ATOM     24  C   UNL     1      13.285  24.876  44.807  1.00  0.00     0.331 C 
ATOM     25  O   UNL     1      12.036  25.044  44.770  1.00  0.00    -0.247 OA
BRANCH  24  26
ATOM     26  C   UNL     1      14.008  25.156  46.056  1.00  0.00     0.094 C 
ATOM     27  C   UNL     1      13.606  26.108  46.909  1.00  0.00     0.016 C 
BRANCH  27  28
ATOM     28  C   UNL     1      14.315  26.436  48.170  1.00  0.00    -0.021 A 
ATOM     29  C   UNL     1      15.044  27.635  48.240  1.00  0.00     0.058 A 
ATOM     30  C   UNL     1      14.260  25.606  49.307  1.00  0.00     0.012 A 
ATOM     31  C   UNL     1      15.729  27.991  49.407  1.00  0.00     0.157 A 
ATOM     32  C   UNL     1      14.942  25.961  50.474  1.00  0.00     0.051 A 
ATOM     33  C   UNL     1      15.683  27.149  50.530  1.00  0.00     0.157 A 
BRANCH  31  34
ATOM     34  O   UNL     1      16.451  29.185  49.432  1.00  0.00    -0.504 OA
ATOM     35  H   UNL     1      17.276  29.302  50.008  1.00  0.00     0.293 HD
ENDBRANCH  31  34
BRANCH  33  36
ATOM     36  O   UNL     1      16.365  27.495  51.695  1.00  0.00    -0.504 OA
ATOM     37  H   UNL     1      16.017  27.238  52.612  1.00  0.00     0.293 HD
ENDBRANCH  33  36
ENDBRANCH  27  28
ENDBRANCH  24  26
ENDBRANCH  23  24
ENDBRANCH   6  23
BRANCH   3  38
ATOM     38  O   UNL     1      17.114  24.558  40.391  1.00  0.00    -0.350 OA
BRANCH  38  39
ATOM     39  C   UNL     1      17.485  25.554  39.458  1.00  0.00     0.168 C 
BRANCH  39  40
ATOM     40  C   UNL     1      18.995  25.513  39.190  1.00  0.00     0.064 C 
BRANCH  40  41
ATOM     41  C   UNL     1      19.401  24.156  38.680  1.00  0.00    -0.042 A 
ATOM     42  C   UNL     1      20.190  23.310  39.475  1.00  0.00     0.054 A 
ATOM     43  C   UNL     1      19.053  23.756  37.381  1.00  0.00     0.008 A 
ATOM     44  C   UNL     1      20.616  22.067  38.985  1.00  0.00     0.157 A 
ATOM     45  C   UNL     1      19.472  22.514  36.893  1.00  0.00     0.050 A 
ATOM     46  C   UNL     1      20.252  21.667  37.687  1.00  0.00     0.157 A 
BRANCH  44  47
ATOM     47  O   UNL     1      21.399  21.231  39.779  1.00  0.00    -0.504 OA
ATOM     48  H   UNL     1      21.440  21.341  40.786  1.00  0.00     0.293 HD
ENDBRANCH  44  47
BRANCH  46  49
ATOM     49  O   UNL     1      20.657  20.438  37.170  1.00  0.00    -0.504 OA
ATOM     50  H   UNL     1      20.883  20.317  36.189  1.00  0.00     0.293 HD
ENDBRANCH  46  49
ENDBRANCH  40  41
ENDBRANCH  39  40
ENDBRANCH  38  39
ENDBRANCH   3  38
BRANCH   5  51
ATOM     51  C   UNL     1      14.758  25.922  41.321  1.00  0.00     0.192 C 
BRANCH  51  52
ATOM     52  O   UNL     1      14.276  24.648  40.995  1.00  0.00    -0.394 OA
ATOM     53  H   UNL     1      14.884  23.999  41.437  1.00  0.00     0.210 HD
ENDBRANCH  51  52
ENDBRANCH   5  51
TORSDOF 20
ENDMDL
MODEL 4
REMARK VINA RESULT:    -6.747      5.088      7.745
REMARK INTER + INTRA:         -15.276
REMARK INTER:                 -11.904
REMARK INTRA:                  -3.371
REMARK UNBOUND:                -2.414
REMARK SMILES C[C@H]1O[C@H](O[C@@H]2[C@@H](O)[C@@H](OCCc3ccc(O)c(O)c3)O[C@@H](CO)[C@H]2OC(=O)C=Cc2ccc(O)c(O)c2)[C@@H](O)[C@H](O)[C@H]1O
REMARK SMILES IDX 6 1 7 2 9 3 21 4 22 5 25 6 5 7 4 8 1 9 2 10 43 11 3 12 41 13
REMARK SMILES IDX 39 14 44 15 42 17 40 19 8 21 26 23 27 24 28 25 29 26 30 27
REMARK SMILES IDX 31 28 38 29 32 30 36 31 33 32 34 33 37 34 35 36 10 38 11 39
REMARK SMILES IDX 12 40 13 41 20 42 14 43 18 44 15 45 16 46 19 47 17 49 23 51
REMARK SMILES IDX 24 52
REMARK H PARENT 44 16 42 18 40 20 8 22 37 35 35 37 19 48 17 50 24 53
REMARK Flexibility Score: inf
ROOT
ATOM      1  C   UNL     1      14.903  24.893  39.337  1.00  0.00     0.199 C 
ATOM      2  C   UNL     1      14.065  25.615  38.267  1.00  0.00     0.203 C 
ATOM      3  C   UNL     1      12.654  25.000  38.163  1.00  0.00     0.282 C 
ATOM      4  O   UNL     1      11.977  25.004  39.413  1.00  0.00    -0.340 OA
ATOM      5  C   UNL     1      12.684  24.356  40.468  1.00  0.00     0.190 C 
ATOM      6  C   UNL     1      14.122  24.905  40.654  1.00  0.00     0.240 C 
ENDROOT
BRANCH   1   7
ATOM      7  O   UNL     1      16.121  25.589  39.550  1.00  0.00    -0.340 OA
BRANCH   7   8
ATOM      8  C   UNL     1      17.121  25.288  38.582  1.00  0.00     0.282 C 
ATOM      9  C   UNL     1      19.724  27.528  39.899  1.00  0.00     0.041 C 
ATOM     10  C   UNL     1      18.780  26.324  39.877  1.00  0.00     0.150 C 
ATOM     11  C   UNL     1      19.540  25.009  40.176  1.00  0.00     0.174 C 
ATOM     12  O   UNL     1      18.150  26.264  38.609  1.00  0.00    -0.344 OA
ATOM     13  C   UNL     1      18.598  23.785  40.059  1.00  0.00     0.179 C 
ATOM     14  C   UNL     1      17.677  23.862  38.817  1.00  0.00     0.202 C 
BRANCH  11  15
ATOM     15  O   UNL     1      20.661  24.857  39.339  1.00  0.00    -0.388 OA
ATOM     16  H   UNL     1      21.466  25.122  39.853  1.00  0.00     0.211 HD
ENDBRANCH  11  15
BRANCH  13  17
ATOM     17  O   UNL     1      17.851  23.603  41.237  1.00  0.00    -0.387 OA
ATOM     18  H   UNL     1      17.914  24.427  41.780  1.00  0.00     0.211 HD
ENDBRANCH  13  17
BRANCH  14  19
ATOM     19  O   UNL     1      18.396  23.441  37.686  1.00  0.00    -0.385 OA
ATOM     20  H   UNL     1      18.527  22.459  37.772  1.00  0.00     0.211 HD
ENDBRANCH  14  19
ENDBRANCH   7   8
ENDBRANCH   1   7
BRANCH   2  21
ATOM     21  O   UNL     1      14.707  25.611  37.015  1.00  0.00    -0.385 OA
ATOM     22  H   UNL     1      15.039  24.691  36.846  1.00  0.00     0.211 HD
ENDBRANCH   2  21
BRANCH   6  23
ATOM     23  O   UNL     1      14.844  24.150  41.628  1.00  0.00    -0.453 OA
BRANCH  23  24
ATOM     24  C   UNL     1      14.768  24.383  43.006  1.00  0.00     0.331 C 
ATOM     25  O   UNL     1      13.949  23.744  43.721  1.00  0.00    -0.247 OA
BRANCH  24  26
ATOM     26  C   UNL     1      15.638  25.386  43.639  1.00  0.00     0.094 C 
ATOM     27  C   UNL     1      16.837  25.704  43.131  1.00  0.00     0.016 C 
BRANCH  27  28
ATOM     28  C   UNL     1      17.753  26.695  43.746  1.00  0.00    -0.021 A 
ATOM     29  C   UNL     1      17.245  27.564  44.727  1.00  0.00     0.058 A 
ATOM     30  C   UNL     1      19.118  26.778  43.406  1.00  0.00     0.012 A 
ATOM     31  C   UNL     1      18.069  28.515  45.339  1.00  0.00     0.157 A 
ATOM     32  C   UNL     1      19.943  27.726  44.017  1.00  0.00     0.051 A 
ATOM     33  C   UNL     1      19.424  28.601  44.980  1.00  0.00     0.157 A 
BRANCH  31  34
ATOM     34  O   UNL     1      17.524  29.366  46.301  1.00  0.00    -0.504 OA
ATOM     35  H   UNL     1      17.568  30.374  46.213  1.00  0.00     0.293 HD
ENDBRANCH  31  34
BRANCH  33  36
ATOM     36  O   UNL     1      20.250  29.549  45.583  1.00  0.00    -0.504 OA
ATOM     37  H   UNL     1      21.244  29.387  45.707  1.00  0.00     0.293 HD
ENDBRANCH  33  36
ENDBRANCH  27  28
ENDBRANCH  24  26
ENDBRANCH  23  24
ENDBRANCH   6  23
BRANCH   3  38
ATOM     38  O   UNL     1      12.718  23.678  37.644  1.00  0.00    -0.350 OA
BRANCH  38  39
ATOM     39  C   UNL     1      11.914  23.513  36.492  1.00  0.00     0.168 C 
BRANCH  39  40
ATOM     40  C   UNL     1      12.778  23.186  35.268  1.00  0.00     0.064 C 
BRANCH  40  41
ATOM     41  C   UNL     1      13.740  22.073  35.586  1.00  0.00    -0.042 A 
ATOM     42  C   UNL     1      15.118  22.330  35.659  1.00  0.00     0.054 A 
ATOM     43  C   UNL     1      13.275  20.759  35.742  1.00  0.00     0.008 A 
ATOM     44  C   UNL     1      16.025  21.287  35.903  1.00  0.00     0.157 A 
ATOM     45  C   UNL     1      14.175  19.719  35.991  1.00  0.00     0.050 A 
ATOM     46  C   UNL     1      15.548  19.975  36.071  1.00  0.00     0.157 A 
BRANCH  44  47
ATOM     47  O   UNL     1      17.392  21.549  35.974  1.00  0.00    -0.504 OA
ATOM     48  H   UNL     1      17.996  21.437  35.168  1.00  0.00     0.293 HD
ENDBRANCH  44  47
BRANCH  46  49
ATOM     49  O   UNL     1      16.421  18.916  36.316  1.00  0.00    -0.504 OA
ATOM     50  H   UNL     1      16.086  17.987  36.542  1.00  0.00     0.293 HD
ENDBRANCH  46  49
ENDBRANCH  40  41
ENDBRANCH  39  40
ENDBRANCH  38  39
ENDBRANCH   3  38
BRANCH   5  51
ATOM     51  C   UNL     1      12.602  22.817  40.387  1.00  0.00     0.192 C 
BRANCH  51  52
ATOM     52  O   UNL     1      12.391  22.282  41.664  1.00  0.00    -0.394 OA
ATOM     53  H   UNL     1      12.508  23.034  42.303  1.00  0.00     0.210 HD
ENDBRANCH  51  52
ENDBRANCH   5  51
TORSDOF 20
ENDMDL
MODEL 5
REMARK VINA RESULT:    -6.515      3.723      8.209
REMARK INTER + INTRA:         -14.833
REMARK INTER:                 -12.145
REMARK INTRA:                  -2.688
REMARK UNBOUND:                -2.414
REMARK SMILES C[C@H]1O[C@H](O[C@@H]2[C@@H](O)[C@@H](OCCc3ccc(O)c(O)c3)O[C@@H](CO)[C@H]2OC(=O)C=Cc2ccc(O)c(O)c2)[C@@H](O)[C@H](O)[C@H]1O
REMARK SMILES IDX 6 1 7 2 9 3 21 4 22 5 25 6 5 7 4 8 1 9 2 10 43 11 3 12 41 13
REMARK SMILES IDX 39 14 44 15 42 17 40 19 8 21 26 23 27 24 28 25 29 26 30 27
REMARK SMILES IDX 31 28 38 29 32 30 36 31 33 32 34 33 37 34 35 36 10 38 11 39
REMARK SMILES IDX 12 40 13 41 20 42 14 43 18 44 15 45 16 46 19 47 17 49 23 51
REMARK SMILES IDX 24 52
REMARK H PARENT 44 16 42 18 40 20 8 22 37 35 35 37 19 48 17 50 24 53
REMARK Flexibility Score: inf
ROOT
ATOM      1  C   UNL     1      16.213  26.313  52.577  1.00  0.00     0.199 C 
ATOM      2  C   UNL     1      17.400  25.361  52.808  1.00  0.00     0.203 C 
ATOM      3  C   UNL     1      16.971  23.890  52.630  1.00  0.00     0.282 C 
ATOM      4  O   UNL     1      16.386  23.657  51.355  1.00  0.00    -0.340 OA
ATOM      5  C   UNL     1      15.275  24.498  51.055  1.00  0.00     0.190 C 
ATOM      6  C   UNL     1      15.605  26.005  51.206  1.00  0.00     0.240 C 
ENDROOT
BRANCH   1   7
ATOM      7  O   UNL     1      16.665  27.658  52.560  1.00  0.00    -0.340 OA
BRANCH   7   8
ATOM      8  C   UNL     1      16.286  28.398  53.715  1.00  0.00     0.282 C 
ATOM      9  C   UNL     1      19.679  29.049  54.976  1.00  0.00     0.041 C 
ATOM     10  C   UNL     1      18.483  29.158  54.029  1.00  0.00     0.150 C 
ATOM     11  C   UNL     1      18.145  30.638  53.720  1.00  0.00     0.174 C 
ATOM     12  O   UNL     1      17.375  28.502  54.618  1.00  0.00    -0.344 OA
ATOM     13  C   UNL     1      16.877  30.744  52.838  1.00  0.00     0.179 C 
ATOM     14  C   UNL     1      15.749  29.791  53.302  1.00  0.00     0.202 C 
BRANCH  11  15
ATOM     15  O   UNL     1      17.997  31.392  54.899  1.00  0.00    -0.388 OA
ATOM     16  H   UNL     1      18.275  30.825  55.662  1.00  0.00     0.211 HD
ENDBRANCH  11  15
BRANCH  13  17
ATOM     17  O   UNL     1      17.183  30.547  51.479  1.00  0.00    -0.387 OA
ATOM     18  H   UNL     1      17.950  31.124  51.243  1.00  0.00     0.211 HD
ENDBRANCH  13  17
BRANCH  14  19
ATOM     19  O   UNL     1      15.069  30.376  54.383  1.00  0.00    -0.385 OA
ATOM     20  H   UNL     1      15.041  31.355  54.215  1.00  0.00     0.211 HD
ENDBRANCH  14  19
ENDBRANCH   7   8
ENDBRANCH   1   7
BRANCH   2  21
ATOM     21  O   UNL     1      17.988  25.561  54.071  1.00  0.00    -0.385 OA
ATOM     22  H   UNL     1      17.511  26.310  54.514  1.00  0.00     0.211 HD
ENDBRANCH   2  21
BRANCH   6  23
ATOM     23  O   UNL     1      14.440  26.812  51.024  1.00  0.00    -0.453 OA
BRANCH  23  24
ATOM     24  C   UNL     1      14.318  27.789  50.028  1.00  0.00     0.331 C 
ATOM     25  O   UNL     1      13.353  28.601  50.042  1.00  0.00    -0.247 OA
BRANCH  24  26
ATOM     26  C   UNL     1      15.310  27.875  48.946  1.00  0.00     0.094 C 
ATOM     27  C   UNL     1      15.089  27.337  47.739  1.00  0.00     0.016 C 
BRANCH  27  28
ATOM     28  C   UNL     1      16.068  27.384  46.626  1.00  0.00    -0.021 A 
ATOM     29  C   UNL     1      16.954  28.473  46.554  1.00  0.00     0.058 A 
ATOM     30  C   UNL     1      16.163  26.366  45.657  1.00  0.00     0.012 A 
ATOM     31  C   UNL     1      17.897  28.564  45.525  1.00  0.00     0.157 A 
ATOM     32  C   UNL     1      17.106  26.454  44.629  1.00  0.00     0.051 A 
ATOM     33  C   UNL     1      17.972  27.552  44.554  1.00  0.00     0.157 A 
BRANCH  31  34
ATOM     34  O   UNL     1      18.752  29.666  45.483  1.00  0.00    -0.504 OA
ATOM     35  H   UNL     1      19.636  29.642  44.989  1.00  0.00     0.293 HD
ENDBRANCH  31  34
BRANCH  33  36
ATOM     36  O   UNL     1      18.908  27.637  43.524  1.00  0.00    -0.504 OA
ATOM     37  H   UNL     1      19.808  28.084  43.658  1.00  0.00     0.293 HD
ENDBRANCH  33  36
ENDBRANCH  27  28
ENDBRANCH  24  26
ENDBRANCH  23  24
ENDBRANCH   6  23
BRANCH   3  38
ATOM     38  O   UNL     1      16.075  23.497  53.661  1.00  0.00    -0.350 OA
BRANCH  38  39
ATOM     39  C   UNL     1      16.291  22.165  54.084  1.00  0.00     0.168 C 
BRANCH  39  40
ATOM     40  C   UNL     1      14.962  21.408  54.202  1.00  0.00     0.064 C 
BRANCH  40  41
ATOM     41  C   UNL     1      14.918  20.267  53.222  1.00  0.00    -0.042 A 
ATOM     42  C   UNL     1      15.711  20.299  52.063  1.00  0.00     0.054 A 
ATOM     43  C   UNL     1      14.034  19.196  53.423  1.00  0.00     0.008 A 
ATOM     44  C   UNL     1      15.634  19.263  51.120  1.00  0.00     0.157 A 
ATOM     45  C   UNL     1      13.961  18.160  52.488  1.00  0.00     0.050 A 
ATOM     46  C   UNL     1      14.755  18.187  51.336  1.00  0.00     0.157 A 
BRANCH  44  47
ATOM     47  O   UNL     1      16.423  19.301  49.972  1.00  0.00    -0.504 OA
ATOM     48  H   UNL     1      16.012  19.350  49.047  1.00  0.00     0.293 HD
ENDBRANCH  44  47
BRANCH  46  49
ATOM     49  O   UNL     1      14.656  17.141  50.421  1.00  0.00    -0.504 OA
ATOM     50  H   UNL     1      15.193  16.288  50.521  1.00  0.00     0.293 HD
ENDBRANCH  46  49
ENDBRANCH  40  41
ENDBRANCH  39  40
ENDBRANCH  38  39
ENDBRANCH   3  38
BRANCH   5  51
ATOM     51  C   UNL     1      13.980  24.060  51.772  1.00  0.00     0.192 C 
BRANCH  51  52
ATOM     52  O   UNL     1      12.864  24.459  51.025  1.00  0.00    -0.394 OA
ATOM     53  H   UNL     1      13.163  24.500  50.079  1.00  0.00     0.210 HD
ENDBRANCH  51  52
ENDBRANCH   5  51
TORSDOF 20
ENDMDL
MODEL 6
REMARK VINA RESULT:    -6.429      1.800      2.825
REMARK INTER + INTRA:         -14.669
REMARK INTER:                 -13.338
REMARK INTRA:                  -1.331
REMARK UNBOUND:                -2.414
REMARK SMILES C[C@H]1O[C@H](O[C@@H]2[C@@H](O)[C@@H](OCCc3ccc(O)c(O)c3)O[C@@H](CO)[C@H]2OC(=O)C=Cc2ccc(O)c(O)c2)[C@@H](O)[C@H](O)[C@H]1O
REMARK SMILES IDX 6 1 7 2 9 3 21 4 22 5 25 6 5 7 4 8 1 9 2 10 43 11 3 12 41 13
REMARK SMILES IDX 39 14 44 15 42 17 40 19 8 21 26 23 27 24 28 25 29 26 30 27
REMARK SMILES IDX 31 28 38 29 32 30 36 31 33 32 34 33 37 34 35 36 10 38 11 39
REMARK SMILES IDX 12 40 13 41 20 42 14 43 18 44 15 45 16 46 19 47 17 49 23 51
REMARK SMILES IDX 24 52
REMARK H PARENT 44 16 42 18 40 20 8 22 37 35 35 37 19 48 17 50 24 53
REMARK Flexibility Score: inf
ROOT
ATOM      1  C   UNL     1      15.252  23.895  44.753  1.00  0.00     0.199 C 
ATOM      2  C   UNL     1      14.725  23.235  43.466  1.00  0.00     0.203 C 
ATOM      3  C   UNL     1      13.355  22.568  43.708  1.00  0.00     0.282 C 
ATOM      4  O   UNL     1      12.400  23.485  44.226  1.00  0.00    -0.340 OA
ATOM      5  C   UNL     1      12.806  24.147  45.421  1.00  0.00     0.190 C 
ATOM      6  C   UNL     1      14.180  24.852  45.280  1.00  0.00     0.240 C 
ENDROOT
BRANCH   1   7
ATOM      7  O   UNL     1      16.413  24.659  44.466  1.00  0.00    -0.340 OA
BRANCH   7   8
ATOM      8  C   UNL     1      16.143  25.839  43.716  1.00  0.00     0.282 C 
ATOM      9  C   UNL     1      19.362  27.512  44.319  1.00  0.00     0.041 C 
ATOM     10  C   UNL     1      18.404  26.460  43.756  1.00  0.00     0.150 C 
ATOM     11  C   UNL     1      18.609  26.272  42.233  1.00  0.00     0.174 C 
ATOM     12  O   UNL     1      17.075  26.858  44.040  1.00  0.00    -0.344 OA
ATOM     13  C   UNL     1      17.575  25.277  41.653  1.00  0.00     0.179 C 
ATOM     14  C   UNL     1      16.147  25.518  42.201  1.00  0.00     0.202 C 
BRANCH  11  15
ATOM     15  O   UNL     1      18.557  27.501  41.548  1.00  0.00    -0.388 OA
ATOM     16  H   UNL     1      19.263  27.494  40.853  1.00  0.00     0.211 HD
ENDBRANCH  11  15
BRANCH  13  17
ATOM     17  O   UNL     1      17.980  23.945  41.856  1.00  0.00    -0.387 OA
ATOM     18  H   UNL     1      18.388  23.610  41.020  1.00  0.00     0.211 HD
ENDBRANCH  13  17
BRANCH  14  19
ATOM     19  O   UNL     1      15.555  26.575  41.491  1.00  0.00    -0.385 OA
ATOM     20  H   UNL     1      14.861  26.971  42.082  1.00  0.00     0.211 HD
ENDBRANCH  14  19
ENDBRANCH   7   8
ENDBRANCH   1   7
BRANCH   2  21
ATOM     21  O   UNL     1      15.647  22.310  42.943  1.00  0.00    -0.385 OA
ATOM     22  H   UNL     1      15.462  21.427  43.357  1.00  0.00     0.211 HD
ENDBRANCH   2  21
BRANCH   6  23
ATOM     23  O   UNL     1      14.615  25.393  46.529  1.00  0.00    -0.453 OA
BRANCH  23  24
ATOM     24  C   UNL     1      13.898  26.352  47.254  1.00  0.00     0.331 C 
ATOM     25  O   UNL     1      12.873  26.896  46.759  1.00  0.00    -0.247 OA
BRANCH  24  26
ATOM     26  C   UNL     1      14.336  26.745  48.601  1.00  0.00     0.094 C 
ATOM     27  C   UNL     1      14.307  28.021  49.011  1.00  0.00     0.016 C 
BRANCH  27  28
ATOM     28  C   UNL     1      14.756  28.464  50.353  1.00  0.00    -0.021 A 
ATOM     29  C   UNL     1      15.896  29.281  50.446  1.00  0.00     0.058 A 
ATOM     30  C   UNL     1      14.066  28.121  51.533  1.00  0.00     0.012 A 
ATOM     31  C   UNL     1      16.359  29.727  51.689  1.00  0.00     0.157 A 
ATOM     32  C   UNL     1      14.527  28.567  52.775  1.00  0.00     0.051 A 
ATOM     33  C   UNL     1      15.675  29.365  52.861  1.00  0.00     0.157 A 
BRANCH  31  34
ATOM     34  O   UNL     1      17.501  30.527  51.740  1.00  0.00    -0.504 OA
ATOM     35  H   UNL     1      18.243  30.448  51.055  1.00  0.00     0.293 HD
ENDBRANCH  31  34
BRANCH  33  36
ATOM     36  O   UNL     1      16.133  29.803  54.103  1.00  0.00    -0.504 OA
ATOM     37  H   UNL     1      15.666  30.548  54.610  1.00  0.00     0.293 HD
ENDBRANCH  33  36
ENDBRANCH  27  28
ENDBRANCH  24  26
ENDBRANCH  23  24
ENDBRANCH   6  23
BRANCH   3  38
ATOM     38  O   UNL     1      13.485  21.452  44.579  1.00  0.00    -0.350 OA
BRANCH  38  39
ATOM     39  C   UNL     1      12.886  20.284  44.051  1.00  0.00     0.168 C 
BRANCH  39  40
ATOM     40  C   UNL     1      12.851  19.167  45.100  1.00  0.00     0.064 C 
BRANCH  40  41
ATOM     41  C   UNL     1      14.198  19.019  45.755  1.00  0.00    -0.042 A 
ATOM     42  C   UNL     1      15.314  18.629  44.997  1.00  0.00     0.054 A 
ATOM     43  C   UNL     1      14.335  19.202  47.140  1.00  0.00     0.008 A 
ATOM     44  C   UNL     1      16.560  18.437  45.612  1.00  0.00     0.157 A 
ATOM     45  C   UNL     1      15.578  19.018  47.753  1.00  0.00     0.050 A 
ATOM     46  C   UNL     1      16.691  18.635  46.998  1.00  0.00     0.157 A 
BRANCH  44  47
ATOM     47  O   UNL     1      17.663  18.050  44.854  1.00  0.00    -0.504 OA
ATOM     48  H   UNL     1      18.406  17.483  45.248  1.00  0.00     0.293 HD
ENDBRANCH  44  47
BRANCH  46  49
ATOM     49  O   UNL     1      17.916  18.456  47.640  1.00  0.00    -0.504 OA
ATOM     50  H   UNL     1      18.035  18.643  48.628  1.00  0.00     0.293 HD
ENDBRANCH  46  49
ENDBRANCH  40  41
ENDBRANCH  39  40
ENDBRANCH  38  39
ENDBRANCH   3  38
BRANCH   5  51
ATOM     51  C   UNL     1      12.681  23.253  46.673  1.00  0.00     0.192 C 
BRANCH  51  52
ATOM     52  O   UNL     1      13.944  22.774  47.045  1.00  0.00    -0.394 OA
ATOM     53  H   UNL     1      13.851  22.434  47.973  1.00  0.00     0.210 HD
ENDBRANCH  51  52
ENDBRANCH   5  51
TORSDOF 20
ENDMDL
MODEL 7
REMARK VINA RESULT:    -6.427      1.883      8.821
REMARK INTER + INTRA:         -14.665
REMARK INTER:                 -12.373
REMARK INTRA:                  -2.293
REMARK UNBOUND:                -2.414
REMARK SMILES C[C@H]1O[C@H](O[C@@H]2[C@@H](O)[C@@H](OCCc3ccc(O)c(O)c3)O[C@@H](CO)[C@H]2OC(=O)C=Cc2ccc(O)c(O)c2)[C@@H](O)[C@H](O)[C@H]1O
REMARK SMILES IDX 6 1 7 2 9 3 21 4 22 5 25 6 5 7 4 8 1 9 2 10 43 11 3 12 41 13
REMARK SMILES IDX 39 14 44 15 42 17 40 19 8 21 26 23 27 24 28 25 29 26 30 27
REMARK SMILES IDX 31 28 38 29 32 30 36 31 33 32 34 33 37 34 35 36 10 38 11 39
REMARK SMILES IDX 12 40 13 41 20 42 14 43 18 44 15 45 16 46 19 47 17 49 23 51
REMARK SMILES IDX 24 52
REMARK H PARENT 44 16 42 18 40 20 8 22 37 35 35 37 19 48 17 50 24 53
REMARK Flexibility Score: inf
ROOT
ATOM      1  C   UNL     1      13.699  22.999  47.062  1.00  0.00     0.199 C 
ATOM      2  C   UNL     1      12.750  23.332  48.227  1.00  0.00     0.203 C 
ATOM      3  C   UNL     1      12.871  24.816  48.631  1.00  0.00     0.282 C 
ATOM      4  O   UNL     1      12.638  25.688  47.532  1.00  0.00    -0.340 OA
ATOM      5  C   UNL     1      13.475  25.449  46.403  1.00  0.00     0.190 C 
ATOM      6  C   UNL     1      13.424  23.978  45.918  1.00  0.00     0.240 C 
ENDROOT
BRANCH   1   7
ATOM      7  O   UNL     1      13.439  21.688  46.584  1.00  0.00    -0.340 OA
BRANCH   7   8
ATOM      8  C   UNL     1      14.332  20.708  47.103  1.00  0.00     0.282 C 
ATOM      9  C   UNL     1      12.433  17.746  46.033  1.00  0.00     0.041 C 
ATOM     10  C   UNL     1      13.283  19.008  45.874  1.00  0.00     0.150 C 
ATOM     11  C   UNL     1      14.503  18.750  44.956  1.00  0.00     0.174 C 
ATOM     12  O   UNL     1      13.700  19.440  47.157  1.00  0.00    -0.344 OA
ATOM     13  C   UNL     1      15.410  20.003  44.875  1.00  0.00     0.179 C 
ATOM     14  C   UNL     1      15.628  20.668  46.255  1.00  0.00     0.202 C 
BRANCH  11  15
ATOM     15  O   UNL     1      15.240  17.627  45.377  1.00  0.00    -0.388 OA
ATOM     16  H   UNL     1      14.747  16.815  45.098  1.00  0.00     0.211 HD
ENDBRANCH  11  15
BRANCH  13  17
ATOM     17  O   UNL     1      14.919  20.927  43.935  1.00  0.00    -0.387 OA
ATOM     18  H   UNL     1      13.954  20.757  43.802  1.00  0.00     0.211 HD
ENDBRANCH  13  17
BRANCH  14  19
ATOM     19  O   UNL     1      16.627  19.967  46.951  1.00  0.00    -0.385 OA
ATOM     20  H   UNL     1      17.454  20.517  46.908  1.00  0.00     0.211 HD
ENDBRANCH  14  19
ENDBRANCH   7   8
ENDBRANCH   1   7
BRANCH   2  21
ATOM     21  O   UNL     1      12.972  22.492  49.334  1.00  0.00    -0.385 OA
ATOM     22  H   UNL     1      13.895  22.656  49.661  1.00  0.00     0.211 HD
ENDBRANCH   2  21
BRANCH   6  23
ATOM     23  O   UNL     1      14.368  23.744  44.871  1.00  0.00    -0.453 OA
BRANCH  23  24
ATOM     24  C   UNL     1      14.288  24.337  43.605  1.00  0.00     0.331 C 
ATOM     25  O   UNL     1      13.256  24.193  42.894  1.00  0.00    -0.247 OA
BRANCH  24  26
ATOM     26  C   UNL     1      15.412  25.127  43.083  1.00  0.00     0.094 C 
ATOM     27  C   UNL     1      16.628  25.088  43.646  1.00  0.00     0.016 C 
BRANCH  27  28
ATOM     28  C   UNL     1      17.784  25.883  43.164  1.00  0.00    -0.021 A 
ATOM     29  C   UNL     1      18.461  26.708  44.077  1.00  0.00     0.058 A 
ATOM     30  C   UNL     1      18.245  25.817  41.834  1.00  0.00     0.012 A 
ATOM     31  C   UNL     1      19.558  27.477  43.672  1.00  0.00     0.157 A 
ATOM     32  C   UNL     1      19.342  26.582  41.429  1.00  0.00     0.051 A 
ATOM     33  C   UNL     1      20.000  27.418  42.341  1.00  0.00     0.157 A 
BRANCH  31  34
ATOM     34  O   UNL     1      20.197  28.292  44.607  1.00  0.00    -0.504 OA
ATOM     35  H   UNL     1      20.476  27.948  45.518  1.00  0.00     0.293 HD
ENDBRANCH  31  34
BRANCH  33  36
ATOM     36  O   UNL     1      21.091  28.183  41.929  1.00  0.00    -0.504 OA
ATOM     37  H   UNL     1      21.926  27.754  41.545  1.00  0.00     0.293 HD
ENDBRANCH  33  36
ENDBRANCH  27  28
ENDBRANCH  24  26
ENDBRANCH  23  24
ENDBRANCH   6  23
BRANCH   3  38
ATOM     38  O   UNL     1      14.145  25.080  49.205  1.00  0.00    -0.350 OA
BRANCH  38  39
ATOM     39  C   UNL     1      14.051  25.824  50.404  1.00  0.00     0.168 C 
BRANCH  39  40
ATOM     40  C   UNL     1      15.391  25.825  51.150  1.00  0.00     0.064 C 
BRANCH  40  41
ATOM     41  C   UNL     1      15.857  27.236  51.390  1.00  0.00    -0.042 A 
ATOM     42  C   UNL     1      16.404  27.598  52.631  1.00  0.00     0.054 A 
ATOM     43  C   UNL     1      15.684  28.215  50.401  1.00  0.00     0.008 A 
ATOM     44  C   UNL     1      16.791  28.924  52.879  1.00  0.00     0.157 A 
ATOM     45  C   UNL     1      16.075  29.536  50.643  1.00  0.00     0.050 A 
ATOM     46  C   UNL     1      16.627  29.896  51.877  1.00  0.00     0.157 A 
BRANCH  44  47
ATOM     47  O   UNL     1      17.333  29.277  54.113  1.00  0.00    -0.504 OA
ATOM     48  H   UNL     1      16.768  29.299  54.954  1.00  0.00     0.293 HD
ENDBRANCH  44  47
BRANCH  46  49
ATOM     49  O   UNL     1      17.002  31.222  52.089  1.00  0.00    -0.504 OA
ATOM     50  H   UNL     1      17.772  31.469  52.700  1.00  0.00     0.293 HD
ENDBRANCH  46  49
ENDBRANCH  40  41
ENDBRANCH  39  40
ENDBRANCH  38  39
ENDBRANCH   3  38
BRANCH   5  51
ATOM     51  C   UNL     1      14.903  26.004  46.588  1.00  0.00     0.192 C 
BRANCH  51  52
ATOM     52  O   UNL     1      14.853  27.239  47.249  1.00  0.00    -0.394 OA
ATOM     53  H   UNL     1      15.256  27.902  46.630  1.00  0.00     0.210 HD
ENDBRANCH  51  52
ENDBRANCH   5  51
TORSDOF 20
ENDMDL
MODEL 8
REMARK VINA RESULT:    -6.425      3.667      7.382
REMARK INTER + INTRA:         -14.661
REMARK INTER:                 -12.412
REMARK INTRA:                  -2.250
REMARK UNBOUND:                -2.414
REMARK SMILES C[C@H]1O[C@H](O[C@@H]2[C@@H](O)[C@@H](OCCc3ccc(O)c(O)c3)O[C@@H](CO)[C@H]2OC(=O)C=Cc2ccc(O)c(O)c2)[C@@H](O)[C@H](O)[C@H]1O
REMARK SMILES IDX 6 1 7 2 9 3 21 4 22 5 25 6 5 7 4 8 1 9 2 10 43 11 3 12 41 13
REMARK SMILES IDX 39 14 44 15 42 17 40 19 8 21 26 23 27 24 28 25 29 26 30 27
REMARK SMILES IDX 31 28 38 29 32 30 36 31 33 32 34 33 37 34 35 36 10 38 11 39
REMARK SMILES IDX 12 40 13 41 20 42 14 43 18 44 15 45 16 46 19 47 17 49 23 51
REMARK SMILES IDX 24 52
REMARK H PARENT 44 16 42 18 40 20 8 22 37 35 35 37 19 48 17 50 24 53
REMARK Flexibility Score: inf
ROOT
ATOM      1  C   UNL     1      16.268  25.633  41.177  1.00  0.00     0.199 C 
ATOM      2  C   UNL     1      16.548  24.497  40.177  1.00  0.00     0.203 C 
ATOM      3  C   UNL     1      17.939  24.660  39.531  1.00  0.00     0.282 C 
ATOM      4  O   UNL     1      18.973  24.734  40.504  1.00  0.00    -0.340 OA
ATOM      5  C   UNL     1      18.795  25.762  41.476  1.00  0.00     0.190 C 
ATOM      6  C   UNL     1      17.419  25.685  42.185  1.00  0.00     0.240 C 
ENDROOT
BRANCH   1   7
ATOM      7  O   UNL     1      15.074  25.365  41.895  1.00  0.00    -0.340 OA
BRANCH   7   8
ATOM      8  C   UNL     1      15.234  24.382  42.912  1.00  0.00     0.282 C 
ATOM      9  C   UNL     1      12.054  25.001  44.653  1.00  0.00     0.041 C 
ATOM     10  C   UNL     1      12.974  24.547  43.518  1.00  0.00     0.150 C 
ATOM     11  C   UNL     1      12.616  23.117  43.044  1.00  0.00     0.174 C 
ATOM     12  O   UNL     1      14.316  24.606  43.969  1.00  0.00    -0.344 OA
ATOM     13  C   UNL     1      13.609  22.626  41.962  1.00  0.00     0.179 C 
ATOM     14  C   UNL     1      15.079  22.963  42.310  1.00  0.00     0.202 C 
BRANCH  11  15
ATOM     15  O   UNL     1      12.565  22.212  44.121  1.00  0.00    -0.388 OA
ATOM     16  H   UNL     1      13.213  22.515  44.807  1.00  0.00     0.211 HD
ENDBRANCH  11  15
BRANCH  13  17
ATOM     17  O   UNL     1      13.261  23.118  40.691  1.00  0.00    -0.387 OA
ATOM     18  H   UNL     1      12.286  23.015  40.570  1.00  0.00     0.211 HD
ENDBRANCH  13  17
BRANCH  14  19
ATOM     19  O   UNL     1      15.567  22.008  43.217  1.00  0.00    -0.385 OA
ATOM     20  H   UNL     1      16.344  21.564  42.784  1.00  0.00     0.211 HD
ENDBRANCH  14  19
ENDBRANCH   7   8
ENDBRANCH   1   7
BRANCH   2  21
ATOM     21  O   UNL     1      15.546  24.413  39.193  1.00  0.00    -0.385 OA
ATOM     22  H   UNL     1      15.705  23.589  38.663  1.00  0.00     0.211 HD
ENDBRANCH   2  21
BRANCH   6  23
ATOM     23  O   UNL     1      17.221  26.800  43.056  1.00  0.00    -0.453 OA
BRANCH  23  24
ATOM     24  C   UNL     1      17.655  26.835  44.387  1.00  0.00     0.331 C 
ATOM     25  O   UNL     1      18.863  27.069  44.662  1.00  0.00    -0.247 OA
BRANCH  24  26
ATOM     26  C   UNL     1      16.707  26.589  45.484  1.00  0.00     0.094 C 
ATOM     27  C   UNL     1      16.418  27.529  46.394  1.00  0.00     0.016 C 
BRANCH  27  28
ATOM     28  C   UNL     1      15.482  27.317  47.526  1.00  0.00    -0.021 A 
ATOM     29  C   UNL     1      14.374  26.474  47.335  1.00  0.00     0.058 A 
ATOM     30  C   UNL     1      15.680  27.906  48.791  1.00  0.00     0.012 A 
ATOM     31  C   UNL     1      13.464  26.241  48.371  1.00  0.00     0.157 A 
ATOM     32  C   UNL     1      14.772  27.672  49.828  1.00  0.00     0.051 A 
ATOM     33  C   UNL     1      13.660  26.846  49.624  1.00  0.00     0.157 A 
BRANCH  31  34
ATOM     34  O   UNL     1      12.371  25.405  48.139  1.00  0.00    -0.504 OA
ATOM     35  H   UNL     1      12.038  25.204  47.203  1.00  0.00     0.293 HD
ENDBRANCH  31  34
BRANCH  33  36
ATOM     36  O   UNL     1      12.755  26.620  50.660  1.00  0.00    -0.504 OA
ATOM     37  H   UNL     1      12.265  27.383  51.114  1.00  0.00     0.293 HD
ENDBRANCH  33  36
ENDBRANCH  27  28
ENDBRANCH  24  26
ENDBRANCH  23  24
ENDBRANCH   6  23
BRANCH   3  38
ATOM     38  O   UNL     1      17.973  25.806  38.690  1.00  0.00    -0.350 OA
BRANCH  38  39
ATOM     39  C   UNL     1      17.937  25.468  37.317  1.00  0.00     0.168 C 
BRANCH  39  40
ATOM     40  C   UNL     1      19.266  24.841  36.876  1.00  0.00     0.064 C 
BRANCH  40  41
ATOM     41  C   UNL     1      19.143  23.342  36.811  1.00  0.00    -0.042 A 
ATOM     42  C   UNL     1      17.916  22.747  36.477  1.00  0.00     0.054 A 
ATOM     43  C   UNL     1      20.234  22.528  37.153  1.00  0.00     0.008 A 
ATOM     44  C   UNL     1      17.782  21.351  36.468  1.00  0.00     0.157 A 
ATOM     45  C   UNL     1      20.105  21.136  37.137  1.00  0.00     0.050 A 
ATOM     46  C   UNL     1      18.885  20.542  36.798  1.00  0.00     0.157 A 
BRANCH  44  47
ATOM     47  O   UNL     1      16.562  20.766  36.135  1.00  0.00    -0.504 OA
ATOM     48  H   UNL     1      15.795  21.314  35.762  1.00  0.00     0.293 HD
ENDBRANCH  44  47
BRANCH  46  49
ATOM     49  O   UNL     1      18.786  19.152  36.796  1.00  0.00    -0.504 OA
ATOM     50  H   UNL     1      19.183  18.585  37.536  1.00  0.00     0.293 HD
ENDBRANCH  46  49
ENDBRANCH  40  41
ENDBRANCH  39  40
ENDBRANCH  38  39
ENDBRANCH   3  38
BRANCH   5  51
ATOM     51  C   UNL     1      19.150  27.165  40.937  1.00  0.00     0.192 C 
BRANCH  51  52
ATOM     52  O   UNL     1      19.927  27.853  41.877  1.00  0.00    -0.394 OA
ATOM     53  H   UNL     1      19.299  28.426  42.391  1.00  0.00     0.210 HD
ENDBRANCH  51  52
ENDBRANCH   5  51
TORSDOF 20
ENDMDL
MODEL 9
REMARK VINA RESULT:    -6.252      2.136      8.268
REMARK INTER + INTRA:         -14.332
REMARK INTER:                 -12.089
REMARK INTRA:                  -2.243
REMARK UNBOUND:                -2.414
REMARK SMILES C[C@H]1O[C@H](O[C@@H]2[C@@H](O)[C@@H](OCCc3ccc(O)c(O)c3)O[C@@H](CO)[C@H]2OC(=O)C=Cc2ccc(O)c(O)c2)[C@@H](O)[C@H](O)[C@H]1O
REMARK SMILES IDX 6 1 7 2 9 3 21 4 22 5 25 6 5 7 4 8 1 9 2 10 43 11 3 12 41 13
REMARK SMILES IDX 39 14 44 15 42 17 40 19 8 21 26 23 27 24 28 25 29 26 30 27
REMARK SMILES IDX 31 28 38 29 32 30 36 31 33 32 34 33 37 34 35 36 10 38 11 39
REMARK SMILES IDX 12 40 13 41 20 42 14 43 18 44 15 45 16 46 19 47 17 49 23 51
REMARK SMILES IDX 24 52
REMARK H PARENT 44 16 42 18 40 20 8 22 37 35 35 37 19 48 17 50 24 53
REMARK Flexibility Score: inf
ROOT
ATOM      1  C   UNL     1      13.684  23.042  47.201  1.00  0.00     0.199 C 
ATOM      2  C   UNL     1      12.726  23.319  48.374  1.00  0.00     0.203 C 
ATOM      3  C   UNL     1      12.830  24.787  48.836  1.00  0.00     0.282 C 
ATOM      4  O   UNL     1      12.592  25.699  47.772  1.00  0.00    -0.340 OA
ATOM      5  C   UNL     1      13.436  25.514  46.638  1.00  0.00     0.190 C 
ATOM      6  C   UNL     1      13.403  24.063  46.094  1.00  0.00     0.240 C 
ENDROOT
BRANCH   1   7
ATOM      7  O   UNL     1      13.439  21.749  46.669  1.00  0.00    -0.340 OA
BRANCH   7   8
ATOM      8  C   UNL     1      14.316  20.751  47.182  1.00  0.00     0.282 C 
ATOM      9  C   UNL     1      12.450  17.828  45.958  1.00  0.00     0.041 C 
ATOM     10  C   UNL     1      13.305  19.093  45.866  1.00  0.00     0.150 C 
ATOM     11  C   UNL     1      14.552  18.866  44.977  1.00  0.00     0.174 C 
ATOM     12  O   UNL     1      13.684  19.482  47.174  1.00  0.00    -0.344 OA
ATOM     13  C   UNL     1      15.460  20.120  44.964  1.00  0.00     0.179 C 
ATOM     14  C   UNL     1      15.637  20.738  46.372  1.00  0.00     0.202 C 
BRANCH  11  15
ATOM     15  O   UNL     1      15.276  17.729  45.382  1.00  0.00    -0.388 OA
ATOM     16  H   UNL     1      16.237  17.968  45.397  1.00  0.00     0.211 HD
ENDBRANCH  11  15
BRANCH  13  17
ATOM     17  O   UNL     1      14.997  21.076  44.042  1.00  0.00    -0.387 OA
ATOM     18  H   UNL     1      15.696  21.216  43.357  1.00  0.00     0.211 HD
ENDBRANCH  13  17
BRANCH  14  19
ATOM     19  O   UNL     1      16.615  20.014  47.073  1.00  0.00    -0.385 OA
ATOM     20  H   UNL     1      17.430  20.582  47.110  1.00  0.00     0.211 HD
ENDBRANCH  14  19
ENDBRANCH   7   8
ENDBRANCH   1   7
BRANCH   2  21
ATOM     21  O   UNL     1      12.952  22.438  49.447  1.00  0.00    -0.385 OA
ATOM     22  H   UNL     1      12.242  22.591  50.123  1.00  0.00     0.211 HD
ENDBRANCH   2  21
BRANCH   6  23
ATOM     23  O   UNL     1      14.353  23.880  45.044  1.00  0.00    -0.453 OA
BRANCH  23  24
ATOM     24  C   UNL     1      14.261  24.504  43.794  1.00  0.00     0.331 C 
ATOM     25  O   UNL     1      13.206  24.412  43.108  1.00  0.00    -0.247 OA
BRANCH  24  26
ATOM     26  C   UNL     1      15.397  25.268  43.258  1.00  0.00     0.094 C 
ATOM     27  C   UNL     1      16.614  25.211  43.817  1.00  0.00     0.016 C 
BRANCH  27  28
ATOM     28  C   UNL     1      17.783  25.978  43.321  1.00  0.00    -0.021 A 
ATOM     29  C   UNL     1      18.454  26.833  44.212  1.00  0.00     0.058 A 
ATOM     30  C   UNL     1      18.261  25.860  42.001  1.00  0.00     0.012 A 
ATOM     31  C   UNL     1      19.563  27.577  43.794  1.00  0.00     0.157 A 
ATOM     32  C   UNL     1      19.370  26.601  41.582  1.00  0.00     0.051 A 
ATOM     33  C   UNL     1      20.022  27.465  42.471  1.00  0.00     0.157 A 
BRANCH  31  34
ATOM     34  O   UNL     1      20.196  28.422  44.706  1.00  0.00    -0.504 OA
ATOM     35  H   UNL     1      21.143  28.255  45.026  1.00  0.00     0.293 HD
ENDBRANCH  31  34
BRANCH  33  36
ATOM     36  O   UNL     1      21.125  28.206  42.047  1.00  0.00    -0.504 OA
ATOM     37  H   UNL     1      21.331  29.121  42.433  1.00  0.00     0.293 HD
ENDBRANCH  33  36
ENDBRANCH  27  28
ENDBRANCH  24  26
ENDBRANCH  23  24
ENDBRANCH   6  23
BRANCH   3  38
ATOM     38  O   UNL     1      14.098  25.041  49.426  1.00  0.00    -0.350 OA
BRANCH  38  39
ATOM     39  C   UNL     1      14.011  25.242  50.824  1.00  0.00     0.168 C 
BRANCH  39  40
ATOM     40  C   UNL     1      14.876  26.432  51.257  1.00  0.00     0.064 C 
BRANCH  40  41
ATOM     41  C   UNL     1      16.157  25.950  51.883  1.00  0.00    -0.042 A 
ATOM     42  C   UNL     1      17.104  26.872  52.356  1.00  0.00     0.054 A 
ATOM     43  C   UNL     1      16.447  24.578  51.933  1.00  0.00     0.008 A 
ATOM     44  C   UNL     1      18.322  26.430  52.891  1.00  0.00     0.157 A 
ATOM     45  C   UNL     1      17.658  24.134  52.472  1.00  0.00     0.050 A 
ATOM     46  C   UNL     1      18.599  25.052  52.950  1.00  0.00     0.157 A 
BRANCH  44  47
ATOM     47  O   UNL     1      19.258  27.351  53.360  1.00  0.00    -0.504 OA
ATOM     48  H   UNL     1      19.328  28.282  52.967  1.00  0.00     0.293 HD
ENDBRANCH  44  47
BRANCH  46  49
ATOM     49  O   UNL     1      19.799  24.579  53.478  1.00  0.00    -0.504 OA
ATOM     50  H   UNL     1      19.824  23.915  54.242  1.00  0.00     0.293 HD
ENDBRANCH  46  49
ENDBRANCH  40  41
ENDBRANCH  39  40
ENDBRANCH  38  39
ENDBRANCH   3  38
BRANCH   5  51
ATOM     51  C   UNL     1      14.858  26.076  46.852  1.00  0.00     0.192 C 
BRANCH  51  52
ATOM     52  O   UNL     1      14.795  27.263  47.593  1.00  0.00    -0.394 OA
ATOM     53  H   UNL     1      13.976  27.736  47.292  1.00  0.00     0.210 HD
ENDBRANCH  51  52
ENDBRANCH   5  51
TORSDOF 20
ENDMDL
