MODEL 1
REMARK VINA RESULT:    -1.904      0.000      0.000
REMARK INTER + INTRA:          -1.904
REMARK INTER:                  -1.904
REMARK INTRA:                   0.000
REMARK UNBOUND:                 0.000
REMARK SMILES CC(=O)[O-]
REMARK SMILES IDX 1 1 2 2 3 3 4 4
REMARK H PARENT
REMARK Flexibility Score: inf
ROOT
ATOM      1  C   UNL     1       8.469  16.749  27.182  1.00  0.00     0.063 C 
ATOM      2  C   UNL     1       8.513  18.023  26.408  1.00  0.00     0.038 C 
ATOM      3  O   UNL     1       8.814  18.009  25.186  1.00  0.00    -0.550 OA
ATOM      4  O   UNL     1       8.170  19.220  27.021  1.00  0.00    -0.550 OA
ENDROOT
TORSDOF 0
ENDMDL
MODEL 2
REMARK VINA RESULT:    -1.882      1.319      2.125
REMARK INTER + INTRA:          -1.882
REMARK INTER:                  -1.882
REMARK INTRA:                   0.000
REMARK UNBOUND:                 0.000
REMARK SMILES CC(=O)[O-]
REMARK SMILES IDX 1 1 2 2 3 3 4 4
REMARK H PARENT
REMARK Flexibility Score: inf
ROOT
ATOM      1  C   UNL     1       7.730  19.399  26.827  1.00  0.00     0.063 C 
ATOM      2  C   UNL     1       8.442  18.174  26.362  1.00  0.00     0.038 C 
ATOM      3  O   UNL     1       8.699  17.247  27.174  1.00  0.00    -0.550 OA
ATOM      4  O   UNL     1       8.774  18.029  25.022  1.00  0.00    -0.550 OA
ENDROOT
TORSDOF 0
ENDMDL
MODEL 3
REMARK VINA RESULT:    -1.845      1.397      2.036
REMARK INTER + INTRA:          -1.845
REMARK INTER:                  -1.845
REMARK INTRA:                   0.000
REMARK UNBOUND:                 0.000
REMARK SMILES CC(=O)[O-]
REMARK SMILES IDX 1 1 2 2 3 3 4 4
REMARK H PARENT
REMARK Flexibility Score: inf
ROOT
ATOM      1  C   UNL     1       8.586  17.842  25.015  1.00  0.00     0.063 C 
ATOM      2  C   UNL     1       8.521  17.994  26.498  1.00  0.00     0.038 C 
ATOM      3  O   UNL     1       8.237  19.111  27.005  1.00  0.00    -0.550 OA
ATOM      4  O   UNL     1       8.719  16.893  27.319  1.00  0.00    -0.550 OA
ENDROOT
TORSDOF 0
ENDMDL
MODEL 4
REMARK VINA RESULT:    -1.809      8.245      8.503
REMARK INTER + INTRA:          -1.809
REMARK INTER:                  -1.809
REMARK INTRA:                   0.000
REMARK UNBOUND:                 0.000
REMARK SMILES CC(=O)[O-]
REMARK SMILES IDX 1 1 2 2 3 3 4 4
REMARK H PARENT
REMARK Flexibility Score: inf
ROOT
ATOM      1  C   UNL     1      16.911  15.731  30.313  1.00  0.00     0.063 C 
ATOM      2  C   UNL     1      15.824  15.439  29.334  1.00  0.00     0.038 C 
ATOM      3  O   UNL     1      14.797  14.810  29.700  1.00  0.00    -0.550 OA
ATOM      4  O   UNL     1      15.919  15.907  28.030  1.00  0.00    -0.550 OA
ENDROOT
TORSDOF 0
ENDMDL
MODEL 5
REMARK VINA RESULT:    -1.685      8.352      8.530
REMARK INTER + INTRA:          -1.685
REMARK INTER:                  -1.685
REMARK INTRA:                   0.000
REMARK UNBOUND:                 0.000
REMARK SMILES CC(=O)[O-]
REMARK SMILES IDX 1 1 2 2 3 3 4 4
REMARK H PARENT
REMARK Flexibility Score: inf
ROOT
ATOM      1  C   UNL     1      15.934  15.670  27.908  1.00  0.00     0.063 C 
ATOM      2  C   UNL     1      15.872  15.515  29.390  1.00  0.00     0.038 C 
ATOM      3  O   UNL     1      16.601  16.226  30.130  1.00  0.00    -0.550 OA
ATOM      4  O   UNL     1      14.971  14.625  29.959  1.00  0.00    -0.550 OA
ENDROOT
TORSDOF 0
ENDMDL
MODEL 6
REMARK VINA RESULT:    -1.670     10.558     10.727
REMARK INTER + INTRA:          -1.670
REMARK INTER:                  -1.670
REMARK INTRA:                   0.000
REMARK UNBOUND:                 0.000
REMARK SMILES CC(=O)[O-]
REMARK SMILES IDX 1 1 2 2 3 3 4 4
REMARK H PARENT
REMARK Flexibility Score: inf
ROOT
ATOM      1  C   UNL     1      16.975  15.544  30.391  1.00  0.00     0.063 C 
ATOM      2  C   UNL     1      17.108  14.395  31.333  1.00  0.00     0.038 C 
ATOM      3  O   UNL     1      16.269  13.457  31.306  1.00  0.00    -0.550 OA
ATOM      4  O   UNL     1      18.188  14.332  32.204  1.00  0.00    -0.550 OA
ENDROOT
TORSDOF 0
ENDMDL
MODEL 7
REMARK VINA RESULT:    -1.647      9.823      9.974
REMARK INTER + INTRA:          -1.647
REMARK INTER:                  -1.647
REMARK INTRA:                   0.000
REMARK UNBOUND:                 0.000
REMARK SMILES CC(=O)[O-]
REMARK SMILES IDX 1 1 2 2 3 3 4 4
REMARK H PARENT
REMARK Flexibility Score: inf
ROOT
ATOM      1  C   UNL     1      17.346  14.479  31.370  1.00  0.00     0.063 C 
ATOM      2  C   UNL     1      17.335  15.305  30.129  1.00  0.00     0.038 C 
ATOM      3  O   UNL     1      18.284  15.220  29.306  1.00  0.00    -0.550 OA
ATOM      4  O   UNL     1      16.253  16.129  29.851  1.00  0.00    -0.550 OA
ENDROOT
TORSDOF 0
ENDMDL
MODEL 8
REMARK VINA RESULT:    -1.580      7.862      8.089
REMARK INTER + INTRA:          -1.580
REMARK INTER:                  -1.580
REMARK INTRA:                   0.000
REMARK UNBOUND:                 0.000
REMARK SMILES CC(=O)[O-]
REMARK SMILES IDX 1 1 2 2 3 3 4 4
REMARK H PARENT
REMARK Flexibility Score: inf
ROOT
ATOM      1  C   UNL     1      16.236  16.169  26.010  1.00  0.00     0.063 C 
ATOM      2  C   UNL     1      15.790  15.422  27.222  1.00  0.00     0.038 C 
ATOM      3  O   UNL     1      15.957  15.921  28.366  1.00  0.00    -0.550 OA
ATOM      4  O   UNL     1      15.143  14.202  27.088  1.00  0.00    -0.550 OA
ENDROOT
TORSDOF 0
ENDMDL
MODEL 9
REMARK VINA RESULT:    -1.525      5.592      6.033
REMARK INTER + INTRA:          -1.525
REMARK INTER:                  -1.525
REMARK INTRA:                   0.000
REMARK UNBOUND:                 0.000
REMARK SMILES CC(=O)[O-]
REMARK SMILES IDX 1 1 2 2 3 3 4 4
REMARK H PARENT
REMARK Flexibility Score: inf
ROOT
ATOM      1  C   UNL     1      12.561  14.229  30.505  1.00  0.00     0.063 C 
ATOM      2  C   UNL     1      11.252  14.943  30.471  1.00  0.00     0.038 C 
ATOM      3  O   UNL     1      10.629  15.167  31.542  1.00  0.00    -0.550 OA
ATOM      4  O   UNL     1      10.745  15.409  29.267  1.00  0.00    -0.550 OA
ENDROOT
TORSDOF 0
ENDMDL
