MODEL 1
REMARK VINA RESULT:    -1.922      0.000      0.000
REMARK INTER + INTRA:          -1.922
REMARK INTER:                  -1.922
REMARK INTRA:                   0.000
REMARK UNBOUND:                 0.000
REMARK SMILES CC(=O)[O-]
REMARK SMILES IDX 1 1 2 2 3 3 4 4
REMARK H PARENT
REMARK Flexibility Score: inf
ROOT
ATOM      1  C   UNL     1     141.181 159.947 152.110  1.00  0.00     0.063 C 
ATOM      2  C   UNL     1     141.027 159.450 153.507  1.00  0.00     0.038 C 
ATOM      3  O   UNL     1     139.879 159.225 153.974  1.00  0.00    -0.550 OA
ATOM      4  O   UNL     1     142.150 159.181 154.278  1.00  0.00    -0.550 OA
ENDROOT
TORSDOF 0
ENDMDL
MODEL 2
REMARK VINA RESULT:    -1.916      1.395      1.770
REMARK INTER + INTRA:          -1.916
REMARK INTER:                  -1.916
REMARK INTRA:                   0.000
REMARK UNBOUND:                 0.000
REMARK SMILES CC(=O)[O-]
REMARK SMILES IDX 1 1 2 2 3 3 4 4
REMARK H PARENT
REMARK Flexibility Score: inf
ROOT
ATOM      1  C   UNL     1     142.189 160.122 154.114  1.00  0.00     0.063 C 
ATOM      2  C   UNL     1     140.968 159.725 153.356  1.00  0.00     0.038 C 
ATOM      3  O   UNL     1     139.971 159.257 153.966  1.00  0.00    -0.550 OA
ATOM      4  O   UNL     1     140.907 159.920 151.982  1.00  0.00    -0.550 OA
ENDROOT
TORSDOF 0
ENDMDL
MODEL 3
REMARK VINA RESULT:    -1.869      8.056      8.231
REMARK INTER + INTRA:          -1.869
REMARK INTER:                  -1.869
REMARK INTRA:                   0.000
REMARK UNBOUND:                 0.000
REMARK SMILES CC(=O)[O-]
REMARK SMILES IDX 1 1 2 2 3 3 4 4
REMARK H PARENT
REMARK Flexibility Score: inf
ROOT
ATOM      1  C   UNL     1     146.598 155.892 158.882  1.00  0.00     0.063 C 
ATOM      2  C   UNL     1     146.453 157.364 159.074  1.00  0.00     0.038 C 
ATOM      3  O   UNL     1     145.787 157.812 160.043  1.00  0.00    -0.550 OA
ATOM      4  O   UNL     1     147.098 158.244 158.214  1.00  0.00    -0.550 OA
ENDROOT
TORSDOF 0
ENDMDL
MODEL 4
REMARK VINA RESULT:    -1.849     17.622     18.037
REMARK INTER + INTRA:          -1.849
REMARK INTER:                  -1.849
REMARK INTRA:                   0.000
REMARK UNBOUND:                 0.000
REMARK SMILES CC(=O)[O-]
REMARK SMILES IDX 1 1 2 2 3 3 4 4
REMARK H PARENT
REMARK Flexibility Score: inf
ROOT
ATOM      1  C   UNL     1     156.036 154.491 158.503  1.00  0.00     0.063 C 
ATOM      2  C   UNL     1     157.457 154.406 158.947  1.00  0.00     0.038 C 
ATOM      3  O   UNL     1     158.295 153.765 158.262  1.00  0.00    -0.550 OA
ATOM      4  O   UNL     1     157.870 155.080 160.090  1.00  0.00    -0.550 OA
ENDROOT
TORSDOF 0
ENDMDL
MODEL 5
REMARK VINA RESULT:    -1.830      1.860      2.369
REMARK INTER + INTRA:          -1.830
REMARK INTER:                  -1.830
REMARK INTRA:                   0.000
REMARK UNBOUND:                 0.000
REMARK SMILES CC(=O)[O-]
REMARK SMILES IDX 1 1 2 2 3 3 4 4
REMARK H PARENT
REMARK Flexibility Score: inf
ROOT
ATOM      1  C   UNL     1     140.197 159.349 153.629  1.00  0.00     0.063 C 
ATOM      2  C   UNL     1     140.911 158.163 153.075  1.00  0.00     0.038 C 
ATOM      3  O   UNL     1     141.728 157.527 153.790  1.00  0.00    -0.550 OA
ATOM      4  O   UNL     1     140.637 157.726 151.785  1.00  0.00    -0.550 OA
ENDROOT
TORSDOF 0
ENDMDL
MODEL 6
REMARK VINA RESULT:    -1.826      1.711      1.999
REMARK INTER + INTRA:          -1.826
REMARK INTER:                  -1.826
REMARK INTRA:                   0.000
REMARK UNBOUND:                 0.000
REMARK SMILES CC(=O)[O-]
REMARK SMILES IDX 1 1 2 2 3 3 4 4
REMARK H PARENT
REMARK Flexibility Score: inf
ROOT
ATOM      1  C   UNL     1     140.609 159.634 153.652  1.00  0.00     0.063 C 
ATOM      2  C   UNL     1     142.089 159.455 153.640  1.00  0.00     0.038 C 
ATOM      3  O   UNL     1     142.636 158.661 154.449  1.00  0.00    -0.550 OA
ATOM      4  O   UNL     1     142.863 160.124 152.699  1.00  0.00    -0.550 OA
ENDROOT
TORSDOF 0
ENDMDL
MODEL 7
REMARK VINA RESULT:    -1.818     13.854     14.231
REMARK INTER + INTRA:          -1.818
REMARK INTER:                  -1.818
REMARK INTRA:                   0.000
REMARK UNBOUND:                 0.000
REMARK SMILES CC(=O)[O-]
REMARK SMILES IDX 1 1 2 2 3 3 4 4
REMARK H PARENT
REMARK Flexibility Score: inf
ROOT
ATOM      1  C   UNL     1     144.989 146.760 158.564  1.00  0.00     0.063 C 
ATOM      2  C   UNL     1     143.547 146.620 158.919  1.00  0.00     0.038 C 
ATOM      3  O   UNL     1     143.206 145.930 159.914  1.00  0.00    -0.550 OA
ATOM      4  O   UNL     1     142.581 147.296 158.184  1.00  0.00    -0.550 OA
ENDROOT
TORSDOF 0
ENDMDL
MODEL 8
REMARK VINA RESULT:    -1.816     19.644     19.664
REMARK INTER + INTRA:          -1.816
REMARK INTER:                  -1.816
REMARK INTRA:                   0.000
REMARK UNBOUND:                 0.000
REMARK SMILES CC(=O)[O-]
REMARK SMILES IDX 1 1 2 2 3 3 4 4
REMARK H PARENT
REMARK Flexibility Score: inf
ROOT
ATOM      1  C   UNL     1     141.388 141.906 147.217  1.00  0.00     0.063 C 
ATOM      2  C   UNL     1     141.024 141.360 145.878  1.00  0.00     0.038 C 
ATOM      3  O   UNL     1     139.875 141.563 145.405  1.00  0.00    -0.550 OA
ATOM      4  O   UNL     1     141.969 140.673 145.127  1.00  0.00    -0.550 OA
ENDROOT
TORSDOF 0
ENDMDL
MODEL 9
REMARK VINA RESULT:    -1.667     20.069     20.109
REMARK INTER + INTRA:          -1.667
REMARK INTER:                  -1.667
REMARK INTRA:                   0.000
REMARK UNBOUND:                 0.000
REMARK SMILES CC(=O)[O-]
REMARK SMILES IDX 1 1 2 2 3 3 4 4
REMARK H PARENT
REMARK Flexibility Score: inf
ROOT
ATOM      1  C   UNL     1     140.522 141.360 145.481  1.00  0.00     0.063 C 
ATOM      2  C   UNL     1     141.991 141.102 145.482  1.00  0.00     0.038 C 
ATOM      3  O   UNL     1     142.792 142.012 145.142  1.00  0.00    -0.550 OA
ATOM      4  O   UNL     1     142.482 139.875 145.911  1.00  0.00    -0.550 OA
ENDROOT
TORSDOF 0
ENDMDL
