MODEL 1
REMARK VINA RESULT:    -4.526      0.000      0.000
REMARK INTER + INTRA:         -14.635
REMARK INTER:                 -11.935
REMARK INTRA:                  -2.700
REMARK UNBOUND:                -2.700
REMARK SMILES CCCCCCCCCCCCCCCCCCCCCCCCCCCCCC(=O)[O-]
REMARK SMILES IDX 16 1 17 2 18 3 19 4 20 5 21 6 22 7 23 8 24 9 25 10 26 11
REMARK SMILES IDX 27 12 28 13 29 14 30 15 31 16 32 17 15 18 14 19 13 20 12 21
REMARK SMILES IDX 11 22 10 23 9 24 8 25 7 26 6 27 5 28 4 29 3 30 2 31 1 32
REMARK H PARENT
REMARK Flexibility Score: inf
ROOT
ATOM      1  C   UNL     1      43.627  64.129  54.583  1.00  0.00     0.000 C 
ENDROOT
BRANCH   1   2
ATOM      2  C   UNL     1      43.436  64.329  56.095  1.00  0.00     0.000 C 
BRANCH   2   3
ATOM      3  C   UNL     1      42.501  65.507  56.422  1.00  0.00     0.000 C 
BRANCH   3   4
ATOM      4  C   UNL     1      41.406  65.123  57.431  1.00  0.00     0.000 C 
BRANCH   4   5
ATOM      5  C   UNL     1      40.293  64.271  56.798  1.00  0.00     0.000 C 
BRANCH   5   6
ATOM      6  C   UNL     1      39.532  65.019  55.690  1.00  0.00     0.000 C 
BRANCH   6   7
ATOM      7  C   UNL     1      38.030  65.234  55.964  1.00  0.00     0.000 C 
BRANCH   7   8
ATOM      8  C   UNL     1      37.081  64.334  55.153  1.00  0.00     0.000 C 
BRANCH   8   9
ATOM      9  C   UNL     1      35.616  64.798  55.222  1.00  0.00     0.000 C 
BRANCH   9  10
ATOM     10  C   UNL     1      35.273  65.473  56.561  1.00  0.00     0.000 C 
BRANCH  10  11
ATOM     11  C   UNL     1      34.703  66.890  56.371  1.00  0.00     0.000 C 
BRANCH  11  12
ATOM     12  C   UNL     1      33.276  67.034  56.923  1.00  0.00     0.000 C 
BRANCH  12  13
ATOM     13  C   UNL     1      32.282  67.556  55.875  1.00  0.00     0.006 C 
BRANCH  13  14
ATOM     14  C   UNL     1      32.098  66.542  54.741  1.00  0.00     0.053 C 
BRANCH  14  15
ATOM     15  C   UNL     1      32.324  67.190  53.411  1.00  0.00     0.041 C 
ATOM     16  O   UNL     1      33.491  67.309  52.952  1.00  0.00    -0.550 OA
ATOM     17  O   UNL     1      31.247  67.682  52.687  1.00  0.00    -0.550 OA
ENDBRANCH  14  15
ENDBRANCH  13  14
ENDBRANCH  12  13
ENDBRANCH  11  12
ENDBRANCH  10  11
ENDBRANCH   9  10
ENDBRANCH   8   9
ENDBRANCH   7   8
ENDBRANCH   6   7
ENDBRANCH   5   6
ENDBRANCH   4   5
ENDBRANCH   3   4
ENDBRANCH   2   3
ENDBRANCH   1   2
BRANCH   1  18
ATOM     18  C   UNL     1      43.130  65.330  53.755  1.00  0.00     0.000 C 
BRANCH  18  19
ATOM     19  C   UNL     1      44.017  65.618  52.532  1.00  0.00     0.000 C 
BRANCH  19  20
ATOM     20  C   UNL     1      44.358  67.111  52.390  1.00  0.00     0.000 C 
BRANCH  20  21
ATOM     21  C   UNL     1      44.787  67.494  50.961  1.00  0.00     0.000 C 
BRANCH  21  22
ATOM     22  C   UNL     1      44.727  66.351  49.932  1.00  0.00     0.000 C 
BRANCH  22  23
ATOM     23  C   UNL     1      43.755  66.638  48.774  1.00  0.00     0.000 C 
BRANCH  23  24
ATOM     24  C   UNL     1      42.938  67.930  48.982  1.00  0.00    -0.000 C 
BRANCH  24  25
ATOM     25  C   UNL     1      41.427  67.692  49.171  1.00  0.00    -0.000 C 
BRANCH  25  26
ATOM     26  C   UNL     1      40.614  67.559  47.870  1.00  0.00    -0.000 C 
BRANCH  26  27
ATOM     27  C   UNL     1      39.835  66.237  47.719  1.00  0.00    -0.000 C 
BRANCH  27  28
ATOM     28  C   UNL     1      40.726  65.065  47.281  1.00  0.00    -0.000 C 
BRANCH  28  29
ATOM     29  C   UNL     1      41.515  65.418  46.011  1.00  0.00    -0.000 C 
BRANCH  29  30
ATOM     30  C   UNL     1      42.797  64.581  45.849  1.00  0.00    -0.000 C 
BRANCH  30  31
ATOM     31  C   UNL     1      43.800  65.128  44.817  1.00  0.00    -0.003 C 
ATOM     32  C   UNL     1      44.252  66.556  45.120  1.00  0.00     0.004 C 
ENDBRANCH  30  31
ENDBRANCH  29  30
ENDBRANCH  28  29
ENDBRANCH  27  28
ENDBRANCH  26  27
ENDBRANCH  25  26
ENDBRANCH  24  25
ENDBRANCH  23  24
ENDBRANCH  22  23
ENDBRANCH  21  22
ENDBRANCH  20  21
ENDBRANCH  19  20
ENDBRANCH  18  19
ENDBRANCH   1  18
TORSDOF 28
ENDMDL
MODEL 2
REMARK VINA RESULT:    -4.476      5.228     11.918
REMARK INTER + INTRA:         -14.503
REMARK INTER:                 -11.493
REMARK INTRA:                  -3.010
REMARK UNBOUND:                -2.700
REMARK SMILES CCCCCCCCCCCCCCCCCCCCCCCCCCCCCC(=O)[O-]
REMARK SMILES IDX 16 1 17 2 18 3 19 4 20 5 21 6 22 7 23 8 24 9 25 10 26 11
REMARK SMILES IDX 27 12 28 13 29 14 30 15 31 16 32 17 15 18 14 19 13 20 12 21
REMARK SMILES IDX 11 22 10 23 9 24 8 25 7 26 6 27 5 28 4 29 3 30 2 31 1 32
REMARK H PARENT
REMARK Flexibility Score: inf
ROOT
ATOM      1  C   UNL     1      40.878  67.509  49.049  1.00  0.00     0.000 C 
ENDROOT
BRANCH   1   2
ATOM      2  C   UNL     1      41.455  67.250  47.647  1.00  0.00     0.000 C 
BRANCH   2   3
ATOM      3  C   UNL     1      40.605  66.259  46.833  1.00  0.00     0.000 C 
BRANCH   3   4
ATOM      4  C   UNL     1      41.361  64.957  46.520  1.00  0.00     0.000 C 
BRANCH   4   5
ATOM      5  C   UNL     1      42.885  65.110  46.669  1.00  0.00     0.000 C 
BRANCH   5   6
ATOM      6  C   UNL     1      43.663  64.435  45.526  1.00  0.00     0.000 C 
BRANCH   6   7
ATOM      7  C   UNL     1      44.116  65.383  44.399  1.00  0.00     0.000 C 
BRANCH   7   8
ATOM      8  C   UNL     1      44.034  66.884  44.732  1.00  0.00     0.000 C 
BRANCH   8   9
ATOM      9  C   UNL     1      43.076  67.649  43.803  1.00  0.00     0.000 C 
BRANCH   9  10
ATOM     10  C   UNL     1      41.967  66.751  43.231  1.00  0.00     0.000 C 
BRANCH  10  11
ATOM     11  C   UNL     1      41.405  67.291  41.904  1.00  0.00     0.000 C 
BRANCH  11  12
ATOM     12  C   UNL     1      41.870  66.476  40.687  1.00  0.00     0.000 C 
BRANCH  12  13
ATOM     13  C   UNL     1      42.682  65.232  41.079  1.00  0.00     0.006 C 
BRANCH  13  14
ATOM     14  C   UNL     1      44.135  65.354  40.608  1.00  0.00     0.053 C 
BRANCH  14  15
ATOM     15  C   UNL     1      44.665  64.022  40.178  1.00  0.00     0.041 C 
ATOM     16  O   UNL     1      43.910  63.014  40.158  1.00  0.00    -0.550 OA
ATOM     17  O   UNL     1      45.999  63.889  39.818  1.00  0.00    -0.550 OA
ENDBRANCH  14  15
ENDBRANCH  13  14
ENDBRANCH  12  13
ENDBRANCH  11  12
ENDBRANCH  10  11
ENDBRANCH   9  10
ENDBRANCH   8   9
ENDBRANCH   7   8
ENDBRANCH   6   7
ENDBRANCH   5   6
ENDBRANCH   4   5
ENDBRANCH   3   4
ENDBRANCH   2   3
ENDBRANCH   1   2
BRANCH   1  18
ATOM     18  C   UNL     1      41.971  67.756  50.107  1.00  0.00     0.000 C 
BRANCH  18  19
ATOM     19  C   UNL     1      43.393  67.629  49.535  1.00  0.00     0.000 C 
BRANCH  19  20
ATOM     20  C   UNL     1      44.457  67.464  50.633  1.00  0.00     0.000 C 
BRANCH  20  21
ATOM     21  C   UNL     1      45.237  66.141  50.516  1.00  0.00     0.000 C 
BRANCH  21  22
ATOM     22  C   UNL     1      45.095  65.189  51.717  1.00  0.00     0.000 C 
BRANCH  22  23
ATOM     23  C   UNL     1      44.054  65.671  52.742  1.00  0.00     0.000 C 
BRANCH  23  24
ATOM     24  C   UNL     1      43.678  64.585  53.772  1.00  0.00    -0.000 C 
BRANCH  24  25
ATOM     25  C   UNL     1      42.613  65.032  54.793  1.00  0.00    -0.000 C 
BRANCH  25  26
ATOM     26  C   UNL     1      41.253  65.432  54.192  1.00  0.00    -0.000 C 
BRANCH  26  27
ATOM     27  C   UNL     1      40.096  64.458  54.488  1.00  0.00    -0.000 C 
BRANCH  27  28
ATOM     28  C   UNL     1      39.199  64.927  55.643  1.00  0.00    -0.000 C 
BRANCH  28  29
ATOM     29  C   UNL     1      38.091  63.902  55.929  1.00  0.00    -0.000 C 
BRANCH  29  30
ATOM     30  C   UNL     1      38.640  62.513  56.302  1.00  0.00    -0.000 C 
BRANCH  30  31
ATOM     31  C   UNL     1      37.742  61.332  55.895  1.00  0.00    -0.003 C 
ATOM     32  C   UNL     1      36.288  61.738  55.662  1.00  0.00     0.004 C 
ENDBRANCH  30  31
ENDBRANCH  29  30
ENDBRANCH  28  29
ENDBRANCH  27  28
ENDBRANCH  26  27
ENDBRANCH  25  26
ENDBRANCH  24  25
ENDBRANCH  23  24
ENDBRANCH  22  23
ENDBRANCH  21  22
ENDBRANCH  20  21
ENDBRANCH  19  20
ENDBRANCH  18  19
ENDBRANCH   1  18
TORSDOF 28
ENDMDL
MODEL 3
REMARK VINA RESULT:    -4.397      5.820     11.803
REMARK INTER + INTRA:         -14.294
REMARK INTER:                 -12.455
REMARK INTRA:                  -1.839
REMARK UNBOUND:                -2.700
REMARK SMILES CCCCCCCCCCCCCCCCCCCCCCCCCCCCCC(=O)[O-]
REMARK SMILES IDX 16 1 17 2 18 3 19 4 20 5 21 6 22 7 23 8 24 9 25 10 26 11
REMARK SMILES IDX 27 12 28 13 29 14 30 15 31 16 32 17 15 18 14 19 13 20 12 21
REMARK SMILES IDX 11 22 10 23 9 24 8 25 7 26 6 27 5 28 4 29 3 30 2 31 1 32
REMARK H PARENT
REMARK Flexibility Score: inf
ROOT
ATOM      1  C   UNL     1      38.914  64.252  55.830  1.00  0.00     0.000 C 
ENDROOT
BRANCH   1   2
ATOM      2  C   UNL     1      40.083  65.242  55.951  1.00  0.00     0.000 C 
BRANCH   2   3
ATOM      3  C   UNL     1      41.079  65.126  54.784  1.00  0.00     0.000 C 
BRANCH   3   4
ATOM      4  C   UNL     1      42.497  64.760  55.257  1.00  0.00     0.000 C 
BRANCH   4   5
ATOM      5  C   UNL     1      43.520  64.768  54.109  1.00  0.00     0.000 C 
BRANCH   5   6
ATOM      6  C   UNL     1      43.355  65.979  53.176  1.00  0.00     0.000 C 
BRANCH   6   7
ATOM      7  C   UNL     1      44.385  66.065  52.032  1.00  0.00     0.000 C 
BRANCH   7   8
ATOM      8  C   UNL     1      44.966  67.467  51.777  1.00  0.00     0.000 C 
BRANCH   8   9
ATOM      9  C   UNL     1      44.521  68.060  50.429  1.00  0.00     0.000 C 
BRANCH   9  10
ATOM     10  C   UNL     1      43.047  67.760  50.110  1.00  0.00     0.000 C 
BRANCH  10  11
ATOM     11  C   UNL     1      42.832  67.402  48.629  1.00  0.00     0.000 C 
BRANCH  11  12
ATOM     12  C   UNL     1      43.788  66.302  48.140  1.00  0.00     0.000 C 
BRANCH  12  13
ATOM     13  C   UNL     1      43.856  66.211  46.607  1.00  0.00     0.006 C 
BRANCH  13  14
ATOM     14  C   UNL     1      43.172  64.937  46.103  1.00  0.00     0.053 C 
BRANCH  14  15
ATOM     15  C   UNL     1      41.683  65.079  46.157  1.00  0.00     0.041 C 
ATOM     16  O   UNL     1      41.124  66.098  45.670  1.00  0.00    -0.550 OA
ATOM     17  O   UNL     1      40.913  64.097  46.764  1.00  0.00    -0.550 OA
ENDBRANCH  14  15
ENDBRANCH  13  14
ENDBRANCH  12  13
ENDBRANCH  11  12
ENDBRANCH  10  11
ENDBRANCH   9  10
ENDBRANCH   8   9
ENDBRANCH   7   8
ENDBRANCH   6   7
ENDBRANCH   5   6
ENDBRANCH   4   5
ENDBRANCH   3   4
ENDBRANCH   2   3
ENDBRANCH   1   2
BRANCH   1  18
ATOM     18  C   UNL     1      37.582  64.942  55.478  1.00  0.00     0.000 C 
BRANCH  18  19
ATOM     19  C   UNL     1      36.355  64.138  55.939  1.00  0.00     0.000 C 
BRANCH  19  20
ATOM     20  C   UNL     1      36.448  63.717  57.416  1.00  0.00     0.000 C 
BRANCH  20  21
ATOM     21  C   UNL     1      36.438  62.188  57.604  1.00  0.00     0.000 C 
BRANCH  21  22
ATOM     22  C   UNL     1      36.318  61.370  56.306  1.00  0.00     0.000 C 
BRANCH  22  23
ATOM     23  C   UNL     1      37.439  60.327  56.151  1.00  0.00     0.000 C 
BRANCH  23  24
ATOM     24  C   UNL     1      37.121  59.259  55.083  1.00  0.00    -0.000 C 
BRANCH  24  25
ATOM     25  C   UNL     1      37.248  57.810  55.590  1.00  0.00    -0.000 C 
BRANCH  25  26
ATOM     26  C   UNL     1      37.665  57.663  57.066  1.00  0.00    -0.000 C 
BRANCH  26  27
ATOM     27  C   UNL     1      37.293  56.318  57.719  1.00  0.00    -0.000 C 
BRANCH  27  28
ATOM     28  C   UNL     1      36.893  55.245  56.695  1.00  0.00    -0.000 C 
BRANCH  28  29
ATOM     29  C   UNL     1      35.560  54.588  57.080  1.00  0.00    -0.000 C 
BRANCH  29  30
ATOM     30  C   UNL     1      34.900  53.837  55.908  1.00  0.00    -0.000 C 
BRANCH  30  31
ATOM     31  C   UNL     1      34.608  52.350  56.175  1.00  0.00    -0.003 C 
ATOM     32  C   UNL     1      35.823  51.585  56.696  1.00  0.00     0.004 C 
ENDBRANCH  30  31
ENDBRANCH  29  30
ENDBRANCH  28  29
ENDBRANCH  27  28
ENDBRANCH  26  27
ENDBRANCH  25  26
ENDBRANCH  24  25
ENDBRANCH  23  24
ENDBRANCH  22  23
ENDBRANCH  21  22
ENDBRANCH  20  21
ENDBRANCH  19  20
ENDBRANCH  18  19
ENDBRANCH   1  18
TORSDOF 28
ENDMDL
MODEL 4
REMARK VINA RESULT:    -4.352      4.391     11.405
REMARK INTER + INTRA:         -14.177
REMARK INTER:                 -11.352
REMARK INTRA:                  -2.825
REMARK UNBOUND:                -2.700
REMARK SMILES CCCCCCCCCCCCCCCCCCCCCCCCCCCCCC(=O)[O-]
REMARK SMILES IDX 16 1 17 2 18 3 19 4 20 5 21 6 22 7 23 8 24 9 25 10 26 11
REMARK SMILES IDX 27 12 28 13 29 14 30 15 31 16 32 17 15 18 14 19 13 20 12 21
REMARK SMILES IDX 11 22 10 23 9 24 8 25 7 26 6 27 5 28 4 29 3 30 2 31 1 32
REMARK H PARENT
REMARK Flexibility Score: inf
ROOT
ATOM      1  C   UNL     1      44.450  66.229  49.311  1.00  0.00     0.000 C 
ENDROOT
BRANCH   1   2
ATOM      2  C   UNL     1      43.867  67.617  48.999  1.00  0.00     0.000 C 
BRANCH   2   3
ATOM      3  C   UNL     1      42.581  67.908  49.791  1.00  0.00     0.000 C 
BRANCH   3   4
ATOM      4  C   UNL     1      41.310  67.582  48.988  1.00  0.00     0.000 C 
BRANCH   4   5
ATOM      5  C   UNL     1      41.525  67.708  47.470  1.00  0.00     0.000 C 
BRANCH   5   6
ATOM      6  C   UNL     1      40.676  66.707  46.667  1.00  0.00     0.000 C 
BRANCH   6   7
ATOM      7  C   UNL     1      41.457  65.876  45.630  1.00  0.00     0.000 C 
BRANCH   7   8
ATOM      8  C   UNL     1      42.247  64.687  46.205  1.00  0.00     0.000 C 
BRANCH   8   9
ATOM      9  C   UNL     1      43.744  64.743  45.857  1.00  0.00     0.000 C 
BRANCH   9  10
ATOM     10  C   UNL     1      44.212  66.161  45.490  1.00  0.00     0.000 C 
BRANCH  10  11
ATOM     11  C   UNL     1      45.025  66.187  44.184  1.00  0.00     0.000 C 
BRANCH  11  12
ATOM     12  C   UNL     1      44.179  66.594  42.966  1.00  0.00     0.000 C 
BRANCH  12  13
ATOM     13  C   UNL     1      43.772  65.394  42.098  1.00  0.00     0.006 C 
BRANCH  13  14
ATOM     14  C   UNL     1      42.281  65.449  41.750  1.00  0.00     0.053 C 
BRANCH  14  15
ATOM     15  C   UNL     1      42.085  65.889  40.333  1.00  0.00     0.041 C 
ATOM     16  O   UNL     1      42.394  67.058  39.982  1.00  0.00    -0.550 OA
ATOM     17  O   UNL     1      41.541  65.013  39.403  1.00  0.00    -0.550 OA
ENDBRANCH  14  15
ENDBRANCH  13  14
ENDBRANCH  12  13
ENDBRANCH  11  12
ENDBRANCH  10  11
ENDBRANCH   9  10
ENDBRANCH   8   9
ENDBRANCH   7   8
ENDBRANCH   6   7
ENDBRANCH   5   6
ENDBRANCH   4   5
ENDBRANCH   3   4
ENDBRANCH   2   3
ENDBRANCH   1   2
BRANCH   1  18
ATOM     18  C   UNL     1      45.391  66.238  50.531  1.00  0.00     0.000 C 
BRANCH  18  19
ATOM     19  C   UNL     1      44.793  65.512  51.748  1.00  0.00     0.000 C 
BRANCH  19  20
ATOM     20  C   UNL     1      44.032  66.464  52.687  1.00  0.00     0.000 C 
BRANCH  20  21
ATOM     21  C   UNL     1      42.870  65.774  53.425  1.00  0.00     0.000 C 
BRANCH  21  22
ATOM     22  C   UNL     1      43.287  64.669  54.412  1.00  0.00     0.000 C 
BRANCH  22  23
ATOM     23  C   UNL     1      42.941  65.010  55.873  1.00  0.00     0.000 C 
BRANCH  23  24
ATOM     24  C   UNL     1      43.281  63.867  56.852  1.00  0.00    -0.000 C 
BRANCH  24  25
ATOM     25  C   UNL     1      42.130  63.500  57.809  1.00  0.00    -0.000 C 
BRANCH  25  26
ATOM     26  C   UNL     1      40.736  63.995  57.382  1.00  0.00    -0.000 C 
BRANCH  26  27
ATOM     27  C   UNL     1      39.655  62.900  57.286  1.00  0.00    -0.000 C 
BRANCH  27  28
ATOM     28  C   UNL     1      38.664  63.137  56.136  1.00  0.00    -0.000 C 
BRANCH  28  29
ATOM     29  C   UNL     1      37.313  62.470  56.430  1.00  0.00    -0.000 C 
BRANCH  29  30
ATOM     30  C   UNL     1      36.182  62.977  55.515  1.00  0.00    -0.000 C 
BRANCH  30  31
ATOM     31  C   UNL     1      36.351  64.424  55.020  1.00  0.00    -0.003 C 
ATOM     32  C   UNL     1      35.204  65.340  55.445  1.00  0.00     0.004 C 
ENDBRANCH  30  31
ENDBRANCH  29  30
ENDBRANCH  28  29
ENDBRANCH  27  28
ENDBRANCH  26  27
ENDBRANCH  25  26
ENDBRANCH  24  25
ENDBRANCH  23  24
ENDBRANCH  22  23
ENDBRANCH  21  22
ENDBRANCH  20  21
ENDBRANCH  19  20
ENDBRANCH  18  19
ENDBRANCH   1  18
TORSDOF 28
ENDMDL
MODEL 5
REMARK VINA RESULT:    -4.341      8.824     12.189
REMARK INTER + INTRA:         -14.147
REMARK INTER:                 -11.852
REMARK INTRA:                  -2.295
REMARK UNBOUND:                -2.700
REMARK SMILES CCCCCCCCCCCCCCCCCCCCCCCCCCCCCC(=O)[O-]
REMARK SMILES IDX 16 1 17 2 18 3 19 4 20 5 21 6 22 7 23 8 24 9 25 10 26 11
REMARK SMILES IDX 27 12 28 13 29 14 30 15 31 16 32 17 15 18 14 19 13 20 12 21
REMARK SMILES IDX 11 22 10 23 9 24 8 25 7 26 6 27 5 28 4 29 3 30 2 31 1 32
REMARK H PARENT
REMARK Flexibility Score: inf
ROOT
ATOM      1  C   UNL     1      37.250  58.373  55.679  1.00  0.00     0.000 C 
ENDROOT
BRANCH   1   2
ATOM      2  C   UNL     1      36.496  59.710  55.765  1.00  0.00     0.000 C 
BRANCH   2   3
ATOM      3  C   UNL     1      36.192  60.125  57.214  1.00  0.00     0.000 C 
BRANCH   3   4
ATOM      4  C   UNL     1      36.651  61.560  57.523  1.00  0.00     0.000 C 
BRANCH   4   5
ATOM      5  C   UNL     1      38.173  61.735  57.380  1.00  0.00     0.000 C 
BRANCH   5   6
ATOM      6  C   UNL     1      38.554  62.698  56.243  1.00  0.00     0.000 C 
BRANCH   6   7
ATOM      7  C   UNL     1      38.377  64.194  56.571  1.00  0.00     0.000 C 
BRANCH   7   8
ATOM      8  C   UNL     1      37.693  65.028  55.473  1.00  0.00     0.000 C 
BRANCH   8   9
ATOM      9  C   UNL     1      36.204  64.682  55.304  1.00  0.00     0.000 C 
BRANCH   9  10
ATOM     10  C   UNL     1      35.390  64.935  56.583  1.00  0.00     0.000 C 
BRANCH  10  11
ATOM     11  C   UNL     1      35.223  66.436  56.882  1.00  0.00     0.000 C 
BRANCH  11  12
ATOM     12  C   UNL     1      34.443  67.176  55.783  1.00  0.00     0.000 C 
BRANCH  12  13
ATOM     13  C   UNL     1      32.924  67.148  56.010  1.00  0.00     0.006 C 
BRANCH  13  14
ATOM     14  C   UNL     1      32.226  66.300  54.943  1.00  0.00     0.053 C 
BRANCH  14  15
ATOM     15  C   UNL     1      31.635  67.171  53.879  1.00  0.00     0.041 C 
ATOM     16  O   UNL     1      30.738  68.006  54.167  1.00  0.00    -0.550 OA
ATOM     17  O   UNL     1      32.061  67.045  52.563  1.00  0.00    -0.550 OA
ENDBRANCH  14  15
ENDBRANCH  13  14
ENDBRANCH  12  13
ENDBRANCH  11  12
ENDBRANCH  10  11
ENDBRANCH   9  10
ENDBRANCH   8   9
ENDBRANCH   7   8
ENDBRANCH   6   7
ENDBRANCH   5   6
ENDBRANCH   4   5
ENDBRANCH   3   4
ENDBRANCH   2   3
ENDBRANCH   1   2
BRANCH   1  18
ATOM     18  C   UNL     1      37.822  57.923  57.037  1.00  0.00     0.000 C 
BRANCH  18  19
ATOM     19  C   UNL     1      37.385  56.501  57.425  1.00  0.00     0.000 C 
BRANCH  19  20
ATOM     20  C   UNL     1      36.533  55.828  56.335  1.00  0.00     0.000 C 
BRANCH  20  21
ATOM     21  C   UNL     1      36.111  54.393  56.705  1.00  0.00     0.000 C 
BRANCH  21  22
ATOM     22  C   UNL     1      34.613  54.211  57.007  1.00  0.00     0.000 C 
BRANCH  22  23
ATOM     23  C   UNL     1      34.066  52.856  56.524  1.00  0.00     0.000 C 
BRANCH  23  24
ATOM     24  C   UNL     1      35.180  51.836  56.211  1.00  0.00    -0.000 C 
BRANCH  24  25
ATOM     25  C   UNL     1      34.862  50.904  55.026  1.00  0.00    -0.000 C 
BRANCH  25  26
ATOM     26  C   UNL     1      33.461  50.263  55.051  1.00  0.00    -0.000 C 
BRANCH  26  27
ATOM     27  C   UNL     1      32.405  50.966  54.175  1.00  0.00    -0.000 C 
BRANCH  27  28
ATOM     28  C   UNL     1      33.014  51.667  52.952  1.00  0.00    -0.000 C 
BRANCH  28  29
ATOM     29  C   UNL     1      32.032  51.661  51.770  1.00  0.00    -0.000 C 
BRANCH  29  30
ATOM     30  C   UNL     1      32.208  50.439  50.850  1.00  0.00    -0.000 C 
BRANCH  30  31
ATOM     31  C   UNL     1      32.418  50.775  49.363  1.00  0.00    -0.003 C 
ATOM     32  C   UNL     1      33.803  51.347  49.067  1.00  0.00     0.004 C 
ENDBRANCH  30  31
ENDBRANCH  29  30
ENDBRANCH  28  29
ENDBRANCH  27  28
ENDBRANCH  26  27
ENDBRANCH  25  26
ENDBRANCH  24  25
ENDBRANCH  23  24
ENDBRANCH  22  23
ENDBRANCH  21  22
ENDBRANCH  20  21
ENDBRANCH  19  20
ENDBRANCH  18  19
ENDBRANCH   1  18
TORSDOF 28
ENDMDL
MODEL 6
REMARK VINA RESULT:    -4.289      8.851     12.136
REMARK INTER + INTRA:         -14.010
REMARK INTER:                 -11.799
REMARK INTRA:                  -2.211
REMARK UNBOUND:                -2.700
REMARK SMILES CCCCCCCCCCCCCCCCCCCCCCCCCCCCCC(=O)[O-]
REMARK SMILES IDX 16 1 17 2 18 3 19 4 20 5 21 6 22 7 23 8 24 9 25 10 26 11
REMARK SMILES IDX 27 12 28 13 29 14 30 15 31 16 32 17 15 18 14 19 13 20 12 21
REMARK SMILES IDX 11 22 10 23 9 24 8 25 7 26 6 27 5 28 4 29 3 30 2 31 1 32
REMARK H PARENT
REMARK Flexibility Score: inf
ROOT
ATOM      1  C   UNL     1      36.980  59.545  55.519  1.00  0.00     0.000 C 
ENDROOT
BRANCH   1   2
ATOM      2  C   UNL     1      37.263  58.063  55.813  1.00  0.00     0.000 C 
BRANCH   2   3
ATOM      3  C   UNL     1      37.430  57.781  57.317  1.00  0.00     0.000 C 
BRANCH   3   4
ATOM      4  C   UNL     1      36.951  56.373  57.706  1.00  0.00     0.000 C 
BRANCH   4   5
ATOM      5  C   UNL     1      37.137  55.352  56.571  1.00  0.00     0.000 C 
BRANCH   5   6
ATOM      6  C   UNL     1      35.861  54.539  56.290  1.00  0.00     0.000 C 
BRANCH   6   7
ATOM      7  C   UNL     1      34.964  54.292  57.519  1.00  0.00     0.000 C 
BRANCH   7   8
ATOM      8  C   UNL     1      33.511  53.896  57.200  1.00  0.00     0.000 C 
BRANCH   8   9
ATOM      9  C   UNL     1      33.300  53.556  55.714  1.00  0.00     0.000 C 
BRANCH   9  10
ATOM     10  C   UNL     1      32.940  52.077  55.492  1.00  0.00     0.000 C 
BRANCH  10  11
ATOM     11  C   UNL     1      33.781  51.433  54.376  1.00  0.00     0.000 C 
BRANCH  11  12
ATOM     12  C   UNL     1      33.371  51.911  52.974  1.00  0.00     0.000 C 
BRANCH  12  13
ATOM     13  C   UNL     1      32.326  50.996  52.316  1.00  0.00     0.006 C 
BRANCH  13  14
ATOM     14  C   UNL     1      32.040  51.437  50.877  1.00  0.00     0.053 C 
BRANCH  14  15
ATOM     15  C   UNL     1      33.237  51.214  50.007  1.00  0.00     0.041 C 
ATOM     16  O   UNL     1      33.951  52.186  49.647  1.00  0.00    -0.550 OA
ATOM     17  O   UNL     1      33.553  49.932  49.576  1.00  0.00    -0.550 OA
ENDBRANCH  14  15
ENDBRANCH  13  14
ENDBRANCH  12  13
ENDBRANCH  11  12
ENDBRANCH  10  11
ENDBRANCH   9  10
ENDBRANCH   8   9
ENDBRANCH   7   8
ENDBRANCH   6   7
ENDBRANCH   5   6
ENDBRANCH   4   5
ENDBRANCH   3   4
ENDBRANCH   2   3
ENDBRANCH   1   2
BRANCH   1  18
ATOM     18  C   UNL     1      35.999  60.177  56.526  1.00  0.00     0.000 C 
BRANCH  18  19
ATOM     19  C   UNL     1      36.440  61.575  56.990  1.00  0.00     0.000 C 
BRANCH  19  20
ATOM     20  C   UNL     1      37.779  61.549  57.746  1.00  0.00     0.000 C 
BRANCH  20  21
ATOM     21  C   UNL     1      38.883  62.357  57.038  1.00  0.00     0.000 C 
BRANCH  21  22
ATOM     22  C   UNL     1      38.406  63.219  55.856  1.00  0.00     0.000 C 
BRANCH  22  23
ATOM     23  C   UNL     1      39.290  64.456  55.622  1.00  0.00     0.000 C 
BRANCH  23  24
ATOM     24  C   UNL     1      38.810  65.695  56.408  1.00  0.00    -0.000 C 
BRANCH  24  25
ATOM     25  C   UNL     1      37.278  65.862  56.439  1.00  0.00    -0.000 C 
BRANCH  25  26
ATOM     26  C   UNL     1      36.770  67.304  56.253  1.00  0.00    -0.000 C 
BRANCH  26  27
ATOM     27  C   UNL     1      35.602  67.462  55.261  1.00  0.00    -0.000 C 
BRANCH  27  28
ATOM     28  C   UNL     1      35.028  66.116  54.793  1.00  0.00    -0.000 C 
BRANCH  28  29
ATOM     29  C   UNL     1      33.548  65.985  55.180  1.00  0.00    -0.000 C 
BRANCH  29  30
ATOM     30  C   UNL     1      32.710  67.212  54.774  1.00  0.00    -0.000 C 
BRANCH  30  31
ATOM     31  C   UNL     1      31.513  66.902  53.857  1.00  0.00    -0.003 C 
ATOM     32  C   UNL     1      31.208  68.028  52.870  1.00  0.00     0.004 C 
ENDBRANCH  30  31
ENDBRANCH  29  30
ENDBRANCH  28  29
ENDBRANCH  27  28
ENDBRANCH  26  27
ENDBRANCH  25  26
ENDBRANCH  24  25
ENDBRANCH  23  24
ENDBRANCH  22  23
ENDBRANCH  21  22
ENDBRANCH  20  21
ENDBRANCH  19  20
ENDBRANCH  18  19
ENDBRANCH   1  18
TORSDOF 28
ENDMDL
MODEL 7
REMARK VINA RESULT:    -4.274      1.852      3.457
REMARK INTER + INTRA:         -13.971
REMARK INTER:                 -11.781
REMARK INTRA:                  -2.190
REMARK UNBOUND:                -2.700
REMARK SMILES CCCCCCCCCCCCCCCCCCCCCCCCCCCCCC(=O)[O-]
REMARK SMILES IDX 16 1 17 2 18 3 19 4 20 5 21 6 22 7 23 8 24 9 25 10 26 11
REMARK SMILES IDX 27 12 28 13 29 14 30 15 31 16 32 17 15 18 14 19 13 20 12 21
REMARK SMILES IDX 11 22 10 23 9 24 8 25 7 26 6 27 5 28 4 29 3 30 2 31 1 32
REMARK H PARENT
REMARK Flexibility Score: inf
ROOT
ATOM      1  C   UNL     1      45.148  65.092  52.021  1.00  0.00     0.000 C 
ENDROOT
BRANCH   1   2
ATOM      2  C   UNL     1      43.929  65.511  52.858  1.00  0.00     0.000 C 
BRANCH   2   3
ATOM      3  C   UNL     1      43.600  64.499  53.969  1.00  0.00     0.000 C 
BRANCH   3   4
ATOM      4  C   UNL     1      42.806  65.134  55.124  1.00  0.00     0.000 C 
BRANCH   4   5
ATOM      5  C   UNL     1      43.225  64.583  56.498  1.00  0.00     0.000 C 
BRANCH   5   6
ATOM      6  C   UNL     1      42.083  64.630  57.528  1.00  0.00     0.000 C 
BRANCH   6   7
ATOM      7  C   UNL     1      40.678  64.851  56.932  1.00  0.00     0.000 C 
BRANCH   7   8
ATOM      8  C   UNL     1      39.709  63.665  57.084  1.00  0.00     0.000 C 
BRANCH   8   9
ATOM      9  C   UNL     1      38.768  63.507  55.877  1.00  0.00     0.000 C 
BRANCH   9  10
ATOM     10  C   UNL     1      37.698  62.425  56.100  1.00  0.00     0.000 C 
BRANCH  10  11
ATOM     11  C   UNL     1      36.318  62.852  55.571  1.00  0.00     0.000 C 
BRANCH  11  12
ATOM     12  C   UNL     1      36.278  64.327  55.140  1.00  0.00     0.000 C 
BRANCH  12  13
ATOM     13  C   UNL     1      35.243  65.148  55.924  1.00  0.00     0.006 C 
BRANCH  13  14
ATOM     14  C   UNL     1      34.499  66.118  55.000  1.00  0.00     0.053 C 
BRANCH  14  15
ATOM     15  C   UNL     1      33.141  66.430  55.546  1.00  0.00     0.041 C 
ATOM     16  O   UNL     1      33.017  66.922  56.698  1.00  0.00    -0.550 OA
ATOM     17  O   UNL     1      32.009  66.158  54.789  1.00  0.00    -0.550 OA
ENDBRANCH  14  15
ENDBRANCH  13  14
ENDBRANCH  12  13
ENDBRANCH  11  12
ENDBRANCH  10  11
ENDBRANCH   9  10
ENDBRANCH   8   9
ENDBRANCH   7   8
ENDBRANCH   6   7
ENDBRANCH   5   6
ENDBRANCH   4   5
ENDBRANCH   3   4
ENDBRANCH   2   3
ENDBRANCH   1   2
BRANCH   1  18
ATOM     18  C   UNL     1      45.354  65.983  50.780  1.00  0.00     0.000 C 
BRANCH  18  19
ATOM     19  C   UNL     1      44.293  67.089  50.659  1.00  0.00     0.000 C 
BRANCH  19  20
ATOM     20  C   UNL     1      43.786  67.263  49.217  1.00  0.00     0.000 C 
BRANCH  20  21
ATOM     21  C   UNL     1      44.423  66.262  48.234  1.00  0.00     0.000 C 
BRANCH  21  22
ATOM     22  C   UNL     1      43.935  66.375  46.778  1.00  0.00     0.000 C 
BRANCH  22  23
ATOM     23  C   UNL     1      43.172  65.126  46.304  1.00  0.00     0.000 C 
BRANCH  23  24
ATOM     24  C   UNL     1      41.655  65.368  46.163  1.00  0.00    -0.000 C 
BRANCH  24  25
ATOM     25  C   UNL     1      41.221  66.817  46.455  1.00  0.00    -0.000 C 
BRANCH  25  26
ATOM     26  C   UNL     1      41.066  67.720  45.216  1.00  0.00    -0.000 C 
BRANCH  26  27
ATOM     27  C   UNL     1      41.467  67.068  43.879  1.00  0.00    -0.000 C 
BRANCH  27  28
ATOM     28  C   UNL     1      42.803  67.595  43.332  1.00  0.00    -0.000 C 
BRANCH  28  29
ATOM     29  C   UNL     1      43.413  66.607  42.327  1.00  0.00    -0.000 C 
BRANCH  29  30
ATOM     30  C   UNL     1      44.553  65.765  42.930  1.00  0.00    -0.000 C 
BRANCH  30  31
ATOM     31  C   UNL     1      45.926  66.459  42.956  1.00  0.00    -0.003 C 
ATOM     32  C   UNL     1      47.042  65.600  42.362  1.00  0.00     0.004 C 
ENDBRANCH  30  31
ENDBRANCH  29  30
ENDBRANCH  28  29
ENDBRANCH  27  28
ENDBRANCH  26  27
ENDBRANCH  25  26
ENDBRANCH  24  25
ENDBRANCH  23  24
ENDBRANCH  22  23
ENDBRANCH  21  22
ENDBRANCH  20  21
ENDBRANCH  19  20
ENDBRANCH  18  19
ENDBRANCH   1  18
TORSDOF 28
ENDMDL
MODEL 8
REMARK VINA RESULT:    -4.267     10.737     13.760
REMARK INTER + INTRA:         -13.952
REMARK INTER:                 -11.766
REMARK INTRA:                  -2.186
REMARK UNBOUND:                -2.700
REMARK SMILES CCCCCCCCCCCCCCCCCCCCCCCCCCCCCC(=O)[O-]
REMARK SMILES IDX 16 1 17 2 18 3 19 4 20 5 21 6 22 7 23 8 24 9 25 10 26 11
REMARK SMILES IDX 27 12 28 13 29 14 30 15 31 16 32 17 15 18 14 19 13 20 12 21
REMARK SMILES IDX 11 22 10 23 9 24 8 25 7 26 6 27 5 28 4 29 3 30 2 31 1 32
REMARK H PARENT
REMARK Flexibility Score: inf
ROOT
ATOM      1  C   UNL     1      35.545  54.626  57.314  1.00  0.00     0.000 C 
ENDROOT
BRANCH   1   2
ATOM      2  C   UNL     1      36.720  55.450  56.763  1.00  0.00     0.000 C 
BRANCH   2   3
ATOM      3  C   UNL     1      37.288  56.435  57.799  1.00  0.00     0.000 C 
BRANCH   3   4
ATOM      4  C   UNL     1      37.447  57.856  57.231  1.00  0.00     0.000 C 
BRANCH   4   5
ATOM      5  C   UNL     1      37.222  57.912  55.711  1.00  0.00     0.000 C 
BRANCH   5   6
ATOM      6  C   UNL     1      37.182  59.351  55.170  1.00  0.00     0.000 C 
BRANCH   6   7
ATOM      7  C   UNL     1      37.177  60.452  56.250  1.00  0.00     0.000 C 
BRANCH   7   8
ATOM      8  C   UNL     1      38.102  61.649  55.969  1.00  0.00     0.000 C 
BRANCH   8   9
ATOM      9  C   UNL     1      37.444  63.000  56.298  1.00  0.00     0.000 C 
BRANCH   9  10
ATOM     10  C   UNL     1      36.119  63.209  55.546  1.00  0.00     0.000 C 
BRANCH  10  11
ATOM     11  C   UNL     1      36.111  64.514  54.730  1.00  0.00     0.000 C 
BRANCH  11  12
ATOM     12  C   UNL     1      36.276  65.764  55.608  1.00  0.00     0.000 C 
BRANCH  12  13
ATOM     13  C   UNL     1      35.128  66.770  55.434  1.00  0.00     0.006 C 
BRANCH  13  14
ATOM     14  C   UNL     1      33.780  66.051  55.328  1.00  0.00     0.053 C 
BRANCH  14  15
ATOM     15  C   UNL     1      32.909  66.707  54.303  1.00  0.00     0.041 C 
ATOM     16  O   UNL     1      31.655  66.645  54.400  1.00  0.00    -0.550 OA
ATOM     17  O   UNL     1      33.484  67.370  53.227  1.00  0.00    -0.550 OA
ENDBRANCH  14  15
ENDBRANCH  13  14
ENDBRANCH  12  13
ENDBRANCH  11  12
ENDBRANCH  10  11
ENDBRANCH   9  10
ENDBRANCH   8   9
ENDBRANCH   7   8
ENDBRANCH   6   7
ENDBRANCH   5   6
ENDBRANCH   4   5
ENDBRANCH   3   4
ENDBRANCH   2   3
ENDBRANCH   1   2
BRANCH   1  18
ATOM     18  C   UNL     1      35.604  53.145  56.890  1.00  0.00     0.000 C 
BRANCH  18  19
ATOM     19  C   UNL     1      34.892  52.213  57.884  1.00  0.00     0.000 C 
BRANCH  19  20
ATOM     20  C   UNL     1      35.388  50.760  57.788  1.00  0.00     0.000 C 
BRANCH  20  21
ATOM     21  C   UNL     1      36.356  50.535  56.611  1.00  0.00     0.000 C 
BRANCH  21  22
ATOM     22  C   UNL     1      35.845  49.580  55.518  1.00  0.00     0.000 C 
BRANCH  22  23
ATOM     23  C   UNL     1      34.401  49.108  55.762  1.00  0.00     0.000 C 
BRANCH  23  24
ATOM     24  C   UNL     1      33.410  49.635  54.704  1.00  0.00    -0.000 C 
BRANCH  24  25
ATOM     25  C   UNL     1      33.317  51.172  54.642  1.00  0.00    -0.000 C 
BRANCH  25  26
ATOM     26  C   UNL     1      33.443  51.782  53.233  1.00  0.00    -0.000 C 
BRANCH  26  27
ATOM     27  C   UNL     1      32.199  51.622  52.338  1.00  0.00    -0.000 C 
BRANCH  27  28
ATOM     28  C   UNL     1      32.504  50.912  51.011  1.00  0.00    -0.000 C 
BRANCH  28  29
ATOM     29  C   UNL     1      31.651  49.644  50.857  1.00  0.00    -0.000 C 
BRANCH  29  30
ATOM     30  C   UNL     1      32.125  48.737  49.706  1.00  0.00    -0.000 C 
BRANCH  30  31
ATOM     31  C   UNL     1      33.652  48.574  49.598  1.00  0.00    -0.003 C 
ATOM     32  C   UNL     1      34.206  49.011  48.243  1.00  0.00     0.004 C 
ENDBRANCH  30  31
ENDBRANCH  29  30
ENDBRANCH  28  29
ENDBRANCH  27  28
ENDBRANCH  26  27
ENDBRANCH  25  26
ENDBRANCH  24  25
ENDBRANCH  23  24
ENDBRANCH  22  23
ENDBRANCH  21  22
ENDBRANCH  20  21
ENDBRANCH  19  20
ENDBRANCH  18  19
ENDBRANCH   1  18
TORSDOF 28
ENDMDL
MODEL 9
REMARK VINA RESULT:    -4.225      5.269     12.268
REMARK INTER + INTRA:         -13.840
REMARK INTER:                 -10.458
REMARK INTRA:                  -3.382
REMARK UNBOUND:                -2.700
REMARK SMILES CCCCCCCCCCCCCCCCCCCCCCCCCCCCCC(=O)[O-]
REMARK SMILES IDX 16 1 17 2 18 3 19 4 20 5 21 6 22 7 23 8 24 9 25 10 26 11
REMARK SMILES IDX 27 12 28 13 29 14 30 15 31 16 32 17 15 18 14 19 13 20 12 21
REMARK SMILES IDX 11 22 10 23 9 24 8 25 7 26 6 27 5 28 4 29 3 30 2 31 1 32
REMARK H PARENT
REMARK Flexibility Score: inf
ROOT
ATOM      1  C   UNL     1      40.171  66.283  47.821  1.00  0.00     0.000 C 
ENDROOT
BRANCH   1   2
ATOM      2  C   UNL     1      40.955  66.139  46.507  1.00  0.00     0.000 C 
BRANCH   2   3
ATOM      3  C   UNL     1      41.543  64.730  46.321  1.00  0.00     0.000 C 
BRANCH   3   4
ATOM      4  C   UNL     1      43.046  64.759  45.997  1.00  0.00     0.000 C 
BRANCH   4   5
ATOM      5  C   UNL     1      43.652  66.166  46.138  1.00  0.00     0.000 C 
BRANCH   5   6
ATOM      6  C   UNL     1      44.624  66.510  44.997  1.00  0.00     0.000 C 
BRANCH   6   7
ATOM      7  C   UNL     1      44.240  67.750  44.166  1.00  0.00     0.000 C 
BRANCH   7   8
ATOM      8  C   UNL     1      42.747  68.125  44.201  1.00  0.00     0.000 C 
BRANCH   8   9
ATOM      9  C   UNL     1      42.014  67.770  42.897  1.00  0.00     0.000 C 
BRANCH   9  10
ATOM     10  C   UNL     1      41.511  66.316  42.879  1.00  0.00     0.000 C 
BRANCH  10  11
ATOM     11  C   UNL     1      42.098  65.511  41.707  1.00  0.00     0.000 C 
BRANCH  11  12
ATOM     12  C   UNL     1      43.563  65.107  41.939  1.00  0.00     0.000 C 
BRANCH  12  13
ATOM     13  C   UNL     1      44.532  65.795  40.965  1.00  0.00     0.006 C 
BRANCH  13  14
ATOM     14  C   UNL     1      45.973  65.336  41.209  1.00  0.00     0.053 C 
BRANCH  14  15
ATOM     15  C   UNL     1      46.412  64.383  40.142  1.00  0.00     0.041 C 
ATOM     16  O   UNL     1      47.630  64.288  39.837  1.00  0.00    -0.550 OA
ATOM     17  O   UNL     1      45.472  63.614  39.468  1.00  0.00    -0.550 OA
ENDBRANCH  14  15
ENDBRANCH  13  14
ENDBRANCH  12  13
ENDBRANCH  11  12
ENDBRANCH  10  11
ENDBRANCH   9  10
ENDBRANCH   8   9
ENDBRANCH   7   8
ENDBRANCH   6   7
ENDBRANCH   5   6
ENDBRANCH   4   5
ENDBRANCH   3   4
ENDBRANCH   2   3
ENDBRANCH   1   2
BRANCH   1  18
ATOM     18  C   UNL     1      40.209  67.716  48.385  1.00  0.00     0.000 C 
BRANCH  18  19
ATOM     19  C   UNL     1      41.255  67.890  49.499  1.00  0.00     0.000 C 
BRANCH  19  20
ATOM     20  C   UNL     1      42.671  68.125  48.946  1.00  0.00     0.000 C 
BRANCH  20  21
ATOM     21  C   UNL     1      43.768  67.940  50.011  1.00  0.00     0.000 C 
BRANCH  21  22
ATOM     22  C   UNL     1      44.492  66.583  49.975  1.00  0.00     0.000 C 
BRANCH  22  23
ATOM     23  C   UNL     1      45.127  66.207  51.326  1.00  0.00     0.000 C 
BRANCH  23  24
ATOM     24  C   UNL     1      44.100  66.141  52.475  1.00  0.00    -0.000 C 
BRANCH  24  25
ATOM     25  C   UNL     1      44.016  64.765  53.162  1.00  0.00    -0.000 C 
BRANCH  25  26
ATOM     26  C   UNL     1      43.204  64.732  54.471  1.00  0.00    -0.000 C 
BRANCH  26  27
ATOM     27  C   UNL     1      41.921  65.585  54.465  1.00  0.00    -0.000 C 
BRANCH  27  28
ATOM     28  C   UNL     1      41.567  66.144  55.852  1.00  0.00    -0.000 C 
BRANCH  28  29
ATOM     29  C   UNL     1      40.264  65.524  56.378  1.00  0.00    -0.000 C 
BRANCH  29  30
ATOM     30  C   UNL     1      39.498  64.733  55.301  1.00  0.00    -0.000 C 
BRANCH  30  31
ATOM     31  C   UNL     1      37.970  64.705  55.483  1.00  0.00    -0.003 C 
ATOM     32  C   UNL     1      37.426  65.958  56.168  1.00  0.00     0.004 C 
ENDBRANCH  30  31
ENDBRANCH  29  30
ENDBRANCH  28  29
ENDBRANCH  27  28
ENDBRANCH  26  27
ENDBRANCH  25  26
ENDBRANCH  24  25
ENDBRANCH  23  24
ENDBRANCH  22  23
ENDBRANCH  21  22
ENDBRANCH  20  21
ENDBRANCH  19  20
ENDBRANCH  18  19
ENDBRANCH   1  18
TORSDOF 28
ENDMDL
