MODEL 1
REMARK VINA RESULT:    -4.726      0.000      0.000
REMARK INTER + INTRA:          -5.489
REMARK INTER:                  -5.278
REMARK INTRA:                  -0.210
REMARK UNBOUND:                -0.210
REMARK SMILES O=C([O-])c1ccccc1C(=O)[O-]
REMARK SMILES IDX 4 1 9 2 5 3 8 4 6 5 7 6 2 7 1 8 3 9 10 10 11 11 12 12
REMARK H PARENT
REMARK Flexibility Score: inf
ROOT
ATOM      1  C   UNL     1      35.346  19.634   9.592  1.00  0.00     0.006 A 
ATOM      2  C   UNL     1      35.818  18.828  10.666  1.00  0.00     0.006 A 
ATOM      3  C   UNL     1      34.418  20.656   9.861  1.00  0.00     0.010 A 
ATOM      4  C   UNL     1      35.295  19.032  11.956  1.00  0.00     0.010 A 
ATOM      5  C   UNL     1      33.930  20.856  11.152  1.00  0.00     0.001 A 
ATOM      6  C   UNL     1      34.358  20.037  12.195  1.00  0.00     0.001 A 
ENDROOT
BRANCH   1   7
ATOM      7  C   UNL     1      35.735  19.404   8.181  1.00  0.00     0.072 C 
ATOM      8  O   UNL     1      34.966  18.793   7.392  1.00  0.00    -0.545 OA
ATOM      9  O   UNL     1      36.929  19.923   7.693  1.00  0.00    -0.545 OA
ENDBRANCH   1   7
BRANCH   2  10
ATOM     10  C   UNL     1      36.895  17.824  10.500  1.00  0.00     0.072 C 
ATOM     11  O   UNL     1      36.613  16.599  10.423  1.00  0.00    -0.545 OA
ATOM     12  O   UNL     1      38.231  18.211  10.493  1.00  0.00    -0.545 OA
ENDBRANCH   2  10
TORSDOF 2
ENDMDL
MODEL 2
REMARK VINA RESULT:    -4.719      1.796      2.209
REMARK INTER + INTRA:          -5.481
REMARK INTER:                  -5.263
REMARK INTRA:                  -0.218
REMARK UNBOUND:                -0.210
REMARK SMILES O=C([O-])c1ccccc1C(=O)[O-]
REMARK SMILES IDX 4 1 9 2 5 3 8 4 6 5 7 6 2 7 1 8 3 9 10 10 11 11 12 12
REMARK H PARENT
REMARK Flexibility Score: inf
ROOT
ATOM      1  C   UNL     1      37.100  18.891   9.676  1.00  0.00     0.006 A 
ATOM      2  C   UNL     1      36.670  18.402  10.941  1.00  0.00     0.006 A 
ATOM      3  C   UNL     1      36.274  19.787   8.972  1.00  0.00     0.010 A 
ATOM      4  C   UNL     1      35.402  18.776  11.424  1.00  0.00     0.010 A 
ATOM      5  C   UNL     1      35.031  20.162   9.481  1.00  0.00     0.001 A 
ATOM      6  C   UNL     1      34.591  19.648  10.699  1.00  0.00     0.001 A 
ENDROOT
BRANCH   1   7
ATOM      7  C   UNL     1      38.354  18.447   9.024  1.00  0.00     0.072 C 
ATOM      8  O   UNL     1      38.375  17.416   8.300  1.00  0.00    -0.545 OA
ATOM      9  O   UNL     1      39.512  19.205   9.150  1.00  0.00    -0.545 OA
ENDBRANCH   1   7
BRANCH   2  10
ATOM     10  C   UNL     1      37.531  17.569  11.812  1.00  0.00     0.072 C 
ATOM     11  O   UNL     1      37.349  16.324  11.878  1.00  0.00    -0.545 OA
ATOM     12  O   UNL     1      38.504  18.152  12.615  1.00  0.00    -0.545 OA
ENDBRANCH   2  10
TORSDOF 2
ENDMDL
MODEL 3
REMARK VINA RESULT:    -4.719      0.097      3.028
REMARK INTER + INTRA:          -5.481
REMARK INTER:                  -5.281
REMARK INTRA:                  -0.200
REMARK UNBOUND:                -0.210
REMARK SMILES O=C([O-])c1ccccc1C(=O)[O-]
REMARK SMILES IDX 4 1 9 2 5 3 8 4 6 5 7 6 2 7 1 8 3 9 10 10 11 11 12 12
REMARK H PARENT
REMARK Flexibility Score: inf
ROOT
ATOM      1  C   UNL     1      35.852  18.831  10.633  1.00  0.00     0.006 A 
ATOM      2  C   UNL     1      35.389  19.613   9.538  1.00  0.00     0.006 A 
ATOM      3  C   UNL     1      35.300  19.046  11.909  1.00  0.00     0.010 A 
ATOM      4  C   UNL     1      34.439  20.625   9.773  1.00  0.00     0.010 A 
ATOM      5  C   UNL     1      34.343  20.040  12.114  1.00  0.00     0.001 A 
ATOM      6  C   UNL     1      33.922  20.835  11.051  1.00  0.00     0.001 A 
ENDROOT
BRANCH   1   7
ATOM      7  C   UNL     1      36.946  17.840  10.509  1.00  0.00     0.072 C 
ATOM      8  O   UNL     1      36.692  16.618  10.338  1.00  0.00    -0.545 OA
ATOM      9  O   UNL     1      38.271  18.259  10.514  1.00  0.00    -0.545 OA
ENDBRANCH   1   7
BRANCH   2  10
ATOM     10  C   UNL     1      35.811  19.363   8.140  1.00  0.00     0.072 C 
ATOM     11  O   UNL     1      36.882  19.862   7.702  1.00  0.00    -0.545 OA
ATOM     12  O   UNL     1      35.004  18.632   7.276  1.00  0.00    -0.545 OA
ENDBRANCH   2  10
TORSDOF 2
ENDMDL
MODEL 4
REMARK VINA RESULT:    -4.718      1.825      3.324
REMARK INTER + INTRA:          -5.480
REMARK INTER:                  -5.256
REMARK INTRA:                  -0.225
REMARK UNBOUND:                -0.210
REMARK SMILES O=C([O-])c1ccccc1C(=O)[O-]
REMARK SMILES IDX 4 1 9 2 5 3 8 4 6 5 7 6 2 7 1 8 3 9 10 10 11 11 12 12
REMARK H PARENT
REMARK Flexibility Score: inf
ROOT
ATOM      1  C   UNL     1      36.636  18.410  10.953  1.00  0.00     0.006 A 
ATOM      2  C   UNL     1      37.082  18.890   9.690  1.00  0.00     0.006 A 
ATOM      3  C   UNL     1      35.361  18.784  11.415  1.00  0.00     0.010 A 
ATOM      4  C   UNL     1      36.263  19.778   8.967  1.00  0.00     0.010 A 
ATOM      5  C   UNL     1      34.557  19.647  10.672  1.00  0.00     0.001 A 
ATOM      6  C   UNL     1      35.012  20.153   9.456  1.00  0.00     0.001 A 
ENDROOT
BRANCH   1   7
ATOM      7  C   UNL     1      37.482  17.584  11.845  1.00  0.00     0.072 C 
ATOM      8  O   UNL     1      37.365  16.330  11.866  1.00  0.00    -0.545 OA
ATOM      9  O   UNL     1      38.466  18.183  12.624  1.00  0.00    -0.545 OA
ENDBRANCH   1   7
BRANCH   2  10
ATOM     10  C   UNL     1      38.346  18.439   9.063  1.00  0.00     0.072 C 
ATOM     11  O   UNL     1      38.395  17.337   8.455  1.00  0.00    -0.545 OA
ATOM     12  O   UNL     1      39.509  19.190   9.193  1.00  0.00    -0.545 OA
ENDBRANCH   2  10
TORSDOF 2
ENDMDL
MODEL 5
REMARK VINA RESULT:    -4.703      2.399      3.449
REMARK INTER + INTRA:          -5.464
REMARK INTER:                  -5.259
REMARK INTRA:                  -0.204
REMARK UNBOUND:                -0.210
REMARK SMILES O=C([O-])c1ccccc1C(=O)[O-]
REMARK SMILES IDX 4 1 9 2 5 3 8 4 6 5 7 6 2 7 1 8 3 9 10 10 11 11 12 12
REMARK H PARENT
REMARK Flexibility Score: inf
ROOT
ATOM      1  C   UNL     1      35.836  18.927  10.540  1.00  0.00     0.006 A 
ATOM      2  C   UNL     1      37.177  18.461  10.636  1.00  0.00     0.006 A 
ATOM      3  C   UNL     1      35.380  19.455   9.318  1.00  0.00     0.010 A 
ATOM      4  C   UNL     1      38.031  18.600   9.524  1.00  0.00     0.010 A 
ATOM      5  C   UNL     1      36.237  19.562   8.223  1.00  0.00     0.001 A 
ATOM      6  C   UNL     1      37.563  19.147   8.330  1.00  0.00     0.001 A 
ENDROOT
BRANCH   1   7
ATOM      7  C   UNL     1      34.907  18.949  11.693  1.00  0.00     0.072 C 
ATOM      8  O   UNL     1      34.654  20.025  12.298  1.00  0.00    -0.545 OA
ATOM      9  O   UNL     1      34.248  17.788  12.080  1.00  0.00    -0.545 OA
ENDBRANCH   1   7
BRANCH   2  10
ATOM     10  C   UNL     1      37.700  17.767  11.835  1.00  0.00     0.072 C 
ATOM     11  O   UNL     1      37.548  16.523  11.964  1.00  0.00    -0.545 OA
ATOM     12  O   UNL     1      38.303  18.484  12.863  1.00  0.00    -0.545 OA
ENDBRANCH   2  10
TORSDOF 2
ENDMDL
MODEL 6
REMARK VINA RESULT:    -4.700      2.867      5.124
REMARK INTER + INTRA:          -5.460
REMARK INTER:                  -5.404
REMARK INTRA:                  -0.056
REMARK UNBOUND:                -0.210
REMARK SMILES O=C([O-])c1ccccc1C(=O)[O-]
REMARK SMILES IDX 4 1 9 2 5 3 8 4 6 5 7 6 2 7 1 8 3 9 10 10 11 11 12 12
REMARK H PARENT
REMARK Flexibility Score: inf
ROOT
ATOM      1  C   UNL     1      38.896  18.270  11.416  1.00  0.00     0.006 A 
ATOM      2  C   UNL     1      38.824  18.587  10.030  1.00  0.00     0.006 A 
ATOM      3  C   UNL     1      40.158  18.148  12.025  1.00  0.00     0.010 A 
ATOM      4  C   UNL     1      40.018  18.707   9.293  1.00  0.00     0.010 A 
ATOM      5  C   UNL     1      41.328  18.293  11.280  1.00  0.00     0.001 A 
ATOM      6  C   UNL     1      41.257  18.559   9.914  1.00  0.00     0.001 A 
ENDROOT
BRANCH   1   7
ATOM      7  C   UNL     1      37.698  17.991  12.241  1.00  0.00     0.072 C 
ATOM      8  O   UNL     1      37.093  16.890  12.148  1.00  0.00    -0.545 OA
ATOM      9  O   UNL     1      37.266  18.920  13.181  1.00  0.00    -0.545 OA
ENDBRANCH   1   7
BRANCH   2  10
ATOM     10  C   UNL     1      37.545  18.871   9.339  1.00  0.00     0.072 C 
ATOM     11  O   UNL     1      36.729  17.939   9.109  1.00  0.00    -0.545 OA
ATOM     12  O   UNL     1      37.257  20.150   8.877  1.00  0.00    -0.545 OA
ENDBRANCH   2  10
TORSDOF 2
ENDMDL
MODEL 7
REMARK VINA RESULT:    -4.671      2.387      4.062
REMARK INTER + INTRA:          -5.427
REMARK INTER:                  -5.261
REMARK INTRA:                  -0.166
REMARK UNBOUND:                -0.210
REMARK SMILES O=C([O-])c1ccccc1C(=O)[O-]
REMARK SMILES IDX 4 1 9 2 5 3 8 4 6 5 7 6 2 7 1 8 3 9 10 10 11 11 12 12
REMARK H PARENT
REMARK Flexibility Score: inf
ROOT
ATOM      1  C   UNL     1      37.222  18.487  10.548  1.00  0.00     0.006 A 
ATOM      2  C   UNL     1      35.865  18.905  10.452  1.00  0.00     0.006 A 
ATOM      3  C   UNL     1      38.076  18.679   9.447  1.00  0.00     0.010 A 
ATOM      4  C   UNL     1      35.398  19.439   9.236  1.00  0.00     0.010 A 
ATOM      5  C   UNL     1      37.597  19.232   8.259  1.00  0.00     0.001 A 
ATOM      6  C   UNL     1      36.257  19.600   8.151  1.00  0.00     0.001 A 
ENDROOT
BRANCH   1   7
ATOM      7  C   UNL     1      37.769  17.791  11.736  1.00  0.00     0.072 C 
ATOM      8  O   UNL     1      37.579  16.557  11.904  1.00  0.00    -0.545 OA
ATOM      9  O   UNL     1      38.558  18.482  12.647  1.00  0.00    -0.545 OA
ENDBRANCH   1   7
BRANCH   2  10
ATOM     10  C   UNL     1      34.933  18.869  11.603  1.00  0.00     0.072 C 
ATOM     11  O   UNL     1      34.664  19.925  12.235  1.00  0.00    -0.545 OA
ATOM     12  O   UNL     1      34.396  17.664  12.044  1.00  0.00    -0.545 OA
ENDBRANCH   2  10
TORSDOF 2
ENDMDL
MODEL 8
REMARK VINA RESULT:    -4.554      7.501      8.848
REMARK INTER + INTRA:          -5.297
REMARK INTER:                  -5.072
REMARK INTRA:                  -0.225
REMARK UNBOUND:                -0.210
REMARK SMILES O=C([O-])c1ccccc1C(=O)[O-]
REMARK SMILES IDX 4 1 9 2 5 3 8 4 6 5 7 6 2 7 1 8 3 9 10 10 11 11 12 12
REMARK H PARENT
REMARK Flexibility Score: inf
ROOT
ATOM      1  C   UNL     1      31.598  14.595  14.785  1.00  0.00     0.006 A 
ATOM      2  C   UNL     1      31.943  13.231  14.998  1.00  0.00     0.006 A 
ATOM      3  C   UNL     1      32.618  15.563  14.763  1.00  0.00     0.010 A 
ATOM      4  C   UNL     1      33.288  12.896  15.246  1.00  0.00     0.010 A 
ATOM      5  C   UNL     1      33.947  15.205  14.988  1.00  0.00     0.001 A 
ATOM      6  C   UNL     1      34.279  13.876  15.242  1.00  0.00     0.001 A 
ENDROOT
BRANCH   1   7
ATOM      7  C   UNL     1      30.198  15.060  14.652  1.00  0.00     0.072 C 
ATOM      8  O   UNL     1      29.697  15.283  13.517  1.00  0.00    -0.545 OA
ATOM      9  O   UNL     1      29.396  15.192  15.780  1.00  0.00    -0.545 OA
ENDBRANCH   1   7
BRANCH   2  10
ATOM     10  C   UNL     1      30.956  12.131  14.900  1.00  0.00     0.072 C 
ATOM     11  O   UNL     1      30.636  11.664  13.774  1.00  0.00    -0.545 OA
ATOM     12  O   UNL     1      30.321  11.644  16.037  1.00  0.00    -0.545 OA
ENDBRANCH   2  10
TORSDOF 2
ENDMDL
MODEL 9
REMARK VINA RESULT:    -4.519      7.459      9.126
REMARK INTER + INTRA:          -5.258
REMARK INTER:                  -5.045
REMARK INTRA:                  -0.212
REMARK UNBOUND:                -0.210
REMARK SMILES O=C([O-])c1ccccc1C(=O)[O-]
REMARK SMILES IDX 4 1 9 2 5 3 8 4 6 5 7 6 2 7 1 8 3 9 10 10 11 11 12 12
REMARK H PARENT
REMARK Flexibility Score: inf
ROOT
ATOM      1  C   UNL     1      31.858  13.272  14.940  1.00  0.00     0.006 A 
ATOM      2  C   UNL     1      31.559  14.650  14.746  1.00  0.00     0.006 A 
ATOM      3  C   UNL     1      33.186  12.890  15.204  1.00  0.00     0.010 A 
ATOM      4  C   UNL     1      32.610  15.586  14.759  1.00  0.00     0.010 A 
ATOM      5  C   UNL     1      34.208  13.838  15.235  1.00  0.00     0.001 A 
ATOM      6  C   UNL     1      33.923  15.182  15.000  1.00  0.00     0.001 A 
ENDROOT
BRANCH   1   7
ATOM      7  C   UNL     1      30.842  12.201  14.808  1.00  0.00     0.072 C 
ATOM      8  O   UNL     1      30.558  11.717  13.681  1.00  0.00    -0.545 OA
ATOM      9  O   UNL     1      30.238  11.670  15.942  1.00  0.00    -0.545 OA
ENDBRANCH   1   7
BRANCH   2  10
ATOM     10  C   UNL     1      30.175  15.156  14.601  1.00  0.00     0.072 C 
ATOM     11  O   UNL     1      29.755  15.543  13.477  1.00  0.00    -0.545 OA
ATOM     12  O   UNL     1      29.343  15.275  15.709  1.00  0.00    -0.545 OA
ENDBRANCH   2  10
TORSDOF 2
ENDMDL
