MODEL 1
REMARK VINA RESULT:    -3.576      0.000      0.000
REMARK INTER + INTRA:          -4.831
REMARK INTER:                  -4.622
REMARK INTRA:                  -0.209
REMARK UNBOUND:                -0.209
REMARK SMILES CCCCCCC(=O)[O-]
REMARK SMILES IDX 5 1 6 2 7 3 8 4 9 5 4 6 3 7 2 8 1 9
REMARK H PARENT
REMARK Flexibility Score: inf
ROOT
ATOM      1  C   UNL     1      25.560   1.898  17.267  1.00  0.00     0.006 C 
ENDROOT
BRANCH   1   2
ATOM      2  C   UNL     1      25.000   0.855  18.242  1.00  0.00     0.053 C 
BRANCH   2   3
ATOM      3  C   UNL     1      25.015  -0.522  17.653  1.00  0.00     0.041 C 
ATOM      4  O   UNL     1      25.210  -1.524  18.391  1.00  0.00    -0.550 OA
ATOM      5  O   UNL     1      24.781  -0.702  16.296  1.00  0.00    -0.550 OA
ENDBRANCH   2   3
ENDBRANCH   1   2
BRANCH   1   6
ATOM      6  C   UNL     1      25.135   3.327  17.635  1.00  0.00     0.000 C 
BRANCH   6   7
ATOM      7  C   UNL     1      24.258   3.330  18.898  1.00  0.00    -0.000 C 
BRANCH   7   8
ATOM      8  C   UNL     1      23.072   4.301  18.790  1.00  0.00    -0.003 C 
ATOM      9  C   UNL     1      23.258   5.342  17.687  1.00  0.00     0.004 C 
ENDBRANCH   7   8
ENDBRANCH   6   7
ENDBRANCH   1   6
TORSDOF 5
ENDMDL
MODEL 2
REMARK VINA RESULT:    -3.516      0.901      1.050
REMARK INTER + INTRA:          -4.753
REMARK INTER:                  -4.518
REMARK INTRA:                  -0.235
REMARK UNBOUND:                -0.209
REMARK SMILES CCCCCCC(=O)[O-]
REMARK SMILES IDX 5 1 6 2 7 3 8 4 9 5 4 6 3 7 2 8 1 9
REMARK H PARENT
REMARK Flexibility Score: inf
ROOT
ATOM      1  C   UNL     1      25.334   1.634  17.189  1.00  0.00     0.006 C 
ENDROOT
BRANCH   1   2
ATOM      2  C   UNL     1      25.352   0.726  18.425  1.00  0.00     0.053 C 
BRANCH   2   3
ATOM      3  C   UNL     1      24.442  -0.453  18.263  1.00  0.00     0.041 C 
ATOM      4  O   UNL     1      23.220  -0.353  18.547  1.00  0.00    -0.550 OA
ATOM      5  O   UNL     1      24.938  -1.653  17.767  1.00  0.00    -0.550 OA
ENDBRANCH   2   3
ENDBRANCH   1   2
BRANCH   1   6
ATOM      6  C   UNL     1      25.240   3.121  17.560  1.00  0.00     0.000 C 
BRANCH   6   7
ATOM      7  C   UNL     1      24.339   3.324  18.789  1.00  0.00    -0.000 C 
BRANCH   7   8
ATOM      8  C   UNL     1      23.348   4.483  18.608  1.00  0.00    -0.003 C 
ATOM      9  C   UNL     1      23.571   5.256  17.309  1.00  0.00     0.004 C 
ENDBRANCH   7   8
ENDBRANCH   6   7
ENDBRANCH   1   6
TORSDOF 5
ENDMDL
MODEL 3
REMARK VINA RESULT:    -3.484      0.801      1.472
REMARK INTER + INTRA:          -4.711
REMARK INTER:                  -4.441
REMARK INTRA:                  -0.270
REMARK UNBOUND:                -0.209
REMARK SMILES CCCCCCC(=O)[O-]
REMARK SMILES IDX 5 1 6 2 7 3 8 4 9 5 4 6 3 7 2 8 1 9
REMARK H PARENT
REMARK Flexibility Score: inf
ROOT
ATOM      1  C   UNL     1      24.753   0.815  18.632  1.00  0.00     0.006 C 
ENDROOT
BRANCH   1   2
ATOM      2  C   UNL     1      23.736  -0.219  18.130  1.00  0.00     0.053 C 
BRANCH   2   3
ATOM      3  C   UNL     1      24.398  -1.329  17.372  1.00  0.00     0.041 C 
ATOM      4  O   UNL     1      25.265  -2.049  17.933  1.00  0.00    -0.550 OA
ATOM      5  O   UNL     1      24.035  -1.587  16.056  1.00  0.00    -0.550 OA
ENDBRANCH   2   3
ENDBRANCH   1   2
BRANCH   1   6
ATOM      6  C   UNL     1      25.478   1.525  17.480  1.00  0.00     0.000 C 
BRANCH   6   7
ATOM      7  C   UNL     1      25.197   3.036  17.504  1.00  0.00    -0.000 C 
BRANCH   7   8
ATOM      8  C   UNL     1      24.414   3.470  18.752  1.00  0.00    -0.003 C 
ATOM      9  C   UNL     1      23.351   4.525  18.447  1.00  0.00     0.004 C 
ENDBRANCH   7   8
ENDBRANCH   6   7
ENDBRANCH   1   6
TORSDOF 5
ENDMDL
MODEL 4
REMARK VINA RESULT:    -3.450      1.936      2.463
REMARK INTER + INTRA:          -4.668
REMARK INTER:                  -4.310
REMARK INTRA:                  -0.357
REMARK UNBOUND:                -0.209
REMARK SMILES CCCCCCC(=O)[O-]
REMARK SMILES IDX 5 1 6 2 7 3 8 4 9 5 4 6 3 7 2 8 1 9
REMARK H PARENT
REMARK Flexibility Score: inf
ROOT
ATOM      1  C   UNL     1      24.683   0.451  17.048  1.00  0.00     0.006 C 
ENDROOT
BRANCH   1   2
ATOM      2  C   UNL     1      24.250  -0.414  18.238  1.00  0.00     0.053 C 
BRANCH   2   3
ATOM      3  C   UNL     1      22.883  -0.043  18.727  1.00  0.00     0.041 C 
ATOM      4  O   UNL     1      21.861  -0.440  18.108  1.00  0.00    -0.550 OA
ATOM      5  O   UNL     1      22.737   0.711  19.885  1.00  0.00    -0.550 OA
ENDBRANCH   2   3
ENDBRANCH   1   2
BRANCH   1   6
ATOM      6  C   UNL     1      25.660   1.562  17.460  1.00  0.00     0.000 C 
BRANCH   6   7
ATOM      7  C   UNL     1      24.996   2.943  17.356  1.00  0.00    -0.000 C 
BRANCH   7   8
ATOM      8  C   UNL     1      24.504   3.465  18.715  1.00  0.00    -0.003 C 
ATOM      9  C   UNL     1      23.069   3.988  18.663  1.00  0.00     0.004 C 
ENDBRANCH   7   8
ENDBRANCH   6   7
ENDBRANCH   1   6
TORSDOF 5
ENDMDL
MODEL 5
REMARK VINA RESULT:    -3.431      9.890     11.162
REMARK INTER + INTRA:          -4.642
REMARK INTER:                  -4.462
REMARK INTRA:                  -0.180
REMARK UNBOUND:                -0.209
REMARK SMILES CCCCCCC(=O)[O-]
REMARK SMILES IDX 5 1 6 2 7 3 8 4 9 5 4 6 3 7 2 8 1 9
REMARK H PARENT
REMARK Flexibility Score: inf
ROOT
ATOM      1  C   UNL     1      27.802   1.074   8.425  1.00  0.00     0.006 C 
ENDROOT
BRANCH   1   2
ATOM      2  C   UNL     1      28.383   2.355   7.813  1.00  0.00     0.053 C 
BRANCH   2   3
ATOM      3  C   UNL     1      28.443   3.471   8.811  1.00  0.00     0.041 C 
ATOM      4  O   UNL     1      29.122   3.342   9.863  1.00  0.00    -0.550 OA
ATOM      5  O   UNL     1      27.776   4.665   8.563  1.00  0.00    -0.550 OA
ENDBRANCH   2   3
ENDBRANCH   1   2
BRANCH   1   6
ATOM      6  C   UNL     1      28.858  -0.031   8.575  1.00  0.00     0.000 C 
BRANCH   6   7
ATOM      7  C   UNL     1      28.370  -1.129   9.533  1.00  0.00    -0.000 C 
BRANCH   7   8
ATOM      8  C   UNL     1      28.293  -2.508   8.860  1.00  0.00    -0.003 C 
ATOM      9  C   UNL     1      28.593  -2.453   7.362  1.00  0.00     0.004 C 
ENDBRANCH   7   8
ENDBRANCH   6   7
ENDBRANCH   1   6
TORSDOF 5
ENDMDL
MODEL 6
REMARK VINA RESULT:    -3.372      1.676      2.322
REMARK INTER + INTRA:          -4.566
REMARK INTER:                  -4.132
REMARK INTRA:                  -0.435
REMARK UNBOUND:                -0.209
REMARK SMILES CCCCCCC(=O)[O-]
REMARK SMILES IDX 5 1 6 2 7 3 8 4 9 5 4 6 3 7 2 8 1 9
REMARK H PARENT
REMARK Flexibility Score: inf
ROOT
ATOM      1  C   UNL     1      24.671   2.602  17.445  1.00  0.00     0.006 C 
ENDROOT
BRANCH   1   2
ATOM      2  C   UNL     1      25.734   1.496  17.467  1.00  0.00     0.053 C 
BRANCH   2   3
ATOM      3  C   UNL     1      25.118   0.131  17.410  1.00  0.00     0.041 C 
ATOM      4  O   UNL     1      25.147  -0.619  18.420  1.00  0.00    -0.550 OA
ATOM      5  O   UNL     1      24.483  -0.299  16.251  1.00  0.00    -0.550 OA
ENDBRANCH   2   3
ENDBRANCH   1   2
BRANCH   1   6
ATOM      6  C   UNL     1      24.173   2.960  18.853  1.00  0.00     0.000 C 
BRANCH   6   7
ATOM      7  C   UNL     1      22.669   2.678  18.991  1.00  0.00    -0.000 C 
BRANCH   7   8
ATOM      8  C   UNL     1      22.380   1.316  19.638  1.00  0.00    -0.003 C 
ATOM      9  C   UNL     1      21.664   0.351  18.694  1.00  0.00     0.004 C 
ENDBRANCH   7   8
ENDBRANCH   6   7
ENDBRANCH   1   6
TORSDOF 5
ENDMDL
MODEL 7
REMARK VINA RESULT:    -3.349      9.415     10.922
REMARK INTER + INTRA:          -4.536
REMARK INTER:                  -4.319
REMARK INTRA:                  -0.218
REMARK UNBOUND:                -0.209
REMARK SMILES CCCCCCC(=O)[O-]
REMARK SMILES IDX 5 1 6 2 7 3 8 4 9 5 4 6 3 7 2 8 1 9
REMARK H PARENT
REMARK Flexibility Score: inf
ROOT
ATOM      1  C   UNL     1      28.273   2.547   7.491  1.00  0.00     0.006 C 
ENDROOT
BRANCH   1   2
ATOM      2  C   UNL     1      28.721   3.416   8.673  1.00  0.00     0.053 C 
BRANCH   2   3
ATOM      3  C   UNL     1      27.608   4.281   9.182  1.00  0.00     0.041 C 
ATOM      4  O   UNL     1      27.298   5.337   8.570  1.00  0.00    -0.550 OA
ATOM      5  O   UNL     1      26.893   3.904  10.312  1.00  0.00    -0.550 OA
ENDBRANCH   2   3
ENDBRANCH   1   2
BRANCH   1   6
ATOM      6  C   UNL     1      28.696   1.080   7.653  1.00  0.00     0.000 C 
BRANCH   6   7
ATOM      7  C   UNL     1      28.751   0.686   9.138  1.00  0.00    -0.000 C 
BRANCH   7   8
ATOM      8  C   UNL     1      28.402  -0.793   9.369  1.00  0.00    -0.003 C 
ATOM      9  C   UNL     1      28.186  -1.560   8.065  1.00  0.00     0.004 C 
ENDBRANCH   7   8
ENDBRANCH   6   7
ENDBRANCH   1   6
TORSDOF 5
ENDMDL
MODEL 8
REMARK VINA RESULT:    -3.331      4.164      5.730
REMARK INTER + INTRA:          -4.514
REMARK INTER:                  -4.292
REMARK INTRA:                  -0.222
REMARK UNBOUND:                -0.209
REMARK SMILES CCCCCCC(=O)[O-]
REMARK SMILES IDX 5 1 6 2 7 3 8 4 9 5 4 6 3 7 2 8 1 9
REMARK H PARENT
REMARK Flexibility Score: inf
ROOT
ATOM      1  C   UNL     1      23.234   4.453  17.751  1.00  0.00     0.006 C 
ENDROOT
BRANCH   1   2
ATOM      2  C   UNL     1      23.922   5.320  16.688  1.00  0.00     0.053 C 
BRANCH   2   3
ATOM      3  C   UNL     1      23.560   6.767  16.830  1.00  0.00     0.041 C 
ATOM      4  O   UNL     1      23.305   7.458  15.810  1.00  0.00    -0.550 OA
ATOM      5  O   UNL     1      23.472   7.342  18.092  1.00  0.00    -0.550 OA
ENDBRANCH   2   3
ENDBRANCH   1   2
BRANCH   1   6
ATOM      6  C   UNL     1      24.224   3.535  18.483  1.00  0.00     0.000 C 
BRANCH   6   7
ATOM      7  C   UNL     1      25.361   3.097  17.547  1.00  0.00    -0.000 C 
BRANCH   7   8
ATOM      8  C   UNL     1      25.480   1.568  17.439  1.00  0.00    -0.003 C 
ATOM      9  C   UNL     1      24.808   0.839  18.602  1.00  0.00     0.004 C 
ENDBRANCH   7   8
ENDBRANCH   6   7
ENDBRANCH   1   6
TORSDOF 5
ENDMDL
MODEL 9
REMARK VINA RESULT:    -3.253      2.630      4.232
REMARK INTER + INTRA:          -4.413
REMARK INTER:                  -4.085
REMARK INTRA:                  -0.328
REMARK UNBOUND:                -0.209
REMARK SMILES CCCCCCC(=O)[O-]
REMARK SMILES IDX 5 1 6 2 7 3 8 4 9 5 4 6 3 7 2 8 1 9
REMARK H PARENT
REMARK Flexibility Score: inf
ROOT
ATOM      1  C   UNL     1      24.129   3.810  17.573  1.00  0.00     0.006 C 
ENDROOT
BRANCH   1   2
ATOM      2  C   UNL     1      23.501   3.797  18.973  1.00  0.00     0.053 C 
BRANCH   2   3
ATOM      3  C   UNL     1      22.274   2.939  19.025  1.00  0.00     0.041 C 
ATOM      4  O   UNL     1      22.323   1.799  19.557  1.00  0.00    -0.550 OA
ATOM      5  O   UNL     1      21.071   3.412  18.517  1.00  0.00    -0.550 OA
ENDBRANCH   2   3
ENDBRANCH   1   2
BRANCH   1   6
ATOM      6  C   UNL     1      25.389   2.935  17.492  1.00  0.00     0.000 C 
BRANCH   6   7
ATOM      7  C   UNL     1      25.031   1.494  17.098  1.00  0.00    -0.000 C 
BRANCH   7   8
ATOM      8  C   UNL     1      25.358   0.481  18.206  1.00  0.00    -0.003 C 
ATOM      9  C   UNL     1      24.436  -0.737  18.185  1.00  0.00     0.004 C 
ENDBRANCH   7   8
ENDBRANCH   6   7
ENDBRANCH   1   6
TORSDOF 5
ENDMDL
