MODEL 1
REMARK VINA RESULT:    -5.382      0.000      0.000
REMARK INTER + INTRA:          -6.107
REMARK INTER:                  -5.696
REMARK INTRA:                  -0.411
REMARK UNBOUND:                -0.411
REMARK SMILES CC1=CC[C@]23[C@@H]([C@@H](C(C)C)CC[C@H]2C)[C@@H]13
REMARK SMILES IDX 14 1 13 2 12 3 11 4 7 5 6 6 5 7 15 8 2 9 3 10 4 11 1 12 8 13
REMARK SMILES IDX 9 14 10 15
REMARK H PARENT
REMARK Flexibility Score: inf
ROOT
ATOM      1  C   UNL     1     135.623 130.838 131.875  1.00  0.00     0.008 C 
ATOM      2  C   UNL     1     135.746 132.340 132.189  1.00  0.00    -0.007 C 
ATOM      3  C   UNL     1     137.217 132.856 132.133  1.00  0.00     0.004 C 
ATOM      4  C   UNL     1     138.052 132.650 133.436  1.00  0.00     0.004 C 
ATOM      5  C   UNL     1     137.261 132.878 134.765  1.00  0.00    -0.004 C 
ATOM      6  C   UNL     1     135.983 132.047 134.603  1.00  0.00     0.007 C 
ATOM      7  C   UNL     1     135.116 132.792 133.525  1.00  0.00    -0.013 C 
ATOM      8  C   UNL     1     134.505 132.203 134.793  1.00  0.00     0.025 C 
ATOM      9  C   UNL     1     134.075 133.371 135.608  1.00  0.00    -0.073 C 
ATOM     10  C   UNL     1     134.248 134.520 134.976  1.00  0.00    -0.027 C 
ATOM     11  C   UNL     1     134.839 134.317 133.628  1.00  0.00     0.035 C 
ATOM     12  C   UNL     1     133.493 133.260 136.982  1.00  0.00     0.039 C 
ENDROOT
BRANCH   5  13
ATOM     13  C   UNL     1     138.059 132.391 136.009  1.00  0.00    -0.014 C 
ATOM     14  C   UNL     1     139.464 133.016 136.066  1.00  0.00     0.007 C 
ATOM     15  C   UNL     1     137.308 132.721 137.310  1.00  0.00     0.007 C 
ENDBRANCH   5  13
TORSDOF 1
ENDMDL
MODEL 2
REMARK VINA RESULT:    -5.347      4.049      5.662
REMARK INTER + INTRA:          -6.071
REMARK INTER:                  -5.663
REMARK INTRA:                  -0.408
REMARK UNBOUND:                -0.411
REMARK SMILES CC1=CC[C@]23[C@@H]([C@@H](C(C)C)CC[C@H]2C)[C@@H]13
REMARK SMILES IDX 14 1 13 2 12 3 11 4 7 5 6 6 5 7 15 8 2 9 3 10 4 11 1 12 8 13
REMARK SMILES IDX 9 14 10 15
REMARK H PARENT
REMARK Flexibility Score: inf
ROOT
ATOM      1  C   UNL     1     130.768 137.122 131.875  1.00  0.00     0.008 C 
ATOM      2  C   UNL     1     132.274 136.953 132.148  1.00  0.00    -0.007 C 
ATOM      3  C   UNL     1     132.752 135.473 132.032  1.00  0.00     0.004 C 
ATOM      4  C   UNL     1     132.557 134.602 133.313  1.00  0.00     0.004 C 
ATOM      5  C   UNL     1     132.836 135.343 134.660  1.00  0.00    -0.004 C 
ATOM      6  C   UNL     1     132.032 136.645 134.559  1.00  0.00     0.007 C 
ATOM      7  C   UNL     1     132.772 137.529 133.492  1.00  0.00    -0.013 C 
ATOM      8  C   UNL     1     132.229 138.112 134.792  1.00  0.00     0.025 C 
ATOM      9  C   UNL     1     133.426 138.489 135.592  1.00  0.00    -0.073 C 
ATOM     10  C   UNL     1     134.555 138.309 134.927  1.00  0.00    -0.027 C 
ATOM     11  C   UNL     1     134.306 137.767 133.566  1.00  0.00     0.035 C 
ATOM     12  C   UNL     1     133.362 139.028 136.987  1.00  0.00     0.039 C 
ENDROOT
BRANCH   5  13
ATOM     13  C   UNL     1     132.360 134.518 135.890  1.00  0.00    -0.014 C 
ATOM     14  C   UNL     1     132.987 133.113 135.912  1.00  0.00     0.007 C 
ATOM     15  C   UNL     1     132.699 135.240 137.205  1.00  0.00     0.007 C 
ENDBRANCH   5  13
TORSDOF 1
ENDMDL
MODEL 3
REMARK VINA RESULT:    -5.297      3.993      5.586
REMARK INTER + INTRA:          -6.017
REMARK INTER:                  -5.603
REMARK INTRA:                  -0.414
REMARK UNBOUND:                -0.411
REMARK SMILES CC1=CC[C@]23[C@@H]([C@@H](C(C)C)CC[C@H]2C)[C@@H]13
REMARK SMILES IDX 14 1 13 2 12 3 11 4 7 5 6 6 5 7 15 8 2 9 3 10 4 11 1 12 8 13
REMARK SMILES IDX 9 14 10 15
REMARK H PARENT
REMARK Flexibility Score: inf
ROOT
ATOM      1  C   UNL     1     141.647 135.645 131.875  1.00  0.00     0.008 C 
ATOM      2  C   UNL     1     140.152 135.750 132.227  1.00  0.00    -0.007 C 
ATOM      3  C   UNL     1     139.619 137.215 132.190  1.00  0.00     0.004 C 
ATOM      4  C   UNL     1     139.847 138.045 133.492  1.00  0.00     0.004 C 
ATOM      5  C   UNL     1     139.660 137.246 134.822  1.00  0.00    -0.004 C 
ATOM      6  C   UNL     1     140.501 135.978 134.633  1.00  0.00     0.007 C 
ATOM      7  C   UNL     1     139.740 135.108 133.570  1.00  0.00    -0.013 C 
ATOM      8  C   UNL     1     140.366 134.498 134.819  1.00  0.00     0.025 C 
ATOM      9  C   UNL     1     139.223 134.050 135.660  1.00  0.00    -0.073 C 
ATOM     10  C   UNL     1     138.057 134.213 135.058  1.00  0.00    -0.027 C 
ATOM     11  C   UNL     1     138.221 134.813 133.708  1.00  0.00     0.035 C 
ATOM     12  C   UNL     1     139.374 133.463 137.029  1.00  0.00     0.039 C 
ENDROOT
BRANCH   5  13
ATOM     13  C   UNL     1     140.168 138.043 136.058  1.00  0.00    -0.014 C 
ATOM     14  C   UNL     1     139.608 139.476 136.084  1.00  0.00     0.007 C 
ATOM     15  C   UNL     1     139.789 137.331 137.368  1.00  0.00     0.007 C 
ENDBRANCH   5  13
TORSDOF 1
ENDMDL
MODEL 4
REMARK VINA RESULT:    -5.294      6.033      7.907
REMARK INTER + INTRA:          -6.014
REMARK INTER:                  -5.603
REMARK INTRA:                  -0.411
REMARK UNBOUND:                -0.411
REMARK SMILES CC1=CC[C@]23[C@@H]([C@@H](C(C)C)CC[C@H]2C)[C@@H]13
REMARK SMILES IDX 14 1 13 2 12 3 11 4 7 5 6 6 5 7 15 8 2 9 3 10 4 11 1 12 8 13
REMARK SMILES IDX 9 14 10 15
REMARK H PARENT
REMARK Flexibility Score: inf
ROOT
ATOM      1  C   UNL     1     136.921 141.652 131.875  1.00  0.00     0.008 C 
ATOM      2  C   UNL     1     136.800 140.158 132.227  1.00  0.00    -0.007 C 
ATOM      3  C   UNL     1     135.327 139.643 132.199  1.00  0.00     0.004 C 
ATOM      4  C   UNL     1     134.508 139.882 133.506  1.00  0.00     0.004 C 
ATOM      5  C   UNL     1     135.312 139.685 134.832  1.00  0.00    -0.004 C 
ATOM      6  C   UNL     1     136.590 140.511 134.635  1.00  0.00     0.007 C 
ATOM      7  C   UNL     1     137.444 139.739 133.567  1.00  0.00    -0.013 C 
ATOM      8  C   UNL     1     138.069 140.357 134.812  1.00  0.00     0.025 C 
ATOM      9  C   UNL     1     138.508 139.208 135.651  1.00  0.00    -0.073 C 
ATOM     10  C   UNL     1     138.326 138.044 135.050  1.00  0.00    -0.027 C 
ATOM     11  C   UNL     1     137.721 138.216 133.704  1.00  0.00     0.035 C 
ATOM     12  C   UNL     1     139.105 139.352 137.016  1.00  0.00     0.039 C 
ENDROOT
BRANCH   5  13
ATOM     13  C   UNL     1     134.529 140.203 136.072  1.00  0.00    -0.014 C 
ATOM     14  C   UNL     1     133.125 139.580 136.162  1.00  0.00     0.007 C 
ATOM     15  C   UNL     1     135.296 139.907 137.373  1.00  0.00     0.007 C 
ENDBRANCH   5  13
TORSDOF 1
ENDMDL
MODEL 5
REMARK VINA RESULT:    -5.002      3.706      5.682
REMARK INTER + INTRA:          -5.705
REMARK INTER:                  -5.176
REMARK INTRA:                  -0.529
REMARK UNBOUND:                -0.411
REMARK SMILES CC1=CC[C@]23[C@@H]([C@@H](C(C)C)CC[C@H]2C)[C@@H]13
REMARK SMILES IDX 14 1 13 2 12 3 11 4 7 5 6 6 5 7 15 8 2 9 3 10 4 11 1 12 8 13
REMARK SMILES IDX 9 14 10 15
REMARK H PARENT
REMARK Flexibility Score: inf
ROOT
ATOM      1  C   UNL     1     134.325 135.038 132.641  1.00  0.00     0.008 C 
ATOM      2  C   UNL     1     133.007 135.021 133.436  1.00  0.00    -0.007 C 
ATOM      3  C   UNL     1     131.956 136.040 132.896  1.00  0.00     0.004 C 
ATOM      4  C   UNL     1     132.103 137.500 133.428  1.00  0.00     0.004 C 
ATOM      5  C   UNL     1     132.506 137.614 134.933  1.00  0.00    -0.004 C 
ATOM      6  C   UNL     1     133.714 136.680 135.082  1.00  0.00     0.007 C 
ATOM      7  C   UNL     1     133.149 135.219 134.961  1.00  0.00    -0.013 C 
ATOM      8  C   UNL     1     134.197 135.600 136.001  1.00  0.00     0.025 C 
ATOM      9  C   UNL     1     133.505 135.508 137.316  1.00  0.00    -0.073 C 
ATOM     10  C   UNL     1     132.271 135.045 137.207  1.00  0.00    -0.027 C 
ATOM     11  C   UNL     1     131.920 134.759 135.792  1.00  0.00     0.035 C 
ATOM     12  C   UNL     1     134.139 135.880 138.620  1.00  0.00     0.039 C 
ENDROOT
BRANCH   5  13
ATOM     13  C   UNL     1     132.905 139.066 135.323  1.00  0.00    -0.014 C 
ATOM     14  C   UNL     1     133.242 139.185 136.819  1.00  0.00     0.007 C 
ATOM     15  C   UNL     1     134.110 139.549 134.496  1.00  0.00     0.007 C 
ENDBRANCH   5  13
TORSDOF 1
ENDMDL
MODEL 6
REMARK VINA RESULT:    -4.987      5.925      6.973
REMARK INTER + INTRA:          -5.690
REMARK INTER:                  -5.168
REMARK INTRA:                  -0.522
REMARK UNBOUND:                -0.411
REMARK SMILES CC1=CC[C@]23[C@@H]([C@@H](C(C)C)CC[C@H]2C)[C@@H]13
REMARK SMILES IDX 14 1 13 2 12 3 11 4 7 5 6 6 5 7 15 8 2 9 3 10 4 11 1 12 8 13
REMARK SMILES IDX 9 14 10 15
REMARK H PARENT
REMARK Flexibility Score: inf
ROOT
ATOM      1  C   UNL     1     135.028 138.269 132.612  1.00  0.00     0.008 C 
ATOM      2  C   UNL     1     135.000 139.607 133.372  1.00  0.00    -0.007 C 
ATOM      3  C   UNL     1     136.033 140.641 132.826  1.00  0.00     0.004 C 
ATOM      4  C   UNL     1     137.483 140.503 133.390  1.00  0.00     0.004 C 
ATOM      5  C   UNL     1     137.566 140.137 134.907  1.00  0.00    -0.004 C 
ATOM      6  C   UNL     1     136.625 138.937 135.068  1.00  0.00     0.007 C 
ATOM      7  C   UNL     1     135.169 139.503 134.904  1.00  0.00    -0.013 C 
ATOM      8  C   UNL     1     135.526 138.480 135.978  1.00  0.00     0.025 C 
ATOM      9  C   UNL     1     135.411 139.205 137.273  1.00  0.00    -0.073 C 
ATOM     10  C   UNL     1     134.955 140.437 137.124  1.00  0.00    -0.027 C 
ATOM     11  C   UNL     1     134.697 140.754 135.695  1.00  0.00     0.035 C 
ATOM     12  C   UNL     1     135.756 138.603 138.599  1.00  0.00     0.039 C 
ENDROOT
BRANCH   5  13
ATOM     13  C   UNL     1     139.009 139.744 135.334  1.00  0.00    -0.014 C 
ATOM     14  C   UNL     1     139.081 139.363 136.823  1.00  0.00     0.007 C 
ATOM     15  C   UNL     1     139.534 138.570 134.489  1.00  0.00     0.007 C 
ENDBRANCH   5  13
TORSDOF 1
ENDMDL
MODEL 7
REMARK VINA RESULT:    -4.982      3.912      5.540
REMARK INTER + INTRA:          -5.684
REMARK INTER:                  -5.155
REMARK INTRA:                  -0.529
REMARK UNBOUND:                -0.411
REMARK SMILES CC1=CC[C@]23[C@@H]([C@@H](C(C)C)CC[C@H]2C)[C@@H]13
REMARK SMILES IDX 14 1 13 2 12 3 11 4 7 5 6 6 5 7 15 8 2 9 3 10 4 11 1 12 8 13
REMARK SMILES IDX 9 14 10 15
REMARK H PARENT
REMARK Flexibility Score: inf
ROOT
ATOM      1  C   UNL     1     138.184 137.632 132.759  1.00  0.00     0.008 C 
ATOM      2  C   UNL     1     139.532 137.648 133.503  1.00  0.00    -0.007 C 
ATOM      3  C   UNL     1     140.562 136.632 132.920  1.00  0.00     0.004 C 
ATOM      4  C   UNL     1     140.436 135.169 133.452  1.00  0.00     0.004 C 
ATOM      5  C   UNL     1     140.091 135.051 134.972  1.00  0.00    -0.004 C 
ATOM      6  C   UNL     1     138.889 135.982 135.170  1.00  0.00     0.007 C 
ATOM      7  C   UNL     1     139.447 137.444 135.031  1.00  0.00    -0.013 C 
ATOM      8  C   UNL     1     138.441 137.059 136.110  1.00  0.00     0.025 C 
ATOM      9  C   UNL     1     139.182 137.148 137.397  1.00  0.00    -0.073 C 
ATOM     10  C   UNL     1     140.411 137.612 137.243  1.00  0.00    -0.027 C 
ATOM     11  C   UNL     1     140.707 137.903 135.817  1.00  0.00     0.035 C 
ATOM     12  C   UNL     1     138.598 136.771 138.723  1.00  0.00     0.039 C 
ENDROOT
BRANCH   5  13
ATOM     13  C   UNL     1     139.708 133.596 135.371  1.00  0.00    -0.014 C 
ATOM     14  C   UNL     1     139.431 133.472 136.880  1.00  0.00     0.007 C 
ATOM     15  C   UNL     1     138.472 133.117 134.591  1.00  0.00     0.007 C 
ENDBRANCH   5  13
TORSDOF 1
ENDMDL
MODEL 8
REMARK VINA RESULT:    -4.982      1.149      3.781
REMARK INTER + INTRA:          -5.684
REMARK INTER:                  -5.151
REMARK INTRA:                  -0.532
REMARK UNBOUND:                -0.411
REMARK SMILES CC1=CC[C@]23[C@@H]([C@@H](C(C)C)CC[C@H]2C)[C@@H]13
REMARK SMILES IDX 14 1 13 2 12 3 11 4 7 5 6 6 5 7 15 8 2 9 3 10 4 11 1 12 8 13
REMARK SMILES IDX 9 14 10 15
REMARK H PARENT
REMARK Flexibility Score: inf
ROOT
ATOM      1  C   UNL     1     137.804 134.251 132.760  1.00  0.00     0.008 C 
ATOM      2  C   UNL     1     137.766 132.949 133.581  1.00  0.00    -0.007 C 
ATOM      3  C   UNL     1     136.772 131.894 133.006  1.00  0.00     0.004 C 
ATOM      4  C   UNL     1     135.285 132.061 133.451  1.00  0.00     0.004 C 
ATOM      5  C   UNL     1     135.089 132.497 134.939  1.00  0.00    -0.004 C 
ATOM      6  C   UNL     1     136.021 133.701 135.116  1.00  0.00     0.007 C 
ATOM      7  C   UNL     1     137.483 133.126 135.089  1.00  0.00    -0.013 C 
ATOM      8  C   UNL     1     137.051 134.197 136.084  1.00  0.00     0.025 C 
ATOM      9  C   UNL     1     137.064 133.533 137.416  1.00  0.00    -0.073 C 
ATOM     10  C   UNL     1     137.523 132.294 137.359  1.00  0.00    -0.027 C 
ATOM     11  C   UNL     1     137.887 131.911 135.971  1.00  0.00     0.035 C 
ATOM     12  C   UNL     1     136.624 134.197 138.683  1.00  0.00     0.039 C 
ENDROOT
BRANCH   5  13
ATOM     13  C   UNL     1     133.620 132.912 135.237  1.00  0.00    -0.014 C 
ATOM     14  C   UNL     1     133.408 133.236 136.727  1.00  0.00     0.007 C 
ATOM     15  C   UNL     1     133.209 134.132 134.394  1.00  0.00     0.007 C 
ENDBRANCH   5  13
TORSDOF 1
ENDMDL
MODEL 9
REMARK VINA RESULT:    -4.841      5.053      6.676
REMARK INTER + INTRA:          -5.535
REMARK INTER:                  -5.158
REMARK INTRA:                  -0.377
REMARK UNBOUND:                -0.411
REMARK SMILES CC1=CC[C@]23[C@@H]([C@@H](C(C)C)CC[C@H]2C)[C@@H]13
REMARK SMILES IDX 14 1 13 2 12 3 11 4 7 5 6 6 5 7 15 8 2 9 3 10 4 11 1 12 8 13
REMARK SMILES IDX 9 14 10 15
REMARK H PARENT
REMARK Flexibility Score: inf
ROOT
ATOM      1  C   UNL     1     136.964 138.607 135.023  1.00  0.00     0.008 C 
ATOM      2  C   UNL     1     135.540 139.157 134.829  1.00  0.00    -0.007 C 
ATOM      3  C   UNL     1     135.274 140.462 135.642  1.00  0.00     0.004 C 
ATOM      4  C   UNL     1     134.847 140.251 137.129  1.00  0.00     0.004 C 
ATOM      5  C   UNL     1     133.883 139.044 137.371  1.00  0.00    -0.004 C 
ATOM      6  C   UNL     1     134.549 137.866 136.651  1.00  0.00     0.007 C 
ATOM      7  C   UNL     1     134.398 138.156 135.114  1.00  0.00    -0.013 C 
ATOM      8  C   UNL     1     134.176 136.768 135.703  1.00  0.00     0.025 C 
ATOM      9  C   UNL     1     132.718 136.502 135.558  1.00  0.00    -0.073 C 
ATOM     10  C   UNL     1     132.092 137.462 134.899  1.00  0.00    -0.027 C 
ATOM     11  C   UNL     1     133.026 138.546 134.499  1.00  0.00     0.035 C 
ATOM     12  C   UNL     1     132.038 135.276 136.083  1.00  0.00     0.039 C 
ENDROOT
BRANCH   5  13
ATOM     13  C   UNL     1     133.722 138.721 138.884  1.00  0.00    -0.014 C 
ATOM     14  C   UNL     1     133.769 137.207 139.153  1.00  0.00     0.007 C 
ATOM     15  C   UNL     1     134.815 139.414 139.716  1.00  0.00     0.007 C 
ENDBRANCH   5  13
TORSDOF 1
ENDMDL
