MODEL 1
REMARK VINA RESULT:    -4.696      0.000      0.000
REMARK INTER + INTRA:          -5.515
REMARK INTER:                  -5.245
REMARK INTRA:                  -0.270
REMARK UNBOUND:                -0.270
REMARK SMILES CC(=O)c1ccc(O)cc1O
REMARK SMILES IDX 4 1 10 2 9 3 7 4 6 5 5 6 2 7 1 8 3 9 11 10 8 12
REMARK H PARENT 11 11 8 13
REMARK Flexibility Score: inf
ROOT
ATOM      1  C   UNL     1      14.991 -11.012  12.458  1.00  0.00     0.059 A 
ATOM      2  C   UNL     1      16.313 -11.520  12.519  1.00  0.00     0.130 A 
ATOM      3  C   UNL     1      17.395 -10.632  12.571  1.00  0.00     0.093 A 
ATOM      4  C   UNL     1      17.188  -9.252  12.530  1.00  0.00     0.119 A 
ATOM      5  C   UNL     1      15.887  -8.747  12.441  1.00  0.00     0.047 A 
ATOM      6  C   UNL     1      14.798  -9.619  12.405  1.00  0.00     0.019 A 
ENDROOT
BRANCH   1   7
ATOM      7  C   UNL     1      13.806 -11.903  12.487  1.00  0.00     0.163 C 
ATOM      8  C   UNL     1      12.485 -11.417  13.000  1.00  0.00     0.093 C 
ATOM      9  O   UNL     1      13.919 -13.113  12.153  1.00  0.00    -0.294 OA
ENDBRANCH   1   7
BRANCH   2  10
ATOM     10  O   UNL     1      16.592 -12.887  12.498  1.00  0.00    -0.507 OA
ATOM     11  H   UNL     1      16.651 -13.456  13.332  1.00  0.00     0.293 HD
ENDBRANCH   2  10
BRANCH   4  12
ATOM     12  O   UNL     1      18.283  -8.390  12.576  1.00  0.00    -0.508 OA
ATOM     13  H   UNL     1      19.229  -8.740  12.674  1.00  0.00     0.293 HD
ENDBRANCH   4  12
TORSDOF 3
ENDMDL
MODEL 2
REMARK VINA RESULT:    -4.593      1.083      3.918
REMARK INTER + INTRA:          -5.401
REMARK INTER:                  -5.117
REMARK INTRA:                  -0.284
REMARK UNBOUND:                -0.270
REMARK SMILES CC(=O)c1ccc(O)cc1O
REMARK SMILES IDX 4 1 10 2 9 3 7 4 6 5 5 6 2 7 1 8 3 9 11 10 8 12
REMARK H PARENT 11 11 8 13
REMARK Flexibility Score: inf
ROOT
ATOM      1  C   UNL     1      15.606  -9.907  12.508  1.00  0.00     0.059 A 
ATOM      2  C   UNL     1      16.335 -11.113  12.354  1.00  0.00     0.130 A 
ATOM      3  C   UNL     1      15.651 -12.332  12.271  1.00  0.00     0.093 A 
ATOM      4  C   UNL     1      14.258 -12.377  12.370  1.00  0.00     0.119 A 
ATOM      5  C   UNL     1      13.537 -11.193  12.551  1.00  0.00     0.047 A 
ATOM      6  C   UNL     1      14.205  -9.969  12.620  1.00  0.00     0.019 A 
ENDROOT
BRANCH   1   7
ATOM      7  C   UNL     1      16.272  -8.583  12.517  1.00  0.00     0.163 C 
ATOM      8  C   UNL     1      15.599  -7.382  13.107  1.00  0.00     0.093 C 
ATOM      9  O   UNL     1      17.388  -8.435  11.950  1.00  0.00    -0.294 OA
ENDBRANCH   1   7
BRANCH   2  10
ATOM     10  O   UNL     1      17.730 -11.144  12.312  1.00  0.00    -0.507 OA
ATOM     11  H   UNL     1      18.292 -11.742  12.904  1.00  0.00     0.293 HD
ENDBRANCH   2  10
BRANCH   4  12
ATOM     12  O   UNL     1      13.602 -13.604  12.291  1.00  0.00    -0.508 OA
ATOM     13  H   UNL     1      13.090 -13.878  11.461  1.00  0.00     0.293 HD
ENDBRANCH   4  12
TORSDOF 3
ENDMDL
MODEL 3
REMARK VINA RESULT:    -4.525      2.618      4.850
REMARK INTER + INTRA:          -5.325
REMARK INTER:                  -5.035
REMARK INTRA:                  -0.290
REMARK UNBOUND:                -0.270
REMARK SMILES CC(=O)c1ccc(O)cc1O
REMARK SMILES IDX 4 1 10 2 9 3 7 4 6 5 5 6 2 7 1 8 3 9 11 10 8 12
REMARK H PARENT 11 11 8 13
REMARK Flexibility Score: inf
ROOT
ATOM      1  C   UNL     1      16.730  -7.583  13.754  1.00  0.00     0.059 A 
ATOM      2  C   UNL     1      15.807  -8.213  12.882  1.00  0.00     0.130 A 
ATOM      3  C   UNL     1      16.096  -9.483  12.366  1.00  0.00     0.093 A 
ATOM      4  C   UNL     1      17.299 -10.122  12.674  1.00  0.00     0.119 A 
ATOM      5  C   UNL     1      18.225  -9.491  13.510  1.00  0.00     0.047 A 
ATOM      6  C   UNL     1      17.943  -8.233  14.046  1.00  0.00     0.019 A 
ENDROOT
BRANCH   1   7
ATOM      7  C   UNL     1      16.438  -6.280  14.396  1.00  0.00     0.163 C 
ATOM      8  C   UNL     1      16.886  -5.989  15.796  1.00  0.00     0.093 C 
ATOM      9  O   UNL     1      15.734  -5.424  13.795  1.00  0.00    -0.294 OA
ENDBRANCH   1   7
BRANCH   2  10
ATOM     10  O   UNL     1      14.616  -7.603  12.483  1.00  0.00    -0.507 OA
ATOM     11  H   UNL     1      14.509  -7.113  11.605  1.00  0.00     0.293 HD
ENDBRANCH   2  10
BRANCH   4  12
ATOM     12  O   UNL     1      17.565 -11.382  12.141  1.00  0.00    -0.508 OA
ATOM     13  H   UNL     1      18.086 -12.077  12.661  1.00  0.00     0.293 HD
ENDBRANCH   4  12
TORSDOF 3
ENDMDL
MODEL 4
REMARK VINA RESULT:    -4.431      1.338      1.610
REMARK INTER + INTRA:          -5.219
REMARK INTER:                  -4.985
REMARK INTRA:                  -0.234
REMARK UNBOUND:                -0.270
REMARK SMILES CC(=O)c1ccc(O)cc1O
REMARK SMILES IDX 4 1 10 2 9 3 7 4 6 5 5 6 2 7 1 8 3 9 11 10 8 12
REMARK H PARENT 11 11 8 13
REMARK Flexibility Score: inf
ROOT
ATOM      1  C   UNL     1      15.688  -9.784  12.537  1.00  0.00     0.059 A 
ATOM      2  C   UNL     1      17.089  -9.996  12.586  1.00  0.00     0.130 A 
ATOM      3  C   UNL     1      17.943  -8.925  12.877  1.00  0.00     0.093 A 
ATOM      4  C   UNL     1      17.434  -7.643  13.089  1.00  0.00     0.119 A 
ATOM      5  C   UNL     1      16.055  -7.423  13.013  1.00  0.00     0.047 A 
ATOM      6  C   UNL     1      15.190  -8.483  12.739  1.00  0.00     0.019 A 
ENDROOT
BRANCH   1   7
ATOM      7  C   UNL     1      14.733 -10.895  12.317  1.00  0.00     0.163 C 
ATOM      8  C   UNL     1      13.290 -10.764  12.699  1.00  0.00     0.093 C 
ATOM      9  O   UNL     1      15.145 -12.003  11.877  1.00  0.00    -0.294 OA
ENDBRANCH   1   7
BRANCH   2  10
ATOM     10  O   UNL     1      17.668 -11.239  12.321  1.00  0.00    -0.507 OA
ATOM     11  H   UNL     1      18.655 -11.428  12.432  1.00  0.00     0.293 HD
ENDBRANCH   2  10
BRANCH   4  12
ATOM     12  O   UNL     1      18.306  -6.593  13.371  1.00  0.00    -0.508 OA
ATOM     13  H   UNL     1      18.848  -6.569  14.226  1.00  0.00     0.293 HD
ENDBRANCH   4  12
TORSDOF 3
ENDMDL
MODEL 5
REMARK VINA RESULT:    -4.364      1.570      4.531
REMARK INTER + INTRA:          -5.145
REMARK INTER:                  -4.839
REMARK INTRA:                  -0.305
REMARK UNBOUND:                -0.270
REMARK SMILES CC(=O)c1ccc(O)cc1O
REMARK SMILES IDX 4 1 10 2 9 3 7 4 6 5 5 6 2 7 1 8 3 9 11 10 8 12
REMARK H PARENT 11 11 8 13
REMARK Flexibility Score: inf
ROOT
ATOM      1  C   UNL     1      15.965 -10.301  12.506  1.00  0.00     0.059 A 
ATOM      2  C   UNL     1      14.610  -9.903  12.627  1.00  0.00     0.130 A 
ATOM      3  C   UNL     1      13.597 -10.869  12.588  1.00  0.00     0.093 A 
ATOM      4  C   UNL     1      13.904 -12.218  12.399  1.00  0.00     0.119 A 
ATOM      5  C   UNL     1      15.237 -12.612  12.250  1.00  0.00     0.047 A 
ATOM      6  C   UNL     1      16.259 -11.663  12.303  1.00  0.00     0.019 A 
ENDROOT
BRANCH   1   7
ATOM      7  C   UNL     1      17.082  -9.333  12.625  1.00  0.00     0.163 C 
ATOM      8  C   UNL     1      18.125  -9.482  13.689  1.00  0.00     0.093 C 
ATOM      9  O   UNL     1      17.120  -8.321  11.875  1.00  0.00    -0.294 OA
ENDBRANCH   1   7
BRANCH   2  10
ATOM     10  O   UNL     1      14.231  -8.566  12.754  1.00  0.00    -0.507 OA
ATOM     11  H   UNL     1      13.928  -8.154  13.626  1.00  0.00     0.293 HD
ENDBRANCH   2  10
BRANCH   4  12
ATOM     12  O   UNL     1      12.876 -13.159  12.357  1.00  0.00    -0.508 OA
ATOM     13  H   UNL     1      12.721 -13.808  13.119  1.00  0.00     0.293 HD
ENDBRANCH   4  12
TORSDOF 3
ENDMDL
MODEL 6
REMARK VINA RESULT:    -4.298      2.151      4.404
REMARK INTER + INTRA:          -5.071
REMARK INTER:                  -4.760
REMARK INTRA:                  -0.311
REMARK UNBOUND:                -0.270
REMARK SMILES CC(=O)c1ccc(O)cc1O
REMARK SMILES IDX 4 1 10 2 9 3 7 4 6 5 5 6 2 7 1 8 3 9 11 10 8 12
REMARK H PARENT 11 11 8 13
REMARK Flexibility Score: inf
ROOT
ATOM      1  C   UNL     1      15.845  -7.692  13.111  1.00  0.00     0.059 A 
ATOM      2  C   UNL     1      17.232  -7.898  13.321  1.00  0.00     0.130 A 
ATOM      3  C   UNL     1      17.806  -9.134  12.997  1.00  0.00     0.093 A 
ATOM      4  C   UNL     1      17.021 -10.177  12.499  1.00  0.00     0.119 A 
ATOM      5  C   UNL     1      15.648  -9.987  12.318  1.00  0.00     0.047 A 
ATOM      6  C   UNL     1      15.065  -8.756  12.621  1.00  0.00     0.019 A 
ENDROOT
BRANCH   1   7
ATOM      7  C   UNL     1      15.201  -6.379  13.356  1.00  0.00     0.163 C 
ATOM      8  C   UNL     1      14.386  -5.706  12.293  1.00  0.00     0.093 C 
ATOM      9  O   UNL     1      15.400  -5.772  14.442  1.00  0.00    -0.294 OA
ENDBRANCH   1   7
BRANCH   2  10
ATOM     10  O   UNL     1      18.059  -6.919  13.874  1.00  0.00    -0.507 OA
ATOM     11  H   UNL     1      18.491  -7.005  14.784  1.00  0.00     0.293 HD
ENDBRANCH   2  10
BRANCH   4  12
ATOM     12  O   UNL     1      17.617 -11.399  12.192  1.00  0.00    -0.508 OA
ATOM     13  H   UNL     1      18.557 -11.451  11.820  1.00  0.00     0.293 HD
ENDBRANCH   4  12
TORSDOF 3
ENDMDL
MODEL 7
REMARK VINA RESULT:    -4.213      1.762      4.244
REMARK INTER + INTRA:          -4.976
REMARK INTER:                  -4.666
REMARK INTRA:                  -0.311
REMARK UNBOUND:                -0.270
REMARK SMILES CC(=O)c1ccc(O)cc1O
REMARK SMILES IDX 4 1 10 2 9 3 7 4 6 5 5 6 2 7 1 8 3 9 11 10 8 12
REMARK H PARENT 11 11 8 13
REMARK Flexibility Score: inf
ROOT
ATOM      1  C   UNL     1      16.259  -8.806  12.784  1.00  0.00     0.059 A 
ATOM      2  C   UNL     1      15.813 -10.144  12.652  1.00  0.00     0.130 A 
ATOM      3  C   UNL     1      14.442 -10.412  12.553  1.00  0.00     0.093 A 
ATOM      4  C   UNL     1      13.506  -9.377  12.616  1.00  0.00     0.119 A 
ATOM      5  C   UNL     1      13.941  -8.058  12.776  1.00  0.00     0.047 A 
ATOM      6  C   UNL     1      15.305  -7.774  12.859  1.00  0.00     0.019 A 
ENDROOT
BRANCH   1   7
ATOM      7  C   UNL     1      17.700  -8.457  12.807  1.00  0.00     0.163 C 
ATOM      8  C   UNL     1      18.260  -7.415  11.888  1.00  0.00     0.093 C 
ATOM      9  O   UNL     1      18.491  -9.097  13.552  1.00  0.00    -0.294 OA
ENDBRANCH   1   7
BRANCH   2  10
ATOM     10  O   UNL     1      16.691 -11.229  12.646  1.00  0.00    -0.507 OA
ATOM     11  H   UNL     1      16.949 -11.741  13.479  1.00  0.00     0.293 HD
ENDBRANCH   2  10
BRANCH   4  12
ATOM     12  O   UNL     1      12.147  -9.671  12.522  1.00  0.00    -0.508 OA
ATOM     13  H   UNL     1      11.798 -10.358  11.865  1.00  0.00     0.293 HD
ENDBRANCH   4  12
TORSDOF 3
ENDMDL
MODEL 8
REMARK VINA RESULT:    -4.205      5.103      6.657
REMARK INTER + INTRA:          -4.967
REMARK INTER:                  -4.711
REMARK INTRA:                  -0.255
REMARK UNBOUND:                -0.270
REMARK SMILES CC(=O)c1ccc(O)cc1O
REMARK SMILES IDX 4 1 10 2 9 3 7 4 6 5 5 6 2 7 1 8 3 9 11 10 8 12
REMARK H PARENT 11 11 8 13
REMARK Flexibility Score: inf
ROOT
ATOM      1  C   UNL     1      15.694  -5.827  14.283  1.00  0.00     0.059 A 
ATOM      2  C   UNL     1      14.801  -5.592  15.359  1.00  0.00     0.130 A 
ATOM      3  C   UNL     1      13.578  -4.954  15.119  1.00  0.00     0.093 A 
ATOM      4  C   UNL     1      13.241  -4.516  13.837  1.00  0.00     0.119 A 
ATOM      5  C   UNL     1      14.131  -4.720  12.778  1.00  0.00     0.047 A 
ATOM      6  C   UNL     1      15.346  -5.369  12.998  1.00  0.00     0.019 A 
ENDROOT
BRANCH   1   7
ATOM      7  C   UNL     1      16.962  -6.573  14.463  1.00  0.00     0.163 C 
ATOM      8  C   UNL     1      17.629  -7.257  13.309  1.00  0.00     0.093 C 
ATOM      9  O   UNL     1      17.455  -6.709  15.616  1.00  0.00    -0.294 OA
ENDBRANCH   1   7
BRANCH   2  10
ATOM     10  O   UNL     1      15.105  -5.947  16.675  1.00  0.00    -0.507 OA
ATOM     11  H   UNL     1      14.661  -5.529  17.481  1.00  0.00     0.293 HD
ENDBRANCH   2  10
BRANCH   4  12
ATOM     12  O   UNL     1      12.020  -3.877  13.627  1.00  0.00    -0.508 OA
ATOM     13  H   UNL     1      11.345  -3.765  14.373  1.00  0.00     0.293 HD
ENDBRANCH   4  12
TORSDOF 3
ENDMDL
MODEL 9
REMARK VINA RESULT:    -2.060      2.005      2.832
REMARK INTER + INTRA:          -2.571
REMARK INTER:                  -2.279
REMARK INTRA:                  -0.292
REMARK UNBOUND:                -0.270
REMARK SMILES CC(=O)c1ccc(O)cc1O
REMARK SMILES IDX 4 1 10 2 9 3 7 4 6 5 5 6 2 7 1 8 3 9 11 10 8 12
REMARK H PARENT 11 11 8 13
REMARK Flexibility Score: inf
ROOT
ATOM      1  C   UNL     1      13.700 -11.334  12.589  1.00  0.00     0.059 A 
ATOM      2  C   UNL     1      14.341 -10.070  12.633  1.00  0.00     0.130 A 
ATOM      3  C   UNL     1      15.728  -9.990  12.460  1.00  0.00     0.093 A 
ATOM      4  C   UNL     1      16.493 -11.144  12.277  1.00  0.00     0.119 A 
ATOM      5  C   UNL     1      15.869 -12.395  12.262  1.00  0.00     0.047 A 
ATOM      6  C   UNL     1      14.485 -12.489  12.416  1.00  0.00     0.019 A 
ENDROOT
BRANCH   1   7
ATOM      7  C   UNL     1      12.227 -11.471  12.680  1.00  0.00     0.163 C 
ATOM      8  C   UNL     1      11.493 -12.500  11.875  1.00  0.00     0.093 C 
ATOM      9  O   UNL     1      11.561 -10.662  13.381  1.00  0.00    -0.294 OA
ENDBRANCH   1   7
BRANCH   2  10
ATOM     10  O   UNL     1      13.644  -8.885  12.875  1.00  0.00    -0.507 OA
ATOM     11  H   UNL     1      13.951  -8.184  13.535  1.00  0.00     0.293 HD
ENDBRANCH   2  10
BRANCH   4  12
ATOM     12  O   UNL     1      17.873 -11.036  12.115  1.00  0.00    -0.508 OA
ATOM     13  H   UNL     1      18.498 -11.786  12.383  1.00  0.00     0.293 HD
ENDBRANCH   4  12
TORSDOF 3
ENDMDL
