MODEL 1
REMARK VINA RESULT:    -2.692      0.000      0.000
REMARK INTER + INTRA:          -5.523
REMARK INTER:                  -4.345
REMARK INTRA:                  -1.178
REMARK UNBOUND:                -1.178
REMARK SMILES CCCCCCCCCCCCO
REMARK SMILES IDX 7 1 6 2 5 3 4 4 3 5 2 6 1 7 8 8 9 9 10 10 11 11 12 12 13 13
REMARK H PARENT 13 14
REMARK Flexibility Score: inf
ROOT
ATOM      1  C   UNL     1     108.030 109.009 116.543  1.00  0.00     0.000 C 
ENDROOT
BRANCH   1   2
ATOM      2  C   UNL     1     107.423 109.553 115.243  1.00  0.00    -0.000 C 
BRANCH   2   3
ATOM      3  C   UNL     1     107.583 111.079 115.158  1.00  0.00    -0.000 C 
BRANCH   3   4
ATOM      4  C   UNL     1     107.642 111.748 116.540  1.00  0.00    -0.000 C 
BRANCH   4   5
ATOM      5  C   UNL     1     108.648 112.912 116.591  1.00  0.00    -0.000 C 
BRANCH   5   6
ATOM      6  C   UNL     1     109.158 113.187 118.014  1.00  0.00    -0.003 C 
ATOM      7  C   UNL     1     108.535 112.261 119.058  1.00  0.00     0.004 C 
ENDBRANCH   5   6
ENDBRANCH   4   5
ENDBRANCH   3   4
ENDBRANCH   2   3
ENDBRANCH   1   2
BRANCH   1   8
ATOM      8  C   UNL     1     109.201 108.059 116.248  1.00  0.00     0.000 C 
BRANCH   8   9
ATOM      9  C   UNL     1     110.481 108.442 117.008  1.00  0.00     0.000 C 
BRANCH   9  10
ATOM     10  C   UNL     1     110.766 109.953 116.960  1.00  0.00     0.002 C 
BRANCH  10  11
ATOM     11  C   UNL     1     112.227 110.275 116.601  1.00  0.00     0.028 C 
BRANCH  11  12
ATOM     12  C   UNL     1     112.958 109.120 115.900  1.00  0.00     0.156 C 
BRANCH  12  13
ATOM     13  O   UNL     1     113.008 109.319 114.513  1.00  0.00    -0.396 OA
ATOM     14  H   UNL     1     113.576 108.595 114.141  1.00  0.00     0.210 HD
ENDBRANCH  12  13
ENDBRANCH  11  12
ENDBRANCH  10  11
ENDBRANCH   9  10
ENDBRANCH   8   9
ENDBRANCH   1   8
TORSDOF 11
ENDMDL
MODEL 2
REMARK VINA RESULT:    -2.650     17.003     18.965
REMARK INTER + INTRA:          -5.454
REMARK INTER:                  -3.992
REMARK INTRA:                  -1.462
REMARK UNBOUND:                -1.178
REMARK SMILES CCCCCCCCCCCCO
REMARK SMILES IDX 7 1 6 2 5 3 4 4 3 5 2 6 1 7 8 8 9 9 10 10 11 11 12 12 13 13
REMARK H PARENT 13 14
REMARK Flexibility Score: inf
ROOT
ATOM      1  C   UNL     1     124.210 120.132 117.357  1.00  0.00     0.000 C 
ENDROOT
BRANCH   1   2
ATOM      2  C   UNL     1     124.170 120.782 115.967  1.00  0.00    -0.000 C 
BRANCH   2   3
ATOM      3  C   UNL     1     125.411 121.657 115.734  1.00  0.00    -0.000 C 
BRANCH   3   4
ATOM      4  C   UNL     1     125.163 123.139 116.059  1.00  0.00    -0.000 C 
BRANCH   4   5
ATOM      5  C   UNL     1     125.656 123.526 117.464  1.00  0.00    -0.000 C 
BRANCH   5   6
ATOM      6  C   UNL     1     126.879 122.706 117.906  1.00  0.00    -0.003 C 
ATOM      7  C   UNL     1     126.706 122.080 119.289  1.00  0.00     0.004 C 
ENDBRANCH   5   6
ENDBRANCH   4   5
ENDBRANCH   3   4
ENDBRANCH   2   3
ENDBRANCH   1   2
BRANCH   1   8
ATOM      8  C   UNL     1     123.109 120.704 118.263  1.00  0.00     0.000 C 
BRANCH   8   9
ATOM      9  C   UNL     1     122.084 121.550 117.489  1.00  0.00     0.000 C 
BRANCH   9  10
ATOM     10  C   UNL     1     121.845 122.925 118.137  1.00  0.00     0.002 C 
BRANCH  10  11
ATOM     11  C   UNL     1     121.773 124.066 117.108  1.00  0.00     0.028 C 
BRANCH  11  12
ATOM     12  C   UNL     1     120.366 124.294 116.537  1.00  0.00     0.156 C 
BRANCH  12  13
ATOM     13  O   UNL     1     120.208 123.647 115.304  1.00  0.00    -0.396 OA
ATOM     14  H   UNL     1     120.966 123.012 115.216  1.00  0.00     0.210 HD
ENDBRANCH  12  13
ENDBRANCH  11  12
ENDBRANCH  10  11
ENDBRANCH   9  10
ENDBRANCH   8   9
ENDBRANCH   1   8
TORSDOF 11
ENDMDL
MODEL 3
REMARK VINA RESULT:    -2.625     10.552     12.524
REMARK INTER + INTRA:          -5.413
REMARK INTER:                  -4.455
REMARK INTRA:                  -0.958
REMARK UNBOUND:                -1.178
REMARK SMILES CCCCCCCCCCCCO
REMARK SMILES IDX 7 1 6 2 5 3 4 4 3 5 2 6 1 7 8 8 9 9 10 10 11 11 12 12 13 13
REMARK H PARENT 13 14
REMARK Flexibility Score: inf
ROOT
ATOM      1  C   UNL     1     116.638 117.194 113.847  1.00  0.00     0.000 C 
ENDROOT
BRANCH   1   2
ATOM      2  C   UNL     1     116.449 116.909 112.351  1.00  0.00    -0.000 C 
BRANCH   2   3
ATOM      3  C   UNL     1     117.413 115.811 111.875  1.00  0.00    -0.000 C 
BRANCH   3   4
ATOM      4  C   UNL     1     118.774 115.866 112.586  1.00  0.00    -0.000 C 
BRANCH   4   5
ATOM      5  C   UNL     1     119.575 114.562 112.430  1.00  0.00    -0.000 C 
BRANCH   5   6
ATOM      6  C   UNL     1     119.825 113.860 113.775  1.00  0.00    -0.003 C 
ATOM      7  C   UNL     1     118.657 114.012 114.749  1.00  0.00     0.004 C 
ENDBRANCH   5   6
ENDBRANCH   4   5
ENDBRANCH   3   4
ENDBRANCH   2   3
ENDBRANCH   1   2
BRANCH   1   8
ATOM      8  C   UNL     1     116.905 118.687 114.092  1.00  0.00     0.000 C 
BRANCH   8   9
ATOM      9  C   UNL     1     117.449 119.405 112.846  1.00  0.00     0.000 C 
BRANCH   9  10
ATOM     10  C   UNL     1     118.844 120.010 113.075  1.00  0.00     0.002 C 
BRANCH  10  11
ATOM     11  C   UNL     1     119.574 119.392 114.280  1.00  0.00     0.028 C 
BRANCH  11  12
ATOM     12  C   UNL     1     120.140 120.433 115.258  1.00  0.00     0.156 C 
BRANCH  12  13
ATOM     13  O   UNL     1     121.541 120.466 115.208  1.00  0.00    -0.396 OA
ATOM     14  H   UNL     1     121.862 120.354 116.140  1.00  0.00     0.210 HD
ENDBRANCH  12  13
ENDBRANCH  11  12
ENDBRANCH  10  11
ENDBRANCH   9  10
ENDBRANCH   8   9
ENDBRANCH   1   8
TORSDOF 11
ENDMDL
MODEL 4
REMARK VINA RESULT:    -2.602     17.326     19.536
REMARK INTER + INTRA:          -5.376
REMARK INTER:                  -4.039
REMARK INTRA:                  -1.337
REMARK UNBOUND:                -1.178
REMARK SMILES CCCCCCCCCCCCO
REMARK SMILES IDX 7 1 6 2 5 3 4 4 3 5 2 6 1 7 8 8 9 9 10 10 11 11 12 12 13 13
REMARK H PARENT 13 14
REMARK Flexibility Score: inf
ROOT
ATOM      1  C   UNL     1     124.924 124.601 118.425  1.00  0.00     0.000 C 
ENDROOT
BRANCH   1   2
ATOM      2  C   UNL     1     126.077 124.245 117.478  1.00  0.00    -0.000 C 
BRANCH   2   3
ATOM      3  C   UNL     1     126.266 122.723 117.389  1.00  0.00    -0.000 C 
BRANCH   3   4
ATOM      4  C   UNL     1     125.664 122.123 116.109  1.00  0.00    -0.000 C 
BRANCH   4   5
ATOM      5  C   UNL     1     124.682 120.975 116.399  1.00  0.00    -0.000 C 
BRANCH   5   6
ATOM      6  C   UNL     1     124.587 120.646 117.897  1.00  0.00    -0.003 C 
ATOM      7  C   UNL     1     123.272 119.963 118.272  1.00  0.00     0.004 C 
ENDBRANCH   5   6
ENDBRANCH   4   5
ENDBRANCH   3   4
ENDBRANCH   2   3
ENDBRANCH   1   2
BRANCH   1   8
ATOM      8  C   UNL     1     123.907 125.521 117.731  1.00  0.00     0.000 C 
BRANCH   8   9
ATOM      9  C   UNL     1     122.920 124.748 116.840  1.00  0.00     0.000 C 
BRANCH   9  10
ATOM     10  C   UNL     1     122.249 123.578 117.579  1.00  0.00     0.002 C 
BRANCH  10  11
ATOM     11  C   UNL     1     120.982 123.071 116.870  1.00  0.00     0.028 C 
BRANCH  11  12
ATOM     12  C   UNL     1     120.183 124.178 116.168  1.00  0.00     0.156 C 
BRANCH  12  13
ATOM     13  O   UNL     1     120.093 123.942 114.789  1.00  0.00    -0.396 OA
ATOM     14  H   UNL     1     119.298 123.364 114.649  1.00  0.00     0.210 HD
ENDBRANCH  12  13
ENDBRANCH  11  12
ENDBRANCH  10  11
ENDBRANCH   9  10
ENDBRANCH   8   9
ENDBRANCH   1   8
TORSDOF 11
ENDMDL
MODEL 5
REMARK VINA RESULT:    -2.584     18.360     20.500
REMARK INTER + INTRA:          -5.348
REMARK INTER:                  -4.151
REMARK INTRA:                  -1.197
REMARK UNBOUND:                -1.178
REMARK SMILES CCCCCCCCCCCCO
REMARK SMILES IDX 7 1 6 2 5 3 4 4 3 5 2 6 1 7 8 8 9 9 10 10 11 11 12 12 13 13
REMARK H PARENT 13 14
REMARK Flexibility Score: inf
ROOT
ATOM      1  C   UNL     1     126.632 122.751 118.458  1.00  0.00     0.000 C 
ENDROOT
BRANCH   1   2
ATOM      2  C   UNL     1     125.264 123.355 118.798  1.00  0.00    -0.000 C 
BRANCH   2   3
ATOM      3  C   UNL     1     124.210 122.254 118.992  1.00  0.00    -0.000 C 
BRANCH   3   4
ATOM      4  C   UNL     1     124.793 120.840 118.845  1.00  0.00    -0.000 C 
BRANCH   4   5
ATOM      5  C   UNL     1     124.146 120.051 117.693  1.00  0.00    -0.000 C 
BRANCH   5   6
ATOM      6  C   UNL     1     123.937 120.909 116.436  1.00  0.00    -0.003 C 
ATOM      7  C   UNL     1     124.759 120.423 115.242  1.00  0.00     0.004 C 
ENDBRANCH   5   6
ENDBRANCH   4   5
ENDBRANCH   3   4
ENDBRANCH   2   3
ENDBRANCH   1   2
BRANCH   1   8
ATOM      8  C   UNL     1     127.016 123.044 116.999  1.00  0.00     0.000 C 
BRANCH   8   9
ATOM      9  C   UNL     1     126.305 124.287 116.438  1.00  0.00     0.000 C 
BRANCH   9  10
ATOM     10  C   UNL     1     125.624 124.016 115.085  1.00  0.00     0.002 C 
BRANCH  10  11
ATOM     11  C   UNL     1     125.817 125.163 114.078  1.00  0.00     0.028 C 
BRANCH  11  12
ATOM     12  C   UNL     1     124.703 126.219 114.126  1.00  0.00     0.156 C 
BRANCH  12  13
ATOM     13  O   UNL     1     123.461 125.634 114.410  1.00  0.00    -0.396 OA
ATOM     14  H   UNL     1     122.946 125.632 113.563  1.00  0.00     0.210 HD
ENDBRANCH  12  13
ENDBRANCH  11  12
ENDBRANCH  10  11
ENDBRANCH   9  10
ENDBRANCH   8   9
ENDBRANCH   1   8
TORSDOF 11
ENDMDL
MODEL 6
REMARK VINA RESULT:    -2.573     11.878     14.711
REMARK INTER + INTRA:          -5.330
REMARK INTER:                  -4.090
REMARK INTRA:                  -1.239
REMARK UNBOUND:                -1.178
REMARK SMILES CCCCCCCCCCCCO
REMARK SMILES IDX 7 1 6 2 5 3 4 4 3 5 2 6 1 7 8 8 9 9 10 10 11 11 12 12 13 13
REMARK H PARENT 13 14
REMARK Flexibility Score: inf
ROOT
ATOM      1  C   UNL     1     111.620 125.537 115.434  1.00  0.00     0.000 C 
ENDROOT
BRANCH   1   2
ATOM      2  C   UNL     1     112.833 124.723 115.905  1.00  0.00    -0.000 C 
BRANCH   2   3
ATOM      3  C   UNL     1     112.854 124.605 117.437  1.00  0.00    -0.000 C 
BRANCH   3   4
ATOM      4  C   UNL     1     112.851 123.146 117.920  1.00  0.00    -0.000 C 
BRANCH   4   5
ATOM      5  C   UNL     1     111.805 122.285 117.192  1.00  0.00    -0.000 C 
BRANCH   5   6
ATOM      6  C   UNL     1     110.385 122.491 117.743  1.00  0.00    -0.003 C 
ATOM      7  C   UNL     1     109.322 121.746 116.937  1.00  0.00     0.004 C 
ENDBRANCH   5   6
ENDBRANCH   4   5
ENDBRANCH   3   4
ENDBRANCH   2   3
ENDBRANCH   1   2
BRANCH   1   8
ATOM      8  C   UNL     1     110.887 126.171 116.626  1.00  0.00     0.000 C 
BRANCH   8   9
ATOM      9  C   UNL     1     109.366 125.957 116.568  1.00  0.00     0.000 C 
BRANCH   9  10
ATOM     10  C   UNL     1     108.875 125.590 115.157  1.00  0.00     0.002 C 
BRANCH  10  11
ATOM     11  C   UNL     1     107.746 124.546 115.169  1.00  0.00     0.028 C 
BRANCH  11  12
ATOM     12  C   UNL     1     107.077 124.345 113.800  1.00  0.00     0.156 C 
BRANCH  12  13
ATOM     13  O   UNL     1     107.222 123.024 113.354  1.00  0.00    -0.396 OA
ATOM     14  H   UNL     1     106.539 122.885 112.647  1.00  0.00     0.210 HD
ENDBRANCH  12  13
ENDBRANCH  11  12
ENDBRANCH  10  11
ENDBRANCH   9  10
ENDBRANCH   8   9
ENDBRANCH   1   8
TORSDOF 11
ENDMDL
MODEL 7
REMARK VINA RESULT:    -2.566      9.723     11.597
REMARK INTER + INTRA:          -5.319
REMARK INTER:                  -4.307
REMARK INTRA:                  -1.012
REMARK UNBOUND:                -1.178
REMARK SMILES CCCCCCCCCCCCO
REMARK SMILES IDX 7 1 6 2 5 3 4 4 3 5 2 6 1 7 8 8 9 9 10 10 11 11 12 12 13 13
REMARK H PARENT 13 14
REMARK Flexibility Score: inf
ROOT
ATOM      1  C   UNL     1     114.671 116.798 113.257  1.00  0.00     0.000 C 
ENDROOT
BRANCH   1   2
ATOM      2  C   UNL     1     115.613 116.152 112.233  1.00  0.00    -0.000 C 
BRANCH   2   3
ATOM      3  C   UNL     1     117.076 116.249 112.694  1.00  0.00    -0.000 C 
BRANCH   3   4
ATOM      4  C   UNL     1     117.484 117.681 113.076  1.00  0.00    -0.000 C 
BRANCH   4   5
ATOM      5  C   UNL     1     117.463 118.642 111.875  1.00  0.00    -0.000 C 
BRANCH   5   6
ATOM      6  C   UNL     1     118.130 119.991 112.189  1.00  0.00    -0.003 C 
ATOM      7  C   UNL     1     119.105 119.912 113.363  1.00  0.00     0.004 C 
ENDBRANCH   5   6
ENDBRANCH   4   5
ENDBRANCH   3   4
ENDBRANCH   2   3
ENDBRANCH   1   2
BRANCH   1   8
ATOM      8  C   UNL     1     113.622 117.678 112.560  1.00  0.00     0.000 C 
BRANCH   8   9
ATOM      9  C   UNL     1     113.618 119.123 113.084  1.00  0.00     0.000 C 
BRANCH   9  10
ATOM     10  C   UNL     1     114.549 119.315 114.294  1.00  0.00     0.002 C 
BRANCH  10  11
ATOM     11  C   UNL     1     113.788 119.656 115.586  1.00  0.00     0.028 C 
BRANCH  11  12
ATOM     12  C   UNL     1     112.475 120.415 115.346  1.00  0.00     0.156 C 
BRANCH  12  13
ATOM     13  O   UNL     1     112.698 121.796 115.247  1.00  0.00    -0.396 OA
ATOM     14  H   UNL     1     111.851 122.199 114.923  1.00  0.00     0.210 HD
ENDBRANCH  12  13
ENDBRANCH  11  12
ENDBRANCH  10  11
ENDBRANCH   9  10
ENDBRANCH   8   9
ENDBRANCH   1   8
TORSDOF 11
ENDMDL
MODEL 8
REMARK VINA RESULT:    -2.546      9.719     11.519
REMARK INTER + INTRA:          -5.287
REMARK INTER:                  -4.052
REMARK INTRA:                  -1.236
REMARK UNBOUND:                -1.178
REMARK SMILES CCCCCCCCCCCCO
REMARK SMILES IDX 7 1 6 2 5 3 4 4 3 5 2 6 1 7 8 8 9 9 10 10 11 11 12 12 13 13
REMARK H PARENT 13 14
REMARK Flexibility Score: inf
ROOT
ATOM      1  C   UNL     1     119.913 109.106 118.912  1.00  0.00     0.000 C 
ENDROOT
BRANCH   1   2
ATOM      2  C   UNL     1     118.675 109.743 118.269  1.00  0.00    -0.000 C 
BRANCH   2   3
ATOM      3  C   UNL     1     118.479 111.185 118.763  1.00  0.00    -0.000 C 
BRANCH   3   4
ATOM      4  C   UNL     1     119.744 112.044 118.602  1.00  0.00    -0.000 C 
BRANCH   4   5
ATOM      5  C   UNL     1     119.893 112.615 117.182  1.00  0.00    -0.000 C 
BRANCH   5   6
ATOM      6  C   UNL     1     121.336 112.525 116.659  1.00  0.00    -0.003 C 
ATOM      7  C   UNL     1     122.320 112.027 117.717  1.00  0.00     0.004 C 
ENDBRANCH   5   6
ENDBRANCH   4   5
ENDBRANCH   3   4
ENDBRANCH   2   3
ENDBRANCH   1   2
BRANCH   1   8
ATOM      8  C   UNL     1     120.909 108.637 117.839  1.00  0.00     0.000 C 
BRANCH   8   9
ATOM      9  C   UNL     1     120.396 108.874 116.410  1.00  0.00     0.000 C 
BRANCH   9  10
ATOM     10  C   UNL     1     121.106 107.986 115.373  1.00  0.00     0.002 C 
BRANCH  10  11
ATOM     11  C   UNL     1     122.317 107.237 115.956  1.00  0.00     0.028 C 
BRANCH  11  12
ATOM     12  C   UNL     1     123.578 107.332 115.084  1.00  0.00     0.156 C 
BRANCH  12  13
ATOM     13  O   UNL     1     123.265 107.201 113.724  1.00  0.00    -0.396 OA
ATOM     14  H   UNL     1     122.491 106.583 113.667  1.00  0.00     0.210 HD
ENDBRANCH  12  13
ENDBRANCH  11  12
ENDBRANCH  10  11
ENDBRANCH   9  10
ENDBRANCH   8   9
ENDBRANCH   1   8
TORSDOF 11
ENDMDL
MODEL 9
REMARK VINA RESULT:    -2.482      8.947     10.859
REMARK INTER + INTRA:          -5.183
REMARK INTER:                  -4.092
REMARK INTRA:                  -1.091
REMARK UNBOUND:                -1.178
REMARK SMILES CCCCCCCCCCCCO
REMARK SMILES IDX 7 1 6 2 5 3 4 4 3 5 2 6 1 7 8 8 9 9 10 10 11 11 12 12 13 13
REMARK H PARENT 13 14
REMARK Flexibility Score: inf
ROOT
ATOM      1  C   UNL     1     116.001 114.673 113.927  1.00  0.00     0.000 C 
ENDROOT
BRANCH   1   2
ATOM      2  C   UNL     1     116.938 114.944 112.743  1.00  0.00    -0.000 C 
BRANCH   2   3
ATOM      3  C   UNL     1     118.333 115.364 113.230  1.00  0.00    -0.000 C 
BRANCH   3   4
ATOM      4  C   UNL     1     118.634 116.847 112.962  1.00  0.00    -0.000 C 
BRANCH   4   5
ATOM      5  C   UNL     1     117.591 117.505 112.041  1.00  0.00    -0.000 C 
BRANCH   5   6
ATOM      6  C   UNL     1     117.153 118.890 112.542  1.00  0.00    -0.003 C 
ATOM      7  C   UNL     1     118.176 119.983 112.234  1.00  0.00     0.004 C 
ENDBRANCH   5   6
ENDBRANCH   4   5
ENDBRANCH   3   4
ENDBRANCH   2   3
ENDBRANCH   1   2
BRANCH   1   8
ATOM      8  C   UNL     1     114.548 115.025 113.571  1.00  0.00     0.000 C 
BRANCH   8   9
ATOM      9  C   UNL     1     114.289 116.541 113.574  1.00  0.00     0.000 C 
BRANCH   9  10
ATOM     10  C   UNL     1     113.837 117.065 112.199  1.00  0.00     0.002 C 
BRANCH  10  11
ATOM     11  C   UNL     1     113.267 118.492 112.261  1.00  0.00     0.028 C 
BRANCH  11  12
ATOM     12  C   UNL     1     113.536 119.206 113.594  1.00  0.00     0.156 C 
BRANCH  12  13
ATOM     13  O   UNL     1     112.339 119.605 114.206  1.00  0.00    -0.396 OA
ATOM     14  H   UNL     1     111.979 120.356 113.666  1.00  0.00     0.210 HD
ENDBRANCH  12  13
ENDBRANCH  11  12
ENDBRANCH  10  11
ENDBRANCH   9  10
ENDBRANCH   8   9
ENDBRANCH   1   8
TORSDOF 11
ENDMDL
