MODEL 1
REMARK VINA RESULT:    -7.297      0.000      0.000
REMARK INTER + INTRA:         -11.463
REMARK INTER:                 -10.070
REMARK INTRA:                  -1.393
REMARK UNBOUND:                -1.393
REMARK SMILES O=C([O-])[C@@H]1O[C@H](Oc2cc3oc(-c4ccccc4)cc(=O)c3c(O)c2O)[C@@H](O)[C@H](O)[C@H]1O
REMARK SMILES IDX 7 1 6 2 4 3 31 4 5 5 29 6 27 7 2 8 1 9 3 10 32 11 30 13
REMARK SMILES IDX 28 15 8 17 25 18 9 19 23 20 10 21 22 22 11 23 20 24 12 25
REMARK SMILES IDX 19 26 21 27 26 28 24 30 13 32 14 33 18 34 15 35 17 36 16 37
REMARK H PARENT 32 12 30 14 28 16 26 29 24 31
REMARK Flexibility Score: inf
ROOT
ATOM      1  O   UNL     1       3.764   0.239 -24.587  1.00  0.00    -0.458 OA
ENDROOT
BRANCH   1   2
ATOM      2  C   UNL     1       2.551  -0.475 -24.833  1.00  0.00     0.339 C 
ATOM      3  C   UNL     1       3.444  -2.693 -25.184  1.00  0.00     0.199 C 
ATOM      4  C   UNL     1       2.859  -3.207 -23.842  1.00  0.00     0.180 C 
ATOM      5  O   UNL     1       2.789  -1.552 -25.733  1.00  0.00    -0.328 OA
ATOM      6  C   UNL     1       2.605  -2.070 -22.845  1.00  0.00     0.181 C 
ATOM      7  C   UNL     1       1.856  -0.911 -23.518  1.00  0.00     0.214 C 
BRANCH   3   8
ATOM      8  C   UNL     1       4.953  -2.567 -25.153  1.00  0.00     0.073 C 
ATOM      9  O   UNL     1       5.561  -2.126 -26.168  1.00  0.00    -0.547 OA
ATOM     10  O   UNL     1       5.703  -3.018 -24.076  1.00  0.00    -0.547 OA
ENDBRANCH   3   8
BRANCH   4  11
ATOM     11  O   UNL     1       1.651  -3.891 -24.077  1.00  0.00    -0.387 OA
ATOM     12  H   UNL     1       1.852  -4.863 -24.030  1.00  0.00     0.211 HD
ENDBRANCH   4  11
BRANCH   6  13
ATOM     13  O   UNL     1       3.823  -1.617 -22.313  1.00  0.00    -0.387 OA
ATOM     14  H   UNL     1       4.283  -2.410 -21.930  1.00  0.00     0.211 HD
ENDBRANCH   6  13
BRANCH   7  15
ATOM     15  O   UNL     1       0.507  -1.255 -23.732  1.00  0.00    -0.384 OA
ATOM     16  H   UNL     1       0.332  -1.284 -24.709  1.00  0.00     0.211 HD
ENDBRANCH   7  15
ENDBRANCH   1   2
BRANCH   1  17
ATOM     17  C   UNL     1       3.876   1.591 -24.212  1.00  0.00     0.172 A 
ATOM     18  C   UNL     1       4.426   1.879 -22.955  1.00  0.00     0.201 A 
ATOM     19  C   UNL     1       3.466   2.646 -25.044  1.00  0.00     0.098 A 
ATOM     20  C   UNL     1       4.604   3.211 -22.535  1.00  0.00     0.176 A 
ATOM     21  C   UNL     1       3.674   3.974 -24.662  1.00  0.00     0.146 A 
ATOM     22  C   UNL     1       4.297   4.277 -23.428  1.00  0.00     0.111 A 
ATOM     23  O   UNL     1       3.296   4.945 -25.488  1.00  0.00    -0.456 OA
ATOM     24  C   UNL     1       4.620   5.631 -23.189  1.00  0.00     0.197 A 
ATOM     25  C   UNL     1       3.504   6.239 -25.253  1.00  0.00     0.138 A 
ATOM     26  C   UNL     1       4.206   6.611 -24.093  1.00  0.00     0.100 A 
ATOM     27  O   UNL     1       5.322   5.982 -22.204  1.00  0.00    -0.289 OA
BRANCH  18  28
ATOM     28  O   UNL     1       4.789   0.818 -22.124  1.00  0.00    -0.502 OA
ATOM     29  H   UNL     1       5.303   0.011 -22.465  1.00  0.00     0.293 HD
ENDBRANCH  18  28
BRANCH  20  30
ATOM     30  O   UNL     1       5.034   3.423 -21.221  1.00  0.00    -0.504 OA
ATOM     31  H   UNL     1       5.559   4.231 -20.916  1.00  0.00     0.293 HD
ENDBRANCH  20  30
BRANCH  25  32
ATOM     32  C   UNL     1       3.006   7.232 -26.253  1.00  0.00     0.017 A 
ATOM     33  C   UNL     1       3.868   8.096 -26.966  1.00  0.00     0.012 A 
ATOM     34  C   UNL     1       1.619   7.327 -26.494  1.00  0.00     0.012 A 
ATOM     35  C   UNL     1       3.354   9.004 -27.898  1.00  0.00     0.001 A 
ATOM     36  C   UNL     1       1.113   8.246 -27.419  1.00  0.00     0.001 A 
ATOM     37  C   UNL     1       1.981   9.079 -28.123  1.00  0.00     0.000 A 
ENDBRANCH  25  32
ENDBRANCH   1  17
TORSDOF 9
ENDMDL
MODEL 2
REMARK VINA RESULT:    -7.174      2.048      8.431
REMARK INTER + INTRA:         -11.293
REMARK INTER:                  -9.847
REMARK INTRA:                  -1.446
REMARK UNBOUND:                -1.393
REMARK SMILES O=C([O-])[C@@H]1O[C@H](Oc2cc3oc(-c4ccccc4)cc(=O)c3c(O)c2O)[C@@H](O)[C@H](O)[C@H]1O
REMARK SMILES IDX 7 1 6 2 4 3 31 4 5 5 29 6 27 7 2 8 1 9 3 10 32 11 30 13
REMARK SMILES IDX 28 15 8 17 25 18 9 19 23 20 10 21 22 22 11 23 20 24 12 25
REMARK SMILES IDX 19 26 21 27 26 28 24 30 13 32 14 33 18 34 15 35 17 36 16 37
REMARK H PARENT 32 12 30 14 28 16 26 29 24 31
REMARK Flexibility Score: inf
ROOT
ATOM      1  O   UNL     1       3.208   4.268 -26.362  1.00  0.00    -0.458 OA
ENDROOT
BRANCH   1   2
ATOM      2  C   UNL     1       1.841   4.668 -26.481  1.00  0.00     0.339 C 
ATOM      3  C   UNL     1       1.946   6.823 -25.393  1.00  0.00     0.199 C 
ATOM      4  C   UNL     1       1.737   7.578 -26.733  1.00  0.00     0.180 C 
ATOM      5  O   UNL     1       1.468   5.480 -25.373  1.00  0.00    -0.328 OA
ATOM      6  C   UNL     1       2.143   6.732 -27.945  1.00  0.00     0.181 C 
ATOM      7  C   UNL     1       1.543   5.322 -27.854  1.00  0.00     0.214 C 
BRANCH   3   8
ATOM      8  C   UNL     1       3.354   6.972 -24.852  1.00  0.00     0.073 C 
ATOM      9  O   UNL     1       3.615   6.577 -23.682  1.00  0.00    -0.547 OA
ATOM     10  O   UNL     1       4.347   7.624 -25.569  1.00  0.00    -0.547 OA
ENDBRANCH   3   8
BRANCH   4  11
ATOM     11  O   UNL     1       0.387   7.952 -26.865  1.00  0.00    -0.387 OA
ATOM     12  H   UNL     1      -0.160   7.141 -26.686  1.00  0.00     0.211 HD
ENDBRANCH   4  11
BRANCH   6  13
ATOM     13  O   UNL     1       3.543   6.659 -28.033  1.00  0.00    -0.387 OA
ATOM     14  H   UNL     1       3.772   6.666 -29.000  1.00  0.00     0.211 HD
ENDBRANCH   6  13
BRANCH   7  15
ATOM     15  O   UNL     1       0.161   5.356 -28.125  1.00  0.00    -0.384 OA
ATOM     16  H   UNL     1      -0.290   5.909 -27.434  1.00  0.00     0.211 HD
ENDBRANCH   7  15
ENDBRANCH   1   2
BRANCH   1  17
ATOM     17  C   UNL     1       3.716   3.273 -25.507  1.00  0.00     0.172 A 
ATOM     18  C   UNL     1       4.868   3.571 -24.766  1.00  0.00     0.201 A 
ATOM     19  C   UNL     1       3.113   2.012 -25.367  1.00  0.00     0.098 A 
ATOM     20  C   UNL     1       5.405   2.635 -23.861  1.00  0.00     0.176 A 
ATOM     21  C   UNL     1       3.607   1.086 -24.443  1.00  0.00     0.146 A 
ATOM     22  C   UNL     1       4.725   1.405 -23.636  1.00  0.00     0.111 A 
ATOM     23  O   UNL     1       2.994  -0.087 -24.322  1.00  0.00    -0.456 OA
ATOM     24  C   UNL     1       5.060   0.488 -22.615  1.00  0.00     0.197 A 
ATOM     25  C   UNL     1       3.340  -1.014 -23.430  1.00  0.00     0.138 A 
ATOM     26  C   UNL     1       4.379  -0.728 -22.527  1.00  0.00     0.100 A 
ATOM     27  O   UNL     1       5.926   0.755 -21.741  1.00  0.00    -0.289 OA
BRANCH  18  28
ATOM     28  O   UNL     1       5.478   4.814 -24.948  1.00  0.00    -0.502 OA
ATOM     29  H   UNL     1       5.899   5.330 -24.181  1.00  0.00     0.293 HD
ENDBRANCH  18  28
BRANCH  20  30
ATOM     30  O   UNL     1       6.627   2.947 -23.257  1.00  0.00    -0.504 OA
ATOM     31  H   UNL     1       6.772   3.730 -22.634  1.00  0.00     0.293 HD
ENDBRANCH  20  30
BRANCH  25  32
ATOM     32  C   UNL     1       2.584  -2.303 -23.415  1.00  0.00     0.017 A 
ATOM     33  C   UNL     1       3.218  -3.558 -23.267  1.00  0.00     0.012 A 
ATOM     34  C   UNL     1       1.182  -2.279 -23.565  1.00  0.00     0.012 A 
ATOM     35  C   UNL     1       2.466  -4.737 -23.251  1.00  0.00     0.001 A 
ATOM     36  C   UNL     1       0.439  -3.464 -23.560  1.00  0.00     0.001 A 
ATOM     37  C   UNL     1       1.081  -4.691 -23.398  1.00  0.00     0.000 A 
ENDBRANCH  25  32
ENDBRANCH   1  17
TORSDOF 9
ENDMDL
MODEL 3
REMARK VINA RESULT:    -6.834      2.308      8.532
REMARK INTER + INTRA:         -10.824
REMARK INTER:                  -9.608
REMARK INTRA:                  -1.215
REMARK UNBOUND:                -1.393
REMARK SMILES O=C([O-])[C@@H]1O[C@H](Oc2cc3oc(-c4ccccc4)cc(=O)c3c(O)c2O)[C@@H](O)[C@H](O)[C@H]1O
REMARK SMILES IDX 7 1 6 2 4 3 31 4 5 5 29 6 27 7 2 8 1 9 3 10 32 11 30 13
REMARK SMILES IDX 28 15 8 17 25 18 9 19 23 20 10 21 22 22 11 23 20 24 12 25
REMARK SMILES IDX 19 26 21 27 26 28 24 30 13 32 14 33 18 34 15 35 17 36 16 37
REMARK H PARENT 32 12 30 14 28 16 26 29 24 31
REMARK Flexibility Score: inf
ROOT
ATOM      1  O   UNL     1       3.575   3.690 -27.190  1.00  0.00    -0.458 OA
ENDROOT
BRANCH   1   2
ATOM      2  C   UNL     1       2.288   4.305 -27.107  1.00  0.00     0.339 C 
ATOM      3  C   UNL     1       2.495   5.408 -24.968  1.00  0.00     0.199 C 
ATOM      4  C   UNL     1       2.542   6.812 -25.627  1.00  0.00     0.180 C 
ATOM      5  O   UNL     1       1.871   4.392 -25.749  1.00  0.00    -0.328 OA
ATOM      6  C   UNL     1       3.001   6.752 -27.089  1.00  0.00     0.181 C 
ATOM      7  C   UNL     1       2.241   5.661 -27.856  1.00  0.00     0.214 C 
BRANCH   3   8
ATOM      8  C   UNL     1       3.831   4.990 -24.387  1.00  0.00     0.073 C 
ATOM      9  O   UNL     1       3.938   3.868 -23.820  1.00  0.00    -0.547 OA
ATOM     10  O   UNL     1       4.921   5.848 -24.370  1.00  0.00    -0.547 OA
ENDBRANCH   3   8
BRANCH   4  11
ATOM     11  O   UNL     1       1.270   7.411 -25.569  1.00  0.00    -0.387 OA
ATOM     12  H   UNL     1       1.412   8.391 -25.484  1.00  0.00     0.211 HD
ENDBRANCH   4  11
BRANCH   6  13
ATOM     13  O   UNL     1       4.385   6.512 -27.148  1.00  0.00    -0.387 OA
ATOM     14  H   UNL     1       4.616   5.962 -26.354  1.00  0.00     0.211 HD
ENDBRANCH   6  13
BRANCH   7  15
ATOM     15  O   UNL     1       0.917   6.069 -28.110  1.00  0.00    -0.384 OA
ATOM     16  H   UNL     1       0.304   5.310 -27.928  1.00  0.00     0.211 HD
ENDBRANCH   7  15
ENDBRANCH   1   2
BRANCH   1  17
ATOM     17  C   UNL     1       3.871   2.335 -26.953  1.00  0.00     0.172 A 
ATOM     18  C   UNL     1       5.129   1.860 -27.348  1.00  0.00     0.201 A 
ATOM     19  C   UNL     1       2.964   1.456 -26.339  1.00  0.00     0.098 A 
ATOM     20  C   UNL     1       5.505   0.525 -27.103  1.00  0.00     0.176 A 
ATOM     21  C   UNL     1       3.334   0.139 -26.051  1.00  0.00     0.146 A 
ATOM     22  C   UNL     1       4.629  -0.329 -26.376  1.00  0.00     0.111 A 
ATOM     23  O   UNL     1       2.456  -0.654 -25.446  1.00  0.00    -0.456 OA
ATOM     24  C   UNL     1       4.982  -1.614 -25.905  1.00  0.00     0.197 A 
ATOM     25  C   UNL     1       2.726  -1.903 -25.068  1.00  0.00     0.138 A 
ATOM     26  C   UNL     1       4.023  -2.405 -25.269  1.00  0.00     0.100 A 
ATOM     27  O   UNL     1       6.158  -2.052 -25.995  1.00  0.00    -0.289 OA
BRANCH  18  28
ATOM     28  O   UNL     1       6.004   2.737 -27.994  1.00  0.00    -0.502 OA
ATOM     29  H   UNL     1       7.005   2.573 -28.035  1.00  0.00     0.293 HD
ENDBRANCH  18  28
BRANCH  20  30
ATOM     30  O   UNL     1       6.719   0.086 -27.640  1.00  0.00    -0.504 OA
ATOM     31  H   UNL     1       7.105   0.409 -28.517  1.00  0.00     0.293 HD
ENDBRANCH  20  30
BRANCH  25  32
ATOM     32  C   UNL     1       1.640  -2.699 -24.419  1.00  0.00     0.017 A 
ATOM     33  C   UNL     1       1.861  -3.980 -23.863  1.00  0.00     0.012 A 
ATOM     34  C   UNL     1       0.336  -2.165 -24.363  1.00  0.00     0.012 A 
ATOM     35  C   UNL     1       0.814  -4.684 -23.259  1.00  0.00     0.001 A 
ATOM     36  C   UNL     1      -0.708  -2.881 -23.768  1.00  0.00     0.001 A 
ATOM     37  C   UNL     1      -0.467  -4.136 -23.212  1.00  0.00     0.000 A 
ENDBRANCH  25  32
ENDBRANCH   1  17
TORSDOF 9
ENDMDL
MODEL 4
REMARK VINA RESULT:    -6.649      2.777      4.321
REMARK INTER + INTRA:         -10.569
REMARK INTER:                  -9.719
REMARK INTRA:                  -0.850
REMARK UNBOUND:                -1.393
REMARK SMILES O=C([O-])[C@@H]1O[C@H](Oc2cc3oc(-c4ccccc4)cc(=O)c3c(O)c2O)[C@@H](O)[C@H](O)[C@H]1O
REMARK SMILES IDX 7 1 6 2 4 3 31 4 5 5 29 6 27 7 2 8 1 9 3 10 32 11 30 13
REMARK SMILES IDX 28 15 8 17 25 18 9 19 23 20 10 21 22 22 11 23 20 24 12 25
REMARK SMILES IDX 19 26 21 27 26 28 24 30 13 32 14 33 18 34 15 35 17 36 16 37
REMARK H PARENT 32 12 30 14 28 16 26 29 24 31
REMARK Flexibility Score: inf
ROOT
ATOM      1  O   UNL     1       3.783  -2.112 -23.618  1.00  0.00    -0.458 OA
ENDROOT
BRANCH   1   2
ATOM      2  C   UNL     1       2.905  -2.157 -22.491  1.00  0.00     0.339 C 
ATOM      3  C   UNL     1       0.786  -1.834 -23.607  1.00  0.00     0.199 C 
ATOM      4  C   UNL     1       0.353  -3.300 -23.340  1.00  0.00     0.180 C 
ATOM      5  O   UNL     1       1.774  -1.322 -22.716  1.00  0.00    -0.328 OA
ATOM      6  C   UNL     1       1.552  -4.227 -23.108  1.00  0.00     0.181 C 
ATOM      7  C   UNL     1       2.533  -3.610 -22.101  1.00  0.00     0.214 C 
BRANCH   3   8
ATOM      8  C   UNL     1       1.096  -1.573 -25.067  1.00  0.00     0.073 C 
ATOM      9  O   UNL     1       1.432  -2.534 -25.812  1.00  0.00    -0.547 OA
ATOM     10  O   UNL     1       1.123  -0.288 -25.590  1.00  0.00    -0.547 OA
ENDBRANCH   3   8
BRANCH   4  11
ATOM     11  O   UNL     1      -0.493  -3.352 -22.216  1.00  0.00    -0.387 OA
ATOM     12  H   UNL     1      -0.221  -2.611 -21.612  1.00  0.00     0.211 HD
ENDBRANCH   4  11
BRANCH   6  13
ATOM     13  O   UNL     1       2.204  -4.484 -24.326  1.00  0.00    -0.387 OA
ATOM     14  H   UNL     1       1.901  -5.380 -24.631  1.00  0.00     0.211 HD
ENDBRANCH   6  13
BRANCH   7  15
ATOM     15  O   UNL     1       2.007  -3.680 -20.796  1.00  0.00    -0.384 OA
ATOM     16  H   UNL     1       1.091  -3.298 -20.796  1.00  0.00     0.211 HD
ENDBRANCH   7  15
ENDBRANCH   1   2
BRANCH   1  17
ATOM     17  C   UNL     1       4.200  -0.958 -24.306  1.00  0.00     0.172 A 
ATOM     18  C   UNL     1       4.543  -1.090 -25.659  1.00  0.00     0.201 A 
ATOM     19  C   UNL     1       4.278   0.305 -23.695  1.00  0.00     0.098 A 
ATOM     20  C   UNL     1       4.929   0.032 -26.418  1.00  0.00     0.176 A 
ATOM     21  C   UNL     1       4.618   1.436 -24.442  1.00  0.00     0.146 A 
ATOM     22  C   UNL     1       4.893   1.326 -25.826  1.00  0.00     0.111 A 
ATOM     23  O   UNL     1       4.656   2.617 -23.833  1.00  0.00    -0.456 OA
ATOM     24  C   UNL     1       5.066   2.532 -26.542  1.00  0.00     0.197 A 
ATOM     25  C   UNL     1       4.905   3.765 -24.461  1.00  0.00     0.138 A 
ATOM     26  C   UNL     1       5.090   3.747 -25.854  1.00  0.00     0.100 A 
ATOM     27  O   UNL     1       5.147   2.551 -27.798  1.00  0.00    -0.289 OA
BRANCH  18  28
ATOM     28  O   UNL     1       4.500  -2.359 -26.241  1.00  0.00    -0.502 OA
ATOM     29  H   UNL     1       5.337  -2.847 -26.543  1.00  0.00     0.293 HD
ENDBRANCH  18  28
BRANCH  20  30
ATOM     30  O   UNL     1       5.383  -0.193 -27.721  1.00  0.00    -0.504 OA
ATOM     31  H   UNL     1       6.242  -0.674 -27.950  1.00  0.00     0.293 HD
ENDBRANCH  20  30
BRANCH  25  32
ATOM     32  C   UNL     1       4.945   5.022 -23.654  1.00  0.00     0.017 A 
ATOM     33  C   UNL     1       6.154   5.641 -23.263  1.00  0.00     0.012 A 
ATOM     34  C   UNL     1       3.732   5.619 -23.251  1.00  0.00     0.012 A 
ATOM     35  C   UNL     1       6.140   6.822 -22.514  1.00  0.00     0.001 A 
ATOM     36  C   UNL     1       3.727   6.794 -22.492  1.00  0.00     0.001 A 
ATOM     37  C   UNL     1       4.930   7.396 -22.129  1.00  0.00     0.000 A 
ENDBRANCH  25  32
ENDBRANCH   1  17
TORSDOF 9
ENDMDL
MODEL 5
REMARK VINA RESULT:    -6.644      2.215      4.005
REMARK INTER + INTRA:         -10.562
REMARK INTER:                 -10.422
REMARK INTRA:                  -0.140
REMARK UNBOUND:                -1.393
REMARK SMILES O=C([O-])[C@@H]1O[C@H](Oc2cc3oc(-c4ccccc4)cc(=O)c3c(O)c2O)[C@@H](O)[C@H](O)[C@H]1O
REMARK SMILES IDX 7 1 6 2 4 3 31 4 5 5 29 6 27 7 2 8 1 9 3 10 32 11 30 13
REMARK SMILES IDX 28 15 8 17 25 18 9 19 23 20 10 21 22 22 11 23 20 24 12 25
REMARK SMILES IDX 19 26 21 27 26 28 24 30 13 32 14 33 18 34 15 35 17 36 16 37
REMARK H PARENT 32 12 30 14 28 16 26 29 24 31
REMARK Flexibility Score: inf
ROOT
ATOM      1  O   UNL     1       2.820  -1.366 -25.763  1.00  0.00    -0.458 OA
ENDROOT
BRANCH   1   2
ATOM      2  C   UNL     1       1.933  -2.262 -25.091  1.00  0.00     0.339 C 
ATOM      3  C   UNL     1       3.496  -3.355 -23.609  1.00  0.00     0.199 C 
ATOM      4  C   UNL     1       2.895  -2.657 -22.360  1.00  0.00     0.180 C 
ATOM      5  O   UNL     1       2.620  -3.454 -24.729  1.00  0.00    -0.328 OA
ATOM      6  C   UNL     1       2.159  -1.361 -22.718  1.00  0.00     0.181 C 
ATOM      7  C   UNL     1       1.208  -1.581 -23.903  1.00  0.00     0.214 C 
BRANCH   3   8
ATOM      8  C   UNL     1       4.874  -2.833 -23.963  1.00  0.00     0.073 C 
ATOM      9  O   UNL     1       5.409  -1.950 -23.237  1.00  0.00    -0.547 OA
ATOM     10  O   UNL     1       5.526  -3.222 -25.124  1.00  0.00    -0.547 OA
ENDBRANCH   3   8
BRANCH   4  11
ATOM     11  O   UNL     1       2.002  -3.528 -21.709  1.00  0.00    -0.387 OA
ATOM     12  H   UNL     1       1.084  -3.269 -21.989  1.00  0.00     0.211 HD
ENDBRANCH   4  11
BRANCH   6  13
ATOM     13  O   UNL     1       3.086  -0.350 -23.021  1.00  0.00    -0.387 OA
ATOM     14  H   UNL     1       2.736   0.491 -22.623  1.00  0.00     0.211 HD
ENDBRANCH   6  13
BRANCH   7  15
ATOM     15  O   UNL     1       0.076  -2.313 -23.496  1.00  0.00    -0.384 OA
ATOM     16  H   UNL     1      -0.527  -2.437 -24.275  1.00  0.00     0.211 HD
ENDBRANCH   7  15
ENDBRANCH   1   2
BRANCH   1  17
ATOM     17  C   UNL     1       2.618   0.011 -25.971  1.00  0.00     0.172 A 
ATOM     18  C   UNL     1       1.626   0.398 -26.883  1.00  0.00     0.201 A 
ATOM     19  C   UNL     1       3.360   0.998 -25.300  1.00  0.00     0.098 A 
ATOM     20  C   UNL     1       1.344   1.759 -27.107  1.00  0.00     0.176 A 
ATOM     21  C   UNL     1       3.066   2.352 -25.478  1.00  0.00     0.146 A 
ATOM     22  C   UNL     1       2.017   2.752 -26.340  1.00  0.00     0.111 A 
ATOM     23  O   UNL     1       3.774   3.254 -24.806  1.00  0.00    -0.456 OA
ATOM     24  C   UNL     1       1.675   4.122 -26.338  1.00  0.00     0.197 A 
ATOM     25  C   UNL     1       3.537   4.564 -24.851  1.00  0.00     0.138 A 
ATOM     26  C   UNL     1       2.447   5.028 -25.609  1.00  0.00     0.100 A 
ATOM     27  O   UNL     1       0.654   4.551 -26.938  1.00  0.00    -0.289 OA
BRANCH  18  28
ATOM     28  O   UNL     1       0.926  -0.595 -27.572  1.00  0.00    -0.502 OA
ATOM     29  H   UNL     1       0.364  -1.294 -27.095  1.00  0.00     0.293 HD
ENDBRANCH  18  28
BRANCH  20  30
ATOM     30  O   UNL     1       0.438   2.073 -28.125  1.00  0.00    -0.504 OA
ATOM     31  H   UNL     1      -0.010   2.973 -28.232  1.00  0.00     0.293 HD
ENDBRANCH  20  30
BRANCH  25  32
ATOM     32  C   UNL     1       4.425   5.475 -24.067  1.00  0.00     0.017 A 
ATOM     33  C   UNL     1       4.437   6.876 -24.253  1.00  0.00     0.012 A 
ATOM     34  C   UNL     1       5.300   4.924 -23.108  1.00  0.00     0.012 A 
ATOM     35  C   UNL     1       5.281   7.689 -23.489  1.00  0.00     0.001 A 
ATOM     36  C   UNL     1       6.149   5.742 -22.356  1.00  0.00     0.001 A 
ATOM     37  C   UNL     1       6.135   7.123 -22.544  1.00  0.00     0.000 A 
ENDBRANCH  25  32
ENDBRANCH   1  17
TORSDOF 9
ENDMDL
MODEL 6
REMARK VINA RESULT:    -6.318      2.416      4.151
REMARK INTER + INTRA:         -10.111
REMARK INTER:                  -9.520
REMARK INTRA:                  -0.591
REMARK UNBOUND:                -1.393
REMARK SMILES O=C([O-])[C@@H]1O[C@H](Oc2cc3oc(-c4ccccc4)cc(=O)c3c(O)c2O)[C@@H](O)[C@H](O)[C@H]1O
REMARK SMILES IDX 7 1 6 2 4 3 31 4 5 5 29 6 27 7 2 8 1 9 3 10 32 11 30 13
REMARK SMILES IDX 28 15 8 17 25 18 9 19 23 20 10 21 22 22 11 23 20 24 12 25
REMARK SMILES IDX 19 26 21 27 26 28 24 30 13 32 14 33 18 34 15 35 17 36 16 37
REMARK H PARENT 32 12 30 14 28 16 26 29 24 31
REMARK Flexibility Score: inf
ROOT
ATOM      1  O   UNL     1       2.405  -1.467 -25.585  1.00  0.00    -0.458 OA
ENDROOT
BRANCH   1   2
ATOM      2  C   UNL     1       1.710  -2.458 -24.826  1.00  0.00     0.339 C 
ATOM      3  C   UNL     1       3.512  -3.240 -23.419  1.00  0.00     0.199 C 
ATOM      4  C   UNL     1       2.889  -2.590 -22.156  1.00  0.00     0.180 C 
ATOM      5  O   UNL     1       2.593  -3.517 -24.474  1.00  0.00    -0.328 OA
ATOM      6  C   UNL     1       1.941  -1.436 -22.503  1.00  0.00     0.181 C 
ATOM      7  C   UNL     1       0.964  -1.846 -23.614  1.00  0.00     0.214 C 
BRANCH   3   8
ATOM      8  C   UNL     1       4.768  -2.530 -23.883  1.00  0.00     0.073 C 
ATOM      9  O   UNL     1       5.238  -1.585 -23.191  1.00  0.00    -0.547 OA
ATOM     10  O   UNL     1       5.363  -2.819 -25.102  1.00  0.00    -0.547 OA
ENDBRANCH   3   8
BRANCH   4  11
ATOM     11  O   UNL     1       2.182  -3.559 -21.418  1.00  0.00    -0.387 OA
ATOM     12  H   UNL     1       2.814  -4.304 -21.236  1.00  0.00     0.211 HD
ENDBRANCH   4  11
BRANCH   6  13
ATOM     13  O   UNL     1       2.682  -0.310 -22.900  1.00  0.00    -0.387 OA
ATOM     14  H   UNL     1       3.642  -0.551 -22.814  1.00  0.00     0.211 HD
ENDBRANCH   6  13
BRANCH   7  15
ATOM     15  O   UNL     1      -0.015  -2.724 -23.108  1.00  0.00    -0.384 OA
ATOM     16  H   UNL     1       0.384  -3.266 -22.378  1.00  0.00     0.211 HD
ENDBRANCH   7  15
ENDBRANCH   1   2
BRANCH   1  17
ATOM     17  C   UNL     1       1.849  -0.303 -26.146  1.00  0.00     0.172 A 
ATOM     18  C   UNL     1       0.621  -0.418 -26.813  1.00  0.00     0.201 A 
ATOM     19  C   UNL     1       2.471   0.954 -26.060  1.00  0.00     0.098 A 
ATOM     20  C   UNL     1      -0.011   0.714 -27.362  1.00  0.00     0.176 A 
ATOM     21  C   UNL     1       1.840   2.096 -26.561  1.00  0.00     0.146 A 
ATOM     22  C   UNL     1       0.565   2.002 -27.169  1.00  0.00     0.111 A 
ATOM     23  O   UNL     1       2.448   3.271 -26.437  1.00  0.00    -0.456 OA
ATOM     24  C   UNL     1      -0.077   3.216 -27.500  1.00  0.00     0.197 A 
ATOM     25  C   UNL     1       1.910   4.427 -26.821  1.00  0.00     0.138 A 
ATOM     26  C   UNL     1       0.605   4.424 -27.343  1.00  0.00     0.100 A 
ATOM     27  O   UNL     1      -1.275   3.249 -27.887  1.00  0.00    -0.289 OA
BRANCH  18  28
ATOM     28  O   UNL     1       0.037  -1.682 -26.926  1.00  0.00    -0.502 OA
ATOM     29  H   UNL     1       0.449  -2.510 -26.508  1.00  0.00     0.293 HD
ENDBRANCH  18  28
BRANCH  20  30
ATOM     30  O   UNL     1      -1.163   0.506 -28.125  1.00  0.00    -0.504 OA
ATOM     31  H   UNL     1      -1.224  -0.136 -28.903  1.00  0.00     0.293 HD
ENDBRANCH  20  30
BRANCH  25  32
ATOM     32  C   UNL     1       2.712   5.676 -26.649  1.00  0.00     0.017 A 
ATOM     33  C   UNL     1       3.048   6.523 -27.730  1.00  0.00     0.012 A 
ATOM     34  C   UNL     1       3.166   6.029 -25.361  1.00  0.00     0.012 A 
ATOM     35  C   UNL     1       3.794   7.687 -27.517  1.00  0.00     0.001 A 
ATOM     36  C   UNL     1       3.922   7.188 -25.159  1.00  0.00     0.001 A 
ATOM     37  C   UNL     1       4.231   8.018 -26.236  1.00  0.00     0.000 A 
ENDBRANCH  25  32
ENDBRANCH   1  17
TORSDOF 9
ENDMDL
MODEL 7
REMARK VINA RESULT:    -6.208      1.400      2.290
REMARK INTER + INTRA:          -9.959
REMARK INTER:                  -9.098
REMARK INTRA:                  -0.862
REMARK UNBOUND:                -1.393
REMARK SMILES O=C([O-])[C@@H]1O[C@H](Oc2cc3oc(-c4ccccc4)cc(=O)c3c(O)c2O)[C@@H](O)[C@H](O)[C@H]1O
REMARK SMILES IDX 7 1 6 2 4 3 31 4 5 5 29 6 27 7 2 8 1 9 3 10 32 11 30 13
REMARK SMILES IDX 28 15 8 17 25 18 9 19 23 20 10 21 22 22 11 23 20 24 12 25
REMARK SMILES IDX 19 26 21 27 26 28 24 30 13 32 14 33 18 34 15 35 17 36 16 37
REMARK H PARENT 32 12 30 14 28 16 26 29 24 31
REMARK Flexibility Score: inf
ROOT
ATOM      1  O   UNL     1       3.693  -0.477 -23.804  1.00  0.00    -0.458 OA
ENDROOT
BRANCH   1   2
ATOM      2  C   UNL     1       2.728  -1.070 -22.932  1.00  0.00     0.339 C 
ATOM      3  C   UNL     1       1.112  -1.828 -24.559  1.00  0.00     0.199 C 
ATOM      4  C   UNL     1       1.473  -3.317 -24.315  1.00  0.00     0.180 C 
ATOM      5  O   UNL     1       1.423  -0.945 -23.484  1.00  0.00    -0.328 OA
ATOM      6  C   UNL     1       2.880  -3.485 -23.731  1.00  0.00     0.181 C 
ATOM      7  C   UNL     1       3.103  -2.525 -22.554  1.00  0.00     0.214 C 
BRANCH   3   8
ATOM      8  C   UNL     1       1.582  -1.326 -25.909  1.00  0.00     0.073 C 
ATOM      9  O   UNL     1       2.685  -1.728 -26.371  1.00  0.00    -0.547 OA
ATOM     10  O   UNL     1       0.883  -0.355 -26.612  1.00  0.00    -0.547 OA
ENDBRANCH   3   8
BRANCH   4  11
ATOM     11  O   UNL     1       0.539  -3.898 -23.437  1.00  0.00    -0.387 OA
ATOM     12  H   UNL     1       0.772  -3.594 -22.520  1.00  0.00     0.211 HD
ENDBRANCH   4  11
BRANCH   6  13
ATOM     13  O   UNL     1       3.844  -3.259 -24.729  1.00  0.00    -0.387 OA
ATOM     14  H   UNL     1       3.410  -2.701 -25.428  1.00  0.00     0.211 HD
ENDBRANCH   6  13
BRANCH   7  15
ATOM     15  O   UNL     1       2.394  -2.967 -21.420  1.00  0.00    -0.384 OA
ATOM     16  H   UNL     1       3.012  -2.996 -20.643  1.00  0.00     0.211 HD
ENDBRANCH   7  15
ENDBRANCH   1   2
BRANCH   1  17
ATOM     17  C   UNL     1       4.031   0.887 -23.872  1.00  0.00     0.172 A 
ATOM     18  C   UNL     1       5.152   1.321 -23.150  1.00  0.00     0.201 A 
ATOM     19  C   UNL     1       3.299   1.815 -24.631  1.00  0.00     0.098 A 
ATOM     20  C   UNL     1       5.570   2.665 -23.207  1.00  0.00     0.176 A 
ATOM     21  C   UNL     1       3.722   3.142 -24.733  1.00  0.00     0.146 A 
ATOM     22  C   UNL     1       4.895   3.574 -24.069  1.00  0.00     0.111 A 
ATOM     23  O   UNL     1       3.017   3.984 -25.482  1.00  0.00    -0.456 OA
ATOM     24  C   UNL     1       5.347   4.882 -24.354  1.00  0.00     0.197 A 
ATOM     25  C   UNL     1       3.365   5.251 -25.700  1.00  0.00     0.138 A 
ATOM     26  C   UNL     1       4.571   5.723 -25.154  1.00  0.00     0.100 A 
ATOM     27  O   UNL     1       6.463   5.301 -23.950  1.00  0.00    -0.289 OA
BRANCH  18  28
ATOM     28  O   UNL     1       5.845   0.395 -22.367  1.00  0.00    -0.502 OA
ATOM     29  H   UNL     1       5.540   0.137 -21.434  1.00  0.00     0.293 HD
ENDBRANCH  18  28
BRANCH  20  30
ATOM     30  O   UNL     1       6.612   3.054 -22.361  1.00  0.00    -0.504 OA
ATOM     31  H   UNL     1       6.547   3.798 -21.680  1.00  0.00     0.293 HD
ENDBRANCH  20  30
BRANCH  25  32
ATOM     32  C   UNL     1       2.468   6.099 -26.542  1.00  0.00     0.017 A 
ATOM     33  C   UNL     1       1.243   5.629 -27.067  1.00  0.00     0.012 A 
ATOM     34  C   UNL     1       2.856   7.422 -26.841  1.00  0.00     0.012 A 
ATOM     35  C   UNL     1       0.433   6.464 -27.844  1.00  0.00     0.001 A 
ATOM     36  C   UNL     1       2.046   8.247 -27.629  1.00  0.00     0.001 A 
ATOM     37  C   UNL     1       0.834   7.769 -28.125  1.00  0.00     0.000 A 
ENDBRANCH  25  32
ENDBRANCH   1  17
TORSDOF 9
ENDMDL
MODEL 8
REMARK VINA RESULT:    -6.139      2.553      8.829
REMARK INTER + INTRA:          -9.864
REMARK INTER:                  -9.112
REMARK INTRA:                  -0.752
REMARK UNBOUND:                -1.393
REMARK SMILES O=C([O-])[C@@H]1O[C@H](Oc2cc3oc(-c4ccccc4)cc(=O)c3c(O)c2O)[C@@H](O)[C@H](O)[C@H]1O
REMARK SMILES IDX 7 1 6 2 4 3 31 4 5 5 29 6 27 7 2 8 1 9 3 10 32 11 30 13
REMARK SMILES IDX 28 15 8 17 25 18 9 19 23 20 10 21 22 22 11 23 20 24 12 25
REMARK SMILES IDX 19 26 21 27 26 28 24 30 13 32 14 33 18 34 15 35 17 36 16 37
REMARK H PARENT 32 12 30 14 28 16 26 29 24 31
REMARK Flexibility Score: inf
ROOT
ATOM      1  O   UNL     1       3.376   4.491 -26.272  1.00  0.00    -0.458 OA
ENDROOT
BRANCH   1   2
ATOM      2  C   UNL     1       3.460   5.466 -27.314  1.00  0.00     0.339 C 
ATOM      3  C   UNL     1       1.122   6.028 -27.542  1.00  0.00     0.199 C 
ATOM      4  C   UNL     1       1.337   7.435 -26.924  1.00  0.00     0.180 C 
ATOM      5  O   UNL     1       2.284   5.434 -28.114  1.00  0.00    -0.328 OA
ATOM      6  C   UNL     1       2.591   7.498 -26.045  1.00  0.00     0.181 C 
ATOM      7  C   UNL     1       3.796   6.876 -26.765  1.00  0.00     0.214 C 
BRANCH   3   8
ATOM      8  C   UNL     1       0.357   5.098 -26.622  1.00  0.00     0.073 C 
ATOM      9  O   UNL     1       0.168   3.899 -26.969  1.00  0.00    -0.547 OA
ATOM     10  O   UNL     1      -0.235   5.550 -25.452  1.00  0.00    -0.547 OA
ENDBRANCH   3   8
BRANCH   4  11
ATOM     11  O   UNL     1       1.445   8.396 -27.947  1.00  0.00    -0.387 OA
ATOM     12  H   UNL     1       1.678   7.908 -28.781  1.00  0.00     0.211 HD
ENDBRANCH   4  11
BRANCH   6  13
ATOM     13  O   UNL     1       2.358   6.835 -24.828  1.00  0.00    -0.387 OA
ATOM     14  H   UNL     1       1.459   6.417 -24.895  1.00  0.00     0.211 HD
ENDBRANCH   6  13
BRANCH   7  15
ATOM     15  O   UNL     1       4.257   7.734 -27.782  1.00  0.00    -0.384 OA
ATOM     16  H   UNL     1       5.078   8.196 -27.468  1.00  0.00     0.211 HD
ENDBRANCH   7  15
ENDBRANCH   1   2
BRANCH   1  17
ATOM     17  C   UNL     1       3.701   3.126 -26.378  1.00  0.00     0.172 A 
ATOM     18  C   UNL     1       4.853   2.779 -27.097  1.00  0.00     0.201 A 
ATOM     19  C   UNL     1       2.924   2.113 -25.791  1.00  0.00     0.098 A 
ATOM     20  C   UNL     1       5.257   1.435 -27.207  1.00  0.00     0.176 A 
ATOM     21  C   UNL     1       3.332   0.778 -25.852  1.00  0.00     0.146 A 
ATOM     22  C   UNL     1       4.533   0.425 -26.512  1.00  0.00     0.111 A 
ATOM     23  O   UNL     1       2.584  -0.148 -25.262  1.00  0.00    -0.456 OA
ATOM     24  C   UNL     1       4.961  -0.916 -26.389  1.00  0.00     0.197 A 
ATOM     25  C   UNL     1       2.911  -1.438 -25.205  1.00  0.00     0.138 A 
ATOM     26  C   UNL     1       4.139  -1.848 -25.753  1.00  0.00     0.100 A 
ATOM     27  O   UNL     1       6.093  -1.291 -26.793  1.00  0.00    -0.289 OA
BRANCH  18  28
ATOM     28  O   UNL     1       5.591   3.795 -27.710  1.00  0.00    -0.502 OA
ATOM     29  H   UNL     1       6.546   4.009 -27.443  1.00  0.00     0.293 HD
ENDBRANCH  18  28
BRANCH  20  30
ATOM     30  O   UNL     1       6.338   1.151 -28.047  1.00  0.00    -0.504 OA
ATOM     31  H   UNL     1       6.505   1.604 -28.935  1.00  0.00     0.293 HD
ENDBRANCH  20  30
BRANCH  25  32
ATOM     32  C   UNL     1       1.967  -2.382 -24.533  1.00  0.00     0.017 A 
ATOM     33  C   UNL     1       0.597  -2.087 -24.344  1.00  0.00     0.012 A 
ATOM     34  C   UNL     1       2.454  -3.616 -24.055  1.00  0.00     0.012 A 
ATOM     35  C   UNL     1      -0.249  -3.007 -23.716  1.00  0.00     0.001 A 
ATOM     36  C   UNL     1       1.603  -4.525 -23.418  1.00  0.00     0.001 A 
ATOM     37  C   UNL     1       0.253  -4.222 -23.253  1.00  0.00     0.000 A 
ENDBRANCH  25  32
ENDBRANCH   1  17
TORSDOF 9
ENDMDL
