MODEL 1
REMARK VINA RESULT:    -6.539      0.000      0.000
REMARK INTER + INTRA:         -13.010
REMARK INTER:                 -11.891
REMARK INTRA:                  -1.119
REMARK UNBOUND:                -1.119
REMARK SMILES CCCCCC=CCC=CCCCCCCCC(=O)[O-]
REMARK SMILES IDX 11 1 12 2 13 3 14 4 15 5 16 6 17 7 18 8 19 9 20 10 10 11
REMARK SMILES IDX 9 12 8 13 7 14 6 15 5 16 4 17 3 18 2 19 1 20
REMARK H PARENT
REMARK Flexibility Score: inf
ROOT
ATOM      1  C   UNL     1       0.048  44.850   0.791  1.00  0.00     0.027 C 
ENDROOT
BRANCH   1   2
ATOM      2  C   UNL     1      -0.623  44.851  -0.590  1.00  0.00     0.004 C 
BRANCH   2   3
ATOM      3  C   UNL     1      -1.779  45.862  -0.691  1.00  0.00     0.000 C 
BRANCH   3   4
ATOM      4  C   UNL     1      -2.543  46.111   0.623  1.00  0.00     0.000 C 
BRANCH   4   5
ATOM      5  C   UNL     1      -3.576  45.012   0.930  1.00  0.00     0.000 C 
BRANCH   5   6
ATOM      6  C   UNL     1      -3.136  44.096   2.085  1.00  0.00     0.006 C 
BRANCH   6   7
ATOM      7  C   UNL     1      -2.649  44.880   3.310  1.00  0.00     0.053 C 
BRANCH   7   8
ATOM      8  C   UNL     1      -3.400  44.457   4.533  1.00  0.00     0.041 C 
ATOM      9  O   UNL     1      -3.625  45.283   5.456  1.00  0.00    -0.550 OA
ATOM     10  O   UNL     1      -3.811  43.137   4.675  1.00  0.00    -0.550 OA
ENDBRANCH   7   8
ENDBRANCH   6   7
ENDBRANCH   5   6
ENDBRANCH   4   5
ENDBRANCH   3   4
ENDBRANCH   2   3
ENDBRANCH   1   2
BRANCH   1  11
ATOM     11  C   UNL     1       1.456  44.316   0.703  1.00  0.00    -0.031 C 
ATOM     12  C   UNL     1       2.464  44.686   1.516  1.00  0.00    -0.027 C 
BRANCH  12  13
ATOM     13  C   UNL     1       2.350  45.732   2.596  1.00  0.00     0.054 C 
BRANCH  13  14
ATOM     14  C   UNL     1       3.592  45.787   3.442  1.00  0.00    -0.027 C 
ATOM     15  C   UNL     1       4.047  44.706   4.095  1.00  0.00    -0.031 C 
BRANCH  15  16
ATOM     16  C   UNL     1       5.292  44.785   4.936  1.00  0.00     0.027 C 
BRANCH  16  17
ATOM     17  C   UNL     1       5.035  44.261   6.354  1.00  0.00     0.004 C 
BRANCH  17  18
ATOM     18  C   UNL     1       3.787  43.373   6.396  1.00  0.00     0.000 C 
BRANCH  18  19
ATOM     19  C   UNL     1       3.322  43.149   7.840  1.00  0.00    -0.003 C 
ATOM     20  C   UNL     1       4.282  43.793   8.836  1.00  0.00     0.004 C 
ENDBRANCH  18  19
ENDBRANCH  17  18
ENDBRANCH  16  17
ENDBRANCH  15  16
ENDBRANCH  13  14
ENDBRANCH  12  13
ENDBRANCH   1  11
TORSDOF 14
ENDMDL
MODEL 2
REMARK VINA RESULT:    -6.455      3.497      5.352
REMARK INTER + INTRA:         -12.857
REMARK INTER:                 -11.641
REMARK INTRA:                  -1.216
REMARK UNBOUND:                -1.119
REMARK SMILES CCCCCC=CCC=CCCCCCCCC(=O)[O-]
REMARK SMILES IDX 11 1 12 2 13 3 14 4 15 5 16 6 17 7 18 8 19 9 20 10 10 11
REMARK SMILES IDX 9 12 8 13 7 14 6 15 5 16 4 17 3 18 2 19 1 20
REMARK H PARENT
REMARK Flexibility Score: inf
ROOT
ATOM      1  C   UNL     1      -2.922  45.202   3.349  1.00  0.00     0.027 C 
ENDROOT
BRANCH   1   2
ATOM      2  C   UNL     1      -2.732  43.724   2.980  1.00  0.00     0.004 C 
BRANCH   2   3
ATOM      3  C   UNL     1      -2.431  43.515   1.486  1.00  0.00     0.000 C 
BRANCH   3   4
ATOM      4  C   UNL     1      -3.406  44.215   0.521  1.00  0.00     0.000 C 
BRANCH   4   5
ATOM      5  C   UNL     1      -2.800  45.468  -0.135  1.00  0.00     0.000 C 
BRANCH   5   6
ATOM      6  C   UNL     1      -1.268  45.393  -0.245  1.00  0.00     0.006 C 
BRANCH   6   7
ATOM      7  C   UNL     1      -0.794  45.014  -1.655  1.00  0.00     0.053 C 
BRANCH   7   8
ATOM      8  C   UNL     1       0.658  44.656  -1.638  1.00  0.00     0.041 C 
ATOM      9  O   UNL     1       1.318  44.732  -0.568  1.00  0.00    -0.550 OA
ATOM     10  O   UNL     1       1.297  44.281  -2.815  1.00  0.00    -0.550 OA
ENDBRANCH   7   8
ENDBRANCH   6   7
ENDBRANCH   5   6
ENDBRANCH   4   5
ENDBRANCH   3   4
ENDBRANCH   2   3
ENDBRANCH   1   2
BRANCH   1  11
ATOM     11  C   UNL     1      -2.084  45.569   4.548  1.00  0.00    -0.031 C 
ATOM     12  C   UNL     1      -0.799  45.967   4.486  1.00  0.00    -0.027 C 
BRANCH  12  13
ATOM     13  C   UNL     1       0.010  46.049   3.217  1.00  0.00     0.054 C 
BRANCH  13  14
ATOM     14  C   UNL     1       1.475  46.226   3.509  1.00  0.00    -0.027 C 
ATOM     15  C   UNL     1       2.418  45.635   2.759  1.00  0.00    -0.031 C 
BRANCH  15  16
ATOM     16  C   UNL     1       3.877  45.824   3.071  1.00  0.00     0.027 C 
BRANCH  16  17
ATOM     17  C   UNL     1       4.425  47.091   2.403  1.00  0.00     0.004 C 
BRANCH  17  18
ATOM     18  C   UNL     1       5.924  47.254   2.678  1.00  0.00     0.000 C 
BRANCH  18  19
ATOM     19  C   UNL     1       6.672  47.672   1.406  1.00  0.00    -0.003 C 
ATOM     20  C   UNL     1       8.108  47.157   1.414  1.00  0.00     0.004 C 
ENDBRANCH  18  19
ENDBRANCH  17  18
ENDBRANCH  16  17
ENDBRANCH  15  16
ENDBRANCH  13  14
ENDBRANCH  12  13
ENDBRANCH   1  11
TORSDOF 14
ENDMDL
MODEL 3
REMARK VINA RESULT:    -6.409      2.702      6.016
REMARK INTER + INTRA:         -12.774
REMARK INTER:                 -11.651
REMARK INTRA:                  -1.123
REMARK UNBOUND:                -1.119
REMARK SMILES CCCCCC=CCC=CCCCCCCCC(=O)[O-]
REMARK SMILES IDX 11 1 12 2 13 3 14 4 15 5 16 6 17 7 18 8 19 9 20 10 10 11
REMARK SMILES IDX 9 12 8 13 7 14 6 15 5 16 4 17 3 18 2 19 1 20
REMARK H PARENT
REMARK Flexibility Score: inf
ROOT
ATOM      1  C   UNL     1       4.921  44.334   6.365  1.00  0.00     0.027 C 
ENDROOT
BRANCH   1   2
ATOM      2  C   UNL     1       5.121  44.665   4.880  1.00  0.00     0.004 C 
BRANCH   2   3
ATOM      3  C   UNL     1       3.800  44.703   4.093  1.00  0.00     0.000 C 
BRANCH   3   4
ATOM      4  C   UNL     1       3.695  45.833   3.050  1.00  0.00     0.000 C 
BRANCH   4   5
ATOM      5  C   UNL     1       2.252  46.068   2.568  1.00  0.00     0.000 C 
BRANCH   5   6
ATOM      6  C   UNL     1       1.210  45.764   3.658  1.00  0.00     0.006 C 
BRANCH   6   7
ATOM      7  C   UNL     1      -0.153  46.407   3.369  1.00  0.00     0.053 C 
BRANCH   7   8
ATOM      8  C   UNL     1      -1.237  45.681   4.100  1.00  0.00     0.041 C 
ATOM      9  O   UNL     1      -1.233  45.637   5.358  1.00  0.00    -0.550 OA
ATOM     10  O   UNL     1      -2.230  45.014   3.392  1.00  0.00    -0.550 OA
ENDBRANCH   7   8
ENDBRANCH   6   7
ENDBRANCH   5   6
ENDBRANCH   4   5
ENDBRANCH   3   4
ENDBRANCH   2   3
ENDBRANCH   1   2
BRANCH   1  11
ATOM     11  C   UNL     1       3.668  43.520   6.570  1.00  0.00    -0.031 C 
ATOM     12  C   UNL     1       3.371  42.849   7.700  1.00  0.00    -0.027 C 
BRANCH  12  13
ATOM     13  C   UNL     1       4.274  42.763   8.905  1.00  0.00     0.054 C 
BRANCH  13  14
ATOM     14  C   UNL     1       3.697  43.507  10.077  1.00  0.00    -0.027 C 
ATOM     15  C   UNL     1       4.049  44.773  10.349  1.00  0.00    -0.031 C 
BRANCH  15  16
ATOM     16  C   UNL     1       3.459  45.497  11.529  1.00  0.00     0.027 C 
BRANCH  16  17
ATOM     17  C   UNL     1       2.395  46.506  11.083  1.00  0.00     0.004 C 
BRANCH  17  18
ATOM     18  C   UNL     1       1.140  46.405  11.957  1.00  0.00     0.000 C 
BRANCH  18  19
ATOM     19  C   UNL     1       0.101  45.475  11.317  1.00  0.00    -0.003 C 
ATOM     20  C   UNL     1      -0.888  46.259  10.459  1.00  0.00     0.004 C 
ENDBRANCH  18  19
ENDBRANCH  17  18
ENDBRANCH  16  17
ENDBRANCH  15  16
ENDBRANCH  13  14
ENDBRANCH  12  13
ENDBRANCH   1  11
TORSDOF 14
ENDMDL
MODEL 4
REMARK VINA RESULT:    -6.341      5.736      8.594
REMARK INTER + INTRA:         -12.650
REMARK INTER:                 -11.676
REMARK INTRA:                  -0.974
REMARK UNBOUND:                -1.119
REMARK SMILES CCCCCC=CCC=CCCCCCCCC(=O)[O-]
REMARK SMILES IDX 11 1 12 2 13 3 14 4 15 5 16 6 17 7 18 8 19 9 20 10 10 11
REMARK SMILES IDX 9 12 8 13 7 14 6 15 5 16 4 17 3 18 2 19 1 20
REMARK H PARENT
REMARK Flexibility Score: inf
ROOT
ATOM      1  C   UNL     1       6.070  47.757   1.488  1.00  0.00     0.027 C 
ENDROOT
BRANCH   1   2
ATOM      2  C   UNL     1       5.332  47.108   2.667  1.00  0.00     0.004 C 
BRANCH   2   3
ATOM      3  C   UNL     1       3.881  46.724   2.325  1.00  0.00     0.000 C 
BRANCH   3   4
ATOM      4  C   UNL     1       3.274  45.619   3.211  1.00  0.00     0.000 C 
BRANCH   4   5
ATOM      5  C   UNL     1       4.314  44.952   4.129  1.00  0.00     0.000 C 
BRANCH   5   6
ATOM      6  C   UNL     1       3.666  44.190   5.297  1.00  0.00     0.006 C 
BRANCH   6   7
ATOM      7  C   UNL     1       4.661  43.871   6.421  1.00  0.00     0.053 C 
BRANCH   7   8
ATOM      8  C   UNL     1       4.088  42.849   7.350  1.00  0.00     0.041 C 
ATOM      9  O   UNL     1       2.850  42.822   7.578  1.00  0.00    -0.550 OA
ATOM     10  O   UNL     1       4.927  41.953   8.003  1.00  0.00    -0.550 OA
ENDBRANCH   7   8
ENDBRANCH   6   7
ENDBRANCH   5   6
ENDBRANCH   4   5
ENDBRANCH   3   4
ENDBRANCH   2   3
ENDBRANCH   1   2
BRANCH   1  11
ATOM     11  C   UNL     1       5.093  48.287   0.468  1.00  0.00    -0.031 C 
ATOM     12  C   UNL     1       5.444  48.944  -0.654  1.00  0.00    -0.027 C 
BRANCH  12  13
ATOM     13  C   UNL     1       6.861  49.299  -1.028  1.00  0.00     0.054 C 
BRANCH  13  14
ATOM     14  C   UNL     1       7.310  48.551  -2.253  1.00  0.00    -0.027 C 
ATOM     15  C   UNL     1       8.007  47.408  -2.164  1.00  0.00    -0.031 C 
BRANCH  15  16
ATOM     16  C   UNL     1       8.446  46.678  -3.403  1.00  0.00     0.027 C 
BRANCH  16  17
ATOM     17  C   UNL     1       7.241  46.238  -4.243  1.00  0.00     0.004 C 
BRANCH  17  18
ATOM     18  C   UNL     1       7.538  44.936  -4.994  1.00  0.00     0.000 C 
BRANCH  18  19
ATOM     19  C   UNL     1       6.697  43.779  -4.438  1.00  0.00    -0.003 C 
ATOM     20  C   UNL     1       7.484  42.967  -3.414  1.00  0.00     0.004 C 
ENDBRANCH  18  19
ENDBRANCH  17  18
ENDBRANCH  16  17
ENDBRANCH  15  16
ENDBRANCH  13  14
ENDBRANCH  12  13
ENDBRANCH   1  11
TORSDOF 14
ENDMDL
MODEL 5
REMARK VINA RESULT:    -6.331      6.578      9.367
REMARK INTER + INTRA:         -12.632
REMARK INTER:                 -11.675
REMARK INTRA:                  -0.957
REMARK UNBOUND:                -1.119
REMARK SMILES CCCCCC=CCC=CCCCCCCCC(=O)[O-]
REMARK SMILES IDX 11 1 12 2 13 3 14 4 15 5 16 6 17 7 18 8 19 9 20 10 10 11
REMARK SMILES IDX 9 12 8 13 7 14 6 15 5 16 4 17 3 18 2 19 1 20
REMARK H PARENT
REMARK Flexibility Score: inf
ROOT
ATOM      1  C   UNL     1       7.467  48.454  -0.235  1.00  0.00     0.027 C 
ENDROOT
BRANCH   1   2
ATOM      2  C   UNL     1       7.941  48.523  -1.693  1.00  0.00     0.004 C 
BRANCH   2   3
ATOM      3  C   UNL     1       8.695  47.258  -2.137  1.00  0.00     0.000 C 
BRANCH   3   4
ATOM      4  C   UNL     1       7.917  46.339  -3.098  1.00  0.00     0.000 C 
BRANCH   4   5
ATOM      5  C   UNL     1       8.241  46.611  -4.577  1.00  0.00     0.000 C 
BRANCH   5   6
ATOM      6  C   UNL     1       7.047  46.327  -5.504  1.00  0.00     0.006 C 
BRANCH   6   7
ATOM      7  C   UNL     1       6.559  44.875  -5.413  1.00  0.00     0.053 C 
BRANCH   7   8
ATOM      8  C   UNL     1       5.064  44.828  -5.402  1.00  0.00     0.041 C 
ATOM      9  O   UNL     1       4.436  44.397  -6.405  1.00  0.00    -0.550 OA
ATOM     10  O   UNL     1       4.360  45.303  -4.302  1.00  0.00    -0.550 OA
ENDBRANCH   7   8
ENDBRANCH   6   7
ENDBRANCH   5   6
ENDBRANCH   4   5
ENDBRANCH   3   4
ENDBRANCH   2   3
ENDBRANCH   1   2
BRANCH   1  11
ATOM     11  C   UNL     1       5.964  48.551  -0.153  1.00  0.00    -0.031 C 
ATOM     12  C   UNL     1       5.233  48.171   0.913  1.00  0.00    -0.027 C 
BRANCH  12  13
ATOM     13  C   UNL     1       5.802  47.540   2.158  1.00  0.00     0.054 C 
BRANCH  13  14
ATOM     14  C   UNL     1       4.792  46.655   2.836  1.00  0.00    -0.027 C 
ATOM     15  C   UNL     1       3.547  46.514   2.358  1.00  0.00    -0.031 C 
BRANCH  15  16
ATOM     16  C   UNL     1       2.553  45.624   3.053  1.00  0.00     0.027 C 
BRANCH  16  17
ATOM     17  C   UNL     1       1.334  45.354   2.162  1.00  0.00     0.004 C 
BRANCH  17  18
ATOM     18  C   UNL     1       1.734  44.580   0.901  1.00  0.00     0.000 C 
BRANCH  18  19
ATOM     19  C   UNL     1       0.601  44.596  -0.133  1.00  0.00    -0.003 C 
ATOM     20  C   UNL     1      -0.755  44.801   0.536  1.00  0.00     0.004 C 
ENDBRANCH  18  19
ENDBRANCH  17  18
ENDBRANCH  16  17
ENDBRANCH  15  16
ENDBRANCH  13  14
ENDBRANCH  12  13
ENDBRANCH   1  11
TORSDOF 14
ENDMDL
MODEL 6
REMARK VINA RESULT:    -6.285      6.540      8.655
REMARK INTER + INTRA:         -12.548
REMARK INTER:                 -11.470
REMARK INTRA:                  -1.077
REMARK UNBOUND:                -1.119
REMARK SMILES CCCCCC=CCC=CCCCCCCCC(=O)[O-]
REMARK SMILES IDX 11 1 12 2 13 3 14 4 15 5 16 6 17 7 18 8 19 9 20 10 10 11
REMARK SMILES IDX 9 12 8 13 7 14 6 15 5 16 4 17 3 18 2 19 1 20
REMARK H PARENT
REMARK Flexibility Score: inf
ROOT
ATOM      1  C   UNL     1       6.180  49.968  -0.018  1.00  0.00     0.027 C 
ENDROOT
BRANCH   1   2
ATOM      2  C   UNL     1       7.089  49.991  -1.255  1.00  0.00     0.004 C 
BRANCH   2   3
ATOM      3  C   UNL     1       6.669  48.969  -2.325  1.00  0.00     0.000 C 
BRANCH   3   4
ATOM      4  C   UNL     1       7.658  47.808  -2.541  1.00  0.00     0.000 C 
BRANCH   4   5
ATOM      5  C   UNL     1       7.115  46.732  -3.498  1.00  0.00     0.000 C 
BRANCH   5   6
ATOM      6  C   UNL     1       8.161  45.653  -3.826  1.00  0.00     0.006 C 
BRANCH   6   7
ATOM      7  C   UNL     1       7.622  44.575  -4.776  1.00  0.00     0.053 C 
BRANCH   7   8
ATOM      8  C   UNL     1       7.179  43.373  -4.003  1.00  0.00     0.041 C 
ATOM      9  O   UNL     1       8.029  42.616  -3.466  1.00  0.00    -0.550 OA
ATOM     10  O   UNL     1       5.827  43.062  -3.915  1.00  0.00    -0.550 OA
ENDBRANCH   7   8
ENDBRANCH   6   7
ENDBRANCH   5   6
ENDBRANCH   4   5
ENDBRANCH   3   4
ENDBRANCH   2   3
ENDBRANCH   1   2
BRANCH   1  11
ATOM     11  C   UNL     1       5.107  48.918  -0.160  1.00  0.00    -0.031 C 
ATOM     12  C   UNL     1       4.900  47.915   0.716  1.00  0.00    -0.027 C 
BRANCH  12  13
ATOM     13  C   UNL     1       5.748  47.659   1.936  1.00  0.00     0.054 C 
BRANCH  13  14
ATOM     14  C   UNL     1       5.031  46.788   2.930  1.00  0.00    -0.027 C 
ATOM     15  C   UNL     1       3.909  46.127   2.606  1.00  0.00    -0.031 C 
BRANCH  15  16
ATOM     16  C   UNL     1       3.208  45.262   3.618  1.00  0.00     0.027 C 
BRANCH  16  17
ATOM     17  C   UNL     1       4.213  44.441   4.434  1.00  0.00     0.004 C 
BRANCH  17  18
ATOM     18  C   UNL     1       3.614  44.017   5.780  1.00  0.00     0.000 C 
BRANCH  18  19
ATOM     19  C   UNL     1       4.706  43.891   6.850  1.00  0.00    -0.003 C 
ATOM     20  C   UNL     1       5.774  44.966   6.678  1.00  0.00     0.004 C 
ENDBRANCH  18  19
ENDBRANCH  17  18
ENDBRANCH  16  17
ENDBRANCH  15  16
ENDBRANCH  13  14
ENDBRANCH  12  13
ENDBRANCH   1  11
TORSDOF 14
ENDMDL
MODEL 7
REMARK VINA RESULT:    -6.269      6.465      9.257
REMARK INTER + INTRA:         -12.519
REMARK INTER:                 -11.360
REMARK INTRA:                  -1.159
REMARK UNBOUND:                -1.119
REMARK SMILES CCCCCC=CCC=CCCCCCCCC(=O)[O-]
REMARK SMILES IDX 11 1 12 2 13 3 14 4 15 5 16 6 17 7 18 8 19 9 20 10 10 11
REMARK SMILES IDX 9 12 8 13 7 14 6 15 5 16 4 17 3 18 2 19 1 20
REMARK H PARENT
REMARK Flexibility Score: inf
ROOT
ATOM      1  C   UNL     1       7.810  47.501   0.938  1.00  0.00     0.027 C 
ENDROOT
BRANCH   1   2
ATOM      2  C   UNL     1       8.822  47.591  -0.213  1.00  0.00     0.004 C 
BRANCH   2   3
ATOM      3  C   UNL     1       8.247  48.282  -1.461  1.00  0.00     0.000 C 
BRANCH   3   4
ATOM      4  C   UNL     1       8.199  47.404  -2.727  1.00  0.00     0.000 C 
BRANCH   4   5
ATOM      5  C   UNL     1       6.797  47.346  -3.359  1.00  0.00     0.000 C 
BRANCH   5   6
ATOM      6  C   UNL     1       6.589  46.084  -4.214  1.00  0.00     0.006 C 
BRANCH   6   7
ATOM      7  C   UNL     1       7.734  45.074  -4.067  1.00  0.00     0.053 C 
BRANCH   7   8
ATOM      8  C   UNL     1       7.194  43.681  -3.984  1.00  0.00     0.041 C 
ATOM      9  O   UNL     1       5.964  43.468  -4.145  1.00  0.00    -0.550 OA
ATOM     10  O   UNL     1       8.042  42.622  -3.681  1.00  0.00    -0.550 OA
ENDBRANCH   7   8
ENDBRANCH   6   7
ENDBRANCH   5   6
ENDBRANCH   4   5
ENDBRANCH   3   4
ENDBRANCH   2   3
ENDBRANCH   1   2
BRANCH   1  11
ATOM     11  C   UNL     1       6.441  47.945   0.486  1.00  0.00    -0.031 C 
ATOM     12  C   UNL     1       5.329  47.876   1.242  1.00  0.00    -0.027 C 
BRANCH  12  13
ATOM     13  C   UNL     1       5.275  47.290   2.630  1.00  0.00     0.054 C 
BRANCH  13  14
ATOM     14  C   UNL     1       3.910  46.740   2.942  1.00  0.00    -0.027 C 
ATOM     15  C   UNL     1       3.225  46.010   2.049  1.00  0.00    -0.031 C 
BRANCH  15  16
ATOM     16  C   UNL     1       1.860  45.472   2.383  1.00  0.00     0.027 C 
BRANCH  16  17
ATOM     17  C   UNL     1       1.243  46.224   3.568  1.00  0.00     0.004 C 
BRANCH  17  18
ATOM     18  C   UNL     1      -0.280  46.060   3.592  1.00  0.00     0.000 C 
BRANCH  18  19
ATOM     19  C   UNL     1      -0.775  45.354   2.323  1.00  0.00    -0.003 C 
ATOM     20  C   UNL     1      -1.744  46.236   1.541  1.00  0.00     0.004 C 
ENDBRANCH  18  19
ENDBRANCH  17  18
ENDBRANCH  16  17
ENDBRANCH  15  16
ENDBRANCH  13  14
ENDBRANCH  12  13
ENDBRANCH   1  11
TORSDOF 14
ENDMDL
MODEL 8
REMARK VINA RESULT:    -6.250      5.917      8.438
REMARK INTER + INTRA:         -12.484
REMARK INTER:                 -11.501
REMARK INTRA:                  -0.982
REMARK UNBOUND:                -1.119
REMARK SMILES CCCCCC=CCC=CCCCCCCCC(=O)[O-]
REMARK SMILES IDX 11 1 12 2 13 3 14 4 15 5 16 6 17 7 18 8 19 9 20 10 10 11
REMARK SMILES IDX 9 12 8 13 7 14 6 15 5 16 4 17 3 18 2 19 1 20
REMARK H PARENT
REMARK Flexibility Score: inf
ROOT
ATOM      1  C   UNL     1       6.320  47.837   0.994  1.00  0.00     0.027 C 
ENDROOT
BRANCH   1   2
ATOM      2  C   UNL     1       5.632  47.484   2.320  1.00  0.00     0.004 C 
BRANCH   2   3
ATOM      3  C   UNL     1       4.181  47.007   2.133  1.00  0.00     0.000 C 
BRANCH   3   4
ATOM      4  C   UNL     1       3.722  45.916   3.119  1.00  0.00     0.000 C 
BRANCH   4   5
ATOM      5  C   UNL     1       2.401  45.248   2.697  1.00  0.00     0.000 C 
BRANCH   5   6
ATOM      6  C   UNL     1       2.192  45.268   1.173  1.00  0.00     0.006 C 
BRANCH   6   7
ATOM      7  C   UNL     1       1.097  44.296   0.714  1.00  0.00     0.053 C 
BRANCH   7   8
ATOM      8  C   UNL     1       0.535  44.727  -0.604  1.00  0.00     0.041 C 
ATOM      9  O   UNL     1      -0.707  44.864  -0.750  1.00  0.00    -0.550 OA
ATOM     10  O   UNL     1       1.382  44.935  -1.687  1.00  0.00    -0.550 OA
ENDBRANCH   7   8
ENDBRANCH   6   7
ENDBRANCH   5   6
ENDBRANCH   4   5
ENDBRANCH   3   4
ENDBRANCH   2   3
ENDBRANCH   1   2
BRANCH   1  11
ATOM     11  C   UNL     1       5.792  49.139   0.445  1.00  0.00    -0.031 C 
ATOM     12  C   UNL     1       6.307  49.781  -0.620  1.00  0.00    -0.027 C 
BRANCH  12  13
ATOM     13  C   UNL     1       7.523  49.326  -1.387  1.00  0.00     0.054 C 
BRANCH  13  14
ATOM     14  C   UNL     1       7.140  48.501  -2.585  1.00  0.00    -0.027 C 
ATOM     15  C   UNL     1       7.774  47.356  -2.881  1.00  0.00    -0.031 C 
BRANCH  15  16
ATOM     16  C   UNL     1       7.374  46.547  -4.086  1.00  0.00     0.027 C 
BRANCH  16  17
ATOM     17  C   UNL     1       8.606  46.074  -4.867  1.00  0.00     0.004 C 
BRANCH  17  18
ATOM     18  C   UNL     1       8.646  44.545  -4.958  1.00  0.00     0.000 C 
BRANCH  18  19
ATOM     19  C   UNL     1       7.321  43.933  -4.486  1.00  0.00    -0.003 C 
ATOM     20  C   UNL     1       7.536  42.996  -3.301  1.00  0.00     0.004 C 
ENDBRANCH  18  19
ENDBRANCH  17  18
ENDBRANCH  16  17
ENDBRANCH  15  16
ENDBRANCH  13  14
ENDBRANCH  12  13
ENDBRANCH   1  11
TORSDOF 14
ENDMDL
MODEL 9
REMARK VINA RESULT:    -6.229      2.984      8.090
REMARK INTER + INTRA:         -12.447
REMARK INTER:                 -11.295
REMARK INTRA:                  -1.152
REMARK UNBOUND:                -1.119
REMARK SMILES CCCCCC=CCC=CCCCCCCCC(=O)[O-]
REMARK SMILES IDX 11 1 12 2 13 3 14 4 15 5 16 6 17 7 18 8 19 9 20 10 10 11
REMARK SMILES IDX 9 12 8 13 7 14 6 15 5 16 4 17 3 18 2 19 1 20
REMARK H PARENT
REMARK Flexibility Score: inf
ROOT
ATOM      1  C   UNL     1       4.648  42.499   8.703  1.00  0.00     0.027 C 
ENDROOT
BRANCH   1   2
ATOM      2  C   UNL     1       4.174  43.168  10.001  1.00  0.00     0.004 C 
BRANCH   2   3
ATOM      3  C   UNL     1       4.690  44.610  10.154  1.00  0.00     0.000 C 
BRANCH   3   4
ATOM      4  C   UNL     1       3.614  45.651  10.516  1.00  0.00     0.000 C 
BRANCH   4   5
ATOM      5  C   UNL     1       2.316  45.011  11.039  1.00  0.00     0.000 C 
BRANCH   5   6
ATOM      6  C   UNL     1       1.527  45.951  11.967  1.00  0.00     0.006 C 
BRANCH   6   7
ATOM      7  C   UNL     1       0.015  45.905  11.709  1.00  0.00     0.053 C 
BRANCH   7   8
ATOM      8  C   UNL     1      -0.320  46.623  10.440  1.00  0.00     0.041 C 
ATOM      9  O   UNL     1      -0.067  47.850  10.321  1.00  0.00    -0.550 OA
ATOM     10  O   UNL     1      -0.954  45.947   9.404  1.00  0.00    -0.550 OA
ENDBRANCH   7   8
ENDBRANCH   6   7
ENDBRANCH   5   6
ENDBRANCH   4   5
ENDBRANCH   3   4
ENDBRANCH   2   3
ENDBRANCH   1   2
BRANCH   1  11
ATOM     11  C   UNL     1       3.583  42.579   7.637  1.00  0.00    -0.031 C 
ATOM     12  C   UNL     1       3.682  43.315   6.514  1.00  0.00    -0.027 C 
BRANCH  12  13
ATOM     13  C   UNL     1       4.846  44.215   6.182  1.00  0.00     0.054 C 
BRANCH  13  14
ATOM     14  C   UNL     1       4.758  44.730   4.772  1.00  0.00    -0.027 C 
ATOM     15  C   UNL     1       3.588  44.796   4.119  1.00  0.00    -0.031 C 
BRANCH  15  16
ATOM     16  C   UNL     1       3.524  45.314   2.708  1.00  0.00     0.027 C 
BRANCH  16  17
ATOM     17  C   UNL     1       2.073  45.519   2.259  1.00  0.00     0.004 C 
BRANCH  17  18
ATOM     18  C   UNL     1       1.775  44.730   0.979  1.00  0.00     0.000 C 
BRANCH  18  19
ATOM     19  C   UNL     1       0.264  44.646   0.727  1.00  0.00    -0.003 C 
ATOM     20  C   UNL     1      -0.526  45.185   1.915  1.00  0.00     0.004 C 
ENDBRANCH  18  19
ENDBRANCH  17  18
ENDBRANCH  16  17
ENDBRANCH  15  16
ENDBRANCH  13  14
ENDBRANCH  12  13
ENDBRANCH   1  11
TORSDOF 14
ENDMDL
