MODEL 1
REMARK VINA RESULT:    -6.083      0.000      0.000
REMARK INTER + INTRA:         -12.883
REMARK INTER:                 -11.418
REMARK INTRA:                  -1.465
REMARK UNBOUND:                -1.465
REMARK SMILES CCCCCCCCC=CCCCCCCCC(=O)[O-]
REMARK SMILES IDX 10 1 9 2 11 3 12 4 13 5 14 6 15 7 16 8 17 9 18 10 19 11
REMARK SMILES IDX 20 12 8 13 7 14 6 15 5 16 4 17 3 18 2 19 1 20
REMARK H PARENT
REMARK Flexibility Score: inf
ROOT
ATOM      1  C   UNL     1       4.783  41.820   8.472  1.00  0.00    -0.031 C 
ATOM      2  C   UNL     1       4.670  42.172   7.177  1.00  0.00    -0.031 C 
ENDROOT
BRANCH   1   3
ATOM      3  C   UNL     1       4.390  42.698   9.636  1.00  0.00     0.027 C 
BRANCH   3   4
ATOM      4  C   UNL     1       5.549  43.600  10.085  1.00  0.00     0.004 C 
BRANCH   4   5
ATOM      5  C   UNL     1       5.071  45.017  10.448  1.00  0.00     0.000 C 
BRANCH   5   6
ATOM      6  C   UNL     1       3.542  45.169  10.383  1.00  0.00     0.000 C 
BRANCH   6   7
ATOM      7  C   UNL     1       2.878  45.629  11.694  1.00  0.00     0.000 C 
BRANCH   7   8
ATOM      8  C   UNL     1       1.452  45.089  11.864  1.00  0.00     0.006 C 
BRANCH   8   9
ATOM      9  C   UNL     1       0.453  46.233  12.063  1.00  0.00     0.053 C 
BRANCH   9  10
ATOM     10  C   UNL     1      -0.008  46.771  10.746  1.00  0.00     0.041 C 
ATOM     11  O   UNL     1       0.046  48.007  10.513  1.00  0.00    -0.550 OA
ATOM     12  O   UNL     1      -0.520  45.912   9.782  1.00  0.00    -0.550 OA
ENDBRANCH   9  10
ENDBRANCH   8   9
ENDBRANCH   7   8
ENDBRANCH   6   7
ENDBRANCH   5   6
ENDBRANCH   4   5
ENDBRANCH   3   4
ENDBRANCH   1   3
BRANCH   2  13
ATOM     13  C   UNL     1       4.033  43.450   6.692  1.00  0.00     0.027 C 
BRANCH  13  14
ATOM     14  C   UNL     1       5.106  44.513   6.422  1.00  0.00     0.004 C 
BRANCH  14  15
ATOM     15  C   UNL     1       5.189  44.848   4.930  1.00  0.00     0.000 C 
BRANCH  15  16
ATOM     16  C   UNL     1       3.806  44.745   4.268  1.00  0.00     0.000 C 
BRANCH  16  17
ATOM     17  C   UNL     1       3.711  45.591   2.985  1.00  0.00    -0.000 C 
BRANCH  17  18
ATOM     18  C   UNL     1       2.253  45.893   2.569  1.00  0.00    -0.000 C 
BRANCH  18  19
ATOM     19  C   UNL     1       1.306  46.091   3.764  1.00  0.00    -0.003 C 
ATOM     20  C   UNL     1      -0.168  46.069   3.363  1.00  0.00     0.004 C 
ENDBRANCH  18  19
ENDBRANCH  17  18
ENDBRANCH  16  17
ENDBRANCH  15  16
ENDBRANCH  14  15
ENDBRANCH  13  14
ENDBRANCH   2  13
TORSDOF 15
ENDMDL
MODEL 2
REMARK VINA RESULT:    -6.074      1.540      2.573
REMARK INTER + INTRA:         -12.865
REMARK INTER:                 -11.803
REMARK INTRA:                  -1.062
REMARK UNBOUND:                -1.465
REMARK SMILES CCCCCCCCC=CCCCCCCCC(=O)[O-]
REMARK SMILES IDX 10 1 9 2 11 3 12 4 13 5 14 6 15 7 16 8 17 9 18 10 19 11
REMARK SMILES IDX 20 12 8 13 7 14 6 15 5 16 4 17 3 18 2 19 1 20
REMARK H PARENT
REMARK Flexibility Score: inf
ROOT
ATOM      1  C   UNL     1       3.481  42.917   7.333  1.00  0.00    -0.031 C 
ATOM      2  C   UNL     1       3.708  43.634   6.216  1.00  0.00    -0.031 C 
ENDROOT
BRANCH   1   3
ATOM      3  C   UNL     1       4.547  42.513   8.323  1.00  0.00     0.027 C 
BRANCH   3   4
ATOM      4  C   UNL     1       4.895  43.660   9.285  1.00  0.00     0.004 C 
BRANCH   4   5
ATOM      5  C   UNL     1       3.740  43.970  10.253  1.00  0.00     0.000 C 
BRANCH   5   6
ATOM      6  C   UNL     1       3.997  45.218  11.114  1.00  0.00     0.000 C 
BRANCH   6   7
ATOM      7  C   UNL     1       2.741  45.833  11.759  1.00  0.00     0.000 C 
BRANCH   7   8
ATOM      8  C   UNL     1       1.447  45.122  11.342  1.00  0.00     0.006 C 
BRANCH   8   9
ATOM      9  C   UNL     1       0.218  45.951  11.728  1.00  0.00     0.053 C 
BRANCH   9  10
ATOM     10  C   UNL     1      -0.354  46.642  10.531  1.00  0.00     0.041 C 
ATOM     11  O   UNL     1      -0.407  47.899  10.491  1.00  0.00    -0.550 OA
ATOM     12  O   UNL     1      -0.851  45.900   9.468  1.00  0.00    -0.550 OA
ENDBRANCH   9  10
ENDBRANCH   8   9
ENDBRANCH   7   8
ENDBRANCH   6   7
ENDBRANCH   5   6
ENDBRANCH   4   5
ENDBRANCH   3   4
ENDBRANCH   1   3
BRANCH   2  13
ATOM     13  C   UNL     1       5.040  44.232   5.842  1.00  0.00     0.027 C 
BRANCH  13  14
ATOM     14  C   UNL     1       4.954  44.911   4.470  1.00  0.00     0.004 C 
BRANCH  14  15
ATOM     15  C   UNL     1       3.529  44.850   3.910  1.00  0.00     0.000 C 
BRANCH  15  16
ATOM     16  C   UNL     1       3.311  45.938   2.847  1.00  0.00     0.000 C 
BRANCH  16  17
ATOM     17  C   UNL     1       4.465  46.956   2.813  1.00  0.00    -0.000 C 
BRANCH  17  18
ATOM     18  C   UNL     1       4.715  47.537   1.402  1.00  0.00    -0.000 C 
BRANCH  18  19
ATOM     19  C   UNL     1       6.195  47.847   1.124  1.00  0.00    -0.003 C 
ATOM     20  C   UNL     1       7.126  47.346   2.228  1.00  0.00     0.004 C 
ENDBRANCH  18  19
ENDBRANCH  17  18
ENDBRANCH  16  17
ENDBRANCH  15  16
ENDBRANCH  14  15
ENDBRANCH  13  14
ENDBRANCH   2  13
TORSDOF 15
ENDMDL
MODEL 3
REMARK VINA RESULT:    -6.010      4.185      8.623
REMARK INTER + INTRA:         -12.745
REMARK INTER:                 -11.447
REMARK INTRA:                  -1.298
REMARK UNBOUND:                -1.465
REMARK SMILES CCCCCCCCC=CCCCCCCCC(=O)[O-]
REMARK SMILES IDX 10 1 9 2 11 3 12 4 13 5 14 6 15 7 16 8 17 9 18 10 19 11
REMARK SMILES IDX 20 12 8 13 7 14 6 15 5 16 4 17 3 18 2 19 1 20
REMARK H PARENT
REMARK Flexibility Score: inf
ROOT
ATOM      1  C   UNL     1       2.184  46.259   3.103  1.00  0.00    -0.031 C 
ATOM      2  C   UNL     1       3.440  45.787   3.209  1.00  0.00    -0.031 C 
ENDROOT
BRANCH   1   3
ATOM      3  C   UNL     1       0.982  45.659   3.793  1.00  0.00     0.027 C 
BRANCH   3   4
ATOM      4  C   UNL     1      -0.295  46.467   3.516  1.00  0.00     0.004 C 
BRANCH   4   5
ATOM      5  C   UNL     1      -1.564  45.701   3.928  1.00  0.00     0.000 C 
BRANCH   5   6
ATOM      6  C   UNL     1      -2.309  45.085   2.731  1.00  0.00     0.000 C 
BRANCH   6   7
ATOM      7  C   UNL     1      -1.773  45.502   1.349  1.00  0.00     0.000 C 
BRANCH   7   8
ATOM      8  C   UNL     1      -1.148  44.335   0.573  1.00  0.00     0.006 C 
BRANCH   8   9
ATOM      9  C   UNL     1       0.273  44.680   0.116  1.00  0.00     0.053 C 
BRANCH   9  10
ATOM     10  C   UNL     1       0.329  44.836  -1.370  1.00  0.00     0.041 C 
ATOM     11  O   UNL     1       1.373  44.520  -2.000  1.00  0.00    -0.550 OA
ATOM     12  O   UNL     1      -0.759  45.353  -2.060  1.00  0.00    -0.550 OA
ENDBRANCH   9  10
ENDBRANCH   8   9
ENDBRANCH   7   8
ENDBRANCH   6   7
ENDBRANCH   5   6
ENDBRANCH   4   5
ENDBRANCH   3   4
ENDBRANCH   1   3
BRANCH   2  13
ATOM     13  C   UNL     1       3.853  44.656   4.117  1.00  0.00     0.027 C 
BRANCH  13  14
ATOM     14  C   UNL     1       5.196  44.972   4.786  1.00  0.00     0.004 C 
BRANCH  14  15
ATOM     15  C   UNL     1       5.181  44.584   6.269  1.00  0.00     0.000 C 
BRANCH  15  16
ATOM     16  C   UNL     1       4.383  43.290   6.487  1.00  0.00     0.000 C 
BRANCH  16  17
ATOM     17  C   UNL     1       3.413  43.399   7.677  1.00  0.00    -0.000 C 
BRANCH  17  18
ATOM     18  C   UNL     1       4.134  43.645   9.022  1.00  0.00    -0.000 C 
BRANCH  18  19
ATOM     19  C   UNL     1       3.172  43.931  10.187  1.00  0.00    -0.003 C 
ATOM     20  C   UNL     1       3.189  45.395  10.626  1.00  0.00     0.004 C 
ENDBRANCH  18  19
ENDBRANCH  17  18
ENDBRANCH  16  17
ENDBRANCH  15  16
ENDBRANCH  14  15
ENDBRANCH  13  14
ENDBRANCH   2  13
TORSDOF 15
ENDMDL
MODEL 4
REMARK VINA RESULT:    -5.947      6.665     11.206
REMARK INTER + INTRA:         -12.627
REMARK INTER:                 -11.699
REMARK INTRA:                  -0.928
REMARK UNBOUND:                -1.465
REMARK SMILES CCCCCCCCC=CCCCCCCCC(=O)[O-]
REMARK SMILES IDX 10 1 9 2 11 3 12 4 13 5 14 6 15 7 16 8 17 9 18 10 19 11
REMARK SMILES IDX 20 12 8 13 7 14 6 15 5 16 4 17 3 18 2 19 1 20
REMARK H PARENT
REMARK Flexibility Score: inf
ROOT
ATOM      1  C   UNL     1       5.669  47.616   1.818  1.00  0.00    -0.031 C 
ATOM      2  C   UNL     1       5.032  46.823   2.700  1.00  0.00    -0.031 C 
ENDROOT
BRANCH   1   3
ATOM      3  C   UNL     1       5.017  48.261   0.619  1.00  0.00     0.027 C 
BRANCH   3   4
ATOM      4  C   UNL     1       6.058  48.811  -0.367  1.00  0.00     0.004 C 
BRANCH   4   5
ATOM      5  C   UNL     1       7.390  48.044  -0.287  1.00  0.00     0.000 C 
BRANCH   5   6
ATOM      6  C   UNL     1       8.026  47.799  -1.666  1.00  0.00     0.000 C 
BRANCH   6   7
ATOM      7  C   UNL     1       7.023  47.618  -2.821  1.00  0.00     0.000 C 
BRANCH   7   8
ATOM      8  C   UNL     1       7.373  46.437  -3.736  1.00  0.00     0.006 C 
BRANCH   8   9
ATOM      9  C   UNL     1       6.468  46.416  -4.973  1.00  0.00     0.053 C 
BRANCH   9  10
ATOM     10  C   UNL     1       5.579  45.214  -4.959  1.00  0.00     0.041 C 
ATOM     11  O   UNL     1       5.953  44.144  -5.506  1.00  0.00    -0.550 OA
ATOM     12  O   UNL     1       4.325  45.280  -4.365  1.00  0.00    -0.550 OA
ENDBRANCH   9  10
ENDBRANCH   8   9
ENDBRANCH   7   8
ENDBRANCH   6   7
ENDBRANCH   5   6
ENDBRANCH   4   5
ENDBRANCH   3   4
ENDBRANCH   1   3
BRANCH   2  13
ATOM     13  C   UNL     1       3.550  46.547   2.685  1.00  0.00     0.027 C 
BRANCH  13  14
ATOM     14  C   UNL     1       3.244  45.226   3.400  1.00  0.00     0.004 C 
BRANCH  14  15
ATOM     15  C   UNL     1       4.457  44.735   4.198  1.00  0.00     0.000 C 
BRANCH  15  16
ATOM     16  C   UNL     1       4.033  44.241   5.589  1.00  0.00     0.000 C 
BRANCH  16  17
ATOM     17  C   UNL     1       5.103  44.525   6.658  1.00  0.00    -0.000 C 
BRANCH  17  18
ATOM     18  C   UNL     1       5.100  43.489   7.806  1.00  0.00    -0.000 C 
BRANCH  18  19
ATOM     19  C   UNL     1       3.775  42.719   7.929  1.00  0.00    -0.003 C 
ATOM     20  C   UNL     1       3.102  42.908   9.288  1.00  0.00     0.004 C 
ENDBRANCH  18  19
ENDBRANCH  17  18
ENDBRANCH  16  17
ENDBRANCH  15  16
ENDBRANCH  14  15
ENDBRANCH  13  14
ENDBRANCH   2  13
TORSDOF 15
ENDMDL
MODEL 5
REMARK VINA RESULT:    -5.895      1.575      2.629
REMARK INTER + INTRA:         -12.529
REMARK INTER:                 -11.648
REMARK INTRA:                  -0.881
REMARK UNBOUND:                -1.465
REMARK SMILES CCCCCCCCC=CCCCCCCCC(=O)[O-]
REMARK SMILES IDX 10 1 9 2 11 3 12 4 13 5 14 6 15 7 16 8 17 9 18 10 19 11
REMARK SMILES IDX 20 12 8 13 7 14 6 15 5 16 4 17 3 18 2 19 1 20
REMARK H PARENT
REMARK Flexibility Score: inf
ROOT
ATOM      1  C   UNL     1       4.709  43.856   6.319  1.00  0.00    -0.031 C 
ATOM      2  C   UNL     1       4.882  44.540   5.173  1.00  0.00    -0.031 C 
ENDROOT
BRANCH   1   3
ATOM      3  C   UNL     1       3.374  43.370   6.833  1.00  0.00     0.027 C 
BRANCH   3   4
ATOM      4  C   UNL     1       3.481  42.824   8.264  1.00  0.00     0.004 C 
BRANCH   4   5
ATOM      5  C   UNL     1       3.985  43.890   9.253  1.00  0.00     0.000 C 
BRANCH   5   6
ATOM      6  C   UNL     1       2.879  44.416  10.183  1.00  0.00     0.000 C 
BRANCH   6   7
ATOM      7  C   UNL     1       3.270  45.641  11.030  1.00  0.00     0.000 C 
BRANCH   7   8
ATOM      8  C   UNL     1       2.265  45.939  12.150  1.00  0.00     0.006 C 
BRANCH   8   9
ATOM      9  C   UNL     1       2.074  47.449  12.328  1.00  0.00     0.053 C 
BRANCH   9  10
ATOM     10  C   UNL     1       1.459  48.053  11.106  1.00  0.00     0.041 C 
ATOM     11  O   UNL     1       2.050  48.980  10.492  1.00  0.00    -0.550 OA
ATOM     12  O   UNL     1       0.221  47.614  10.658  1.00  0.00    -0.550 OA
ENDBRANCH   9  10
ENDBRANCH   8   9
ENDBRANCH   7   8
ENDBRANCH   6   7
ENDBRANCH   5   6
ENDBRANCH   4   5
ENDBRANCH   3   4
ENDBRANCH   1   3
BRANCH   2  13
ATOM     13  C   UNL     1       3.788  44.831   4.177  1.00  0.00     0.027 C 
BRANCH  13  14
ATOM     14  C   UNL     1       4.168  46.031   3.301  1.00  0.00     0.004 C 
BRANCH  14  15
ATOM     15  C   UNL     1       3.324  46.072   2.023  1.00  0.00     0.000 C 
BRANCH  15  16
ATOM     16  C   UNL     1       2.057  45.219   2.176  1.00  0.00     0.000 C 
BRANCH  16  17
ATOM     17  C   UNL     1       1.694  44.477   0.877  1.00  0.00    -0.000 C 
BRANCH  17  18
ATOM     18  C   UNL     1       0.210  44.648   0.479  1.00  0.00    -0.000 C 
BRANCH  18  19
ATOM     19  C   UNL     1      -0.724  44.858   1.682  1.00  0.00    -0.003 C 
ATOM     20  C   UNL     1      -1.699  46.017   1.483  1.00  0.00     0.004 C 
ENDBRANCH  18  19
ENDBRANCH  17  18
ENDBRANCH  16  17
ENDBRANCH  15  16
ENDBRANCH  14  15
ENDBRANCH  13  14
ENDBRANCH   2  13
TORSDOF 15
ENDMDL
MODEL 6
REMARK VINA RESULT:    -5.877      7.465     10.218
REMARK INTER + INTRA:         -12.496
REMARK INTER:                 -11.213
REMARK INTRA:                  -1.283
REMARK UNBOUND:                -1.465
REMARK SMILES CCCCCCCCC=CCCCCCCCC(=O)[O-]
REMARK SMILES IDX 10 1 9 2 11 3 12 4 13 5 14 6 15 7 16 8 17 9 18 10 19 11
REMARK SMILES IDX 20 12 8 13 7 14 6 15 5 16 4 17 3 18 2 19 1 20
REMARK H PARENT
REMARK Flexibility Score: inf
ROOT
ATOM      1  C   UNL     1       3.564  46.006   3.014  1.00  0.00    -0.031 C 
ATOM      2  C   UNL     1       2.717  45.120   2.458  1.00  0.00    -0.031 C 
ENDROOT
BRANCH   1   3
ATOM      3  C   UNL     1       4.204  47.159   2.277  1.00  0.00     0.027 C 
BRANCH   3   4
ATOM      4  C   UNL     1       5.704  47.269   2.587  1.00  0.00     0.004 C 
BRANCH   4   5
ATOM      5  C   UNL     1       6.513  47.739   1.364  1.00  0.00     0.000 C 
BRANCH   5   6
ATOM      6  C   UNL     1       5.862  48.926   0.635  1.00  0.00     0.000 C 
BRANCH   6   7
ATOM      7  C   UNL     1       5.381  48.624  -0.797  1.00  0.00     0.000 C 
BRANCH   7   8
ATOM      8  C   UNL     1       6.319  49.189  -1.873  1.00  0.00     0.006 C 
BRANCH   8   9
ATOM      9  C   UNL     1       7.554  48.299  -2.045  1.00  0.00     0.053 C 
BRANCH   9  10
ATOM     10  C   UNL     1       7.368  47.348  -3.184  1.00  0.00     0.041 C 
ATOM     11  O   UNL     1       6.214  47.105  -3.625  1.00  0.00    -0.550 OA
ATOM     12  O   UNL     1       8.465  46.709  -3.746  1.00  0.00    -0.550 OA
ENDBRANCH   9  10
ENDBRANCH   8   9
ENDBRANCH   7   8
ENDBRANCH   6   7
ENDBRANCH   5   6
ENDBRANCH   4   5
ENDBRANCH   3   4
ENDBRANCH   1   3
BRANCH   2  13
ATOM     13  C   UNL     1       2.195  45.208   1.046  1.00  0.00     0.027 C 
BRANCH  13  14
ATOM     14  C   UNL     1       1.044  44.215   0.840  1.00  0.00     0.004 C 
BRANCH  14  15
ATOM     15  C   UNL     1       0.188  44.604  -0.370  1.00  0.00     0.000 C 
BRANCH  15  16
ATOM     16  C   UNL     1      -1.237  44.978   0.065  1.00  0.00     0.000 C 
BRANCH  16  17
ATOM     17  C   UNL     1      -1.708  44.157   1.279  1.00  0.00    -0.000 C 
BRANCH  17  18
ATOM     18  C   UNL     1      -2.410  45.019   2.353  1.00  0.00    -0.000 C 
BRANCH  18  19
ATOM     19  C   UNL     1      -1.519  45.327   3.568  1.00  0.00    -0.003 C 
ATOM     20  C   UNL     1      -0.549  46.480   3.316  1.00  0.00     0.004 C 
ENDBRANCH  18  19
ENDBRANCH  17  18
ENDBRANCH  16  17
ENDBRANCH  15  16
ENDBRANCH  14  15
ENDBRANCH  13  14
ENDBRANCH   2  13
TORSDOF 15
ENDMDL
MODEL 7
REMARK VINA RESULT:    -5.874      7.732     11.205
REMARK INTER + INTRA:         -12.489
REMARK INTER:                 -11.583
REMARK INTRA:                  -0.906
REMARK UNBOUND:                -1.465
REMARK SMILES CCCCCCCCC=CCCCCCCCC(=O)[O-]
REMARK SMILES IDX 10 1 9 2 11 3 12 4 13 5 14 6 15 7 16 8 17 9 18 10 19 11
REMARK SMILES IDX 20 12 8 13 7 14 6 15 5 16 4 17 3 18 2 19 1 20
REMARK H PARENT
REMARK Flexibility Score: inf
ROOT
ATOM      1  C   UNL     1       6.058  47.765   1.918  1.00  0.00    -0.031 C 
ATOM      2  C   UNL     1       5.129  47.067   2.598  1.00  0.00    -0.031 C 
ENDROOT
BRANCH   1   3
ATOM      3  C   UNL     1       5.922  48.194   0.477  1.00  0.00     0.027 C 
BRANCH   3   4
ATOM      4  C   UNL     1       7.269  48.639  -0.113  1.00  0.00     0.004 C 
BRANCH   4   5
ATOM      5  C   UNL     1       7.691  47.769  -1.310  1.00  0.00     0.000 C 
BRANCH   5   6
ATOM      6  C   UNL     1       6.778  47.949  -2.534  1.00  0.00     0.000 C 
BRANCH   6   7
ATOM      7  C   UNL     1       7.106  47.036  -3.730  1.00  0.00     0.000 C 
BRANCH   7   8
ATOM      8  C   UNL     1       8.116  45.934  -3.380  1.00  0.00     0.006 C 
BRANCH   8   9
ATOM      9  C   UNL     1       8.029  44.775  -4.378  1.00  0.00     0.053 C 
BRANCH   9  10
ATOM     10  C   UNL     1       7.305  43.612  -3.780  1.00  0.00     0.041 C 
ATOM     11  O   UNL     1       7.876  42.881  -2.928  1.00  0.00    -0.550 OA
ATOM     12  O   UNL     1       6.008  43.317  -4.178  1.00  0.00    -0.550 OA
ENDBRANCH   9  10
ENDBRANCH   8   9
ENDBRANCH   7   8
ENDBRANCH   6   7
ENDBRANCH   5   6
ENDBRANCH   4   5
ENDBRANCH   3   4
ENDBRANCH   1   3
BRANCH   2  13
ATOM     13  C   UNL     1       3.770  46.701   2.057  1.00  0.00     0.027 C 
BRANCH  13  14
ATOM     14  C   UNL     1       3.060  45.731   3.009  1.00  0.00     0.004 C 
BRANCH  14  15
ATOM     15  C   UNL     1       1.761  45.203   2.392  1.00  0.00     0.000 C 
BRANCH  15  16
ATOM     16  C   UNL     1       2.002  44.691   0.963  1.00  0.00     0.000 C 
BRANCH  16  17
ATOM     17  C   UNL     1       0.693  44.289   0.261  1.00  0.00    -0.000 C 
BRANCH  17  18
ATOM     18  C   UNL     1      -0.569  44.720   1.044  1.00  0.00    -0.000 C 
BRANCH  18  19
ATOM     19  C   UNL     1      -1.705  45.225   0.139  1.00  0.00    -0.003 C 
ATOM     20  C   UNL     1      -2.202  46.616   0.530  1.00  0.00     0.004 C 
ENDBRANCH  18  19
ENDBRANCH  17  18
ENDBRANCH  16  17
ENDBRANCH  15  16
ENDBRANCH  14  15
ENDBRANCH  13  14
ENDBRANCH   2  13
TORSDOF 15
ENDMDL
MODEL 8
REMARK VINA RESULT:    -5.837      6.676      9.952
REMARK INTER + INTRA:         -12.420
REMARK INTER:                 -11.618
REMARK INTRA:                  -0.802
REMARK UNBOUND:                -1.465
REMARK SMILES CCCCCCCCC=CCCCCCCCC(=O)[O-]
REMARK SMILES IDX 10 1 9 2 11 3 12 4 13 5 14 6 15 7 16 8 17 9 18 10 19 11
REMARK SMILES IDX 20 12 8 13 7 14 6 15 5 16 4 17 3 18 2 19 1 20
REMARK H PARENT
REMARK Flexibility Score: inf
ROOT
ATOM      1  C   UNL     1       5.638  47.856   1.575  1.00  0.00    -0.031 C 
ATOM      2  C   UNL     1       6.042  48.621   0.544  1.00  0.00    -0.031 C 
ENDROOT
BRANCH   1   3
ATOM      3  C   UNL     1       4.343  47.081   1.611  1.00  0.00     0.027 C 
BRANCH   3   4
ATOM      4  C   UNL     1       4.073  46.489   3.003  1.00  0.00     0.004 C 
BRANCH   4   5
ATOM      5  C   UNL     1       3.116  45.285   2.942  1.00  0.00     0.000 C 
BRANCH   5   6
ATOM      6  C   UNL     1       1.906  45.527   2.024  1.00  0.00     0.000 C 
BRANCH   6   7
ATOM      7  C   UNL     1       1.696  44.462   0.932  1.00  0.00     0.000 C 
BRANCH   7   8
ATOM      8  C   UNL     1       0.215  44.218   0.612  1.00  0.00     0.006 C 
BRANCH   8   9
ATOM      9  C   UNL     1      -0.152  44.796  -0.758  1.00  0.00     0.053 C 
BRANCH   9  10
ATOM     10  C   UNL     1      -1.539  45.354  -0.745  1.00  0.00     0.041 C 
ATOM     11  O   UNL     1      -1.881  46.179   0.143  1.00  0.00    -0.550 OA
ATOM     12  O   UNL     1      -2.465  44.948  -1.696  1.00  0.00    -0.550 OA
ENDBRANCH   9  10
ENDBRANCH   8   9
ENDBRANCH   7   8
ENDBRANCH   6   7
ENDBRANCH   5   6
ENDBRANCH   4   5
ENDBRANCH   3   4
ENDBRANCH   1   3
BRANCH   2  13
ATOM     13  C   UNL     1       5.314  48.735  -0.772  1.00  0.00     0.027 C 
BRANCH  13  14
ATOM     14  C   UNL     1       6.265  49.232  -1.868  1.00  0.00     0.004 C 
BRANCH  14  15
ATOM     15  C   UNL     1       7.478  48.307  -2.009  1.00  0.00     0.000 C 
BRANCH  15  16
ATOM     16  C   UNL     1       7.308  47.362  -3.209  1.00  0.00     0.000 C 
BRANCH  16  17
ATOM     17  C   UNL     1       8.426  46.306  -3.280  1.00  0.00    -0.000 C 
BRANCH  17  18
ATOM     18  C   UNL     1       8.792  45.913  -4.729  1.00  0.00    -0.000 C 
BRANCH  18  19
ATOM     19  C   UNL     1       8.444  44.456  -5.073  1.00  0.00    -0.003 C 
ATOM     20  C   UNL     1       7.800  43.707  -3.907  1.00  0.00     0.004 C 
ENDBRANCH  18  19
ENDBRANCH  17  18
ENDBRANCH  16  17
ENDBRANCH  15  16
ENDBRANCH  14  15
ENDBRANCH  13  14
ENDBRANCH   2  13
TORSDOF 15
ENDMDL
MODEL 9
REMARK VINA RESULT:    -5.797      5.925      8.271
REMARK INTER + INTRA:         -12.344
REMARK INTER:                 -11.148
REMARK INTRA:                  -1.196
REMARK UNBOUND:                -1.465
REMARK SMILES CCCCCCCCC=CCCCCCCCC(=O)[O-]
REMARK SMILES IDX 10 1 9 2 11 3 12 4 13 5 14 6 15 7 16 8 17 9 18 10 19 11
REMARK SMILES IDX 20 12 8 13 7 14 6 15 5 16 4 17 3 18 2 19 1 20
REMARK H PARENT
REMARK Flexibility Score: inf
ROOT
ATOM      1  C   UNL     1       1.798  45.434   2.298  1.00  0.00    -0.031 C 
ATOM      2  C   UNL     1       2.690  46.010   3.125  1.00  0.00    -0.031 C 
ENDROOT
BRANCH   1   3
ATOM      3  C   UNL     1       2.162  44.577   1.109  1.00  0.00     0.027 C 
BRANCH   3   4
ATOM      4  C   UNL     1       1.058  44.591   0.039  1.00  0.00     0.004 C 
BRANCH   4   5
ATOM      5  C   UNL     1      -0.329  44.300   0.638  1.00  0.00     0.000 C 
BRANCH   5   6
ATOM      6  C   UNL     1      -1.364  45.390   0.312  1.00  0.00     0.000 C 
BRANCH   6   7
ATOM      7  C   UNL     1      -1.747  46.297   1.497  1.00  0.00     0.000 C 
BRANCH   7   8
ATOM      8  C   UNL     1      -1.803  45.543   2.833  1.00  0.00     0.006 C 
BRANCH   8   9
ATOM      9  C   UNL     1      -3.114  44.762   2.966  1.00  0.00     0.053 C 
BRANCH   9  10
ATOM     10  C   UNL     1      -3.396  44.439   4.398  1.00  0.00     0.041 C 
ATOM     11  O   UNL     1      -3.239  45.316   5.288  1.00  0.00    -0.550 OA
ATOM     12  O   UNL     1      -3.810  43.163   4.758  1.00  0.00    -0.550 OA
ENDBRANCH   9  10
ENDBRANCH   8   9
ENDBRANCH   7   8
ENDBRANCH   6   7
ENDBRANCH   5   6
ENDBRANCH   4   5
ENDBRANCH   3   4
ENDBRANCH   1   3
BRANCH   2  13
ATOM     13  C   UNL     1       4.181  45.799   3.054  1.00  0.00     0.027 C 
BRANCH  13  14
ATOM     14  C   UNL     1       4.893  47.119   2.733  1.00  0.00     0.004 C 
BRANCH  14  15
ATOM     15  C   UNL     1       4.701  47.509   1.264  1.00  0.00     0.000 C 
BRANCH  15  16
ATOM     16  C   UNL     1       5.740  48.556   0.835  1.00  0.00     0.000 C 
BRANCH  16  17
ATOM     17  C   UNL     1       6.207  48.351  -0.617  1.00  0.00    -0.000 C 
BRANCH  17  18
ATOM     18  C   UNL     1       6.253  49.667  -1.428  1.00  0.00    -0.000 C 
BRANCH  18  19
ATOM     19  C   UNL     1       7.405  50.598  -1.015  1.00  0.00    -0.003 C 
ATOM     20  C   UNL     1       8.757  49.888  -0.971  1.00  0.00     0.004 C 
ENDBRANCH  18  19
ENDBRANCH  17  18
ENDBRANCH  16  17
ENDBRANCH  15  16
ENDBRANCH  14  15
ENDBRANCH  13  14
ENDBRANCH   2  13
TORSDOF 15
ENDMDL
