MODEL 1
REMARK VINA RESULT:    -2.107      0.000      0.000
REMARK INTER + INTRA:          -3.432
REMARK INTER:                  -2.846
REMARK INTRA:                  -0.587
REMARK UNBOUND:                -0.587
REMARK SMILES CC(=O)CCC=C(C)CCC=C(C)C
REMARK SMILES IDX 7 1 6 2 8 3 9 4 10 5 11 6 13 7 12 8 14 9 5 10 4 11 2 12 3 13
REMARK SMILES IDX 1 14
REMARK H PARENT
REMARK Flexibility Score: inf
ROOT
ATOM      1  C   UNL     1      -5.906  13.115   8.635  1.00  0.00    -0.077 C 
ATOM      2  C   UNL     1      -4.687  12.796   9.125  1.00  0.00    -0.028 C 
ATOM      3  C   UNL     1      -6.514  14.435   9.032  1.00  0.00     0.039 C 
ENDROOT
BRANCH   1   4
ATOM      4  C   UNL     1      -6.653  12.243   7.644  1.00  0.00     0.034 C 
BRANCH   4   5
ATOM      5  C   UNL     1      -6.030  12.358   6.249  1.00  0.00     0.032 C 
BRANCH   5   6
ATOM      6  C   UNL     1      -5.965  13.799   5.810  1.00  0.00    -0.028 C 
ATOM      7  C   UNL     1      -3.480  13.941   6.091  1.00  0.00     0.039 C 
ATOM      8  C   UNL     1      -4.830  14.531   5.758  1.00  0.00    -0.080 C 
ATOM      9  C   UNL     1      -4.926  15.975   5.337  1.00  0.00     0.039 C 
ENDBRANCH   5   6
ENDBRANCH   4   5
ENDBRANCH   1   4
BRANCH   2  10
ATOM     10  C   UNL     1      -3.946  11.513   8.831  1.00  0.00     0.035 C 
BRANCH  10  11
ATOM     11  C   UNL     1      -2.431  11.664   9.027  1.00  0.00     0.079 C 
BRANCH  11  12
ATOM     12  C   UNL     1      -1.671  10.530   8.387  1.00  0.00     0.130 C 
ATOM     13  O   UNL     1      -1.990  10.141   7.273  1.00  0.00    -0.300 OA
ATOM     14  C   UNL     1      -0.514   9.875   9.083  1.00  0.00     0.087 C 
ENDBRANCH  11  12
ENDBRANCH  10  11
ENDBRANCH   2  10
TORSDOF 6
ENDMDL
MODEL 2
REMARK VINA RESULT:    -1.169      2.161      4.901
REMARK INTER + INTRA:          -2.166
REMARK INTER:                  -1.856
REMARK INTRA:                  -0.309
REMARK UNBOUND:                -0.587
REMARK SMILES CC(=O)CCC=C(C)CCC=C(C)C
REMARK SMILES IDX 7 1 6 2 8 3 9 4 10 5 11 6 13 7 12 8 14 9 5 10 4 11 2 12 3 13
REMARK SMILES IDX 1 14
REMARK H PARENT
REMARK Flexibility Score: inf
ROOT
ATOM      1  C   UNL     1      -2.492  11.495   7.616  1.00  0.00    -0.077 C 
ATOM      2  C   UNL     1      -2.529  12.310   6.537  1.00  0.00    -0.028 C 
ATOM      3  C   UNL     1      -1.770  10.178   7.492  1.00  0.00     0.039 C 
ENDROOT
BRANCH   1   4
ATOM      4  C   UNL     1      -3.073  11.878   8.963  1.00  0.00     0.034 C 
BRANCH   4   5
ATOM      5  C   UNL     1      -4.483  11.303   9.125  1.00  0.00     0.032 C 
BRANCH   5   6
ATOM      6  C   UNL     1      -5.262  11.426   7.838  1.00  0.00    -0.028 C 
ATOM      7  C   UNL     1      -6.290  13.618   8.483  1.00  0.00     0.039 C 
ATOM      8  C   UNL     1      -6.097  12.447   7.547  1.00  0.00    -0.080 C 
ATOM      9  C   UNL     1      -6.840  12.414   6.235  1.00  0.00     0.039 C 
ENDBRANCH   5   6
ENDBRANCH   4   5
ENDBRANCH   1   4
BRANCH   2  10
ATOM     10  C   UNL     1      -3.215  13.655   6.495  1.00  0.00     0.035 C 
BRANCH  10  11
ATOM     11  C   UNL     1      -2.980  14.381   5.162  1.00  0.00     0.079 C 
BRANCH  11  12
ATOM     12  C   UNL     1      -4.147  15.262   4.794  1.00  0.00     0.130 C 
ATOM     13  O   UNL     1      -4.152  15.839   3.717  1.00  0.00    -0.300 OA
ATOM     14  C   UNL     1      -5.315  15.435   5.719  1.00  0.00     0.087 C 
ENDBRANCH  11  12
ENDBRANCH  10  11
ENDBRANCH   2  10
TORSDOF 6
ENDMDL
MODEL 3
REMARK VINA RESULT:    -1.104      0.899      1.647
REMARK INTER + INTRA:          -2.079
REMARK INTER:                  -1.732
REMARK INTRA:                  -0.347
REMARK UNBOUND:                -0.587
REMARK SMILES CC(=O)CCC=C(C)CCC=C(C)C
REMARK SMILES IDX 7 1 6 2 8 3 9 4 10 5 11 6 13 7 12 8 14 9 5 10 4 11 2 12 3 13
REMARK SMILES IDX 1 14
REMARK H PARENT
REMARK Flexibility Score: inf
ROOT
ATOM      1  C   UNL     1      -6.006  12.139   7.429  1.00  0.00    -0.077 C 
ATOM      2  C   UNL     1      -5.070  11.232   7.791  1.00  0.00    -0.028 C 
ATOM      3  C   UNL     1      -6.612  12.031   6.054  1.00  0.00     0.039 C 
ENDROOT
BRANCH   1   4
ATOM      4  C   UNL     1      -6.528  13.208   8.369  1.00  0.00     0.034 C 
BRANCH   4   5
ATOM      5  C   UNL     1      -5.638  14.455   8.315  1.00  0.00     0.032 C 
BRANCH   5   6
ATOM      6  C   UNL     1      -5.726  15.116   6.962  1.00  0.00    -0.028 C 
ATOM      7  C   UNL     1      -3.575  14.117   6.156  1.00  0.00     0.039 C 
ATOM      8  C   UNL     1      -4.794  14.994   5.991  1.00  0.00    -0.080 C 
ATOM      9  C   UNL     1      -4.998  15.748   4.702  1.00  0.00     0.039 C 
ENDBRANCH   5   6
ENDBRANCH   4   5
ENDBRANCH   1   4
BRANCH   2  10
ATOM     10  C   UNL     1      -4.362  11.207   9.125  1.00  0.00     0.035 C 
BRANCH  10  11
ATOM     11  C   UNL     1      -2.918  11.720   9.021  1.00  0.00     0.079 C 
BRANCH  11  12
ATOM     12  C   UNL     1      -2.091  10.872   8.088  1.00  0.00     0.130 C 
ATOM     13  O   UNL     1      -2.270  10.950   6.882  1.00  0.00    -0.300 OA
ATOM     14  C   UNL     1      -1.037   9.941   8.610  1.00  0.00     0.087 C 
ENDBRANCH  11  12
ENDBRANCH  10  11
ENDBRANCH   2  10
TORSDOF 6
ENDMDL
MODEL 4
REMARK VINA RESULT:    -0.426      2.242      5.042
REMARK INTER + INTRA:          -1.162
REMARK INTER:                  -0.530
REMARK INTRA:                  -0.631
REMARK UNBOUND:                -0.587
REMARK SMILES CC(=O)CCC=C(C)CCC=C(C)C
REMARK SMILES IDX 7 1 6 2 8 3 9 4 10 5 11 6 13 7 12 8 14 9 5 10 4 11 2 12 3 13
REMARK SMILES IDX 1 14
REMARK H PARENT
REMARK Flexibility Score: inf
ROOT
ATOM      1  C   UNL     1      -5.690  12.336   7.572  1.00  0.00    -0.077 C 
ATOM      2  C   UNL     1      -5.834  13.242   6.577  1.00  0.00    -0.028 C 
ATOM      3  C   UNL     1      -5.948  10.885   7.261  1.00  0.00     0.039 C 
ENDROOT
BRANCH   1   4
ATOM      4  C   UNL     1      -5.206  12.704   8.961  1.00  0.00     0.034 C 
BRANCH   4   5
ATOM      5  C   UNL     1      -3.712  13.043   8.939  1.00  0.00     0.032 C 
BRANCH   5   6
ATOM      6  C   UNL     1      -2.879  11.798   9.118  1.00  0.00    -0.028 C 
ATOM      7  C   UNL     1      -2.318  11.629   6.683  1.00  0.00     0.039 C 
ATOM      8  C   UNL     1      -2.267  11.137   8.111  1.00  0.00    -0.080 C 
ATOM      9  C   UNL     1      -1.500   9.882   8.437  1.00  0.00     0.039 C 
ENDBRANCH   5   6
ENDBRANCH   4   5
ENDBRANCH   1   4
BRANCH   2  10
ATOM     10  C   UNL     1      -5.622  14.729   6.727  1.00  0.00     0.035 C 
BRANCH  10  11
ATOM     11  C   UNL     1      -5.673  15.458   5.376  1.00  0.00     0.079 C 
BRANCH  11  12
ATOM     12  C   UNL     1      -4.332  15.451   4.688  1.00  0.00     0.130 C 
ATOM     13  O   UNL     1      -4.123  16.222   3.762  1.00  0.00    -0.300 OA
ATOM     14  C   UNL     1      -3.236  14.526   5.126  1.00  0.00     0.087 C 
ENDBRANCH  11  12
ENDBRANCH  10  11
ENDBRANCH   2  10
TORSDOF 6
ENDMDL
MODEL 5
REMARK VINA RESULT:    -0.384      1.137      1.685
REMARK INTER + INTRA:          -1.105
REMARK INTER:                  -0.590
REMARK INTRA:                  -0.515
REMARK UNBOUND:                -0.587
REMARK SMILES CC(=O)CCC=C(C)CCC=C(C)C
REMARK SMILES IDX 7 1 6 2 8 3 9 4 10 5 11 6 13 7 12 8 14 9 5 10 4 11 2 12 3 13
REMARK SMILES IDX 1 14
REMARK H PARENT
REMARK Flexibility Score: inf
ROOT
ATOM      1  C   UNL     1      -5.936  13.400   8.381  1.00  0.00    -0.077 C 
ATOM      2  C   UNL     1      -5.276  12.482   9.125  1.00  0.00    -0.028 C 
ATOM      3  C   UNL     1      -6.400  14.665   9.054  1.00  0.00     0.039 C 
ENDROOT
BRANCH   1   4
ATOM      4  C   UNL     1      -6.160  13.249   6.889  1.00  0.00     0.034 C 
BRANCH   4   5
ATOM      5  C   UNL     1      -5.007  13.883   6.105  1.00  0.00     0.032 C 
BRANCH   5   6
ATOM      6  C   UNL     1      -5.211  15.371   5.964  1.00  0.00    -0.028 C 
ATOM      7  C   UNL     1      -3.957  15.501   3.799  1.00  0.00     0.039 C 
ATOM      8  C   UNL     1      -4.724  16.116   4.947  1.00  0.00    -0.080 C 
ATOM      9  C   UNL     1      -4.975  17.602   4.961  1.00  0.00     0.039 C 
ENDBRANCH   5   6
ENDBRANCH   4   5
ENDBRANCH   1   4
BRANCH   2  10
ATOM     10  C   UNL     1      -4.755  11.163   8.606  1.00  0.00     0.035 C 
BRANCH  10  11
ATOM     11  C   UNL     1      -3.340  10.860   9.119  1.00  0.00     0.079 C 
BRANCH  11  12
ATOM     12  C   UNL     1      -2.330  10.859   8.000  1.00  0.00     0.130 C 
ATOM     13  O   UNL     1      -1.312  10.191   8.105  1.00  0.00    -0.300 OA
ATOM     14  C   UNL     1      -2.554  11.652   6.746  1.00  0.00     0.087 C 
ENDBRANCH  11  12
ENDBRANCH  10  11
ENDBRANCH   2  10
TORSDOF 6
ENDMDL
MODEL 6
REMARK VINA RESULT:    -0.168      1.557      4.457
REMARK INTER + INTRA:          -0.814
REMARK INTER:                  -1.446
REMARK INTRA:                   0.632
REMARK UNBOUND:                -0.587
REMARK SMILES CC(=O)CCC=C(C)CCC=C(C)C
REMARK SMILES IDX 7 1 6 2 8 3 9 4 10 5 11 6 13 7 12 8 14 9 5 10 4 11 2 12 3 13
REMARK SMILES IDX 1 14
REMARK H PARENT
REMARK Flexibility Score: inf
ROOT
ATOM      1  C   UNL     1      -4.499  14.378   6.460  1.00  0.00    -0.077 C 
ATOM      2  C   UNL     1      -5.630  14.666   7.144  1.00  0.00    -0.028 C 
ATOM      3  C   UNL     1      -4.397  14.830   5.026  1.00  0.00     0.039 C 
ENDROOT
BRANCH   1   4
ATOM      4  C   UNL     1      -3.302  13.694   7.090  1.00  0.00     0.034 C 
BRANCH   4   5
ATOM      5  C   UNL     1      -2.674  12.696   6.111  1.00  0.00     0.032 C 
BRANCH   5   6
ATOM      6  C   UNL     1      -2.387  11.383   6.797  1.00  0.00    -0.028 C 
ATOM      7  C   UNL     1      -2.189  12.428   9.065  1.00  0.00     0.039 C 
ATOM      8  C   UNL     1      -2.142  11.251   8.119  1.00  0.00    -0.080 C 
ATOM      9  C   UNL     1      -1.830   9.877   8.657  1.00  0.00     0.039 C 
ENDBRANCH   5   6
ENDBRANCH   4   5
ENDBRANCH   1   4
BRANCH   2  10
ATOM     10  C   UNL     1      -5.892  14.278   8.580  1.00  0.00     0.035 C 
BRANCH  10  11
ATOM     11  C   UNL     1      -6.686  12.968   8.687  1.00  0.00     0.079 C 
BRANCH  11  12
ATOM     12  C   UNL     1      -5.884  11.789   8.198  1.00  0.00     0.130 C 
ATOM     13  O   UNL     1      -5.143  11.199   8.970  1.00  0.00    -0.300 OA
ATOM     14  C   UNL     1      -5.988  11.310   6.780  1.00  0.00     0.087 C 
ENDBRANCH  11  12
ENDBRANCH  10  11
ENDBRANCH   2  10
TORSDOF 6
ENDMDL
MODEL 7
REMARK VINA RESULT:    -0.055      2.314      4.975
REMARK INTER + INTRA:          -0.662
REMARK INTER:                   0.020
REMARK INTRA:                  -0.682
REMARK UNBOUND:                -0.587
REMARK SMILES CC(=O)CCC=C(C)CCC=C(C)C
REMARK SMILES IDX 7 1 6 2 8 3 9 4 10 5 11 6 13 7 12 8 14 9 5 10 4 11 2 12 3 13
REMARK SMILES IDX 1 14
REMARK H PARENT
REMARK Flexibility Score: inf
ROOT
ATOM      1  C   UNL     1      -6.002  13.910   8.354  1.00  0.00    -0.077 C 
ATOM      2  C   UNL     1      -5.982  14.446   7.112  1.00  0.00    -0.028 C 
ATOM      3  C   UNL     1      -7.296  13.942   9.125  1.00  0.00     0.039 C 
ENDROOT
BRANCH   1   4
ATOM      4  C   UNL     1      -4.808  13.210   8.972  1.00  0.00     0.034 C 
BRANCH   4   5
ATOM      5  C   UNL     1      -4.913  11.694   8.780  1.00  0.00     0.032 C 
BRANCH   5   6
ATOM      6  C   UNL     1      -3.607  11.020   9.120  1.00  0.00    -0.028 C 
ATOM      7  C   UNL     1      -2.634  11.399   6.843  1.00  0.00     0.039 C 
ATOM      8  C   UNL     1      -2.583  10.858   8.253  1.00  0.00    -0.080 C 
ATOM      9  C   UNL     1      -1.352  10.127   8.724  1.00  0.00     0.039 C 
ENDBRANCH   5   6
ENDBRANCH   4   5
ENDBRANCH   1   4
BRANCH   2  10
ATOM     10  C   UNL     1      -4.768  14.501   6.215  1.00  0.00     0.035 C 
BRANCH  10  11
ATOM     11  C   UNL     1      -4.901  15.578   5.128  1.00  0.00     0.079 C 
BRANCH  11  12
ATOM     12  C   UNL     1      -3.901  15.377   4.019  1.00  0.00     0.130 C 
ATOM     13  O   UNL     1      -4.128  15.837   2.910  1.00  0.00    -0.300 OA
ATOM     14  C   UNL     1      -2.618  14.634   4.250  1.00  0.00     0.087 C 
ENDBRANCH  11  12
ENDBRANCH  10  11
ENDBRANCH   2  10
TORSDOF 6
ENDMDL
MODEL 8
REMARK VINA RESULT:     0.709      0.966      3.172
REMARK INTER + INTRA:           0.371
REMARK INTER:                   0.638
REMARK INTRA:                  -0.267
REMARK UNBOUND:                -0.587
REMARK SMILES CC(=O)CCC=C(C)CCC=C(C)C
REMARK SMILES IDX 7 1 6 2 8 3 9 4 10 5 11 6 13 7 12 8 14 9 5 10 4 11 2 12 3 13
REMARK SMILES IDX 1 14
REMARK H PARENT
REMARK Flexibility Score: inf
ROOT
ATOM      1  C   UNL     1      -3.091  13.678   6.157  1.00  0.00    -0.077 C 
ATOM      2  C   UNL     1      -2.580  12.796   7.046  1.00  0.00    -0.028 C 
ATOM      3  C   UNL     1      -2.658  13.573   4.718  1.00  0.00     0.039 C 
ENDROOT
BRANCH   1   4
ATOM      4  C   UNL     1      -4.135  14.713   6.526  1.00  0.00     0.034 C 
BRANCH   4   5
ATOM      5  C   UNL     1      -5.531  14.246   6.099  1.00  0.00     0.032 C 
BRANCH   5   6
ATOM      6  C   UNL     1      -5.845  12.893   6.687  1.00  0.00    -0.028 C 
ATOM      7  C   UNL     1      -6.375  13.821   8.952  1.00  0.00     0.039 C 
ATOM      8  C   UNL     1      -6.200  12.684   7.973  1.00  0.00    -0.080 C 
ATOM      9  C   UNL     1      -6.445  11.268   8.429  1.00  0.00     0.039 C 
ENDBRANCH   5   6
ENDBRANCH   4   5
ENDBRANCH   1   4
BRANCH   2  10
ATOM     10  C   UNL     1      -2.904  12.772   8.521  1.00  0.00     0.035 C 
BRANCH  10  11
ATOM     11  C   UNL     1      -3.010  11.339   9.065  1.00  0.00     0.079 C 
BRANCH  11  12
ATOM     12  C   UNL     1      -1.975  10.431   8.450  1.00  0.00     0.130 C 
ATOM     13  O   UNL     1      -2.203   9.897   7.375  1.00  0.00    -0.300 OA
ATOM     14  C   UNL     1      -0.659  10.180   9.124  1.00  0.00     0.087 C 
ENDBRANCH  11  12
ENDBRANCH  10  11
ENDBRANCH   2  10
TORSDOF 6
ENDMDL
