MODEL 1
REMARK VINA RESULT:    -3.395      0.000      0.000
REMARK INTER + INTRA:          -7.756
REMARK INTER:                  -5.976
REMARK INTRA:                  -1.781
REMARK UNBOUND:                -1.781
REMARK SMILES CCCCCCCCCCCCCCC(=O)[O-]
REMARK SMILES IDX 9 1 10 2 11 3 12 4 13 5 14 6 15 7 16 8 17 9 8 10 7 11 6 12
REMARK SMILES IDX 5 13 4 14 3 15 2 16 1 17
REMARK H PARENT
REMARK Flexibility Score: inf
ROOT
ATOM      1  C   UNL     1      61.111  33.989  60.624  1.00  0.00     0.000 C 
ENDROOT
BRANCH   1   2
ATOM      2  C   UNL     1      60.807  32.931  59.552  1.00  0.00     0.000 C 
BRANCH   2   3
ATOM      3  C   UNL     1      60.716  31.510  60.130  1.00  0.00     0.000 C 
BRANCH   3   4
ATOM      4  C   UNL     1      60.927  31.474  61.650  1.00  0.00     0.000 C 
BRANCH   4   5
ATOM      5  C   UNL     1      61.869  30.327  62.047  1.00  0.00     0.006 C 
BRANCH   5   6
ATOM      6  C   UNL     1      61.726  29.111  61.123  1.00  0.00     0.053 C 
BRANCH   6   7
ATOM      7  C   UNL     1      62.415  27.903  61.681  1.00  0.00     0.041 C 
ATOM      8  O   UNL     1      63.598  27.638  61.343  1.00  0.00    -0.550 OA
ATOM      9  O   UNL     1      61.737  27.052  62.544  1.00  0.00    -0.550 OA
ENDBRANCH   6   7
ENDBRANCH   5   6
ENDBRANCH   4   5
ENDBRANCH   3   4
ENDBRANCH   2   3
ENDBRANCH   1   2
BRANCH   1  10
ATOM     10  C   UNL     1      61.316  35.370  59.992  1.00  0.00     0.000 C 
BRANCH  10  11
ATOM     11  C   UNL     1      61.679  36.414  61.058  1.00  0.00    -0.000 C 
BRANCH  11  12
ATOM     12  C   UNL     1      63.099  36.976  60.882  1.00  0.00    -0.000 C 
BRANCH  12  13
ATOM     13  C   UNL     1      64.112  36.332  61.842  1.00  0.00    -0.000 C 
BRANCH  13  14
ATOM     14  C   UNL     1      64.878  35.158  61.204  1.00  0.00    -0.000 C 
BRANCH  14  15
ATOM     15  C   UNL     1      64.375  33.754  61.596  1.00  0.00    -0.000 C 
BRANCH  15  16
ATOM     16  C   UNL     1      64.461  32.697  60.480  1.00  0.00    -0.003 C 
ATOM     17  C   UNL     1      64.504  33.311  59.081  1.00  0.00     0.004 C 
ENDBRANCH  15  16
ENDBRANCH  14  15
ENDBRANCH  13  14
ENDBRANCH  12  13
ENDBRANCH  11  12
ENDBRANCH  10  11
ENDBRANCH   1  10
TORSDOF 13
ENDMDL
MODEL 2
REMARK VINA RESULT:    -3.348      3.546      5.946
REMARK INTER + INTRA:          -7.673
REMARK INTER:                  -5.607
REMARK INTRA:                  -2.065
REMARK UNBOUND:                -1.781
REMARK SMILES CCCCCCCCCCCCCCC(=O)[O-]
REMARK SMILES IDX 9 1 10 2 11 3 12 4 13 5 14 6 15 7 16 8 17 9 8 10 7 11 6 12
REMARK SMILES IDX 5 13 4 14 3 15 2 16 1 17
REMARK H PARENT
REMARK Flexibility Score: inf
ROOT
ATOM      1  C   UNL     1      61.529  33.587  59.571  1.00  0.00     0.000 C 
ENDROOT
BRANCH   1   2
ATOM      2  C   UNL     1      61.508  34.382  60.886  1.00  0.00     0.000 C 
BRANCH   2   3
ATOM      3  C   UNL     1      62.729  35.301  61.043  1.00  0.00     0.000 C 
BRANCH   3   4
ATOM      4  C   UNL     1      63.988  34.541  61.486  1.00  0.00     0.000 C 
BRANCH   4   5
ATOM      5  C   UNL     1      65.190  35.491  61.604  1.00  0.00     0.006 C 
BRANCH   5   6
ATOM      6  C   UNL     1      65.120  36.645  60.596  1.00  0.00     0.053 C 
BRANCH   6   7
ATOM      7  C   UNL     1      65.684  36.257  59.264  1.00  0.00     0.041 C 
ATOM      8  O   UNL     1      64.916  36.049  58.288  1.00  0.00    -0.550 OA
ATOM      9  O   UNL     1      67.054  36.091  59.109  1.00  0.00    -0.550 OA
ENDBRANCH   6   7
ENDBRANCH   5   6
ENDBRANCH   4   5
ENDBRANCH   3   4
ENDBRANCH   2   3
ENDBRANCH   1   2
BRANCH   1  10
ATOM     10  C   UNL     1      60.961  32.178  59.771  1.00  0.00     0.000 C 
BRANCH  10  11
ATOM     11  C   UNL     1      60.884  31.823  61.264  1.00  0.00    -0.000 C 
BRANCH  11  12
ATOM     12  C   UNL     1      61.135  30.331  61.535  1.00  0.00    -0.000 C 
BRANCH  12  13
ATOM     13  C   UNL     1      62.522  29.869  61.056  1.00  0.00    -0.000 C 
BRANCH  13  14
ATOM     14  C   UNL     1      63.670  30.693  61.668  1.00  0.00    -0.000 C 
BRANCH  14  15
ATOM     15  C   UNL     1      64.871  30.943  60.733  1.00  0.00    -0.000 C 
BRANCH  15  16
ATOM     16  C   UNL     1      64.505  31.224  59.265  1.00  0.00    -0.003 C 
ATOM     17  C   UNL     1      65.106  32.527  58.741  1.00  0.00     0.004 C 
ENDBRANCH  15  16
ENDBRANCH  14  15
ENDBRANCH  13  14
ENDBRANCH  12  13
ENDBRANCH  11  12
ENDBRANCH  10  11
ENDBRANCH   1  10
TORSDOF 13
ENDMDL
MODEL 3
REMARK VINA RESULT:    -3.261      3.525      6.404
REMARK INTER + INTRA:          -7.521
REMARK INTER:                  -5.152
REMARK INTRA:                  -2.369
REMARK UNBOUND:                -1.781
REMARK SMILES CCCCCCCCCCCCCCC(=O)[O-]
REMARK SMILES IDX 9 1 10 2 11 3 12 4 13 5 14 6 15 7 16 8 17 9 8 10 7 11 6 12
REMARK SMILES IDX 5 13 4 14 3 15 2 16 1 17
REMARK H PARENT
REMARK Flexibility Score: inf
ROOT
ATOM      1  C   UNL     1      64.251  30.409  59.151  1.00  0.00     0.000 C 
ENDROOT
BRANCH   1   2
ATOM      2  C   UNL     1      64.238  31.923  59.415  1.00  0.00     0.000 C 
BRANCH   2   3
ATOM      3  C   UNL     1      64.488  32.270  60.891  1.00  0.00     0.000 C 
BRANCH   3   4
ATOM      4  C   UNL     1      64.112  33.719  61.230  1.00  0.00     0.000 C 
BRANCH   4   5
ATOM      5  C   UNL     1      63.089  34.272  60.225  1.00  0.00     0.006 C 
BRANCH   5   6
ATOM      6  C   UNL     1      61.800  34.745  60.909  1.00  0.00     0.053 C 
BRANCH   6   7
ATOM      7  C   UNL     1      61.755  36.236  61.043  1.00  0.00     0.041 C 
ATOM      8  O   UNL     1      60.750  36.878  60.640  1.00  0.00    -0.550 OA
ATOM      9  O   UNL     1      62.838  36.919  61.582  1.00  0.00    -0.550 OA
ENDBRANCH   6   7
ENDBRANCH   5   6
ENDBRANCH   4   5
ENDBRANCH   3   4
ENDBRANCH   2   3
ENDBRANCH   1   2
BRANCH   1  10
ATOM     10  C   UNL     1      64.105  29.621  60.458  1.00  0.00     0.000 C 
BRANCH  10  11
ATOM     11  C   UNL     1      62.987  28.574  60.347  1.00  0.00    -0.000 C 
BRANCH  11  12
ATOM     12  C   UNL     1      61.865  28.790  61.376  1.00  0.00    -0.000 C 
BRANCH  12  13
ATOM     13  C   UNL     1      61.994  30.131  62.117  1.00  0.00    -0.000 C 
BRANCH  13  14
ATOM     14  C   UNL     1      60.944  31.165  61.669  1.00  0.00    -0.000 C 
BRANCH  14  15
ATOM     15  C   UNL     1      60.228  30.842  60.342  1.00  0.00    -0.000 C 
BRANCH  15  16
ATOM     16  C   UNL     1      60.498  31.835  59.199  1.00  0.00    -0.003 C 
ATOM     17  C   UNL     1      60.868  31.146  57.886  1.00  0.00     0.004 C 
ENDBRANCH  15  16
ENDBRANCH  14  15
ENDBRANCH  13  14
ENDBRANCH  12  13
ENDBRANCH  11  12
ENDBRANCH  10  11
ENDBRANCH   1  10
TORSDOF 13
ENDMDL
MODEL 4
REMARK VINA RESULT:    -3.257     11.524     13.484
REMARK INTER + INTRA:          -7.512
REMARK INTER:                  -5.336
REMARK INTRA:                  -2.176
REMARK UNBOUND:                -1.781
REMARK SMILES CCCCCCCCCCCCCCC(=O)[O-]
REMARK SMILES IDX 9 1 10 2 11 3 12 4 13 5 14 6 15 7 16 8 17 9 8 10 7 11 6 12
REMARK SMILES IDX 5 13 4 14 3 15 2 16 1 17
REMARK H PARENT
REMARK Flexibility Score: inf
ROOT
ATOM      1  C   UNL     1      59.545  26.006  52.278  1.00  0.00     0.000 C 
ENDROOT
BRANCH   1   2
ATOM      2  C   UNL     1      58.092  25.714  52.686  1.00  0.00     0.000 C 
BRANCH   2   3
ATOM      3  C   UNL     1      57.076  26.573  51.916  1.00  0.00     0.000 C 
BRANCH   3   4
ATOM      4  C   UNL     1      56.701  25.969  50.556  1.00  0.00     0.000 C 
BRANCH   4   5
ATOM      5  C   UNL     1      55.469  26.671  49.963  1.00  0.00     0.006 C 
BRANCH   5   6
ATOM      6  C   UNL     1      55.432  28.166  50.306  1.00  0.00     0.053 C 
BRANCH   6   7
ATOM      7  C   UNL     1      54.045  28.725  50.212  1.00  0.00     0.041 C 
ATOM      8  O   UNL     1      53.806  29.894  50.614  1.00  0.00    -0.550 OA
ATOM      9  O   UNL     1      53.012  27.943  49.714  1.00  0.00    -0.550 OA
ENDBRANCH   6   7
ENDBRANCH   5   6
ENDBRANCH   4   5
ENDBRANCH   3   4
ENDBRANCH   2   3
ENDBRANCH   1   2
BRANCH   1  10
ATOM     10  C   UNL     1      60.113  24.871  51.419  1.00  0.00     0.000 C 
BRANCH  10  11
ATOM     11  C   UNL     1      60.434  25.364  50.000  1.00  0.00    -0.000 C 
BRANCH  11  12
ATOM     12  C   UNL     1      61.547  26.425  49.976  1.00  0.00    -0.000 C 
BRANCH  12  13
ATOM     13  C   UNL     1      61.120  27.710  49.247  1.00  0.00    -0.000 C 
BRANCH  13  14
ATOM     14  C   UNL     1      59.594  27.818  49.068  1.00  0.00    -0.000 C 
BRANCH  14  15
ATOM     15  C   UNL     1      58.958  29.110  49.619  1.00  0.00    -0.000 C 
BRANCH  15  16
ATOM     16  C   UNL     1      59.450  29.534  51.014  1.00  0.00    -0.003 C 
ATOM     17  C   UNL     1      58.312  29.951  51.945  1.00  0.00     0.004 C 
ENDBRANCH  15  16
ENDBRANCH  14  15
ENDBRANCH  13  14
ENDBRANCH  12  13
ENDBRANCH  11  12
ENDBRANCH  10  11
ENDBRANCH   1  10
TORSDOF 13
ENDMDL
MODEL 5
REMARK VINA RESULT:    -3.253      3.174      5.814
REMARK INTER + INTRA:          -7.506
REMARK INTER:                  -5.832
REMARK INTRA:                  -1.674
REMARK UNBOUND:                -1.781
REMARK SMILES CCCCCCCCCCCCCCC(=O)[O-]
REMARK SMILES IDX 9 1 10 2 11 3 12 4 13 5 14 6 15 7 16 8 17 9 8 10 7 11 6 12
REMARK SMILES IDX 5 13 4 14 3 15 2 16 1 17
REMARK H PARENT
REMARK Flexibility Score: inf
ROOT
ATOM      1  C   UNL     1      61.255  31.865  60.653  1.00  0.00     0.000 C 
ENDROOT
BRANCH   1   2
ATOM      2  C   UNL     1      61.794  33.275  60.944  1.00  0.00     0.000 C 
BRANCH   2   3
ATOM      3  C   UNL     1      61.140  34.352  60.065  1.00  0.00     0.000 C 
BRANCH   3   4
ATOM      4  C   UNL     1      61.213  35.752  60.692  1.00  0.00     0.000 C 
BRANCH   4   5
ATOM      5  C   UNL     1      62.565  35.973  61.388  1.00  0.00     0.006 C 
BRANCH   5   6
ATOM      6  C   UNL     1      63.635  36.504  60.425  1.00  0.00     0.053 C 
BRANCH   6   7
ATOM      7  C   UNL     1      64.998  35.982  60.763  1.00  0.00     0.041 C 
ATOM      8  O   UNL     1      65.906  35.974  59.892  1.00  0.00    -0.550 OA
ATOM      9  O   UNL     1      65.253  35.472  62.029  1.00  0.00    -0.550 OA
ENDBRANCH   6   7
ENDBRANCH   5   6
ENDBRANCH   4   5
ENDBRANCH   3   4
ENDBRANCH   2   3
ENDBRANCH   1   2
BRANCH   1  10
ATOM     10  C   UNL     1      60.940  31.118  61.954  1.00  0.00     0.000 C 
BRANCH  10  11
ATOM     11  C   UNL     1      61.727  29.801  62.036  1.00  0.00    -0.000 C 
BRANCH  11  12
ATOM     12  C   UNL     1      63.229  29.988  61.764  1.00  0.00    -0.000 C 
BRANCH  12  13
ATOM     13  C   UNL     1      63.728  29.123  60.595  1.00  0.00    -0.000 C 
BRANCH  13  14
ATOM     14  C   UNL     1      64.355  29.955  59.460  1.00  0.00    -0.000 C 
BRANCH  14  15
ATOM     15  C   UNL     1      65.224  31.144  59.919  1.00  0.00    -0.000 C 
BRANCH  15  16
ATOM     16  C   UNL     1      64.866  32.496  59.279  1.00  0.00    -0.003 C 
ATOM     17  C   UNL     1      63.954  32.355  58.060  1.00  0.00     0.004 C 
ENDBRANCH  15  16
ENDBRANCH  14  15
ENDBRANCH  13  14
ENDBRANCH  12  13
ENDBRANCH  11  12
ENDBRANCH  10  11
ENDBRANCH   1  10
TORSDOF 13
ENDMDL
MODEL 6
REMARK VINA RESULT:    -3.233      1.664      2.720
REMARK INTER + INTRA:          -7.471
REMARK INTER:                  -5.162
REMARK INTRA:                  -2.310
REMARK UNBOUND:                -1.781
REMARK SMILES CCCCCCCCCCCCCCC(=O)[O-]
REMARK SMILES IDX 9 1 10 2 11 3 12 4 13 5 14 6 15 7 16 8 17 9 8 10 7 11 6 12
REMARK SMILES IDX 5 13 4 14 3 15 2 16 1 17
REMARK H PARENT
REMARK Flexibility Score: inf
ROOT
ATOM      1  C   UNL     1      60.702  30.956  60.298  1.00  0.00     0.000 C 
ENDROOT
BRANCH   1   2
ATOM      2  C   UNL     1      60.998  30.865  61.803  1.00  0.00     0.000 C 
BRANCH   2   3
ATOM      3  C   UNL     1      62.257  30.040  62.111  1.00  0.00     0.000 C 
BRANCH   3   4
ATOM      4  C   UNL     1      62.647  29.102  60.959  1.00  0.00     0.000 C 
BRANCH   4   5
ATOM      5  C   UNL     1      62.955  27.690  61.480  1.00  0.00     0.006 C 
BRANCH   5   6
ATOM      6  C   UNL     1      61.723  27.016  62.097  1.00  0.00     0.053 C 
BRANCH   6   7
ATOM      7  C   UNL     1      60.582  26.946  61.128  1.00  0.00     0.041 C 
ATOM      8  O   UNL     1      60.677  26.241  60.089  1.00  0.00    -0.550 OA
ATOM      9  O   UNL     1      59.430  27.687  61.355  1.00  0.00    -0.550 OA
ENDBRANCH   6   7
ENDBRANCH   5   6
ENDBRANCH   4   5
ENDBRANCH   3   4
ENDBRANCH   2   3
ENDBRANCH   1   2
BRANCH   1  10
ATOM     10  C   UNL     1      60.723  32.412  59.820  1.00  0.00     0.000 C 
BRANCH  10  11
ATOM     11  C   UNL     1      61.356  33.328  60.879  1.00  0.00    -0.000 C 
BRANCH  11  12
ATOM     12  C   UNL     1      62.087  34.532  60.263  1.00  0.00    -0.000 C 
BRANCH  12  13
ATOM     13  C   UNL     1      63.616  34.394  60.336  1.00  0.00    -0.000 C 
BRANCH  13  14
ATOM     14  C   UNL     1      64.067  33.124  61.083  1.00  0.00    -0.000 C 
BRANCH  14  15
ATOM     15  C   UNL     1      64.743  32.050  60.206  1.00  0.00    -0.000 C 
BRANCH  15  16
ATOM     16  C   UNL     1      64.592  32.260  58.689  1.00  0.00    -0.003 C 
ATOM     17  C   UNL     1      63.731  31.188  58.022  1.00  0.00     0.004 C 
ENDBRANCH  15  16
ENDBRANCH  14  15
ENDBRANCH  13  14
ENDBRANCH  12  13
ENDBRANCH  11  12
ENDBRANCH  10  11
ENDBRANCH   1  10
TORSDOF 13
ENDMDL
MODEL 7
REMARK VINA RESULT:    -3.216      3.199      5.507
REMARK INTER + INTRA:          -7.441
REMARK INTER:                  -5.267
REMARK INTRA:                  -2.174
REMARK UNBOUND:                -1.781
REMARK SMILES CCCCCCCCCCCCCCC(=O)[O-]
REMARK SMILES IDX 9 1 10 2 11 3 12 4 13 5 14 6 15 7 16 8 17 9 8 10 7 11 6 12
REMARK SMILES IDX 5 13 4 14 3 15 2 16 1 17
REMARK H PARENT
REMARK Flexibility Score: inf
ROOT
ATOM      1  C   UNL     1      60.772  31.625  58.144  1.00  0.00     0.000 C 
ENDROOT
BRANCH   1   2
ATOM      2  C   UNL     1      61.599  32.906  58.338  1.00  0.00     0.000 C 
BRANCH   2   3
ATOM      3  C   UNL     1      60.725  34.140  58.613  1.00  0.00     0.000 C 
BRANCH   3   4
ATOM      4  C   UNL     1      60.883  34.669  60.046  1.00  0.00     0.000 C 
BRANCH   4   5
ATOM      5  C   UNL     1      62.332  34.513  60.533  1.00  0.00     0.006 C 
BRANCH   5   6
ATOM      6  C   UNL     1      62.823  35.747  61.302  1.00  0.00     0.053 C 
BRANCH   6   7
ATOM      7  C   UNL     1      64.319  35.814  61.351  1.00  0.00     0.041 C 
ATOM      8  O   UNL     1      64.954  35.142  62.205  1.00  0.00    -0.550 OA
ATOM      9  O   UNL     1      65.007  36.645  60.476  1.00  0.00    -0.550 OA
ENDBRANCH   6   7
ENDBRANCH   5   6
ENDBRANCH   4   5
ENDBRANCH   3   4
ENDBRANCH   2   3
ENDBRANCH   1   2
BRANCH   1  10
ATOM     10  C   UNL     1      61.081  30.600  59.241  1.00  0.00     0.000 C 
BRANCH  10  11
ATOM     11  C   UNL     1      60.431  31.008  60.572  1.00  0.00    -0.000 C 
BRANCH  11  12
ATOM     12  C   UNL     1      61.439  31.066  61.733  1.00  0.00    -0.000 C 
BRANCH  12  13
ATOM     13  C   UNL     1      62.284  29.786  61.844  1.00  0.00    -0.000 C 
BRANCH  13  14
ATOM     14  C   UNL     1      63.795  30.055  61.720  1.00  0.00    -0.000 C 
BRANCH  14  15
ATOM     15  C   UNL     1      64.177  31.498  61.332  1.00  0.00    -0.000 C 
BRANCH  15  16
ATOM     16  C   UNL     1      64.707  31.668  59.898  1.00  0.00    -0.003 C 
ATOM     17  C   UNL     1      64.863  30.339  59.160  1.00  0.00     0.004 C 
ENDBRANCH  15  16
ENDBRANCH  14  15
ENDBRANCH  13  14
ENDBRANCH  12  13
ENDBRANCH  11  12
ENDBRANCH  10  11
ENDBRANCH   1  10
TORSDOF 13
ENDMDL
MODEL 8
REMARK VINA RESULT:    -3.209      1.938      5.699
REMARK INTER + INTRA:          -7.429
REMARK INTER:                  -5.492
REMARK INTRA:                  -1.936
REMARK UNBOUND:                -1.781
REMARK SMILES CCCCCCCCCCCCCCC(=O)[O-]
REMARK SMILES IDX 9 1 10 2 11 3 12 4 13 5 14 6 15 7 16 8 17 9 8 10 7 11 6 12
REMARK SMILES IDX 5 13 4 14 3 15 2 16 1 17
REMARK H PARENT
REMARK Flexibility Score: inf
ROOT
ATOM      1  C   UNL     1      60.796  32.465  59.725  1.00  0.00     0.000 C 
ENDROOT
BRANCH   1   2
ATOM      2  C   UNL     1      61.152  33.438  60.860  1.00  0.00     0.000 C 
BRANCH   2   3
ATOM      3  C   UNL     1      61.921  34.672  60.364  1.00  0.00     0.000 C 
BRANCH   3   4
ATOM      4  C   UNL     1      63.256  34.872  61.097  1.00  0.00     0.000 C 
BRANCH   4   5
ATOM      5  C   UNL     1      64.013  33.541  61.233  1.00  0.00     0.006 C 
BRANCH   5   6
ATOM      6  C   UNL     1      64.658  33.102  59.912  1.00  0.00     0.053 C 
BRANCH   6   7
ATOM      7  C   UNL     1      64.604  31.616  59.733  1.00  0.00     0.041 C 
ATOM      8  O   UNL     1      63.921  31.115  58.800  1.00  0.00    -0.550 OA
ATOM      9  O   UNL     1      65.278  30.783  60.616  1.00  0.00    -0.550 OA
ENDBRANCH   6   7
ENDBRANCH   5   6
ENDBRANCH   4   5
ENDBRANCH   3   4
ENDBRANCH   2   3
ENDBRANCH   1   2
BRANCH   1  10
ATOM     10  C   UNL     1      60.701  31.026  60.244  1.00  0.00     0.000 C 
BRANCH  10  11
ATOM     11  C   UNL     1      60.983  30.966  61.753  1.00  0.00    -0.000 C 
BRANCH  11  12
ATOM     12  C   UNL     1      62.189  30.076  62.097  1.00  0.00    -0.000 C 
BRANCH  12  13
ATOM     13  C   UNL     1      62.248  28.804  61.236  1.00  0.00    -0.000 C 
BRANCH  13  14
ATOM     14  C   UNL     1      61.869  27.533  62.019  1.00  0.00    -0.000 C 
BRANCH  14  15
ATOM     15  C   UNL     1      60.638  26.773  61.482  1.00  0.00    -0.000 C 
BRANCH  15  16
ATOM     16  C   UNL     1      59.377  27.633  61.288  1.00  0.00    -0.003 C 
ATOM     17  C   UNL     1      58.957  27.752  59.823  1.00  0.00     0.004 C 
ENDBRANCH  15  16
ENDBRANCH  14  15
ENDBRANCH  13  14
ENDBRANCH  12  13
ENDBRANCH  11  12
ENDBRANCH  10  11
ENDBRANCH   1  10
TORSDOF 13
ENDMDL
MODEL 9
REMARK VINA RESULT:    -3.152      1.275      3.138
REMARK INTER + INTRA:          -7.329
REMARK INTER:                  -5.240
REMARK INTRA:                  -2.089
REMARK UNBOUND:                -1.781
REMARK SMILES CCCCCCCCCCCCCCC(=O)[O-]
REMARK SMILES IDX 9 1 10 2 11 3 12 4 13 5 14 6 15 7 16 8 17 9 8 10 7 11 6 12
REMARK SMILES IDX 5 13 4 14 3 15 2 16 1 17
REMARK H PARENT
REMARK Flexibility Score: inf
ROOT
ATOM      1  C   UNL     1      65.188  33.247  58.647  1.00  0.00     0.000 C 
ENDROOT
BRANCH   1   2
ATOM      2  C   UNL     1      64.230  32.070  58.886  1.00  0.00     0.000 C 
BRANCH   2   3
ATOM      3  C   UNL     1      64.770  31.065  59.915  1.00  0.00     0.000 C 
BRANCH   3   4
ATOM      4  C   UNL     1      64.162  31.263  61.311  1.00  0.00     0.000 C 
BRANCH   4   5
ATOM      5  C   UNL     1      62.640  31.455  61.226  1.00  0.00     0.006 C 
BRANCH   5   6
ATOM      6  C   UNL     1      61.873  30.375  62.000  1.00  0.00     0.053 C 
BRANCH   6   7
ATOM      7  C   UNL     1      61.963  29.039  61.330  1.00  0.00     0.041 C 
ATOM      8  O   UNL     1      61.480  28.875  60.178  1.00  0.00    -0.550 OA
ATOM      9  O   UNL     1      62.547  27.966  61.990  1.00  0.00    -0.550 OA
ENDBRANCH   6   7
ENDBRANCH   5   6
ENDBRANCH   4   5
ENDBRANCH   3   4
ENDBRANCH   2   3
ENDBRANCH   1   2
BRANCH   1  10
ATOM     10  C   UNL     1      64.529  34.578  59.026  1.00  0.00     0.000 C 
BRANCH  10  11
ATOM     11  C   UNL     1      64.933  35.006  60.445  1.00  0.00    -0.000 C 
BRANCH  11  12
ATOM     12  C   UNL     1      63.744  35.031  61.420  1.00  0.00    -0.000 C 
BRANCH  12  13
ATOM     13  C   UNL     1      62.953  36.347  61.353  1.00  0.00    -0.000 C 
BRANCH  13  14
ATOM     14  C   UNL     1      61.502  36.150  60.875  1.00  0.00    -0.000 C 
BRANCH  14  15
ATOM     15  C   UNL     1      61.125  34.702  60.500  1.00  0.00    -0.000 C 
BRANCH  15  16
ATOM     16  C   UNL     1      60.760  34.487  59.021  1.00  0.00    -0.003 C 
ATOM     17  C   UNL     1      60.630  33.010  58.648  1.00  0.00     0.004 C 
ENDBRANCH  15  16
ENDBRANCH  14  15
ENDBRANCH  13  14
ENDBRANCH  12  13
ENDBRANCH  11  12
ENDBRANCH  10  11
ENDBRANCH   1  10
TORSDOF 13
ENDMDL
