MODEL 1
REMARK VINA RESULT:    -0.686      0.000      0.000
REMARK INTER + INTRA:          -4.223
REMARK INTER:                  -1.248
REMARK INTRA:                  -2.976
REMARK UNBOUND:                -2.976
REMARK SMILES CCCCCCCCCCCCCC[C@H](C)C(=O)[O-]
REMARK SMILES IDX 9 1 10 2 11 3 12 4 13 5 14 6 15 7 16 8 17 9 18 10 19 11 8 12
REMARK SMILES IDX 7 13 6 14 5 15 4 16 3 17 2 18 1 19
REMARK H PARENT
REMARK Flexibility Score: inf
ROOT
ATOM      1  C   UNL     1      38.605   4.380  37.534  1.00  0.00     0.000 C 
ENDROOT
BRANCH   1   2
ATOM      2  C   UNL     1      37.422   3.651  38.197  1.00  0.00     0.000 C 
BRANCH   2   3
ATOM      3  C   UNL     1      36.262   4.596  38.553  1.00  0.00     0.000 C 
BRANCH   3   4
ATOM      4  C   UNL     1      36.603   6.073  38.291  1.00  0.00     0.000 C 
BRANCH   4   5
ATOM      5  C   UNL     1      36.816   6.871  39.586  1.00  0.00     0.001 C 
BRANCH   5   6
ATOM      6  C   UNL     1      38.104   7.707  39.510  1.00  0.00     0.009 C 
BRANCH   6   7
ATOM      7  C   UNL     1      38.406   8.434  40.837  1.00  0.00     0.032 C 
ATOM      8  C   UNL     1      37.261   8.233  41.836  1.00  0.00     0.014 C 
BRANCH   7   9
ATOM      9  C   UNL     1      38.643   9.905  40.619  1.00  0.00     0.044 C 
ATOM     10  O   UNL     1      39.565  10.299  39.855  1.00  0.00    -0.550 OA
ATOM     11  O   UNL     1      37.840  10.839  41.260  1.00  0.00    -0.550 OA
ENDBRANCH   7   9
ENDBRANCH   6   7
ENDBRANCH   5   6
ENDBRANCH   4   5
ENDBRANCH   3   4
ENDBRANCH   2   3
ENDBRANCH   1   2
BRANCH   1  12
ATOM     12  C   UNL     1      39.903   4.426  38.369  1.00  0.00     0.000 C 
BRANCH  12  13
ATOM     13  C   UNL     1      39.791   3.828  39.784  1.00  0.00    -0.000 C 
BRANCH  13  14
ATOM     14  C   UNL     1      40.085   4.816  40.929  1.00  0.00    -0.000 C 
BRANCH  14  15
ATOM     15  C   UNL     1      38.940   4.932  41.958  1.00  0.00    -0.000 C 
BRANCH  15  16
ATOM     16  C   UNL     1      37.938   3.767  41.861  1.00  0.00    -0.000 C 
BRANCH  16  17
ATOM     17  C   UNL     1      36.490   4.210  42.124  1.00  0.00    -0.000 C 
BRANCH  17  18
ATOM     18  C   UNL     1      35.475   3.082  41.881  1.00  0.00    -0.003 C 
ATOM     19  C   UNL     1      36.177   1.796  41.458  1.00  0.00     0.004 C 
ENDBRANCH  17  18
ENDBRANCH  16  17
ENDBRANCH  15  16
ENDBRANCH  14  15
ENDBRANCH  13  14
ENDBRANCH  12  13
ENDBRANCH   1  12
TORSDOF 14
ENDMDL
MODEL 2
REMARK VINA RESULT:    -0.629      3.740      5.964
REMARK INTER + INTRA:          -4.120
REMARK INTER:                  -1.197
REMARK INTRA:                  -2.923
REMARK UNBOUND:                -2.976
REMARK SMILES CCCCCCCCCCCCCC[C@H](C)C(=O)[O-]
REMARK SMILES IDX 9 1 10 2 11 3 12 4 13 5 14 6 15 7 16 8 17 9 18 10 19 11 8 12
REMARK SMILES IDX 7 13 6 14 5 15 4 16 3 17 2 18 1 19
REMARK H PARENT
REMARK Flexibility Score: inf
ROOT
ATOM      1  C   UNL     1      38.063   7.085  39.892  1.00  0.00     0.000 C 
ENDROOT
BRANCH   1   2
ATOM      2  C   UNL     1      37.461   7.064  38.475  1.00  0.00     0.000 C 
BRANCH   2   3
ATOM      3  C   UNL     1      37.216   5.640  37.950  1.00  0.00     0.000 C 
BRANCH   3   4
ATOM      4  C   UNL     1      35.743   5.215  38.063  1.00  0.00     0.000 C 
BRANCH   4   5
ATOM      5  C   UNL     1      35.564   3.885  38.812  1.00  0.00     0.001 C 
BRANCH   5   6
ATOM      6  C   UNL     1      36.809   3.557  39.653  1.00  0.00     0.009 C 
BRANCH   6   7
ATOM      7  C   UNL     1      36.491   3.490  41.161  1.00  0.00     0.032 C 
ATOM      8  C   UNL     1      37.773   3.630  41.990  1.00  0.00     0.014 C 
BRANCH   7   9
ATOM      9  C   UNL     1      35.786   2.209  41.520  1.00  0.00     0.044 C 
ATOM     10  O   UNL     1      34.680   2.233  42.124  1.00  0.00    -0.550 OA
ATOM     11  O   UNL     1      36.353   0.987  41.181  1.00  0.00    -0.550 OA
ENDBRANCH   7   9
ENDBRANCH   6   7
ENDBRANCH   5   6
ENDBRANCH   4   5
ENDBRANCH   3   4
ENDBRANCH   2   3
ENDBRANCH   1   2
BRANCH   1  12
ATOM     12  C   UNL     1      37.287   7.929  40.926  1.00  0.00     0.000 C 
BRANCH  12  13
ATOM     13  C   UNL     1      36.585   7.123  42.033  1.00  0.00    -0.000 C 
BRANCH  13  14
ATOM     14  C   UNL     1      35.062   7.337  42.125  1.00  0.00    -0.000 C 
BRANCH  14  15
ATOM     15  C   UNL     1      34.246   6.407  41.201  1.00  0.00    -0.000 C 
BRANCH  15  16
ATOM     16  C   UNL     1      33.266   7.182  40.302  1.00  0.00    -0.000 C 
BRANCH  16  17
ATOM     17  C   UNL     1      33.983   8.099  39.298  1.00  0.00    -0.000 C 
BRANCH  17  18
ATOM     18  C   UNL     1      33.667   9.585  39.526  1.00  0.00    -0.003 C 
ATOM     19  C   UNL     1      34.943  10.421  39.537  1.00  0.00     0.004 C 
ENDBRANCH  17  18
ENDBRANCH  16  17
ENDBRANCH  15  16
ENDBRANCH  14  15
ENDBRANCH  13  14
ENDBRANCH  12  13
ENDBRANCH   1  12
TORSDOF 14
ENDMDL
MODEL 3
REMARK VINA RESULT:    -0.620      2.356      4.578
REMARK INTER + INTRA:          -4.103
REMARK INTER:                  -1.423
REMARK INTRA:                  -2.680
REMARK UNBOUND:                -2.976
REMARK SMILES CCCCCCCCCCCCCC[C@H](C)C(=O)[O-]
REMARK SMILES IDX 9 1 10 2 11 3 12 4 13 5 14 6 15 7 16 8 17 9 18 10 19 11 8 12
REMARK SMILES IDX 7 13 6 14 5 15 4 16 3 17 2 18 1 19
REMARK H PARENT
REMARK Flexibility Score: inf
ROOT
ATOM      1  C   UNL     1      38.623   4.203  37.485  1.00  0.00     0.000 C 
ENDROOT
BRANCH   1   2
ATOM      2  C   UNL     1      37.933   3.448  38.636  1.00  0.00     0.000 C 
BRANCH   2   3
ATOM      3  C   UNL     1      38.892   2.521  39.402  1.00  0.00     0.000 C 
BRANCH   3   4
ATOM      4  C   UNL     1      39.202   3.035  40.818  1.00  0.00     0.000 C 
BRANCH   4   5
ATOM      5  C   UNL     1      38.006   2.901  41.773  1.00  0.00     0.001 C 
BRANCH   5   6
ATOM      6  C   UNL     1      37.406   4.278  42.097  1.00  0.00     0.009 C 
BRANCH   6   7
ATOM      7  C   UNL     1      35.863   4.255  42.104  1.00  0.00     0.032 C 
ATOM      8  C   UNL     1      35.341   2.891  41.637  1.00  0.00     0.014 C 
BRANCH   7   9
ATOM      9  C   UNL     1      35.291   5.346  41.238  1.00  0.00     0.044 C 
ATOM     10  O   UNL     1      35.155   6.516  41.688  1.00  0.00    -0.550 OA
ATOM     11  O   UNL     1      34.911   5.067  39.932  1.00  0.00    -0.550 OA
ENDBRANCH   7   9
ENDBRANCH   6   7
ENDBRANCH   5   6
ENDBRANCH   4   5
ENDBRANCH   3   4
ENDBRANCH   2   3
ENDBRANCH   1   2
BRANCH   1  12
ATOM     12  C   UNL     1      40.090   3.803  37.220  1.00  0.00     0.000 C 
BRANCH  12  13
ATOM     13  C   UNL     1      41.112   4.947  37.348  1.00  0.00    -0.000 C 
BRANCH  13  14
ATOM     14  C   UNL     1      42.096   4.810  38.526  1.00  0.00    -0.000 C 
BRANCH  14  15
ATOM     15  C   UNL     1      41.683   5.614  39.777  1.00  0.00    -0.000 C 
BRANCH  15  16
ATOM     16  C   UNL     1      40.681   6.736  39.453  1.00  0.00    -0.000 C 
BRANCH  16  17
ATOM     17  C   UNL     1      39.434   6.693  40.352  1.00  0.00    -0.000 C 
BRANCH  17  18
ATOM     18  C   UNL     1      38.154   7.092  39.604  1.00  0.00    -0.003 C 
ATOM     19  C   UNL     1      37.725   8.510  39.969  1.00  0.00     0.004 C 
ENDBRANCH  17  18
ENDBRANCH  16  17
ENDBRANCH  15  16
ENDBRANCH  14  15
ENDBRANCH  13  14
ENDBRANCH  12  13
ENDBRANCH   1  12
TORSDOF 14
ENDMDL
MODEL 4
REMARK VINA RESULT:    -0.602      3.506      5.366
REMARK INTER + INTRA:          -4.070
REMARK INTER:                  -1.530
REMARK INTRA:                  -2.540
REMARK UNBOUND:                -2.976
REMARK SMILES CCCCCCCCCCCCCC[C@H](C)C(=O)[O-]
REMARK SMILES IDX 9 1 10 2 11 3 12 4 13 5 14 6 15 7 16 8 17 9 18 10 19 11 8 12
REMARK SMILES IDX 7 13 6 14 5 15 4 16 3 17 2 18 1 19
REMARK H PARENT
REMARK Flexibility Score: inf
ROOT
ATOM      1  C   UNL     1      37.274   5.123  39.856  1.00  0.00     0.000 C 
ENDROOT
BRANCH   1   2
ATOM      2  C   UNL     1      36.178   6.202  39.905  1.00  0.00     0.000 C 
BRANCH   2   3
ATOM      3  C   UNL     1      36.119   6.932  41.258  1.00  0.00     0.000 C 
BRANCH   3   4
ATOM      4  C   UNL     1      34.820   6.641  42.028  1.00  0.00     0.000 C 
BRANCH   4   5
ATOM      5  C   UNL     1      34.513   5.138  42.125  1.00  0.00     0.001 C 
BRANCH   5   6
ATOM      6  C   UNL     1      33.106   4.830  41.588  1.00  0.00     0.009 C 
BRANCH   6   7
ATOM      7  C   UNL     1      33.092   3.593  40.666  1.00  0.00     0.032 C 
ATOM      8  C   UNL     1      34.425   2.843  40.748  1.00  0.00     0.014 C 
BRANCH   7   9
ATOM      9  C   UNL     1      32.804   3.973  39.237  1.00  0.00     0.044 C 
ATOM     10  O   UNL     1      33.747   4.157  38.421  1.00  0.00    -0.550 OA
ATOM     11  O   UNL     1      31.491   4.118  38.810  1.00  0.00    -0.550 OA
ENDBRANCH   7   9
ENDBRANCH   6   7
ENDBRANCH   5   6
ENDBRANCH   4   5
ENDBRANCH   3   4
ENDBRANCH   2   3
ENDBRANCH   1   2
BRANCH   1  12
ATOM     12  C   UNL     1      38.542   5.432  40.681  1.00  0.00     0.000 C 
BRANCH  12  13
ATOM     13  C   UNL     1      38.666   4.654  42.004  1.00  0.00    -0.000 C 
BRANCH  13  14
ATOM     14  C   UNL     1      37.814   3.373  42.086  1.00  0.00    -0.000 C 
BRANCH  14  15
ATOM     15  C   UNL     1      38.557   2.101  41.626  1.00  0.00    -0.000 C 
BRANCH  15  16
ATOM     16  C   UNL     1      37.919   1.462  40.379  1.00  0.00    -0.000 C 
BRANCH  16  17
ATOM     17  C   UNL     1      38.738   1.712  39.103  1.00  0.00    -0.000 C 
BRANCH  17  18
ATOM     18  C   UNL     1      40.160   2.209  39.402  1.00  0.00    -0.003 C 
ATOM     19  C   UNL     1      40.574   3.306  38.425  1.00  0.00     0.004 C 
ENDBRANCH  17  18
ENDBRANCH  16  17
ENDBRANCH  15  16
ENDBRANCH  14  15
ENDBRANCH  13  14
ENDBRANCH  12  13
ENDBRANCH   1  12
TORSDOF 14
ENDMDL
MODEL 5
REMARK VINA RESULT:    -0.598      2.925      5.608
REMARK INTER + INTRA:          -4.063
REMARK INTER:                  -1.411
REMARK INTRA:                  -2.652
REMARK UNBOUND:                -2.976
REMARK SMILES CCCCCCCCCCCCCC[C@H](C)C(=O)[O-]
REMARK SMILES IDX 9 1 10 2 11 3 12 4 13 5 14 6 15 7 16 8 17 9 18 10 19 11 8 12
REMARK SMILES IDX 7 13 6 14 5 15 4 16 3 17 2 18 1 19
REMARK H PARENT
REMARK Flexibility Score: inf
ROOT
ATOM      1  C   UNL     1      38.182   5.206  38.274  1.00  0.00     0.000 C 
ENDROOT
BRANCH   1   2
ATOM      2  C   UNL     1      39.302   4.197  38.587  1.00  0.00     0.000 C 
BRANCH   2   3
ATOM      3  C   UNL     1      38.848   3.075  39.535  1.00  0.00     0.000 C 
BRANCH   3   4
ATOM      4  C   UNL     1      39.166   3.383  41.008  1.00  0.00     0.000 C 
BRANCH   4   5
ATOM      5  C   UNL     1      38.007   3.026  41.951  1.00  0.00     0.001 C 
BRANCH   5   6
ATOM      6  C   UNL     1      37.053   4.219  42.125  1.00  0.00     0.009 C 
BRANCH   6   7
ATOM      7  C   UNL     1      35.572   3.787  42.120  1.00  0.00     0.032 C 
ATOM      8  C   UNL     1      35.371   2.556  41.229  1.00  0.00     0.014 C 
BRANCH   7   9
ATOM      9  C   UNL     1      34.672   4.904  41.662  1.00  0.00     0.044 C 
ATOM     10  O   UNL     1      35.064   6.101  41.704  1.00  0.00    -0.550 OA
ATOM     11  O   UNL     1      33.400   4.617  41.183  1.00  0.00    -0.550 OA
ENDBRANCH   7   9
ENDBRANCH   6   7
ENDBRANCH   5   6
ENDBRANCH   4   5
ENDBRANCH   3   4
ENDBRANCH   2   3
ENDBRANCH   1   2
BRANCH   1  12
ATOM     12  C   UNL     1      36.747   4.701  38.538  1.00  0.00     0.000 C 
BRANCH  12  13
ATOM     13  C   UNL     1      36.011   4.150  37.303  1.00  0.00    -0.000 C 
BRANCH  13  14
ATOM     14  C   UNL     1      35.528   2.693  37.433  1.00  0.00    -0.000 C 
BRANCH  14  15
ATOM     15  C   UNL     1      36.112   1.746  36.363  1.00  0.00    -0.000 C 
BRANCH  15  16
ATOM     16  C   UNL     1      37.352   0.983  36.864  1.00  0.00    -0.000 C 
BRANCH  16  17
ATOM     17  C   UNL     1      38.644   1.430  36.162  1.00  0.00    -0.000 C 
BRANCH  17  18
ATOM     18  C   UNL     1      38.396   2.514  35.103  1.00  0.00    -0.003 C 
ATOM     19  C   UNL     1      39.610   3.427  34.959  1.00  0.00     0.004 C 
ENDBRANCH  17  18
ENDBRANCH  16  17
ENDBRANCH  15  16
ENDBRANCH  14  15
ENDBRANCH  13  14
ENDBRANCH  12  13
ENDBRANCH   1  12
TORSDOF 14
ENDMDL
MODEL 6
REMARK VINA RESULT:    -0.592      3.701      5.923
REMARK INTER + INTRA:          -4.052
REMARK INTER:                  -1.701
REMARK INTRA:                  -2.351
REMARK UNBOUND:                -2.976
REMARK SMILES CCCCCCCCCCCCCC[C@H](C)C(=O)[O-]
REMARK SMILES IDX 9 1 10 2 11 3 12 4 13 5 14 6 15 7 16 8 17 9 18 10 19 11 8 12
REMARK SMILES IDX 7 13 6 14 5 15 4 16 3 17 2 18 1 19
REMARK H PARENT
REMARK Flexibility Score: inf
ROOT
ATOM      1  C   UNL     1      38.098   3.328  39.099  1.00  0.00     0.000 C 
ENDROOT
BRANCH   1   2
ATOM      2  C   UNL     1      38.958   2.277  39.823  1.00  0.00     0.000 C 
BRANCH   2   3
ATOM      3  C   UNL     1      38.793   2.319  41.351  1.00  0.00     0.000 C 
BRANCH   3   4
ATOM      4  C   UNL     1      37.510   1.614  41.824  1.00  0.00     0.000 C 
BRANCH   4   5
ATOM      5  C   UNL     1      36.369   2.598  42.125  1.00  0.00     0.001 C 
BRANCH   5   6
ATOM      6  C   UNL     1      35.029   2.064  41.594  1.00  0.00     0.009 C 
BRANCH   6   7
ATOM      7  C   UNL     1      34.127   3.192  41.050  1.00  0.00     0.032 C 
ATOM      8  C   UNL     1      34.285   4.463  41.891  1.00  0.00     0.014 C 
BRANCH   7   9
ATOM      9  C   UNL     1      32.680   2.775  41.019  1.00  0.00     0.044 C 
ATOM     10  O   UNL     1      31.782   3.597  40.695  1.00  0.00    -0.550 OA
ATOM     11  O   UNL     1      32.328   1.472  41.346  1.00  0.00    -0.550 OA
ENDBRANCH   7   9
ENDBRANCH   6   7
ENDBRANCH   5   6
ENDBRANCH   4   5
ENDBRANCH   3   4
ENDBRANCH   2   3
ENDBRANCH   1   2
BRANCH   1  12
ATOM     12  C   UNL     1      38.477   4.798  39.379  1.00  0.00     0.000 C 
BRANCH  12  13
ATOM     13  C   UNL     1      37.383   5.637  40.063  1.00  0.00    -0.000 C 
BRANCH  13  14
ATOM     14  C   UNL     1      37.650   5.968  41.544  1.00  0.00    -0.000 C 
BRANCH  14  15
ATOM     15  C   UNL     1      39.113   5.738  41.978  1.00  0.00    -0.000 C 
BRANCH  15  16
ATOM     16  C   UNL     1      40.027   6.925  41.623  1.00  0.00    -0.000 C 
BRANCH  16  17
ATOM     17  C   UNL     1      41.450   6.483  41.245  1.00  0.00    -0.000 C 
BRANCH  17  18
ATOM     18  C   UNL     1      41.617   4.956  41.258  1.00  0.00    -0.003 C 
ATOM     19  C   UNL     1      42.212   4.460  39.944  1.00  0.00     0.004 C 
ENDBRANCH  17  18
ENDBRANCH  16  17
ENDBRANCH  15  16
ENDBRANCH  14  15
ENDBRANCH  13  14
ENDBRANCH  12  13
ENDBRANCH   1  12
TORSDOF 14
ENDMDL
MODEL 7
REMARK VINA RESULT:    -0.564      2.760      4.594
REMARK INTER + INTRA:          -4.001
REMARK INTER:                  -1.380
REMARK INTRA:                  -2.621
REMARK UNBOUND:                -2.976
REMARK SMILES CCCCCCCCCCCCCC[C@H](C)C(=O)[O-]
REMARK SMILES IDX 9 1 10 2 11 3 12 4 13 5 14 6 15 7 16 8 17 9 18 10 19 11 8 12
REMARK SMILES IDX 7 13 6 14 5 15 4 16 3 17 2 18 1 19
REMARK H PARENT
REMARK Flexibility Score: inf
ROOT
ATOM      1  C   UNL     1      35.531   3.361  40.103  1.00  0.00     0.000 C 
ENDROOT
BRANCH   1   2
ATOM      2  C   UNL     1      36.512   3.948  39.073  1.00  0.00     0.000 C 
BRANCH   2   3
ATOM      3  C   UNL     1      37.523   4.925  39.697  1.00  0.00     0.000 C 
BRANCH   3   4
ATOM      4  C   UNL     1      37.134   5.342  41.125  1.00  0.00     0.000 C 
BRANCH   4   5
ATOM      5  C   UNL     1      38.290   5.183  42.125  1.00  0.00     0.001 C 
BRANCH   5   6
ATOM      6  C   UNL     1      39.587   4.781  41.405  1.00  0.00     0.009 C 
BRANCH   6   7
ATOM      7  C   UNL     1      40.732   5.783  41.665  1.00  0.00     0.032 C 
ATOM      8  C   UNL     1      40.380   7.164  41.102  1.00  0.00     0.014 C 
BRANCH   7   9
ATOM      9  C   UNL     1      42.030   5.303  41.073  1.00  0.00     0.044 C 
ATOM     10  O   UNL     1      42.862   6.124  40.601  1.00  0.00    -0.550 OA
ATOM     11  O   UNL     1      42.320   3.945  41.047  1.00  0.00    -0.550 OA
ENDBRANCH   7   9
ENDBRANCH   6   7
ENDBRANCH   5   6
ENDBRANCH   4   5
ENDBRANCH   3   4
ENDBRANCH   2   3
ENDBRANCH   1   2
BRANCH   1  12
ATOM     12  C   UNL     1      35.888   1.954  40.627  1.00  0.00     0.000 C 
BRANCH  12  13
ATOM     13  C   UNL     1      36.641   1.928  41.970  1.00  0.00    -0.000 C 
BRANCH  13  14
ATOM     14  C   UNL     1      38.036   1.275  41.918  1.00  0.00    -0.000 C 
BRANCH  14  15
ATOM     15  C   UNL     1      38.484   0.876  40.495  1.00  0.00    -0.000 C 
BRANCH  15  16
ATOM     16  C   UNL     1      39.923   1.324  40.183  1.00  0.00    -0.000 C 
BRANCH  16  17
ATOM     17  C   UNL     1      40.009   2.201  38.923  1.00  0.00    -0.000 C 
BRANCH  17  18
ATOM     18  C   UNL     1      39.082   1.713  37.800  1.00  0.00    -0.003 C 
ATOM     19  C   UNL     1      39.680   2.008  36.428  1.00  0.00     0.004 C 
ENDBRANCH  17  18
ENDBRANCH  16  17
ENDBRANCH  15  16
ENDBRANCH  14  15
ENDBRANCH  13  14
ENDBRANCH  12  13
ENDBRANCH   1  12
TORSDOF 14
ENDMDL
MODEL 8
REMARK VINA RESULT:    -0.562      3.002      5.542
REMARK INTER + INTRA:          -3.997
REMARK INTER:                  -1.621
REMARK INTRA:                  -2.376
REMARK UNBOUND:                -2.976
REMARK SMILES CCCCCCCCCCCCCC[C@H](C)C(=O)[O-]
REMARK SMILES IDX 9 1 10 2 11 3 12 4 13 5 14 6 15 7 16 8 17 9 18 10 19 11 8 12
REMARK SMILES IDX 7 13 6 14 5 15 4 16 3 17 2 18 1 19
REMARK H PARENT
REMARK Flexibility Score: inf
ROOT
ATOM      1  C   UNL     1      36.204   4.639  40.306  1.00  0.00     0.000 C 
ENDROOT
BRANCH   1   2
ATOM      2  C   UNL     1      36.427   4.305  41.792  1.00  0.00     0.000 C 
BRANCH   2   3
ATOM      3  C   UNL     1      37.854   3.813  42.087  1.00  0.00     0.000 C 
BRANCH   3   4
ATOM      4  C   UNL     1      37.970   2.280  42.043  1.00  0.00     0.000 C 
BRANCH   4   5
ATOM      5  C   UNL     1      38.650   1.773  40.762  1.00  0.00     0.001 C 
BRANCH   5   6
ATOM      6  C   UNL     1      39.567   2.851  40.164  1.00  0.00     0.009 C 
BRANCH   6   7
ATOM      7  C   UNL     1      39.218   3.163  38.693  1.00  0.00     0.032 C 
ATOM      8  C   UNL     1      39.992   2.240  37.746  1.00  0.00     0.014 C 
BRANCH   7   9
ATOM      9  C   UNL     1      39.501   4.602  38.352  1.00  0.00     0.044 C 
ATOM     10  O   UNL     1      39.409   5.500  39.231  1.00  0.00    -0.550 OA
ATOM     11  O   UNL     1      39.872   4.947  37.059  1.00  0.00    -0.550 OA
ENDBRANCH   7   9
ENDBRANCH   6   7
ENDBRANCH   5   6
ENDBRANCH   4   5
ENDBRANCH   3   4
ENDBRANCH   2   3
ENDBRANCH   1   2
BRANCH   1  12
ATOM     12  C   UNL     1      35.491   3.544  39.483  1.00  0.00     0.000 C 
BRANCH  12  13
ATOM     13  C   UNL     1      34.762   2.473  40.315  1.00  0.00    -0.000 C 
BRANCH  13  14
ATOM     14  C   UNL     1      33.238   2.670  40.432  1.00  0.00    -0.000 C 
BRANCH  14  15
ATOM     15  C   UNL     1      32.769   3.062  41.850  1.00  0.00    -0.000 C 
BRANCH  15  16
ATOM     16  C   UNL     1      32.915   4.569  42.124  1.00  0.00    -0.000 C 
BRANCH  16  17
ATOM     17  C   UNL     1      32.176   5.432  41.089  1.00  0.00    -0.000 C 
BRANCH  17  18
ATOM     18  C   UNL     1      32.655   6.892  41.087  1.00  0.00    -0.003 C 
ATOM     19  C   UNL     1      33.876   7.068  41.984  1.00  0.00     0.004 C 
ENDBRANCH  17  18
ENDBRANCH  16  17
ENDBRANCH  15  16
ENDBRANCH  14  15
ENDBRANCH  13  14
ENDBRANCH  12  13
ENDBRANCH   1  12
TORSDOF 14
ENDMDL
