MODEL 1
REMARK VINA RESULT:    -4.988      0.000      0.000
REMARK INTER + INTRA:          -7.062
REMARK INTER:                  -7.030
REMARK INTRA:                  -0.032
REMARK UNBOUND:                -0.032
REMARK SMILES CC1=CCC(=C(C)C)C(=O)CC(C)=CCC1
REMARK SMILES IDX 12 1 14 2 13 3 15 4 16 5 2 6 1 7 3 8 11 10 9 11 10 12 5 13
REMARK SMILES IDX 6 14 7 15 8 16 4 17
REMARK H PARENT
REMARK Flexibility Score: 60.00
ROOT
ATOM      1  C   UNL     1       3.037  11.848  47.215  1.00  0.00    -0.070 C 
ATOM      2  C   UNL     1       3.329  13.160  46.988  1.00  0.00    -0.027 C 
ATOM      3  C   UNL     1       4.194  10.882  47.114  1.00  0.00     0.039 C 
ENDROOT
BRANCH   2   4
ATOM      4  C   UNL     1       2.386  14.343  46.993  1.00  0.00     0.032 C 
BRANCH   4   5
ATOM      5  C   UNL     1       1.408  14.427  45.796  1.00  0.00     0.034 C 
BRANCH   5   6
ATOM      6  C   UNL     1      -0.017  14.781  46.168  1.00  0.00    -0.077 C 
ATOM      7  C   UNL     1      -0.279  16.112  46.828  1.00  0.00     0.039 C 
ATOM      8  C   UNL     1      -1.076  13.990  45.896  1.00  0.00    -0.023 CG0
ATOM      9  G   UNL     1      -1.047  12.613  45.270  1.00  0.00     0.000 G0
ENDBRANCH   5   6
ENDBRANCH   4   5
ENDBRANCH   2   4
BRANCH   1  10
ATOM     10  C   UNL     1       1.658  11.225  47.448  1.00  0.00     0.111 C 
BRANCH  10  11
ATOM     11  C   UNL     1       0.789  11.020  46.233  1.00  0.00     0.163 C 
ATOM     12  O   UNL     1       1.355  10.493  45.237  1.00  0.00    -0.294 OA
BRANCH  11  13
ATOM     13  C   UNL     1      -0.668  11.428  46.160  1.00  0.00    -0.002 C 
ATOM     14  C   UNL     1      -1.654  10.698  46.790  1.00  0.00    -0.069 C 
ATOM     15  C   UNL     1      -3.123  11.034  46.630  1.00  0.00     0.039 C 
ATOM     16  C   UNL     1      -1.353   9.515  47.688  1.00  0.00     0.039 C 
BRANCH  13  17
ATOM     17  C   UNL     1      -1.057  12.617  45.269  1.00  0.00     0.066 CG0
ATOM     18  G   UNL     1      -1.071  13.986  45.911  1.00  0.00     0.000 G0
ENDBRANCH  13  17
ENDBRANCH  11  13
ENDBRANCH  10  11
ENDBRANCH   1  10
TORSDOF 0
ENDMDL
MODEL 2
REMARK VINA RESULT:    -4.741      1.435      3.704
REMARK INTER + INTRA:          -6.713
REMARK INTER:                  -6.996
REMARK INTRA:                   0.283
REMARK UNBOUND:                -0.032
REMARK SMILES CC1=CCC(=C(C)C)C(=O)CC(C)=CCC1
REMARK SMILES IDX 12 1 14 2 13 3 15 4 16 5 2 6 1 7 3 8 11 10 9 11 10 12 5 13
REMARK SMILES IDX 6 14 7 15 8 16 4 17
REMARK H PARENT
REMARK Flexibility Score: 60.00
ROOT
ATOM      1  C   UNL     1       2.639  13.281  46.954  1.00  0.00    -0.070 C 
ATOM      2  C   UNL     1       2.783  11.926  46.911  1.00  0.00    -0.027 C 
ATOM      3  C   UNL     1       3.915  14.084  47.039  1.00  0.00     0.039 C 
ENDROOT
BRANCH   2   4
ATOM      4  C   UNL     1       1.701  10.871  46.851  1.00  0.00     0.032 C 
BRANCH   4   5
ATOM      5  C   UNL     1       0.596  11.102  45.790  1.00  0.00     0.034 C 
BRANCH   5   6
ATOM      6  C   UNL     1      -0.815  11.100  46.339  1.00  0.00    -0.077 C 
ATOM      7  C   UNL     1      -1.198  10.036  47.337  1.00  0.00     0.039 C 
ATOM      8  C   UNL     1      -1.739  12.032  46.022  1.00  0.00    -0.023 CG0
ATOM      9  G   UNL     1      -1.586  13.165  45.032  1.00  0.00     0.000 G0
ENDBRANCH   5   6
ENDBRANCH   4   5
ENDBRANCH   2   4
BRANCH   1  10
ATOM     10  C   UNL     1       1.334  14.079  47.039  1.00  0.00     0.111 C 
BRANCH  10  11
ATOM     11  C   UNL     1       0.641  14.394  45.738  1.00  0.00     0.163 C 
ATOM     12  O   UNL     1       1.398  14.657  44.764  1.00  0.00    -0.294 OA
BRANCH  11  13
ATOM     13  C   UNL     1      -0.864  14.427  45.570  1.00  0.00    -0.002 C 
ATOM     14  C   UNL     1      -1.609  15.517  45.968  1.00  0.00    -0.069 C 
ATOM     15  C   UNL     1      -3.124  15.514  45.907  1.00  0.00     0.039 C 
ATOM     16  C   UNL     1      -0.983  16.794  46.490  1.00  0.00     0.039 C 
BRANCH  13  17
ATOM     17  C   UNL     1      -1.576  13.171  45.048  1.00  0.00     0.066 CG0
ATOM     18  G   UNL     1      -1.742  12.018  46.013  1.00  0.00     0.000 G0
ENDBRANCH  13  17
ENDBRANCH  11  13
ENDBRANCH  10  11
ENDBRANCH   1  10
TORSDOF 0
ENDMDL
MODEL 3
REMARK VINA RESULT:    -4.631      2.344      4.253
REMARK INTER + INTRA:          -6.559
REMARK INTER:                  -6.977
REMARK INTRA:                   0.418
REMARK UNBOUND:                -0.032
REMARK SMILES CC1=CCC(=C(C)C)C(=O)CC(C)=CCC1
REMARK SMILES IDX 12 1 14 2 13 3 15 4 16 5 2 6 1 7 3 8 11 10 9 11 10 12 5 13
REMARK SMILES IDX 6 14 7 15 8 16 4 17
REMARK H PARENT
REMARK Flexibility Score: 60.00
ROOT
ATOM      1  C   UNL     1       2.826  10.705  46.421  1.00  0.00    -0.070 C 
ATOM      2  C   UNL     1       3.935  10.865  47.199  1.00  0.00    -0.027 C 
ATOM      3  C   UNL     1       3.014   9.909  45.151  1.00  0.00     0.039 C 
ENDROOT
BRANCH   2   4
ATOM      4  C   UNL     1       4.064  11.625  48.500  1.00  0.00     0.032 C 
BRANCH   4   5
ATOM      5  C   UNL     1       5.062  12.809  48.491  1.00  0.00     0.034 C 
BRANCH   5   6
ATOM      6  C   UNL     1       4.966  13.705  47.274  1.00  0.00    -0.077 C 
ATOM      7  C   UNL     1       6.192  13.882  46.414  1.00  0.00     0.039 C 
ATOM      8  C   UNL     1       3.827  14.316  46.886  1.00  0.00    -0.023 CG0
ATOM      9  G   UNL     1       2.496  14.301  47.605  1.00  0.00     0.000 G0
ENDBRANCH   5   6
ENDBRANCH   4   5
ENDBRANCH   2   4
BRANCH   1  10
ATOM     10  C   UNL     1       1.444  11.330  46.627  1.00  0.00     0.111 C 
BRANCH  10  11
ATOM     11  C   UNL     1       1.208  12.682  46.005  1.00  0.00     0.163 C 
ATOM     12  O   UNL     1       0.995  12.684  44.763  1.00  0.00    -0.294 OA
BRANCH  11  13
ATOM     13  C   UNL     1       1.241  13.984  46.780  1.00  0.00    -0.002 C 
ATOM     14  C   UNL     1       0.221  14.907  46.682  1.00  0.00    -0.069 C 
ATOM     15  C   UNL     1       0.298  16.258  47.365  1.00  0.00     0.039 C 
ATOM     16  C   UNL     1      -1.048  14.649  45.896  1.00  0.00     0.039 C 
BRANCH  13  17
ATOM     17  C   UNL     1       2.493  14.321  47.602  1.00  0.00     0.066 CG0
ATOM     18  G   UNL     1       3.818  14.333  46.872  1.00  0.00     0.000 G0
ENDBRANCH  13  17
ENDBRANCH  11  13
ENDBRANCH  10  11
ENDBRANCH   1  10
TORSDOF 0
ENDMDL
MODEL 4
REMARK VINA RESULT:    -4.409      1.834      4.911
REMARK INTER + INTRA:          -6.245
REMARK INTER:                  -7.213
REMARK INTRA:                   0.969
REMARK UNBOUND:                -0.032
REMARK SMILES CC1=CCC(=C(C)C)C(=O)CC(C)=CCC1
REMARK SMILES IDX 12 1 14 2 13 3 15 4 16 5 2 6 1 7 3 8 11 10 9 11 10 12 5 13
REMARK SMILES IDX 6 14 7 15 8 16 4 17
REMARK H PARENT
REMARK Flexibility Score: 60.00
ROOT
ATOM      1  C   UNL     1      -0.584  14.916  45.459  1.00  0.00    -0.070 C 
ATOM      2  C   UNL     1      -1.799  14.476  45.895  1.00  0.00    -0.027 C 
ATOM      3  C   UNL     1      -0.478  16.395  45.168  1.00  0.00     0.039 C 
ENDROOT
BRANCH   2   4
ATOM      4  C   UNL     1      -2.213  13.062  46.239  1.00  0.00     0.032 C 
BRANCH   4   5
ATOM      5  C   UNL     1      -1.405  11.938  45.547  1.00  0.00     0.034 C 
BRANCH   5   6
ATOM      6  C   UNL     1      -0.883  10.868  46.483  1.00  0.00    -0.077 C 
ATOM      7  C   UNL     1      -1.870  10.130  47.353  1.00  0.00     0.039 C 
ATOM      8  C   UNL     1       0.414  10.501  46.546  1.00  0.00    -0.023 CG0
ATOM      9  G   UNL     1       1.571  11.116  45.791  1.00  0.00     0.000 G0
ENDBRANCH   5   6
ENDBRANCH   4   5
ENDBRANCH   2   4
BRANCH   1  10
ATOM     10  C   UNL     1       0.649  14.073  45.124  1.00  0.00     0.111 C 
BRANCH  10  11
ATOM     11  C   UNL     1       1.546  13.690  46.273  1.00  0.00     0.163 C 
ATOM     12  O   UNL     1       1.707  14.573  47.159  1.00  0.00    -0.294 OA
BRANCH  11  13
ATOM     13  C   UNL     1       2.249  12.353  46.385  1.00  0.00    -0.002 C 
ATOM     14  C   UNL     1       3.515  12.247  46.922  1.00  0.00    -0.069 C 
ATOM     15  C   UNL     1       4.268  10.932  46.936  1.00  0.00     0.039 C 
ATOM     16  C   UNL     1       4.247  13.421  47.539  1.00  0.00     0.039 C 
BRANCH  13  17
ATOM     17  C   UNL     1       1.573  11.112  45.784  1.00  0.00     0.066 CG0
ATOM     18  G   UNL     1       0.425  10.505  46.559  1.00  0.00     0.000 G0
ENDBRANCH  13  17
ENDBRANCH  11  13
ENDBRANCH  10  11
ENDBRANCH   1  10
TORSDOF 0
ENDMDL
MODEL 5
REMARK VINA RESULT:    -4.303      1.616      4.142
REMARK INTER + INTRA:          -6.097
REMARK INTER:                  -7.138
REMARK INTRA:                   1.042
REMARK UNBOUND:                -0.032
REMARK SMILES CC1=CCC(=C(C)C)C(=O)CC(C)=CCC1
REMARK SMILES IDX 12 1 14 2 13 3 15 4 16 5 2 6 1 7 3 8 11 10 9 11 10 12 5 13
REMARK SMILES IDX 6 14 7 15 8 16 4 17
REMARK H PARENT
REMARK Flexibility Score: 60.00
ROOT
ATOM      1  C   UNL     1      -0.386  10.977  46.428  1.00  0.00    -0.070 C 
ATOM      2  C   UNL     1      -0.967  12.088  45.893  1.00  0.00    -0.027 C 
ATOM      3  C   UNL     1      -1.295  10.065  47.217  1.00  0.00     0.039 C 
ENDROOT
BRANCH   2   4
ATOM      4  C   UNL     1      -0.315  13.188  45.084  1.00  0.00     0.032 C 
BRANCH   4   5
ATOM      5  C   UNL     1      -0.657  14.634  45.518  1.00  0.00     0.034 C 
BRANCH   5   6
ATOM      6  C   UNL     1       0.175  15.161  46.669  1.00  0.00    -0.077 C 
ATOM      7  C   UNL     1      -0.422  16.220  47.562  1.00  0.00     0.039 C 
ATOM      8  C   UNL     1       1.406  14.698  46.971  1.00  0.00    -0.023 CG0
ATOM      9  G   UNL     1       2.204  13.667  46.205  1.00  0.00     0.000 G0
ENDBRANCH   5   6
ENDBRANCH   4   5
ENDBRANCH   2   4
BRANCH   1  10
ATOM     10  C   UNL     1       1.100  10.604  46.419  1.00  0.00     0.111 C 
BRANCH  10  11
ATOM     11  C   UNL     1       1.990  11.329  47.395  1.00  0.00     0.163 C 
ATOM     12  O   UNL     1       1.970  10.898  48.580  1.00  0.00    -0.294 OA
BRANCH  11  13
ATOM     13  C   UNL     1       2.851  12.520  47.026  1.00  0.00    -0.002 C 
ATOM     14  C   UNL     1       4.146  12.642  47.484  1.00  0.00    -0.069 C 
ATOM     15  C   UNL     1       4.976  13.882  47.212  1.00  0.00     0.039 C 
ATOM     16  C   UNL     1       4.841  11.559  48.283  1.00  0.00     0.039 C 
BRANCH  13  17
ATOM     17  C   UNL     1       2.221  13.663  46.217  1.00  0.00     0.066 CG0
ATOM     18  G   UNL     1       1.407  14.684  46.980  1.00  0.00     0.000 G0
ENDBRANCH  13  17
ENDBRANCH  11  13
ENDBRANCH  10  11
ENDBRANCH   1  10
TORSDOF 0
ENDMDL
MODEL 6
REMARK VINA RESULT:    -3.573      2.522      4.413
REMARK INTER + INTRA:          -5.067
REMARK INTER:                  -5.674
REMARK INTRA:                   0.608
REMARK UNBOUND:                -0.032
REMARK SMILES CC1=CCC(=C(C)C)C(=O)CC(C)=CCC1
REMARK SMILES IDX 12 1 14 2 13 3 15 4 16 5 2 6 1 7 3 8 11 10 9 11 10 12 5 13
REMARK SMILES IDX 6 14 7 15 8 16 4 17
REMARK H PARENT
REMARK Flexibility Score: 60.00
ROOT
ATOM      1  C   UNL     1       3.564  11.283  48.619  1.00  0.00    -0.070 C 
ATOM      2  C   UNL     1       4.598  11.830  49.320  1.00  0.00    -0.027 C 
ATOM      3  C   UNL     1       2.348  10.891  49.426  1.00  0.00     0.039 C 
ENDROOT
BRANCH   2   4
ATOM      4  C   UNL     1       5.941  12.292  48.798  1.00  0.00     0.032 C 
BRANCH   4   5
ATOM      5  C   UNL     1       6.011  13.770  48.341  1.00  0.00     0.034 C 
BRANCH   5   6
ATOM      6  C   UNL     1       5.797  13.983  46.858  1.00  0.00    -0.077 C 
ATOM      7  C   UNL     1       7.004  14.007  45.953  1.00  0.00     0.039 C 
ATOM      8  C   UNL     1       4.578  14.101  46.290  1.00  0.00    -0.023 CG0
ATOM      9  G   UNL     1       3.243  14.132  47.001  1.00  0.00     0.000 G0
ENDBRANCH   5   6
ENDBRANCH   4   5
ENDBRANCH   2   4
BRANCH   1  10
ATOM     10  C   UNL     1       3.534  10.916  47.133  1.00  0.00     0.111 C 
BRANCH  10  11
ATOM     11  C   UNL     1       2.584  11.693  46.258  1.00  0.00     0.163 C 
ATOM     12  O   UNL     1       2.154  11.086  45.241  1.00  0.00    -0.294 OA
BRANCH  11  13
ATOM     13  C   UNL     1       2.165  13.124  46.531  1.00  0.00    -0.002 C 
ATOM     14  C   UNL     1       0.883  13.561  46.275  1.00  0.00    -0.069 C 
ATOM     15  C   UNL     1       0.487  15.014  46.440  1.00  0.00     0.039 C 
ATOM     16  C   UNL     1      -0.224  12.634  45.816  1.00  0.00     0.039 C 
BRANCH  13  17
ATOM     17  C   UNL     1       3.229  14.127  46.999  1.00  0.00     0.066 CG0
ATOM     18  G   UNL     1       4.565  14.099  46.291  1.00  0.00     0.000 G0
ENDBRANCH  13  17
ENDBRANCH  11  13
ENDBRANCH  10  11
ENDBRANCH   1  10
TORSDOF 0
ENDMDL
MODEL 7
REMARK VINA RESULT:    -3.395      1.737      3.680
REMARK INTER + INTRA:          -4.817
REMARK INTER:                  -5.936
REMARK INTRA:                   1.119
REMARK UNBOUND:                -0.032
REMARK SMILES CC1=CCC(=C(C)C)C(=O)CC(C)=CCC1
REMARK SMILES IDX 12 1 14 2 13 3 15 4 16 5 2 6 1 7 3 8 11 10 9 11 10 12 5 13
REMARK SMILES IDX 6 14 7 15 8 16 4 17
REMARK H PARENT
REMARK Flexibility Score: 60.00
ROOT
ATOM      1  C   UNL     1       3.266  13.651  47.132  1.00  0.00    -0.070 C 
ATOM      2  C   UNL     1       3.926  12.529  47.536  1.00  0.00    -0.027 C 
ATOM      3  C   UNL     1       4.126  14.777  46.609  1.00  0.00     0.039 C 
ENDROOT
BRANCH   2   4
ATOM      4  C   UNL     1       3.345  11.261  48.123  1.00  0.00     0.032 C 
BRANCH   4   5
ATOM      5  C   UNL     1       1.914  10.899  47.655  1.00  0.00     0.034 C 
BRANCH   5   6
ATOM      6  C   UNL     1       1.788  10.611  46.174  1.00  0.00    -0.077 C 
ATOM      7  C   UNL     1       2.890   9.835  45.496  1.00  0.00     0.039 C 
ATOM      8  C   UNL     1       0.717  10.968  45.434  1.00  0.00    -0.023 CG0
ATOM      9  G   UNL     1      -0.481  11.767  45.895  1.00  0.00     0.000 G0
ENDBRANCH   5   6
ENDBRANCH   4   5
ENDBRANCH   2   4
BRANCH   1  10
ATOM     10  C   UNL     1       1.768  13.946  47.250  1.00  0.00     0.111 C 
BRANCH  10  11
ATOM     11  C   UNL     1       0.972  13.953  45.971  1.00  0.00     0.163 C 
ATOM     12  O   UNL     1       1.497  14.566  45.002  1.00  0.00    -0.294 OA
BRANCH  11  13
ATOM     13  C   UNL     1      -0.387  13.299  45.819  1.00  0.00    -0.002 C 
ATOM     14  C   UNL     1      -1.539  14.049  45.715  1.00  0.00    -0.069 C 
ATOM     15  C   UNL     1      -2.910  13.404  45.675  1.00  0.00     0.039 C 
ATOM     16  C   UNL     1      -1.531  15.561  45.627  1.00  0.00     0.039 C 
BRANCH  13  17
ATOM     17  C   UNL     1      -0.481  11.769  45.898  1.00  0.00     0.066 CG0
ATOM     18  G   UNL     1       0.716  10.976  45.423  1.00  0.00     0.000 G0
ENDBRANCH  13  17
ENDBRANCH  11  13
ENDBRANCH  10  11
ENDBRANCH   1  10
TORSDOF 0
ENDMDL
MODEL 8
REMARK VINA RESULT:    -2.595      1.573      3.710
REMARK INTER + INTRA:          -3.689
REMARK INTER:                  -5.275
REMARK INTRA:                   1.586
REMARK UNBOUND:                -0.032
REMARK SMILES CC1=CCC(=C(C)C)C(=O)CC(C)=CCC1
REMARK SMILES IDX 12 1 14 2 13 3 15 4 16 5 2 6 1 7 3 8 11 10 9 11 10 12 5 13
REMARK SMILES IDX 6 14 7 15 8 16 4 17
REMARK H PARENT
REMARK Flexibility Score: 60.00
ROOT
ATOM      1  C   UNL     1       0.197  15.186  46.458  1.00  0.00    -0.070 C 
ATOM      2  C   UNL     1       1.506  14.861  46.259  1.00  0.00    -0.027 C 
ATOM      3  C   UNL     1      -0.103  16.656  46.640  1.00  0.00     0.039 C 
ENDROOT
BRANCH   2   4
ATOM      4  C   UNL     1       2.111  13.487  46.073  1.00  0.00     0.032 C 
BRANCH   4   5
ATOM      5  C   UNL     1       2.984  12.973  47.244  1.00  0.00     0.034 C 
BRANCH   5   6
ATOM      6  C   UNL     1       2.501  11.683  47.872  1.00  0.00    -0.077 C 
ATOM      7  C   UNL     1       3.124  11.238  49.172  1.00  0.00     0.039 C 
ATOM      8  C   UNL     1       1.504  10.931  47.358  1.00  0.00    -0.023 CG0
ATOM      9  G   UNL     1       0.761  11.169  46.063  1.00  0.00     0.000 G0
ENDBRANCH   5   6
ENDBRANCH   4   5
ENDBRANCH   2   4
BRANCH   1  10
ATOM     10  C   UNL     1      -0.987  14.230  46.631  1.00  0.00     0.111 C 
BRANCH  10  11
ATOM     11  C   UNL     1      -1.037  13.035  45.714  1.00  0.00     0.163 C 
ATOM     12  O   UNL     1      -1.396  13.269  44.529  1.00  0.00    -0.294 OA
BRANCH  11  13
ATOM     13  C   UNL     1      -0.710  11.622  46.152  1.00  0.00    -0.002 C 
ATOM     14  C   UNL     1      -1.662  10.806  46.724  1.00  0.00    -0.069 C 
ATOM     15  C   UNL     1      -1.317   9.433  47.265  1.00  0.00     0.039 C 
ATOM     16  C   UNL     1      -3.118  11.207  46.852  1.00  0.00     0.039 C 
BRANCH  13  17
ATOM     17  C   UNL     1       0.745  11.138  46.055  1.00  0.00     0.066 CG0
ATOM     18  G   UNL     1       1.497  10.941  47.352  1.00  0.00     0.000 G0
ENDBRANCH  13  17
ENDBRANCH  11  13
ENDBRANCH  10  11
ENDBRANCH   1  10
TORSDOF 0
ENDMDL
MODEL 9
REMARK VINA RESULT:    -2.182      2.127      3.725
REMARK INTER + INTRA:          -3.107
REMARK INTER:                  -4.446
REMARK INTRA:                   1.339
REMARK UNBOUND:                -0.032
REMARK SMILES CC1=CCC(=C(C)C)C(=O)CC(C)=CCC1
REMARK SMILES IDX 12 1 14 2 13 3 15 4 16 5 2 6 1 7 3 8 11 10 9 11 10 12 5 13
REMARK SMILES IDX 6 14 7 15 8 16 4 17
REMARK H PARENT
REMARK Flexibility Score: 60.00
ROOT
ATOM      1  C   UNL     1       4.817  13.617  47.129  1.00  0.00    -0.070 C 
ATOM      2  C   UNL     1       3.920  14.628  47.309  1.00  0.00    -0.027 C 
ATOM      3  C   UNL     1       6.068  13.678  47.973  1.00  0.00     0.039 C 
ENDROOT
BRANCH   2   4
ATOM      4  C   UNL     1       2.604  14.850  46.598  1.00  0.00     0.032 C 
BRANCH   4   5
ATOM      5  C   UNL     1       1.403  14.035  47.138  1.00  0.00     0.034 C 
BRANCH   5   6
ATOM      6  C   UNL     1       0.783  13.085  46.135  1.00  0.00    -0.077 C 
ATOM      7  C   UNL     1       0.068  13.667  44.941  1.00  0.00     0.039 C 
ATOM      8  C   UNL     1       0.878  11.742  46.224  1.00  0.00    -0.023 CG0
ATOM      9  G   UNL     1       1.519  10.947  47.339  1.00  0.00     0.000 G0
ENDBRANCH   5   6
ENDBRANCH   4   5
ENDBRANCH   2   4
BRANCH   1  10
ATOM     10  C   UNL     1       4.757  12.491  46.092  1.00  0.00     0.111 C 
BRANCH  10  11
ATOM     11  C   UNL     1       3.971  11.261  46.467  1.00  0.00     0.163 C 
ATOM     12  O   UNL     1       4.138  10.257  45.724  1.00  0.00    -0.294 OA
BRANCH  11  13
ATOM     13  C   UNL     1       3.010  11.198  47.637  1.00  0.00    -0.002 C 
ATOM     14  C   UNL     1       3.457  11.253  48.940  1.00  0.00    -0.069 C 
ATOM     15  C   UNL     1       2.515  11.080  50.115  1.00  0.00     0.039 C 
ATOM     16  C   UNL     1       4.909  11.494  49.301  1.00  0.00     0.039 C 
BRANCH  13  17
ATOM     17  C   UNL     1       1.520  10.956  47.355  1.00  0.00     0.066 CG0
ATOM     18  G   UNL     1       0.895  11.734  46.219  1.00  0.00     0.000 G0
ENDBRANCH  13  17
ENDBRANCH  11  13
ENDBRANCH  10  11
ENDBRANCH   1  10
TORSDOF 0
ENDMDL
