MODEL 1
REMARK VINA RESULT:    -4.950      0.000      0.000
REMARK INTER + INTRA:         -10.461
REMARK INTER:                  -7.844
REMARK INTRA:                  -2.617
REMARK UNBOUND:                -2.617
REMARK SMILES COc1cc(-c2oc3cc(O)cc(O)c3c(=O)c2O[C@@H]2O[C@H](CO[C@@H]3O[C@H](C)[C@H](O)[C@H](O)[C@H]3O)[C@@H](O)[C@@H](O)[C@H]2O)ccc1O
REMARK SMILES IDX 22 1 35 2 37 3 39 4 20 5 21 6 23 7 24 8 25 9 28 10 27 11
REMARK SMILES IDX 29 12 26 13 31 14 33 15 30 16 32 18 34 20 36 22 38 24 19 26
REMARK SMILES IDX 18 27 6 28 16 29 7 30 15 31 17 32 8 33 13 34 9 35 12 36
REMARK SMILES IDX 10 37 5 38 4 39 41 40 3 41 42 42 43 43 2 44 1 45 44 46 14 48
REMARK SMILES IDX 11 50 40 52
REMARK H PARENT 30 17 32 19 34 21 36 23 38 25 44 47 14 49 11 51 40 53
REMARK Flexibility Score: inf
ROOT
ATOM      1  C   UNL     1      11.760   0.201   2.596  1.00  0.00     0.180 C 
ATOM      2  C   UNL     1      10.334   0.124   1.661  1.00  0.00     0.177 C 
ATOM      3  C   UNL     1       9.479   1.540   1.872  1.00  0.00     0.180 C 
ATOM      4  C   UNL     1      10.204   2.450   2.911  1.00  0.00     0.214 C 
ATOM      5  C   UNL     1      11.691   2.621   2.886  1.00  0.00     0.339 C 
ATOM      6  O   UNL     1      12.381   1.481   2.245  1.00  0.00    -0.332 OA
ENDROOT
BRANCH   1   7
ATOM      7  C   UNL     1      12.764  -1.092   3.351  1.00  0.00     0.198 C 
BRANCH   7   8
ATOM      8  O   UNL     1      13.700  -1.088   4.561  1.00  0.00    -0.347 OA
BRANCH   8   9
ATOM      9  C   UNL     1      15.119  -0.868   4.169  1.00  0.00     0.281 C 
ATOM     10  C   UNL     1      17.986   1.595   5.562  1.00  0.00     0.041 C 
ATOM     11  C   UNL     1      16.886   0.839   4.640  1.00  0.00     0.150 C 
ATOM     12  C   UNL     1      15.870   1.882   4.437  1.00  0.00     0.174 C 
ATOM     13  O   UNL     1      16.097  -0.327   5.135  1.00  0.00    -0.344 OA
ATOM     14  C   UNL     1      15.644   1.390   2.848  1.00  0.00     0.179 C 
ATOM     15  C   UNL     1      15.177  -0.216   2.734  1.00  0.00     0.202 C 
BRANCH  12  16
ATOM     16  O   UNL     1      15.429   2.017   5.819  1.00  0.00    -0.388 OA
ATOM     17  H   UNL     1      15.741   2.684   6.535  1.00  0.00     0.211 HD
ENDBRANCH  12  16
BRANCH  14  18
ATOM     18  O   UNL     1      15.150   2.585   2.241  1.00  0.00    -0.387 OA
ATOM     19  H   UNL     1      14.828   3.319   2.834  1.00  0.00     0.211 HD
ENDBRANCH  14  18
BRANCH  15  20
ATOM     20  O   UNL     1      16.083  -1.103   2.041  1.00  0.00    -0.385 OA
ATOM     21  H   UNL     1      16.799  -0.480   1.596  1.00  0.00     0.211 HD
ENDBRANCH  15  20
ENDBRANCH   8   9
ENDBRANCH   7   8
ENDBRANCH   1   7
BRANCH   2  22
ATOM     22  O   UNL     1       9.550  -1.125   2.017  1.00  0.00    -0.387 OA
ATOM     23  H   UNL     1       8.453  -1.049   2.196  1.00  0.00     0.211 HD
ENDBRANCH   2  22
BRANCH   3  24
ATOM     24  O   UNL     1       8.008   1.929   1.824  1.00  0.00    -0.387 OA
ATOM     25  H   UNL     1       7.379   1.683   2.598  1.00  0.00     0.211 HD
ENDBRANCH   3  24
BRANCH   5  26
ATOM     26  O   UNL     1      11.853   4.013   2.419  1.00  0.00    -0.454 OA
BRANCH  26  27
ATOM     27  C   UNL     1      11.155   4.595   1.187  1.00  0.00     0.214 A 
ATOM     28  C   UNL     1      11.073   3.980  -0.179  1.00  0.00     0.180 A 
ATOM     29  C   UNL     1      10.175   5.664   1.389  1.00  0.00     0.239 A 
ATOM     30  O   UNL     1       9.884   4.010  -0.672  1.00  0.00    -0.452 OA
ATOM     31  C   UNL     1       9.412   6.120   0.253  1.00  0.00     0.111 A 
ATOM     32  O   UNL     1       9.955   6.173   2.550  1.00  0.00    -0.285 OA
ATOM     33  C   UNL     1       9.341   5.171  -0.795  1.00  0.00     0.146 A 
ATOM     34  C   UNL     1       8.693   7.347   0.002  1.00  0.00     0.134 A 
ATOM     35  C   UNL     1       8.965   5.470  -2.094  1.00  0.00     0.094 A 
ATOM     36  C   UNL     1       8.372   7.671  -1.390  1.00  0.00     0.093 A 
ATOM     37  C   UNL     1       8.648   6.799  -2.421  1.00  0.00     0.123 A 
BRANCH  28  38
ATOM     38  C   UNL     1      11.810   3.147  -1.289  1.00  0.00     0.025 A 
ATOM     39  C   UNL     1      13.212   3.366  -1.330  1.00  0.00     0.062 A 
ATOM     40  C   UNL     1      11.470   1.759  -1.607  1.00  0.00     0.016 A 
ATOM     41  C   UNL     1      14.143   2.558  -2.069  1.00  0.00     0.161 A 
ATOM     42  C   UNL     1      12.458   0.860  -2.209  1.00  0.00     0.051 A 
ATOM     43  C   UNL     1      13.739   1.336  -2.547  1.00  0.00     0.157 A 
BRANCH  41  44
ATOM     44  O   UNL     1      15.514   2.762  -1.846  1.00  0.00    -0.493 OA
ATOM     45  C   UNL     1      16.164   3.604  -0.800  1.00  0.00     0.278 C 
ENDBRANCH  41  44
BRANCH  43  46
ATOM     46  O   UNL     1      14.560   0.507  -3.383  1.00  0.00    -0.504 OA
ATOM     47  H   UNL     1      15.598   0.630  -3.348  1.00  0.00     0.293 HD
ENDBRANCH  43  46
ENDBRANCH  28  38
BRANCH  34  48
ATOM     48  O   UNL     1       8.460   8.325   0.992  1.00  0.00    -0.507 OA
ATOM     49  H   UNL     1       8.201   9.278   0.666  1.00  0.00     0.293 HD
ENDBRANCH  34  48
BRANCH  37  50
ATOM     50  O   UNL     1       8.640   7.082  -3.775  1.00  0.00    -0.508 OA
ATOM     51  H   UNL     1       7.704   7.039  -4.287  1.00  0.00     0.293 HD
ENDBRANCH  37  50
ENDBRANCH  26  27
ENDBRANCH   5  26
BRANCH   4  52
ATOM     52  O   UNL     1       9.812   2.563   4.254  1.00  0.00    -0.384 OA
ATOM     53  H   UNL     1       9.028   1.907   4.328  1.00  0.00     0.211 HD
ENDBRANCH   4  52
TORSDOF 16
ENDMDL
MODEL 2
REMARK VINA RESULT:    -4.901      1.888      8.353
REMARK INTER + INTRA:         -10.384
REMARK INTER:                  -8.597
REMARK INTRA:                  -1.786
REMARK UNBOUND:                -2.617
REMARK SMILES COc1cc(-c2oc3cc(O)cc(O)c3c(=O)c2O[C@@H]2O[C@H](CO[C@@H]3O[C@H](C)[C@H](O)[C@H](O)[C@H]3O)[C@@H](O)[C@@H](O)[C@H]2O)ccc1O
REMARK SMILES IDX 22 1 35 2 37 3 39 4 20 5 21 6 23 7 24 8 25 9 28 10 27 11
REMARK SMILES IDX 29 12 26 13 31 14 33 15 30 16 32 18 34 20 36 22 38 24 19 26
REMARK SMILES IDX 18 27 6 28 16 29 7 30 15 31 17 32 8 33 13 34 9 35 12 36
REMARK SMILES IDX 10 37 5 38 4 39 41 40 3 41 42 42 43 43 2 44 1 45 44 46 14 48
REMARK SMILES IDX 11 50 40 52
REMARK H PARENT 30 17 32 19 34 21 36 23 38 25 44 47 14 49 11 51 40 53
REMARK Flexibility Score: inf
ROOT
ATOM      1  C   UNL     1       9.431   4.302   1.060  1.00  0.00     0.180 C 
ATOM      2  C   UNL     1      10.898   4.711   1.831  1.00  0.00     0.177 C 
ATOM      3  C   UNL     1      11.468   3.371   2.643  1.00  0.00     0.180 C 
ATOM      4  C   UNL     1      10.450   2.197   2.513  1.00  0.00     0.214 C 
ATOM      5  C   UNL     1       9.781   1.893   1.208  1.00  0.00     0.339 C 
ATOM      6  O   UNL     1       9.718   3.072   0.317  1.00  0.00    -0.332 OA
ENDROOT
BRANCH   1   7
ATOM      7  C   UNL     1       8.005   5.304   0.597  1.00  0.00     0.198 C 
BRANCH   7   8
ATOM      8  O   UNL     1       7.885   6.747   0.103  1.00  0.00    -0.347 OA
BRANCH   8   9
ATOM      9  C   UNL     1       9.101   7.190  -0.631  1.00  0.00     0.281 C 
ATOM     10  C   UNL     1      10.365  10.800  -1.895  1.00  0.00     0.041 C 
ATOM     11  C   UNL     1       9.851   9.263  -1.813  1.00  0.00     0.150 C 
ATOM     12  C   UNL     1       8.520   9.339  -2.431  1.00  0.00     0.174 C 
ATOM     13  O   UNL     1       9.596   8.577  -0.512  1.00  0.00    -0.344 OA
ATOM     14  C   UNL     1       8.760   7.861  -3.190  1.00  0.00     0.179 C 
ATOM     15  C   UNL     1       9.067   6.623  -2.103  1.00  0.00     0.202 C 
BRANCH  12  16
ATOM     16  O   UNL     1       7.875  10.188  -1.437  1.00  0.00    -0.388 OA
ATOM     17  H   UNL     1       7.056  10.798  -1.541  1.00  0.00     0.211 HD
ENDBRANCH  12  16
BRANCH  14  18
ATOM     18  O   UNL     1       7.880   7.965  -4.312  1.00  0.00    -0.387 OA
ATOM     19  H   UNL     1       6.899   7.889  -4.153  1.00  0.00     0.211 HD
ENDBRANCH  14  18
BRANCH  15  20
ATOM     20  O   UNL     1      10.359   5.983  -2.205  1.00  0.00    -0.385 OA
ATOM     21  H   UNL     1      11.059   6.724  -1.960  1.00  0.00     0.211 HD
ENDBRANCH  15  20
ENDBRANCH   8   9
ENDBRANCH   7   8
ENDBRANCH   1   7
BRANCH   2  22
ATOM     22  O   UNL     1      10.695   5.926   2.716  1.00  0.00    -0.387 OA
ATOM     23  H   UNL     1       9.717   6.459   2.695  1.00  0.00     0.211 HD
ENDBRANCH   2  22
BRANCH   3  24
ATOM     24  O   UNL     1      12.319   3.144   3.885  1.00  0.00    -0.387 OA
ATOM     25  H   UNL     1      12.534   2.191   4.202  1.00  0.00     0.211 HD
ENDBRANCH   3  24
BRANCH   5  26
ATOM     26  O   UNL     1      10.415   0.623   0.802  1.00  0.00    -0.454 OA
BRANCH  26  27
ATOM     27  C   UNL     1      11.872   0.494   0.349  1.00  0.00     0.214 A 
ATOM     28  C   UNL     1      12.955  -0.309   1.006  1.00  0.00     0.180 A 
ATOM     29  C   UNL     1      12.204   0.880  -1.025  1.00  0.00     0.239 A 
ATOM     30  O   UNL     1      13.631  -1.019   0.170  1.00  0.00    -0.452 OA
ATOM     31  C   UNL     1      13.542   0.630  -1.504  1.00  0.00     0.111 A 
ATOM     32  O   UNL     1      11.330   1.395  -1.815  1.00  0.00    -0.285 OA
ATOM     33  C   UNL     1      14.218  -0.382  -0.782  1.00  0.00     0.146 A 
ATOM     34  C   UNL     1      14.300   1.202  -2.592  1.00  0.00     0.134 A 
ATOM     35  C   UNL     1      15.589  -0.582  -0.817  1.00  0.00     0.094 A 
ATOM     36  C   UNL     1      15.755   1.035  -2.563  1.00  0.00     0.093 A 
ATOM     37  C   UNL     1      16.380   0.276  -1.598  1.00  0.00     0.123 A 
BRANCH  28  38
ATOM     38  C   UNL     1      13.586  -0.801   2.359  1.00  0.00     0.025 A 
ATOM     39  C   UNL     1      14.793  -0.138   2.700  1.00  0.00     0.062 A 
ATOM     40  C   UNL     1      12.789  -1.119   3.544  1.00  0.00     0.016 A 
ATOM     41  C   UNL     1      15.432  -0.216   3.984  1.00  0.00     0.161 A 
ATOM     42  C   UNL     1      13.372  -1.042   4.887  1.00  0.00     0.051 A 
ATOM     43  C   UNL     1      14.732  -0.718   5.054  1.00  0.00     0.157 A 
BRANCH  41  44
ATOM     44  O   UNL     1      16.500   0.660   4.244  1.00  0.00    -0.493 OA
ATOM     45  C   UNL     1      16.457   1.997   4.903  1.00  0.00     0.278 C 
ENDBRANCH  41  44
BRANCH  43  46
ATOM     46  O   UNL     1      15.316  -0.934   6.346  1.00  0.00    -0.504 OA
ATOM     47  H   UNL     1      16.312  -1.250   6.401  1.00  0.00     0.293 HD
ENDBRANCH  43  46
ENDBRANCH  28  38
BRANCH  34  48
ATOM     48  O   UNL     1      13.739   2.063  -3.559  1.00  0.00    -0.507 OA
ATOM     49  H   UNL     1      12.703   2.078  -3.636  1.00  0.00     0.293 HD
ENDBRANCH  34  48
BRANCH  37  50
ATOM     50  O   UNL     1      17.733   0.252  -1.304  1.00  0.00    -0.508 OA
ATOM     51  H   UNL     1      18.391  -0.172  -2.030  1.00  0.00     0.293 HD
ENDBRANCH  37  50
ENDBRANCH  26  27
ENDBRANCH   5  26
BRANCH   4  52
ATOM     52  O   UNL     1       9.539   1.840   3.520  1.00  0.00    -0.384 OA
ATOM     53  H   UNL     1       8.794   1.360   3.006  1.00  0.00     0.211 HD
ENDBRANCH   4  52
TORSDOF 16
ENDMDL
MODEL 3
REMARK VINA RESULT:    -3.813      3.057      9.630
REMARK INTER + INTRA:          -8.659
REMARK INTER:                  -7.397
REMARK INTRA:                  -1.262
REMARK UNBOUND:                -2.617
REMARK SMILES COc1cc(-c2oc3cc(O)cc(O)c3c(=O)c2O[C@@H]2O[C@H](CO[C@@H]3O[C@H](C)[C@H](O)[C@H](O)[C@H]3O)[C@@H](O)[C@@H](O)[C@H]2O)ccc1O
REMARK SMILES IDX 22 1 35 2 37 3 39 4 20 5 21 6 23 7 24 8 25 9 28 10 27 11
REMARK SMILES IDX 29 12 26 13 31 14 33 15 30 16 32 18 34 20 36 22 38 24 19 26
REMARK SMILES IDX 18 27 6 28 16 29 7 30 15 31 17 32 8 33 13 34 9 35 12 36
REMARK SMILES IDX 10 37 5 38 4 39 41 40 3 41 42 42 43 43 2 44 1 45 44 46 14 48
REMARK SMILES IDX 11 50 40 52
REMARK H PARENT 30 17 32 19 34 21 36 23 38 25 44 47 14 49 11 51 40 53
REMARK Flexibility Score: inf
ROOT
ATOM      1  C   UNL     1       9.345   7.166  -0.850  1.00  0.00     0.180 C 
ATOM      2  C   UNL     1       9.835   6.676   0.711  1.00  0.00     0.177 C 
ATOM      3  C   UNL     1       9.766   5.013   0.795  1.00  0.00     0.180 C 
ATOM      4  C   UNL     1       9.204   4.435  -0.540  1.00  0.00     0.214 C 
ATOM      5  C   UNL     1       9.650   4.971  -1.865  1.00  0.00     0.339 C 
ATOM      6  O   UNL     1      10.146   6.361  -1.774  1.00  0.00    -0.332 OA
ENDROOT
BRANCH   1   7
ATOM      7  C   UNL     1       8.578   8.689  -1.437  1.00  0.00     0.198 C 
BRANCH   7   8
ATOM      8  O   UNL     1       8.889   9.600  -2.626  1.00  0.00    -0.347 OA
BRANCH   8   9
ATOM      9  C   UNL     1       9.163  11.000  -2.202  1.00  0.00     0.281 C 
ATOM     10  C   UNL     1       7.963  14.570  -3.631  1.00  0.00     0.041 C 
ATOM     11  C   UNL     1       8.837  13.283  -3.170  1.00  0.00     0.150 C 
ATOM     12  C   UNL     1       9.339  12.764  -4.450  1.00  0.00     0.174 C 
ATOM     13  O   UNL     1       8.218  12.088  -2.525  1.00  0.00    -0.344 OA
ATOM     14  C   UNL     1      10.822  12.401  -3.752  1.00  0.00     0.179 C 
ATOM     15  C   UNL     1      10.681  11.343  -2.459  1.00  0.00     0.202 C 
BRANCH  12  16
ATOM     16  O   UNL     1       8.061  12.379  -5.035  1.00  0.00    -0.388 OA
ATOM     17  H   UNL     1       7.594  11.464  -5.025  1.00  0.00     0.211 HD
ENDBRANCH  12  16
BRANCH  14  18
ATOM     18  O   UNL     1      11.691  12.431  -4.885  1.00  0.00    -0.387 OA
ATOM     19  H   UNL     1      12.377  11.713  -4.975  1.00  0.00     0.211 HD
ENDBRANCH  14  18
BRANCH  15  20
ATOM     20  O   UNL     1      11.094  11.845  -1.169  1.00  0.00    -0.385 OA
ATOM     21  H   UNL     1      12.107  12.090  -1.275  1.00  0.00     0.211 HD
ENDBRANCH  15  20
ENDBRANCH   8   9
ENDBRANCH   7   8
ENDBRANCH   1   7
BRANCH   2  22
ATOM     22  O   UNL     1       8.995   7.379   1.760  1.00  0.00    -0.387 OA
ATOM     23  H   UNL     1       9.389   8.300   2.248  1.00  0.00     0.211 HD
ENDBRANCH   2  22
BRANCH   3  24
ATOM     24  O   UNL     1       9.530   3.998   1.904  1.00  0.00    -0.387 OA
ATOM     25  H   UNL     1      10.189   3.917   2.687  1.00  0.00     0.211 HD
ENDBRANCH   3  24
BRANCH   5  26
ATOM     26  O   UNL     1      10.469   3.868  -2.406  1.00  0.00    -0.454 OA
BRANCH  26  27
ATOM     27  C   UNL     1      11.533   3.112  -1.605  1.00  0.00     0.214 A 
ATOM     28  C   UNL     1      11.369   1.799  -0.898  1.00  0.00     0.180 A 
ATOM     29  C   UNL     1      12.938   3.478  -1.805  1.00  0.00     0.239 A 
ATOM     30  O   UNL     1      12.331   0.977  -1.136  1.00  0.00    -0.452 OA
ATOM     31  C   UNL     1      13.953   2.679  -1.164  1.00  0.00     0.111 A 
ATOM     32  O   UNL     1      13.282   4.459  -2.562  1.00  0.00    -0.285 OA
ATOM     33  C   UNL     1      13.516   1.375  -0.829  1.00  0.00     0.146 A 
ATOM     34  C   UNL     1      15.329   2.958  -0.826  1.00  0.00     0.134 A 
ATOM     35  C   UNL     1      14.165   0.541   0.067  1.00  0.00     0.094 A 
ATOM     36  C   UNL     1      15.966   2.102   0.179  1.00  0.00     0.093 A 
ATOM     37  C   UNL     1      15.322   1.006   0.712  1.00  0.00     0.123 A 
BRANCH  28  38
ATOM     38  C   UNL     1      10.421   0.876  -0.049  1.00  0.00     0.025 A 
ATOM     39  C   UNL     1      10.996   0.436   1.171  1.00  0.00     0.062 A 
ATOM     40  C   UNL     1       8.983   1.114   0.084  1.00  0.00     0.016 A 
ATOM     41  C   UNL     1      10.267  -0.200   2.233  1.00  0.00     0.161 A 
ATOM     42  C   UNL     1       8.242   0.618   1.248  1.00  0.00     0.051 A 
ATOM     43  C   UNL     1       8.895  -0.149   2.232  1.00  0.00     0.157 A 
BRANCH  41  44
ATOM     44  O   UNL     1      10.922  -0.386   3.462  1.00  0.00    -0.493 OA
ATOM     45  C   UNL     1      12.288  -0.932   3.707  1.00  0.00     0.278 C 
ENDBRANCH  41  44
BRANCH  43  46
ATOM     46  O   UNL     1       8.080  -0.842   3.188  1.00  0.00    -0.504 OA
ATOM     47  H   UNL     1       7.319  -1.468   2.838  1.00  0.00     0.293 HD
ENDBRANCH  43  46
ENDBRANCH  28  38
BRANCH  34  48
ATOM     48  O   UNL     1      16.017   4.110  -1.262  1.00  0.00    -0.507 OA
ATOM     49  H   UNL     1      15.481   5.000  -1.289  1.00  0.00     0.293 HD
ENDBRANCH  34  48
BRANCH  37  50
ATOM     50  O   UNL     1      15.696   0.286   1.833  1.00  0.00    -0.508 OA
ATOM     51  H   UNL     1      14.943   0.069   2.559  1.00  0.00     0.293 HD
ENDBRANCH  37  50
ENDBRANCH  26  27
ENDBRANCH   5  26
BRANCH   4  52
ATOM     52  O   UNL     1       7.875   4.012  -0.708  1.00  0.00    -0.384 OA
ATOM     53  H   UNL     1       7.926   3.002  -0.544  1.00  0.00     0.211 HD
ENDBRANCH   4  52
TORSDOF 16
ENDMDL
MODEL 4
REMARK VINA RESULT:    -3.778     16.000     20.148
REMARK INTER + INTRA:          -8.603
REMARK INTER:                  -7.125
REMARK INTRA:                  -1.478
REMARK UNBOUND:                -2.617
REMARK SMILES COc1cc(-c2oc3cc(O)cc(O)c3c(=O)c2O[C@@H]2O[C@H](CO[C@@H]3O[C@H](C)[C@H](O)[C@H](O)[C@H]3O)[C@@H](O)[C@@H](O)[C@H]2O)ccc1O
REMARK SMILES IDX 22 1 35 2 37 3 39 4 20 5 21 6 23 7 24 8 25 9 28 10 27 11
REMARK SMILES IDX 29 12 26 13 31 14 33 15 30 16 32 18 34 20 36 22 38 24 19 26
REMARK SMILES IDX 18 27 6 28 16 29 7 30 15 31 17 32 8 33 13 34 9 35 12 36
REMARK SMILES IDX 10 37 5 38 4 39 41 40 3 41 42 42 43 43 2 44 1 45 44 46 14 48
REMARK SMILES IDX 11 50 40 52
REMARK H PARENT 30 17 32 19 34 21 36 23 38 25 44 47 14 49 11 51 40 53
REMARK Flexibility Score: inf
ROOT
ATOM      1  C   UNL     1      23.853  17.519   4.930  1.00  0.00     0.180 C 
ATOM      2  C   UNL     1      24.512  16.710   3.579  1.00  0.00     0.177 C 
ATOM      3  C   UNL     1      26.171  16.870   3.616  1.00  0.00     0.180 C 
ATOM      4  C   UNL     1      26.592  17.768   4.819  1.00  0.00     0.214 C 
ATOM      5  C   UNL     1      25.955  17.611   6.164  1.00  0.00     0.339 C 
ATOM      6  O   UNL     1      24.604  17.014   6.083  1.00  0.00    -0.332 OA
ENDROOT
BRANCH   1   7
ATOM      7  C   UNL     1      22.247  18.296   5.190  1.00  0.00     0.198 C 
BRANCH   7   8
ATOM      8  O   UNL     1      21.655  19.049   6.383  1.00  0.00    -0.347 OA
BRANCH   8   9
ATOM      9  C   UNL     1      21.258  18.129   7.484  1.00  0.00     0.281 C 
ATOM     10  C   UNL     1      19.045  14.764   7.567  1.00  0.00     0.041 C 
ATOM     11  C   UNL     1      19.615  16.267   7.787  1.00  0.00     0.150 C 
ATOM     12  C   UNL     1      18.619  17.092   7.089  1.00  0.00     0.174 C 
ATOM     13  O   UNL     1      20.914  16.719   7.207  1.00  0.00    -0.344 OA
ATOM     14  C   UNL     1      18.717  18.267   8.283  1.00  0.00     0.179 C 
ATOM     15  C   UNL     1      20.270  18.871   8.464  1.00  0.00     0.202 C 
BRANCH  12  16
ATOM     16  O   UNL     1      18.857  16.606   5.735  1.00  0.00    -0.388 OA
ATOM     17  H   UNL     1      18.182  16.249   5.048  1.00  0.00     0.211 HD
ENDBRANCH  12  16
BRANCH  14  18
ATOM     18  O   UNL     1      17.441  18.901   8.170  1.00  0.00    -0.387 OA
ATOM     19  H   UNL     1      17.318  19.796   8.592  1.00  0.00     0.211 HD
ENDBRANCH  14  18
BRANCH  15  20
ATOM     20  O   UNL     1      20.901  18.651   9.745  1.00  0.00    -0.385 OA
ATOM     21  H   UNL     1      21.564  17.853   9.597  1.00  0.00     0.211 HD
ENDBRANCH  15  20
ENDBRANCH   8   9
ENDBRANCH   7   8
ENDBRANCH   1   7
BRANCH   2  22
ATOM     22  O   UNL     1      23.874  17.229   2.304  1.00  0.00    -0.387 OA
ATOM     23  H   UNL     1      23.217  16.554   1.708  1.00  0.00     0.211 HD
ENDBRANCH   2  22
BRANCH   3  24
ATOM     24  O   UNL     1      27.275  16.907   2.568  1.00  0.00    -0.387 OA
ATOM     25  H   UNL     1      28.048  16.233   2.601  1.00  0.00     0.211 HD
ENDBRANCH   3  24
BRANCH   5  26
ATOM     26  O   UNL     1      27.038  17.019   6.974  1.00  0.00    -0.454 OA
BRANCH  26  27
ATOM     27  C   UNL     1      26.910  15.712   7.759  1.00  0.00     0.214 A 
ATOM     28  C   UNL     1      26.522  14.367   7.219  1.00  0.00     0.180 A 
ATOM     29  C   UNL     1      27.546  15.633   9.077  1.00  0.00     0.239 A 
ATOM     30  O   UNL     1      27.297  13.422   7.622  1.00  0.00    -0.452 OA
ATOM     31  C   UNL     1      27.551  14.363   9.762  1.00  0.00     0.111 A 
ATOM     32  O   UNL     1      28.125  16.648   9.613  1.00  0.00    -0.285 OA
ATOM     33  C   UNL     1      27.388  13.256   8.896  1.00  0.00     0.146 A 
ATOM     34  C   UNL     1      27.716  14.019  11.154  1.00  0.00     0.134 A 
ATOM     35  C   UNL     1      27.034  11.984   9.314  1.00  0.00     0.094 A 
ATOM     36  C   UNL     1      27.265  12.691  11.581  1.00  0.00     0.093 A 
ATOM     37  C   UNL     1      26.796  11.760  10.680  1.00  0.00     0.123 A 
BRANCH  28  38
ATOM     38  C   UNL     1      25.614  13.570   6.214  1.00  0.00     0.025 A 
ATOM     39  C   UNL     1      25.716  12.161   6.347  1.00  0.00     0.062 A 
ATOM     40  C   UNL     1      24.254  13.983   5.863  1.00  0.00     0.016 A 
ATOM     41  C   UNL     1      24.823  11.216   5.735  1.00  0.00     0.161 A 
ATOM     42  C   UNL     1      23.267  13.007   5.394  1.00  0.00     0.051 A 
ATOM     43  C   UNL     1      23.631  11.658   5.216  1.00  0.00     0.157 A 
BRANCH  41  44
ATOM     44  O   UNL     1      24.917   9.871   6.127  1.00  0.00    -0.493 OA
ATOM     45  C   UNL     1      25.478   8.723   5.358  1.00  0.00     0.278 C 
ENDBRANCH  41  44
BRANCH  43  46
ATOM     46  O   UNL     1      22.725  10.812   4.493  1.00  0.00    -0.504 OA
ATOM     47  H   UNL     1      23.041  10.397   3.586  1.00  0.00     0.293 HD
ENDBRANCH  43  46
ENDBRANCH  28  38
BRANCH  34  48
ATOM     48  O   UNL     1      28.102  14.949  12.143  1.00  0.00    -0.507 OA
ATOM     49  H   UNL     1      27.547  14.964  13.021  1.00  0.00     0.293 HD
ENDBRANCH  34  48
BRANCH  37  50
ATOM     50  O   UNL     1      26.108  10.595  10.970  1.00  0.00    -0.508 OA
ATOM     51  H   UNL     1      25.229  10.673  11.572  1.00  0.00     0.293 HD
ENDBRANCH  37  50
ENDBRANCH  26  27
ENDBRANCH   5  26
BRANCH   4  52
ATOM     52  O   UNL     1      26.934  19.125   4.695  1.00  0.00    -0.384 OA
ATOM     53  H   UNL     1      27.384  19.173   3.776  1.00  0.00     0.211 HD
ENDBRANCH   4  52
TORSDOF 16
ENDMDL
MODEL 5
REMARK VINA RESULT:    -3.566      2.230      3.884
REMARK INTER + INTRA:          -8.268
REMARK INTER:                  -6.336
REMARK INTRA:                  -1.932
REMARK UNBOUND:                -2.617
REMARK SMILES COc1cc(-c2oc3cc(O)cc(O)c3c(=O)c2O[C@@H]2O[C@H](CO[C@@H]3O[C@H](C)[C@H](O)[C@H](O)[C@H]3O)[C@@H](O)[C@@H](O)[C@H]2O)ccc1O
REMARK SMILES IDX 22 1 35 2 37 3 39 4 20 5 21 6 23 7 24 8 25 9 28 10 27 11
REMARK SMILES IDX 29 12 26 13 31 14 33 15 30 16 32 18 34 20 36 22 38 24 19 26
REMARK SMILES IDX 18 27 6 28 16 29 7 30 15 31 17 32 8 33 13 34 9 35 12 36
REMARK SMILES IDX 10 37 5 38 4 39 41 40 3 41 42 42 43 43 2 44 1 45 44 46 14 48
REMARK SMILES IDX 11 50 40 52
REMARK H PARENT 30 17 32 19 34 21 36 23 38 25 44 47 14 49 11 51 40 53
REMARK Flexibility Score: inf
ROOT
ATOM      1  C   UNL     1      12.372   1.559   1.807  1.00  0.00     0.180 C 
ATOM      2  C   UNL     1      11.143   0.435   1.433  1.00  0.00     0.177 C 
ATOM      3  C   UNL     1       9.741   0.898   2.206  1.00  0.00     0.180 C 
ATOM      4  C   UNL     1      10.010   2.157   3.086  1.00  0.00     0.214 C 
ATOM      5  C   UNL     1      10.842   3.293   2.579  1.00  0.00     0.339 C 
ATOM      6  O   UNL     1      11.789   2.873   1.524  1.00  0.00    -0.332 OA
ENDROOT
BRANCH   1   7
ATOM      7  C   UNL     1      14.165   1.384   1.889  1.00  0.00     0.198 C 
BRANCH   7   8
ATOM      8  O   UNL     1      15.304   2.249   1.346  1.00  0.00    -0.347 OA
BRANCH   8   9
ATOM      9  C   UNL     1      15.262   2.362  -0.137  1.00  0.00     0.281 C 
ATOM     10  C   UNL     1      15.512  -0.364  -3.092  1.00  0.00     0.041 C 
ATOM     11  C   UNL     1      15.779   0.878  -2.083  1.00  0.00     0.150 C 
ATOM     12  C   UNL     1      17.005   0.465  -1.387  1.00  0.00     0.174 C 
ATOM     13  O   UNL     1      14.842   1.219  -0.973  1.00  0.00    -0.344 OA
ATOM     14  C   UNL     1      17.583   2.041  -1.413  1.00  0.00     0.179 C 
ATOM     15  C   UNL     1      16.551   3.116  -0.647  1.00  0.00     0.202 C 
BRANCH  12  16
ATOM     16  O   UNL     1      16.470  -0.700  -0.694  1.00  0.00    -0.388 OA
ATOM     17  H   UNL     1      16.680  -1.044   0.251  1.00  0.00     0.211 HD
ENDBRANCH  12  16
BRANCH  14  18
ATOM     18  O   UNL     1      18.995   1.834  -1.334  1.00  0.00    -0.387 OA
ATOM     19  H   UNL     1      19.589   2.397  -1.902  1.00  0.00     0.211 HD
ENDBRANCH  14  18
BRANCH  15  20
ATOM     20  O   UNL     1      15.979   4.158  -1.470  1.00  0.00    -0.385 OA
ATOM     21  H   UNL     1      16.723   4.407  -2.164  1.00  0.00     0.211 HD
ENDBRANCH  15  20
ENDBRANCH   8   9
ENDBRANCH   7   8
ENDBRANCH   1   7
BRANCH   2  22
ATOM     22  O   UNL     1      11.602  -0.968   1.782  1.00  0.00    -0.387 OA
ATOM     23  H   UNL     1      11.054  -1.843   1.363  1.00  0.00     0.211 HD
ENDBRANCH   2  22
BRANCH   3  24
ATOM     24  O   UNL     1       8.521   0.171   2.754  1.00  0.00    -0.387 OA
ATOM     25  H   UNL     1       8.318   0.178   3.760  1.00  0.00     0.211 HD
ENDBRANCH   3  24
BRANCH   5  26
ATOM     26  O   UNL     1       9.846   4.364   2.373  1.00  0.00    -0.454 OA
BRANCH  26  27
ATOM     27  C   UNL     1       9.505   4.972   1.010  1.00  0.00     0.214 A 
ATOM     28  C   UNL     1       8.901   4.267  -0.168  1.00  0.00     0.180 A 
ATOM     29  C   UNL     1       9.411   6.431   0.909  1.00  0.00     0.239 A 
ATOM     30  O   UNL     1       7.928   4.921  -0.699  1.00  0.00    -0.452 OA
ATOM     31  C   UNL     1       8.953   7.005  -0.333  1.00  0.00     0.111 A 
ATOM     32  O   UNL     1       9.689   7.198   1.902  1.00  0.00    -0.285 OA
ATOM     33  C   UNL     1       8.194   6.107  -1.121  1.00  0.00     0.146 A 
ATOM     34  C   UNL     1       9.106   8.323  -0.901  1.00  0.00     0.134 A 
ATOM     35  C   UNL     1       7.924   6.289  -2.468  1.00  0.00     0.094 A 
ATOM     36  C   UNL     1       8.884   8.469  -2.341  1.00  0.00     0.093 A 
ATOM     37  C   UNL     1       8.445   7.419  -3.118  1.00  0.00     0.123 A 
BRANCH  28  38
ATOM     38  C   UNL     1       8.839   2.943  -1.014  1.00  0.00     0.025 A 
ATOM     39  C   UNL     1      10.114   2.428  -1.363  1.00  0.00     0.062 A 
ATOM     40  C   UNL     1       7.875   1.872  -0.754  1.00  0.00     0.016 A 
ATOM     41  C   UNL     1      10.344   1.119  -1.909  1.00  0.00     0.161 A 
ATOM     42  C   UNL     1       8.160   0.490  -1.150  1.00  0.00     0.051 A 
ATOM     43  C   UNL     1       9.344   0.180  -1.845  1.00  0.00     0.157 A 
BRANCH  41  44
ATOM     44  O   UNL     1      11.671   0.669  -2.004  1.00  0.00    -0.493 OA
ATOM     45  C   UNL     1      12.241  -0.628  -1.538  1.00  0.00     0.278 C 
ENDBRANCH  41  44
BRANCH  43  46
ATOM     46  O   UNL     1       9.441  -1.116  -2.454  1.00  0.00    -0.504 OA
ATOM     47  H   UNL     1       8.705  -1.827  -2.240  1.00  0.00     0.293 HD
ENDBRANCH  43  46
ENDBRANCH  28  38
BRANCH  34  48
ATOM     48  O   UNL     1       9.638   9.418  -0.187  1.00  0.00    -0.507 OA
ATOM     49  H   UNL     1       9.943  10.242  -0.741  1.00  0.00     0.293 HD
ENDBRANCH  34  48
BRANCH  37  50
ATOM     50  O   UNL     1       8.448   7.349  -4.501  1.00  0.00    -0.508 OA
ATOM     51  H   UNL     1       9.132   6.670  -4.962  1.00  0.00     0.293 HD
ENDBRANCH  37  50
ENDBRANCH  26  27
ENDBRANCH   5  26
BRANCH   4  52
ATOM     52  O   UNL     1      10.205   2.109   4.476  1.00  0.00    -0.384 OA
ATOM     53  H   UNL     1      10.905   2.839   4.642  1.00  0.00     0.211 HD
ENDBRANCH   4  52
TORSDOF 16
ENDMDL
MODEL 6
REMARK VINA RESULT:    -2.696      1.638      5.236
REMARK INTER + INTRA:          -6.888
REMARK INTER:                  -5.587
REMARK INTRA:                  -1.301
REMARK UNBOUND:                -2.617
REMARK SMILES COc1cc(-c2oc3cc(O)cc(O)c3c(=O)c2O[C@@H]2O[C@H](CO[C@@H]3O[C@H](C)[C@H](O)[C@H](O)[C@H]3O)[C@@H](O)[C@@H](O)[C@H]2O)ccc1O
REMARK SMILES IDX 22 1 35 2 37 3 39 4 20 5 21 6 23 7 24 8 25 9 28 10 27 11
REMARK SMILES IDX 29 12 26 13 31 14 33 15 30 16 32 18 34 20 36 22 38 24 19 26
REMARK SMILES IDX 18 27 6 28 16 29 7 30 15 31 17 32 8 33 13 34 9 35 12 36
REMARK SMILES IDX 10 37 5 38 4 39 41 40 3 41 42 42 43 43 2 44 1 45 44 46 14 48
REMARK SMILES IDX 11 50 40 52
REMARK H PARENT 30 17 32 19 34 21 36 23 38 25 44 47 14 49 11 51 40 53
REMARK Flexibility Score: inf
ROOT
ATOM      1  C   UNL     1      14.704   1.540  -0.776  1.00  0.00     0.180 C 
ATOM      2  C   UNL     1      15.146   3.155  -1.112  1.00  0.00     0.177 C 
ATOM      3  C   UNL     1      14.176   3.731  -2.339  1.00  0.00     0.180 C 
ATOM      4  C   UNL     1      13.230   2.599  -2.845  1.00  0.00     0.214 C 
ATOM      5  C   UNL     1      12.538   1.680  -1.886  1.00  0.00     0.339 C 
ATOM      6  O   UNL     1      13.251   1.571  -0.595  1.00  0.00    -0.332 OA
ENDROOT
BRANCH   1   7
ATOM      7  C   UNL     1      15.651   0.157  -0.112  1.00  0.00     0.198 C 
BRANCH   7   8
ATOM      8  O   UNL     1      15.846  -0.360   1.315  1.00  0.00    -0.347 OA
BRANCH   8   9
ATOM      9  C   UNL     1      14.833   0.194   2.254  1.00  0.00     0.281 C 
ATOM     10  C   UNL     1      13.598   3.948   3.035  1.00  0.00     0.041 C 
ATOM     11  C   UNL     1      14.223   2.454   3.135  1.00  0.00     0.150 C 
ATOM     12  C   UNL     1      15.657   2.721   3.319  1.00  0.00     0.174 C 
ATOM     13  O   UNL     1      14.188   1.497   1.991  1.00  0.00    -0.344 OA
ATOM     14  C   UNL     1      15.780   1.450   4.409  1.00  0.00     0.179 C 
ATOM     15  C   UNL     1      15.318  -0.016   3.740  1.00  0.00     0.202 C 
BRANCH  12  16
ATOM     16  O   UNL     1      15.922   3.342   2.027  1.00  0.00    -0.388 OA
ATOM     17  H   UNL     1      15.548   4.217   1.641  1.00  0.00     0.211 HD
ENDBRANCH  12  16
BRANCH  14  18
ATOM     18  O   UNL     1      16.914   1.843   5.185  1.00  0.00    -0.387 OA
ATOM     19  H   UNL     1      17.193   1.260   5.945  1.00  0.00     0.211 HD
ENDBRANCH  14  18
BRANCH  15  20
ATOM     20  O   UNL     1      14.173  -0.664   4.338  1.00  0.00    -0.385 OA
ATOM     21  H   UNL     1      14.361  -0.671   5.368  1.00  0.00     0.211 HD
ENDBRANCH  15  20
ENDBRANCH   8   9
ENDBRANCH   7   8
ENDBRANCH   1   7
BRANCH   2  22
ATOM     22  O   UNL     1      16.631   3.230  -1.417  1.00  0.00    -0.387 OA
ATOM     23  H   UNL     1      17.360   3.258  -0.575  1.00  0.00     0.211 HD
ENDBRANCH   2  22
BRANCH   3  24
ATOM     24  O   UNL     1      14.334   4.765  -3.444  1.00  0.00    -0.387 OA
ATOM     25  H   UNL     1      15.206   5.299  -3.538  1.00  0.00     0.211 HD
ENDBRANCH   3  24
BRANCH   5  26
ATOM     26  O   UNL     1      11.128   2.108  -1.983  1.00  0.00    -0.454 OA
BRANCH  26  27
ATOM     27  C   UNL     1      10.539   3.307  -1.236  1.00  0.00     0.214 A 
ATOM     28  C   UNL     1      10.294   3.422   0.240  1.00  0.00     0.180 A 
ATOM     29  C   UNL     1      10.522   4.605  -1.917  1.00  0.00     0.239 A 
ATOM     30  O   UNL     1      10.716   4.534   0.733  1.00  0.00    -0.452 OA
ATOM     31  C   UNL     1      10.100   5.766  -1.173  1.00  0.00     0.111 A 
ATOM     32  O   UNL     1      10.906   4.734  -3.138  1.00  0.00    -0.285 OA
ATOM     33  C   UNL     1      10.222   5.611   0.228  1.00  0.00     0.146 A 
ATOM     34  C   UNL     1       9.602   7.054  -1.595  1.00  0.00     0.134 A 
ATOM     35  C   UNL     1       9.595   6.421   1.161  1.00  0.00     0.094 A 
ATOM     36  C   UNL     1       8.880   7.858  -0.605  1.00  0.00     0.093 A 
ATOM     37  C   UNL     1       8.762   7.457   0.708  1.00  0.00     0.123 A 
BRANCH  28  38
ATOM     38  C   UNL     1       9.843   2.690   1.555  1.00  0.00     0.025 A 
ATOM     39  C   UNL     1       8.982   1.586   1.327  1.00  0.00     0.062 A 
ATOM     40  C   UNL     1      10.742   2.450   2.686  1.00  0.00     0.016 A 
ATOM     41  C   UNL     1       8.630   0.607   2.318  1.00  0.00     0.161 A 
ATOM     42  C   UNL     1      10.500   1.348   3.621  1.00  0.00     0.051 A 
ATOM     43  C   UNL     1       9.360   0.534   3.479  1.00  0.00     0.157 A 
BRANCH  41  44
ATOM     44  O   UNL     1       7.943  -0.543   1.895  1.00  0.00    -0.493 OA
ATOM     45  C   UNL     1       7.876  -1.125   0.523  1.00  0.00     0.278 C 
ENDBRANCH  41  44
BRANCH  43  46
ATOM     46  O   UNL     1       9.021  -0.335   4.569  1.00  0.00    -0.504 OA
ATOM     47  H   UNL     1       9.589  -0.286   5.446  1.00  0.00     0.293 HD
ENDBRANCH  43  46
ENDBRANCH  28  38
BRANCH  34  48
ATOM     48  O   UNL     1       9.607   7.485  -2.938  1.00  0.00    -0.507 OA
ATOM     49  H   UNL     1      10.497   7.877  -3.307  1.00  0.00     0.293 HD
ENDBRANCH  34  48
BRANCH  37  50
ATOM     50  O   UNL     1       7.904   7.976   1.662  1.00  0.00    -0.508 OA
ATOM     51  H   UNL     1       8.312   8.645   2.387  1.00  0.00     0.293 HD
ENDBRANCH  37  50
ENDBRANCH  26  27
ENDBRANCH   5  26
BRANCH   4  52
ATOM     52  O   UNL     1      13.462   1.854  -4.013  1.00  0.00    -0.384 OA
ATOM     53  H   UNL     1      14.484   1.822  -4.075  1.00  0.00     0.211 HD
ENDBRANCH   4  52
TORSDOF 16
ENDMDL
MODEL 7
REMARK VINA RESULT:    -2.532     14.685     18.726
REMARK INTER + INTRA:          -6.629
REMARK INTER:                  -5.321
REMARK INTRA:                  -1.308
REMARK UNBOUND:                -2.617
REMARK SMILES COc1cc(-c2oc3cc(O)cc(O)c3c(=O)c2O[C@@H]2O[C@H](CO[C@@H]3O[C@H](C)[C@H](O)[C@H](O)[C@H]3O)[C@@H](O)[C@@H](O)[C@H]2O)ccc1O
REMARK SMILES IDX 22 1 35 2 37 3 39 4 20 5 21 6 23 7 24 8 25 9 28 10 27 11
REMARK SMILES IDX 29 12 26 13 31 14 33 15 30 16 32 18 34 20 36 22 38 24 19 26
REMARK SMILES IDX 18 27 6 28 16 29 7 30 15 31 17 32 8 33 13 34 9 35 12 36
REMARK SMILES IDX 10 37 5 38 4 39 41 40 3 41 42 42 43 43 2 44 1 45 44 46 14 48
REMARK SMILES IDX 11 50 40 52
REMARK H PARENT 30 17 32 19 34 21 36 23 38 25 44 47 14 49 11 51 40 53
REMARK Flexibility Score: inf
ROOT
ATOM      1  C   UNL     1      19.678  17.398   2.184  1.00  0.00     0.180 C 
ATOM      2  C   UNL     1      20.973  16.549   1.465  1.00  0.00     0.177 C 
ATOM      3  C   UNL     1      22.302  16.653   2.465  1.00  0.00     0.180 C 
ATOM      4  C   UNL     1      21.973  17.552   3.696  1.00  0.00     0.214 C 
ATOM      5  C   UNL     1      20.664  17.435   4.414  1.00  0.00     0.339 C 
ATOM      6  O   UNL     1      19.596  16.883   3.553  1.00  0.00    -0.332 OA
ENDROOT
BRANCH   1   7
ATOM      7  C   UNL     1      18.251  18.232   1.464  1.00  0.00     0.198 C 
BRANCH   7   8
ATOM      8  O   UNL     1      17.984  18.777   0.060  1.00  0.00    -0.347 OA
BRANCH   8   9
ATOM      9  C   UNL     1      17.523  17.713  -0.874  1.00  0.00     0.281 C 
ATOM     10  C   UNL     1      14.148  17.237  -3.020  1.00  0.00     0.041 C 
ATOM     11  C   UNL     1      15.366  17.066  -1.962  1.00  0.00     0.150 C 
ATOM     12  C   UNL     1      14.700  17.285  -0.671  1.00  0.00     0.174 C 
ATOM     13  O   UNL     1      16.526  18.006  -1.923  1.00  0.00    -0.344 OA
ATOM     14  C   UNL     1      15.625  16.078   0.040  1.00  0.00     0.179 C 
ATOM     15  C   UNL     1      17.270  16.379  -0.072  1.00  0.00     0.202 C 
BRANCH  12  16
ATOM     16  O   UNL     1      14.329  18.682  -0.860  1.00  0.00    -0.388 OA
ATOM     17  H   UNL     1      13.891  19.331  -0.196  1.00  0.00     0.211 HD
ENDBRANCH  12  16
BRANCH  14  18
ATOM     18  O   UNL     1      14.789  15.674   1.127  1.00  0.00    -0.387 OA
ATOM     19  H   UNL     1      15.220  15.282   1.936  1.00  0.00     0.211 HD
ENDBRANCH  14  18
BRANCH  15  20
ATOM     20  O   UNL     1      18.048  15.425  -0.829  1.00  0.00    -0.385 OA
ATOM     21  H   UNL     1      17.702  15.500  -1.815  1.00  0.00     0.211 HD
ENDBRANCH  15  20
ENDBRANCH   8   9
ENDBRANCH   7   8
ENDBRANCH   1   7
BRANCH   2  22
ATOM     22  O   UNL     1      21.218  17.073   0.062  1.00  0.00    -0.387 OA
ATOM     23  H   UNL     1      20.595  17.912  -0.324  1.00  0.00     0.211 HD
ENDBRANCH   2  22
BRANCH   3  24
ATOM     24  O   UNL     1      23.811  16.639   2.260  1.00  0.00    -0.387 OA
ATOM     25  H   UNL     1      24.208  16.516   1.321  1.00  0.00     0.211 HD
ENDBRANCH   3  24
BRANCH   5  26
ATOM     26  O   UNL     1      21.049  16.817   5.698  1.00  0.00    -0.454 OA
BRANCH  26  27
ATOM     27  C   UNL     1      22.493  16.518   6.112  1.00  0.00     0.214 A 
ATOM     28  C   UNL     1      23.358  15.395   5.624  1.00  0.00     0.180 A 
ATOM     29  C   UNL     1      23.258  17.582   6.766  1.00  0.00     0.239 A 
ATOM     30  O   UNL     1      24.541  15.781   5.291  1.00  0.00    -0.452 OA
ATOM     31  C   UNL     1      24.658  17.358   7.031  1.00  0.00     0.111 A 
ATOM     32  O   UNL     1      22.725  18.712   7.070  1.00  0.00    -0.285 OA
ATOM     33  C   UNL     1      25.235  16.363   6.207  1.00  0.00     0.146 A 
ATOM     34  C   UNL     1      25.576  17.975   7.960  1.00  0.00     0.134 A 
ATOM     35  C   UNL     1      26.441  15.734   6.470  1.00  0.00     0.094 A 
ATOM     36  C   UNL     1      26.811  17.252   8.273  1.00  0.00     0.093 A 
ATOM     37  C   UNL     1      27.145  16.077   7.635  1.00  0.00     0.123 A 
BRANCH  28  38
ATOM     38  C   UNL     1      23.427  13.887   5.186  1.00  0.00     0.025 A 
ATOM     39  C   UNL     1      24.505  13.172   5.770  1.00  0.00     0.062 A 
ATOM     40  C   UNL     1      22.241  13.044   5.029  1.00  0.00     0.016 A 
ATOM     41  C   UNL     1      24.649  11.742   5.737  1.00  0.00     0.161 A 
ATOM     42  C   UNL     1      22.329  11.587   5.159  1.00  0.00     0.051 A 
ATOM     43  C   UNL     1      23.573  10.967   5.380  1.00  0.00     0.157 A 
BRANCH  41  44
ATOM     44  O   UNL     1      25.647  11.162   6.537  1.00  0.00    -0.493 OA
ATOM     45  C   UNL     1      26.404  11.781   7.663  1.00  0.00     0.278 C 
ENDBRANCH  41  44
BRANCH  43  46
ATOM     46  O   UNL     1      23.649   9.543   5.216  1.00  0.00    -0.504 OA
ATOM     47  H   UNL     1      23.921   8.957   6.038  1.00  0.00     0.293 HD
ENDBRANCH  43  46
ENDBRANCH  28  38
BRANCH  34  48
ATOM     48  O   UNL     1      25.259  19.125   8.714  1.00  0.00    -0.507 OA
ATOM     49  H   UNL     1      24.920  19.957   8.190  1.00  0.00     0.293 HD
ENDBRANCH  34  48
BRANCH  37  50
ATOM     50  O   UNL     1      28.125  15.175   8.013  1.00  0.00    -0.508 OA
ATOM     51  H   UNL     1      27.933  14.559   8.864  1.00  0.00     0.293 HD
ENDBRANCH  37  50
ENDBRANCH  26  27
ENDBRANCH   5  26
BRANCH   4  52
ATOM     52  O   UNL     1      22.370  18.895   3.808  1.00  0.00    -0.384 OA
ATOM     53  H   UNL     1      22.655  19.138   2.855  1.00  0.00     0.211 HD
ENDBRANCH   4  52
TORSDOF 16
ENDMDL
