MODEL 1
REMARK VINA RESULT:    -4.941      0.000      0.000
REMARK INTER + INTRA:          -5.889
REMARK INTER:                  -5.663
REMARK INTRA:                  -0.226
REMARK UNBOUND:                -0.226
REMARK SMILES COc1ccc(C=O)c(O)c1
REMARK SMILES IDX 3 1 11 2 9 3 6 4 5 5 4 6 2 7 1 8 10 9 7 11 8 12
REMARK H PARENT 10 10
REMARK Flexibility Score: inf
ROOT
ATOM      1  C   UNL     1      11.675   0.843  34.499  1.00  0.00     0.122 A 
ATOM      2  C   UNL     1      11.183   1.455  35.657  1.00  0.00     0.093 A 
ATOM      3  C   UNL     1       9.866   1.231  36.084  1.00  0.00     0.129 A 
ATOM      4  C   UNL     1       9.022   0.380  35.342  1.00  0.00     0.056 A 
ATOM      5  C   UNL     1       9.519  -0.233  34.179  1.00  0.00     0.019 A 
ATOM      6  C   UNL     1      10.832  -0.006  33.760  1.00  0.00     0.047 A 
ENDROOT
BRANCH   1   7
ATOM      7  O   UNL     1      13.000   1.105  34.120  1.00  0.00    -0.497 OA
ATOM      8  C   UNL     1      13.490   2.386  33.738  1.00  0.00     0.278 C 
ENDBRANCH   1   7
BRANCH   3   9
ATOM      9  O   UNL     1       9.397   1.851  37.242  1.00  0.00    -0.507 OA
ATOM     10  H   UNL     1      10.027   2.300  37.896  1.00  0.00     0.293 HD
ENDBRANCH   3   9
BRANCH   4  11
ATOM     11  C   UNL     1       7.633   0.136  35.782  1.00  0.00     0.263 C 
ATOM     12  O   UNL     1       6.970   1.034  36.367  1.00  0.00    -0.298 OA
ENDBRANCH   4  11
TORSDOF 3
ENDMDL
MODEL 2
REMARK VINA RESULT:    -4.836      1.590      4.811
REMARK INTER + INTRA:          -5.769
REMARK INTER:                  -5.511
REMARK INTRA:                  -0.258
REMARK UNBOUND:                -0.226
REMARK SMILES COc1ccc(C=O)c(O)c1
REMARK SMILES IDX 3 1 11 2 9 3 6 4 5 5 4 6 2 7 1 8 10 9 7 11 8 12
REMARK H PARENT 10 10
REMARK Flexibility Score: inf
ROOT
ATOM      1  C   UNL     1       7.956   0.160  35.554  1.00  0.00     0.122 A 
ATOM      2  C   UNL     1       8.775  -0.380  34.556  1.00  0.00     0.093 A 
ATOM      3  C   UNL     1      10.095   0.062  34.392  1.00  0.00     0.129 A 
ATOM      4  C   UNL     1      10.612   1.063  35.239  1.00  0.00     0.056 A 
ATOM      5  C   UNL     1       9.788   1.603  36.241  1.00  0.00     0.019 A 
ATOM      6  C   UNL     1       8.473   1.158  36.399  1.00  0.00     0.047 A 
ENDROOT
BRANCH   1   7
ATOM      7  O   UNL     1       6.644  -0.321  35.672  1.00  0.00    -0.497 OA
ATOM      8  C   UNL     1       5.622   0.311  36.436  1.00  0.00     0.278 C 
ENDBRANCH   1   7
BRANCH   3   9
ATOM      9  O   UNL     1      10.892  -0.491  33.390  1.00  0.00    -0.507 OA
ATOM     10  H   UNL     1      11.607  -1.179  33.598  1.00  0.00     0.293 HD
ENDBRANCH   3   9
BRANCH   4  11
ATOM     11  C   UNL     1      12.002   1.536  35.075  1.00  0.00     0.263 C 
ATOM     12  O   UNL     1      12.977   0.755  35.234  1.00  0.00    -0.298 OA
ENDBRANCH   4  11
TORSDOF 3
ENDMDL
MODEL 3
REMARK VINA RESULT:    -4.828      1.303      2.103
REMARK INTER + INTRA:          -5.760
REMARK INTER:                  -5.511
REMARK INTRA:                  -0.250
REMARK UNBOUND:                -0.226
REMARK SMILES COc1ccc(C=O)c(O)c1
REMARK SMILES IDX 3 1 11 2 9 3 6 4 5 5 4 6 2 7 1 8 10 9 7 11 8 12
REMARK H PARENT 10 10
REMARK Flexibility Score: inf
ROOT
ATOM      1  C   UNL     1      11.539   0.776  34.871  1.00  0.00     0.122 A 
ATOM      2  C   UNL     1      10.658  -0.026  34.137  1.00  0.00     0.093 A 
ATOM      3  C   UNL     1       9.302  -0.108  34.484  1.00  0.00     0.129 A 
ATOM      4  C   UNL     1       8.813   0.624  35.585  1.00  0.00     0.056 A 
ATOM      5  C   UNL     1       9.700   1.428  36.321  1.00  0.00     0.019 A 
ATOM      6  C   UNL     1      11.050   1.506  35.968  1.00  0.00     0.047 A 
ENDROOT
BRANCH   1   7
ATOM      7  O   UNL     1      12.885   0.820  34.477  1.00  0.00    -0.497 OA
ATOM      8  C   UNL     1      13.484   1.908  33.780  1.00  0.00     0.278 C 
ENDBRANCH   1   7
BRANCH   3   9
ATOM      9  O   UNL     1       8.442  -0.914  33.738  1.00  0.00    -0.507 OA
ATOM     10  H   UNL     1       8.636  -1.143  32.770  1.00  0.00     0.293 HD
ENDBRANCH   3   9
BRANCH   4  11
ATOM     11  C   UNL     1       7.386   0.544  35.960  1.00  0.00     0.263 C 
ATOM     12  O   UNL     1       6.772  -0.555  35.951  1.00  0.00    -0.298 OA
ENDBRANCH   4  11
TORSDOF 3
ENDMDL
MODEL 4
REMARK VINA RESULT:    -4.689      1.795      4.749
REMARK INTER + INTRA:          -5.600
REMARK INTER:                  -5.344
REMARK INTRA:                  -0.256
REMARK UNBOUND:                -0.226
REMARK SMILES COc1ccc(C=O)c(O)c1
REMARK SMILES IDX 3 1 11 2 9 3 6 4 5 5 4 6 2 7 1 8 10 9 7 11 8 12
REMARK H PARENT 10 10
REMARK Flexibility Score: inf
ROOT
ATOM      1  C   UNL     1       9.387   0.684  34.132  1.00  0.00     0.122 A 
ATOM      2  C   UNL     1      10.532  -0.120  34.144  1.00  0.00     0.093 A 
ATOM      3  C   UNL     1      11.812   0.454  34.148  1.00  0.00     0.129 A 
ATOM      4  C   UNL     1      11.954   1.856  34.140  1.00  0.00     0.056 A 
ATOM      5  C   UNL     1      10.802   2.660  34.128  1.00  0.00     0.019 A 
ATOM      6  C   UNL     1       9.530   2.083  34.124  1.00  0.00     0.047 A 
ENDROOT
BRANCH   1   7
ATOM      7  O   UNL     1       8.132   0.056  34.128  1.00  0.00    -0.497 OA
ATOM      8  C   UNL     1       7.530  -0.545  35.270  1.00  0.00     0.278 C 
ENDBRANCH   1   7
BRANCH   3   9
ATOM      9  O   UNL     1      12.940  -0.367  34.160  1.00  0.00    -0.507 OA
ATOM     10  H   UNL     1      13.572  -0.390  34.952  1.00  0.00     0.293 HD
ENDBRANCH   3   9
BRANCH   4  11
ATOM     11  C   UNL     1      13.297   2.471  34.144  1.00  0.00     0.263 C 
ATOM     12  O   UNL     1      14.115   2.252  33.211  1.00  0.00    -0.298 OA
ENDBRANCH   4  11
TORSDOF 3
ENDMDL
MODEL 5
REMARK VINA RESULT:    -4.657      1.415      4.524
REMARK INTER + INTRA:          -5.564
REMARK INTER:                  -5.312
REMARK INTRA:                  -0.252
REMARK UNBOUND:                -0.226
REMARK SMILES COc1ccc(C=O)c(O)c1
REMARK SMILES IDX 3 1 11 2 9 3 6 4 5 5 4 6 2 7 1 8 10 9 7 11 8 12
REMARK H PARENT 10 10
REMARK Flexibility Score: inf
ROOT
ATOM      1  C   UNL     1       9.150   1.497  35.353  1.00  0.00     0.122 A 
ATOM      2  C   UNL     1      10.311   1.160  36.057  1.00  0.00     0.093 A 
ATOM      3  C   UNL     1      11.575   1.542  35.583  1.00  0.00     0.129 A 
ATOM      4  C   UNL     1      11.684   2.274  34.385  1.00  0.00     0.056 A 
ATOM      5  C   UNL     1      10.516   2.612  33.680  1.00  0.00     0.019 A 
ATOM      6  C   UNL     1       9.261   2.229  34.158  1.00  0.00     0.047 A 
ENDROOT
BRANCH   1   7
ATOM      7  O   UNL     1       7.913   1.089  35.875  1.00  0.00    -0.497 OA
ATOM      8  C   UNL     1       7.321  -0.184  35.636  1.00  0.00     0.278 C 
ENDBRANCH   1   7
BRANCH   3   9
ATOM      9  O   UNL     1      12.719   1.194  36.302  1.00  0.00    -0.507 OA
ATOM     10  H   UNL     1      12.699   1.078  37.309  1.00  0.00     0.293 HD
ENDBRANCH   3   9
BRANCH   4  11
ATOM     11  C   UNL     1      13.010   2.682  33.876  1.00  0.00     0.263 C 
ATOM     12  O   UNL     1      13.873   1.824  33.552  1.00  0.00    -0.298 OA
ENDBRANCH   4  11
TORSDOF 3
ENDMDL
MODEL 6
REMARK VINA RESULT:    -4.656     16.947     17.963
REMARK INTER + INTRA:          -5.563
REMARK INTER:                  -5.292
REMARK INTRA:                  -0.271
REMARK UNBOUND:                -0.226
REMARK SMILES COc1ccc(C=O)c(O)c1
REMARK SMILES IDX 3 1 11 2 9 3 6 4 5 5 4 6 2 7 1 8 10 9 7 11 8 12
REMARK H PARENT 10 10
REMARK Flexibility Score: inf
ROOT
ATOM      1  C   UNL     1       9.817 -10.865  47.989  1.00  0.00     0.122 A 
ATOM      2  C   UNL     1      10.550 -10.724  46.805  1.00  0.00     0.093 A 
ATOM      3  C   UNL     1      11.879 -11.166  46.726  1.00  0.00     0.129 A 
ATOM      4  C   UNL     1      12.490 -11.761  47.847  1.00  0.00     0.056 A 
ATOM      5  C   UNL     1      11.752 -11.901  49.035  1.00  0.00     0.019 A 
ATOM      6  C   UNL     1      10.429 -11.459  49.107  1.00  0.00     0.047 A 
ENDROOT
BRANCH   1   7
ATOM      7  O   UNL     1       8.492 -10.404  48.011  1.00  0.00    -0.497 OA
ATOM      8  C   UNL     1       7.839  -9.782  46.909  1.00  0.00     0.278 C 
ENDBRANCH   1   7
BRANCH   3   9
ATOM      9  O   UNL     1      12.590 -11.015  45.535  1.00  0.00    -0.507 OA
ATOM     10  H   UNL     1      13.372 -10.376  45.461  1.00  0.00     0.293 HD
ENDBRANCH   3   9
BRANCH   4  11
ATOM     11  C   UNL     1      13.889 -12.230  47.775  1.00  0.00     0.263 C 
ATOM     12  O   UNL     1      14.281 -12.961  46.827  1.00  0.00    -0.298 OA
ENDBRANCH   4  11
TORSDOF 3
ENDMDL
MODEL 7
REMARK VINA RESULT:    -4.635      1.202      4.273
REMARK INTER + INTRA:          -5.539
REMARK INTER:                  -5.270
REMARK INTRA:                  -0.269
REMARK UNBOUND:                -0.226
REMARK SMILES COc1ccc(C=O)c(O)c1
REMARK SMILES IDX 3 1 11 2 9 3 6 4 5 5 4 6 2 7 1 8 10 9 7 11 8 12
REMARK H PARENT 10 10
REMARK Flexibility Score: inf
ROOT
ATOM      1  C   UNL     1       8.809   0.440  34.798  1.00  0.00     0.122 A 
ATOM      2  C   UNL     1       9.390   1.544  35.432  1.00  0.00     0.093 A 
ATOM      3  C   UNL     1      10.753   1.831  35.269  1.00  0.00     0.129 A 
ATOM      4  C   UNL     1      11.554   1.003  34.457  1.00  0.00     0.056 A 
ATOM      5  C   UNL     1      10.968  -0.104  33.821  1.00  0.00     0.019 A 
ATOM      6  C   UNL     1       9.609  -0.385  33.988  1.00  0.00     0.047 A 
ENDROOT
BRANCH   1   7
ATOM      7  O   UNL     1       7.441   0.201  34.997  1.00  0.00    -0.497 OA
ATOM      8  C   UNL     1       6.737   0.512  36.195  1.00  0.00     0.278 C 
ENDBRANCH   1   7
BRANCH   3   9
ATOM      9  O   UNL     1      11.310   2.937  35.912  1.00  0.00    -0.507 OA
ATOM     10  H   UNL     1      12.094   3.443  35.515  1.00  0.00     0.293 HD
ENDBRANCH   3   9
BRANCH   4  11
ATOM     11  C   UNL     1      12.990   1.297  34.278  1.00  0.00     0.263 C 
ATOM     12  O   UNL     1      13.377   2.420  33.859  1.00  0.00    -0.298 OA
ENDBRANCH   4  11
TORSDOF 3
ENDMDL
MODEL 8
REMARK VINA RESULT:    -4.517      1.545      4.737
REMARK INTER + INTRA:          -5.404
REMARK INTER:                  -5.140
REMARK INTRA:                  -0.264
REMARK UNBOUND:                -0.226
REMARK SMILES COc1ccc(C=O)c(O)c1
REMARK SMILES IDX 3 1 11 2 9 3 6 4 5 5 4 6 2 7 1 8 10 9 7 11 8 12
REMARK H PARENT 10 10
REMARK Flexibility Score: inf
ROOT
ATOM      1  C   UNL     1       9.198   1.459  35.432  1.00  0.00     0.122 A 
ATOM      2  C   UNL     1       9.492   2.181  34.271  1.00  0.00     0.093 A 
ATOM      3  C   UNL     1      10.810   2.555  33.971  1.00  0.00     0.129 A 
ATOM      4  C   UNL     1      11.856   2.203  34.846  1.00  0.00     0.056 A 
ATOM      5  C   UNL     1      11.559   1.477  36.012  1.00  0.00     0.019 A 
ATOM      6  C   UNL     1      10.244   1.107  36.304  1.00  0.00     0.047 A 
ENDROOT
BRANCH   1   7
ATOM      7  O   UNL     1       7.862   1.112  35.681  1.00  0.00    -0.497 OA
ATOM      8  C   UNL     1       7.341  -0.210  35.577  1.00  0.00     0.278 C 
ENDBRANCH   1   7
BRANCH   3   9
ATOM      9  O   UNL     1      11.078   3.276  32.807  1.00  0.00    -0.507 OA
ATOM     10  H   UNL     1      10.334   3.630  32.217  1.00  0.00     0.293 HD
ENDBRANCH   3   9
BRANCH   4  11
ATOM     11  C   UNL     1      13.248   2.592  34.540  1.00  0.00     0.263 C 
ATOM     12  O   UNL     1      13.777   2.300  33.434  1.00  0.00    -0.298 OA
ENDBRANCH   4  11
TORSDOF 3
ENDMDL
MODEL 9
REMARK VINA RESULT:    -4.514      4.646      7.762
REMARK INTER + INTRA:          -5.401
REMARK INTER:                  -5.175
REMARK INTRA:                  -0.226
REMARK UNBOUND:                -0.226
REMARK SMILES COc1ccc(C=O)c(O)c1
REMARK SMILES IDX 3 1 11 2 9 3 6 4 5 5 4 6 2 7 1 8 10 9 7 11 8 12
REMARK H PARENT 10 10
REMARK Flexibility Score: inf
ROOT
ATOM      1  C   UNL     1       3.159  -1.355  37.915  1.00  0.00     0.122 A 
ATOM      2  C   UNL     1       3.815  -0.195  37.489  1.00  0.00     0.093 A 
ATOM      3  C   UNL     1       4.998  -0.272  36.740  1.00  0.00     0.129 A 
ATOM      4  C   UNL     1       5.539  -1.530  36.408  1.00  0.00     0.056 A 
ATOM      5  C   UNL     1       4.879  -2.694  36.837  1.00  0.00     0.019 A 
ATOM      6  C   UNL     1       3.700  -2.610  37.583  1.00  0.00     0.047 A 
ENDROOT
BRANCH   1   7
ATOM      7  O   UNL     1       1.979  -1.218  38.662  1.00  0.00    -0.497 OA
ATOM      8  C   UNL     1       1.823  -1.658  40.007  1.00  0.00     0.278 C 
ENDBRANCH   1   7
BRANCH   3   9
ATOM      9  O   UNL     1       5.634   0.899  36.326  1.00  0.00    -0.507 OA
ATOM     10  H   UNL     1       6.401   1.301  36.852  1.00  0.00     0.293 HD
ENDBRANCH   3   9
BRANCH   4  11
ATOM     11  C   UNL     1       6.785  -1.623  35.620  1.00  0.00     0.263 C 
ATOM     12  O   UNL     1       7.692  -0.757  35.734  1.00  0.00    -0.298 OA
ENDBRANCH   4  11
TORSDOF 3
ENDMDL
