MODEL 1
REMARK VINA RESULT:     8.460      0.000      0.000
REMARK INTER + INTRA:          11.489
REMARK INTER:                  10.439
REMARK INTRA:                   1.050
REMARK UNBOUND:                 1.050
REMARK SMILES CC1=CC=CC(C)(C)CC1=O
REMARK SMILES IDX 1 1 2 2 3 3 10 4 11 5 9 6 4 8 5 9 6 10 7 11 8 12
REMARK H PARENT
REMARK Flexibility Score: 80.00
ROOT
ATOM      1  C   UNL     1      35.638  13.876  42.477  1.00  0.00     0.048 C 
ATOM      2  C   UNL     1      34.703  12.878  41.834  1.00  0.00    -0.008 C 
ATOM      3  C   UNL     1      33.812  12.252  42.630  1.00  0.00     0.007 C 
ENDROOT
BRANCH   2   4
ATOM      4  C   UNL     1      34.790  12.725  40.359  1.00  0.00     0.159 C 
ATOM      5  O   UNL     1      35.805  13.175  39.759  1.00  0.00    -0.295 OA
BRANCH   4   6
ATOM      6  C   UNL     1      33.740  12.045  39.537  1.00  0.00     0.091 CG0
ATOM      7  G   UNL     1      33.512  10.570  39.938  1.00  0.00     0.000 G0
ENDBRANCH   4   6
ENDBRANCH   2   4
BRANCH   3   8
ATOM      8  C   UNL     1      32.765  11.258  42.291  1.00  0.00    -0.003 C 
ATOM      9  C   UNL     1      32.609  10.548  41.166  1.00  0.00    -0.020 C 
BRANCH   9  10
ATOM     10  C   UNL     1      33.508  10.579  39.953  1.00  0.00    -0.010 CG0
ATOM     11  C   UNL     1      34.867   9.951  40.341  1.00  0.00     0.016 C 
ATOM     12  C   UNL     1      32.895   9.727  38.818  1.00  0.00     0.016 C 
ATOM     13  G   UNL     1      33.760  12.044  39.529  1.00  0.00     0.000 G0
ENDBRANCH   9  10
ENDBRANCH   3   8
TORSDOF 0
ENDMDL
MODEL 2
REMARK VINA RESULT:     8.562      1.413      2.356
REMARK INTER + INTRA:          11.614
REMARK INTER:                  10.865
REMARK INTRA:                   0.749
REMARK UNBOUND:                 1.050
REMARK SMILES CC1=CC=CC(C)(C)CC1=O
REMARK SMILES IDX 1 1 2 2 3 3 10 4 11 5 9 6 4 8 5 9 6 10 7 11 8 12
REMARK H PARENT
REMARK Flexibility Score: 80.00
ROOT
ATOM      1  C   UNL     1      35.670  13.595  42.578  1.00  0.00     0.048 C 
ATOM      2  C   UNL     1      34.720  12.858  41.663  1.00  0.00    -0.008 C 
ATOM      3  C   UNL     1      34.567  13.330  40.408  1.00  0.00     0.007 C 
ENDROOT
BRANCH   2   4
ATOM      4  C   UNL     1      34.088  11.625  42.197  1.00  0.00     0.159 C 
ATOM      5  O   UNL     1      34.515  11.143  43.282  1.00  0.00    -0.295 OA
BRANCH   4   6
ATOM      6  C   UNL     1      32.952  10.920  41.523  1.00  0.00     0.091 CG0
ATOM      7  G   UNL     1      33.298  10.433  40.098  1.00  0.00     0.000 G0
ENDBRANCH   4   6
ENDBRANCH   2   4
BRANCH   3   8
ATOM      8  C   UNL     1      33.739  12.814  39.291  1.00  0.00    -0.003 C 
ATOM      9  C   UNL     1      33.203  11.597  39.130  1.00  0.00    -0.020 C 
BRANCH   9  10
ATOM     10  C   UNL     1      33.300  10.439  40.094  1.00  0.00    -0.010 CG0
ATOM     11  C   UNL     1      32.250   9.379  39.686  1.00  0.00     0.016 C 
ATOM     12  C   UNL     1      34.698   9.787  40.000  1.00  0.00     0.016 C 
ATOM     13  G   UNL     1      32.963  10.923  41.523  1.00  0.00     0.000 G0
ENDBRANCH   9  10
ENDBRANCH   3   8
TORSDOF 0
ENDMDL
MODEL 3
REMARK VINA RESULT:     9.438      1.897      3.777
REMARK INTER + INTRA:          12.696
REMARK INTER:                  11.931
REMARK INTRA:                   0.765
REMARK UNBOUND:                 1.050
REMARK SMILES CC1=CC=CC(C)(C)CC1=O
REMARK SMILES IDX 1 1 2 2 3 3 10 4 11 5 9 6 4 8 5 9 6 10 7 11 8 12
REMARK H PARENT
REMARK Flexibility Score: 80.00
ROOT
ATOM      1  C   UNL     1      31.389   8.986  40.128  1.00  0.00     0.048 C 
ATOM      2  C   UNL     1      32.674   9.746  40.362  1.00  0.00    -0.008 C 
ATOM      3  C   UNL     1      33.751   9.393  39.629  1.00  0.00     0.007 C 
ENDROOT
BRANCH   2   4
ATOM      4  C   UNL     1      32.627  10.875  41.325  1.00  0.00     0.159 C 
ATOM      5  O   UNL     1      31.506  11.256  41.761  1.00  0.00    -0.295 OA
BRANCH   4   6
ATOM      6  C   UNL     1      33.846  11.585  41.826  1.00  0.00     0.091 CG0
ATOM      7  G   UNL     1      34.688  12.220  40.696  1.00  0.00     0.000 G0
ENDBRANCH   4   6
ENDBRANCH   2   4
BRANCH   3   8
ATOM      8  C   UNL     1      35.120   9.961  39.614  1.00  0.00    -0.003 C 
ATOM      9  C   UNL     1      35.543  11.155  40.051  1.00  0.00    -0.020 C 
BRANCH   9  10
ATOM     10  C   UNL     1      34.698  12.222  40.705  1.00  0.00    -0.010 CG0
ATOM     11  C   UNL     1      35.644  13.261  41.350  1.00  0.00     0.016 C 
ATOM     12  C   UNL     1      33.846  12.949  39.640  1.00  0.00     0.016 C 
ATOM     13  G   UNL     1      33.842  11.592  41.826  1.00  0.00     0.000 G0
ENDBRANCH   9  10
ENDBRANCH   3   8
TORSDOF 0
ENDMDL
MODEL 4
REMARK VINA RESULT:     9.945     16.962     18.702
REMARK INTER + INTRA:          13.320
REMARK INTER:                  12.565
REMARK INTRA:                   0.756
REMARK UNBOUND:                 1.050
REMARK SMILES CC1=CC=CC(C)(C)CC1=O
REMARK SMILES IDX 1 1 2 2 3 3 10 4 11 5 9 6 4 8 5 9 6 10 7 11 8 12
REMARK H PARENT
REMARK Flexibility Score: 80.00
ROOT
ATOM      1  C   UNL     1      18.548   8.859  28.378  1.00  0.00     0.048 C 
ATOM      2  C   UNL     1      19.571   9.813  27.808  1.00  0.00    -0.008 C 
ATOM      3  C   UNL     1      19.146  11.040  27.439  1.00  0.00     0.007 C 
ENDROOT
BRANCH   2   4
ATOM      4  C   UNL     1      20.981   9.349  27.771  1.00  0.00     0.159 C 
ATOM      5  O   UNL     1      21.297   8.311  28.416  1.00  0.00    -0.295 OA
BRANCH   4   6
ATOM      6  C   UNL     1      22.058  10.039  26.992  1.00  0.00     0.091 CG0
ATOM      7  G   UNL     1      22.303  11.494  27.451  1.00  0.00     0.000 G0
ENDBRANCH   4   6
ENDBRANCH   2   4
BRANCH   3   8
ATOM      8  C   UNL     1      19.907  12.184  26.882  1.00  0.00    -0.003 C 
ATOM      9  C   UNL     1      21.229  12.399  26.885  1.00  0.00    -0.020 C 
BRANCH   9  10
ATOM     10  C   UNL     1      22.286  11.482  27.452  1.00  0.00    -0.010 CG0
ATOM     11  C   UNL     1      23.661  11.929  26.902  1.00  0.00     0.016 C 
ATOM     12  C   UNL     1      22.325  11.609  28.992  1.00  0.00     0.016 C 
ATOM     13  G   UNL     1      22.028  10.034  26.979  1.00  0.00     0.000 G0
ENDBRANCH   9  10
ENDBRANCH   3   8
TORSDOF 0
ENDMDL
MODEL 5
REMARK VINA RESULT:    10.151     16.747     18.452
REMARK INTER + INTRA:          13.575
REMARK INTER:                  12.491
REMARK INTRA:                   1.083
REMARK UNBOUND:                 1.050
REMARK SMILES CC1=CC=CC(C)(C)CC1=O
REMARK SMILES IDX 1 1 2 2 3 3 10 4 11 5 9 6 4 8 5 9 6 10 7 11 8 12
REMARK H PARENT
REMARK Flexibility Score: 80.00
ROOT
ATOM      1  C   UNL     1      24.344  11.712  27.935  1.00  0.00     0.048 C 
ATOM      2  C   UNL     1      22.917  11.357  27.588  1.00  0.00    -0.008 C 
ATOM      3  C   UNL     1      22.071  12.370  27.309  1.00  0.00     0.007 C 
ENDROOT
BRANCH   2   4
ATOM      4  C   UNL     1      22.580   9.913  27.506  1.00  0.00     0.159 C 
ATOM      5  O   UNL     1      23.386   9.072  27.991  1.00  0.00    -0.295 OA
BRANCH   4   6
ATOM      6  C   UNL     1      21.320   9.392  26.889  1.00  0.00     0.091 CG0
ATOM      7  G   UNL     1      20.041   9.955  27.551  1.00  0.00     0.000 G0
ENDBRANCH   4   6
ENDBRANCH   2   4
BRANCH   3   8
ATOM      8  C   UNL     1      20.641  12.336  26.915  1.00  0.00    -0.003 C 
ATOM      9  C   UNL     1      19.767  11.325  27.000  1.00  0.00    -0.020 C 
BRANCH   9  10
ATOM     10  C   UNL     1      20.038   9.949  27.558  1.00  0.00    -0.010 CG0
ATOM     11  C   UNL     1      20.303  10.085  29.076  1.00  0.00     0.016 C 
ATOM     12  C   UNL     1      18.796   9.048  27.370  1.00  0.00     0.016 C 
ATOM     13  G   UNL     1      21.307   9.361  26.900  1.00  0.00     0.000 G0
ENDBRANCH   9  10
ENDBRANCH   3   8
TORSDOF 0
ENDMDL
MODEL 6
REMARK VINA RESULT:    10.496      1.383      2.813
REMARK INTER + INTRA:          14.001
REMARK INTER:                  13.233
REMARK INTRA:                   0.768
REMARK UNBOUND:                 1.050
REMARK SMILES CC1=CC=CC(C)(C)CC1=O
REMARK SMILES IDX 1 1 2 2 3 3 10 4 11 5 9 6 4 8 5 9 6 10 7 11 8 12
REMARK H PARENT
REMARK Flexibility Score: 80.00
ROOT
ATOM      1  C   UNL     1      37.114  10.689  39.295  1.00  0.00     0.048 C 
ATOM      2  C   UNL     1      35.632  10.721  39.590  1.00  0.00    -0.008 C 
ATOM      3  C   UNL     1      34.930   9.586  39.392  1.00  0.00     0.007 C 
ENDROOT
BRANCH   2   4
ATOM      4  C   UNL     1      35.081  11.982  40.149  1.00  0.00     0.159 C 
ATOM      5  O   UNL     1      35.883  12.873  40.545  1.00  0.00    -0.295 OA
BRANCH   4   6
ATOM      6  C   UNL     1      33.616  12.266  40.259  1.00  0.00     0.091 CG0
ATOM      7  G   UNL     1      32.860  11.239  41.132  1.00  0.00     0.000 G0
ENDBRANCH   4   6
ENDBRANCH   2   4
BRANCH   3   8
ATOM      8  C   UNL     1      33.491   9.305  39.615  1.00  0.00    -0.003 C 
ATOM      9  C   UNL     1      32.605   9.981  40.358  1.00  0.00    -0.020 C 
BRANCH   9  10
ATOM     10  C   UNL     1      32.870  11.242  41.144  1.00  0.00    -0.010 CG0
ATOM     11  C   UNL     1      31.509  11.854  41.551  1.00  0.00     0.016 C 
ATOM     12  C   UNL     1      33.648  10.906  42.437  1.00  0.00     0.016 C 
ATOM     13  G   UNL     1      33.609  12.266  40.253  1.00  0.00     0.000 G0
ENDBRANCH   9  10
ENDBRANCH   3   8
TORSDOF 0
ENDMDL
MODEL 7
REMARK VINA RESULT:    10.581      1.501      3.487
REMARK INTER + INTRA:          14.106
REMARK INTER:                  13.071
REMARK INTRA:                   1.034
REMARK UNBOUND:                 1.050
REMARK SMILES CC1=CC=CC(C)(C)CC1=O
REMARK SMILES IDX 1 1 2 2 3 3 10 4 11 5 9 6 4 8 5 9 6 10 7 11 8 12
REMARK H PARENT
REMARK Flexibility Score: 80.00
ROOT
ATOM      1  C   UNL     1      34.113   8.552  38.483  1.00  0.00     0.048 C 
ATOM      2  C   UNL     1      33.988   9.635  39.529  1.00  0.00    -0.008 C 
ATOM      3  C   UNL     1      32.758   9.888  40.023  1.00  0.00     0.007 C 
ENDROOT
BRANCH   2   4
ATOM      4  C   UNL     1      35.244  10.282  39.987  1.00  0.00     0.159 C 
ATOM      5  O   UNL     1      36.290  10.136  39.295  1.00  0.00    -0.295 OA
BRANCH   4   6
ATOM      6  C   UNL     1      35.339  11.118  41.224  1.00  0.00     0.091 CG0
ATOM      7  G   UNL     1      34.378  12.328  41.216  1.00  0.00     0.000 G0
ENDBRANCH   4   6
ENDBRANCH   2   4
BRANCH   3   8
ATOM      8  C   UNL     1      32.329  10.856  41.061  1.00  0.00    -0.003 C 
ATOM      9  C   UNL     1      33.006  11.886  41.585  1.00  0.00    -0.020 C 
BRANCH   9  10
ATOM     10  C   UNL     1      34.399  12.329  41.207  1.00  0.00    -0.010 CG0
ATOM     11  C   UNL     1      34.352  12.907  39.773  1.00  0.00     0.016 C 
ATOM     12  C   UNL     1      34.874  13.452  42.159  1.00  0.00     0.016 C 
ATOM     13  G   UNL     1      35.350  11.110  41.202  1.00  0.00     0.000 G0
ENDBRANCH   9  10
ENDBRANCH   3   8
TORSDOF 0
ENDMDL
MODEL 8
REMARK VINA RESULT:    11.432      1.910      3.955
REMARK INTER + INTRA:          15.155
REMARK INTER:                  14.116
REMARK INTRA:                   1.039
REMARK UNBOUND:                 1.050
REMARK SMILES CC1=CC=CC(C)(C)CC1=O
REMARK SMILES IDX 1 1 2 2 3 3 10 4 11 5 9 6 4 8 5 9 6 10 7 11 8 12
REMARK H PARENT
REMARK Flexibility Score: 80.00
ROOT
ATOM      1  C   UNL     1      33.077   9.665  39.701  1.00  0.00     0.048 C 
ATOM      2  C   UNL     1      33.508  11.036  40.167  1.00  0.00    -0.008 C 
ATOM      3  C   UNL     1      33.599  12.012  39.239  1.00  0.00     0.007 C 
ENDROOT
BRANCH   2   4
ATOM      4  C   UNL     1      33.724  11.218  41.624  1.00  0.00     0.159 C 
ATOM      5  O   UNL     1      33.821  10.195  42.357  1.00  0.00    -0.295 OA
BRANCH   4   6
ATOM      6  C   UNL     1      33.849  12.558  42.280  1.00  0.00     0.091 CG0
ATOM      7  G   UNL     1      35.016  13.402  41.719  1.00  0.00     0.000 G0
ENDBRANCH   4   6
ENDBRANCH   2   4
BRANCH   3   8
ATOM      8  C   UNL     1      33.964  13.441  39.392  1.00  0.00    -0.003 C 
ATOM      9  C   UNL     1      34.542  14.057  40.431  1.00  0.00    -0.020 C 
BRANCH   9  10
ATOM     10  C   UNL     1      34.995  13.411  41.719  1.00  0.00    -0.010 CG0
ATOM     11  C   UNL     1      36.192  12.485  41.402  1.00  0.00     0.016 C 
ATOM     12  C   UNL     1      35.479  14.492  42.712  1.00  0.00     0.016 C 
ATOM     13  G   UNL     1      33.854  12.540  42.293  1.00  0.00     0.000 G0
ENDBRANCH   9  10
ENDBRANCH   3   8
TORSDOF 0
ENDMDL
