MODEL 1
REMARK VINA RESULT:    -4.116      0.000      0.000
REMARK INTER + INTRA:          -5.945
REMARK INTER:                  -5.560
REMARK INTRA:                  -0.385
REMARK UNBOUND:                -0.385
REMARK SMILES CCCCCCC=CC(=O)[O-]
REMARK SMILES IDX 5 1 6 2 7 3 8 4 9 5 10 6 11 7 4 8 3 9 2 10 1 11
REMARK H PARENT
REMARK Flexibility Score: inf
ROOT
ATOM      1  C   UNL     1     191.043 249.725 139.389  1.00  0.00     0.004 C 
ENDROOT
BRANCH   1   2
ATOM      2  C   UNL     1     191.347 249.234 140.813  1.00  0.00     0.027 C 
BRANCH   2   3
ATOM      3  C   UNL     1     191.364 247.734 140.911  1.00  0.00    -0.025 C 
ATOM      4  C   UNL     1     191.651 246.967 139.854  1.00  0.00     0.020 C 
BRANCH   4   5
ATOM      5  C   UNL     1     191.665 245.497 139.928  1.00  0.00     0.064 C 
ATOM      6  O   UNL     1     192.415 244.815 139.180  1.00  0.00    -0.545 OA
ATOM      7  O   UNL     1     190.835 244.851 140.834  1.00  0.00    -0.545 OA
ENDBRANCH   4   5
ENDBRANCH   2   3
ENDBRANCH   1   2
BRANCH   1   8
ATOM      8  C   UNL     1     190.538 251.175 139.372  1.00  0.00     0.000 C 
BRANCH   8   9
ATOM      9  C   UNL     1     190.544 251.776 140.783  1.00  0.00    -0.000 C 
BRANCH   9  10
ATOM     10  C   UNL     1     189.129 252.173 141.219  1.00  0.00    -0.003 C 
ATOM     11  C   UNL     1     188.180 252.227 140.025  1.00  0.00     0.004 C 
ENDBRANCH   9  10
ENDBRANCH   8   9
ENDBRANCH   1   8
TORSDOF 6
ENDMDL
MODEL 2
REMARK VINA RESULT:    -4.084      4.576      6.618
REMARK INTER + INTRA:          -5.902
REMARK INTER:                  -5.652
REMARK INTRA:                  -0.250
REMARK UNBOUND:                -0.385
REMARK SMILES CCCCCCC=CC(=O)[O-]
REMARK SMILES IDX 5 1 6 2 7 3 8 4 9 5 10 6 11 7 4 8 3 9 2 10 1 11
REMARK H PARENT
REMARK Flexibility Score: inf
ROOT
ATOM      1  C   UNL     1     191.189 250.018 139.500  1.00  0.00     0.004 C 
ENDROOT
BRANCH   1   2
ATOM      2  C   UNL     1     190.314 251.281 139.529  1.00  0.00     0.027 C 
BRANCH   2   3
ATOM      3  C   UNL     1     190.032 251.815 138.152  1.00  0.00    -0.025 C 
ATOM      4  C   UNL     1     189.544 253.046 137.965  1.00  0.00     0.020 C 
BRANCH   4   5
ATOM      5  C   UNL     1     189.254 253.583 136.626  1.00  0.00     0.064 C 
ATOM      6  O   UNL     1     188.269 254.343 136.429  1.00  0.00    -0.545 OA
ATOM      7  O   UNL     1     190.079 253.245 135.561  1.00  0.00    -0.545 OA
ENDBRANCH   4   5
ENDBRANCH   2   3
ENDBRANCH   1   2
BRANCH   1   8
ATOM      8  C   UNL     1     191.333 249.383 140.890  1.00  0.00     0.000 C 
BRANCH   8   9
ATOM      9  C   UNL     1     191.286 247.852 140.803  1.00  0.00    -0.000 C 
BRANCH   9  10
ATOM     10  C   UNL     1     191.323 247.382 139.344  1.00  0.00    -0.003 C 
ATOM     11  C   UNL     1     192.159 246.115 139.195  1.00  0.00     0.004 C 
ENDBRANCH   9  10
ENDBRANCH   8   9
ENDBRANCH   1   8
TORSDOF 6
ENDMDL
MODEL 3
REMARK VINA RESULT:    -4.062      1.260      1.899
REMARK INTER + INTRA:          -5.871
REMARK INTER:                  -5.340
REMARK INTRA:                  -0.531
REMARK UNBOUND:                -0.385
REMARK SMILES CCCCCCC=CC(=O)[O-]
REMARK SMILES IDX 5 1 6 2 7 3 8 4 9 5 10 6 11 7 4 8 3 9 2 10 1 11
REMARK H PARENT
REMARK Flexibility Score: inf
ROOT
ATOM      1  C   UNL     1     190.211 251.053 138.618  1.00  0.00     0.004 C 
ENDROOT
BRANCH   1   2
ATOM      2  C   UNL     1     191.482 250.586 139.345  1.00  0.00     0.027 C 
BRANCH   2   3
ATOM      3  C   UNL     1     191.245 249.360 140.182  1.00  0.00    -0.025 C 
ATOM      4  C   UNL     1     191.078 248.155 139.627  1.00  0.00     0.020 C 
BRANCH   4   5
ATOM      5  C   UNL     1     190.837 246.944 140.428  1.00  0.00     0.064 C 
ATOM      6  O   UNL     1     190.929 245.796 139.917  1.00  0.00    -0.545 OA
ATOM      7  O   UNL     1     190.500 247.069 141.769  1.00  0.00    -0.545 OA
ENDBRANCH   4   5
ENDBRANCH   2   3
ENDBRANCH   1   2
BRANCH   1   8
ATOM      8  C   UNL     1     189.683 252.384 139.173  1.00  0.00     0.000 C 
BRANCH   8   9
ATOM      9  C   UNL     1     188.549 252.149 140.178  1.00  0.00    -0.000 C 
BRANCH   9  10
ATOM     10  C   UNL     1     189.081 252.130 141.615  1.00  0.00    -0.003 C 
ATOM     11  C   UNL     1     190.235 253.113 141.789  1.00  0.00     0.004 C 
ENDBRANCH   9  10
ENDBRANCH   8   9
ENDBRANCH   1   8
TORSDOF 6
ENDMDL
MODEL 4
REMARK VINA RESULT:    -4.048      3.893      6.245
REMARK INTER + INTRA:          -5.852
REMARK INTER:                  -5.552
REMARK INTRA:                  -0.300
REMARK UNBOUND:                -0.385
REMARK SMILES CCCCCCC=CC(=O)[O-]
REMARK SMILES IDX 5 1 6 2 7 3 8 4 9 5 10 6 11 7 4 8 3 9 2 10 1 11
REMARK H PARENT
REMARK Flexibility Score: inf
ROOT
ATOM      1  C   UNL     1     191.349 249.005 140.928  1.00  0.00     0.004 C 
ENDROOT
BRANCH   1   2
ATOM      2  C   UNL     1     191.164 249.224 139.418  1.00  0.00     0.027 C 
BRANCH   2   3
ATOM      3  C   UNL     1     190.778 250.639 139.088  1.00  0.00    -0.025 C 
ATOM      4  C   UNL     1     190.420 251.507 140.039  1.00  0.00     0.020 C 
BRANCH   4   5
ATOM      5  C   UNL     1     190.031 252.894 139.736  1.00  0.00     0.064 C 
ATOM      6  O   UNL     1     189.864 253.278 138.547  1.00  0.00    -0.545 OA
ATOM      7  O   UNL     1     189.847 253.794 140.776  1.00  0.00    -0.545 OA
ENDBRANCH   4   5
ENDBRANCH   2   3
ENDBRANCH   1   2
BRANCH   1   8
ATOM      8  C   UNL     1     191.010 247.568 141.349  1.00  0.00     0.000 C 
BRANCH   8   9
ATOM      9  C   UNL     1     190.918 246.644 140.129  1.00  0.00    -0.000 C 
BRANCH   9  10
ATOM     10  C   UNL     1     190.928 245.171 140.552  1.00  0.00    -0.003 C 
ATOM     11  C   UNL     1     191.983 244.383 139.781  1.00  0.00     0.004 C 
ENDBRANCH   9  10
ENDBRANCH   8   9
ENDBRANCH   1   8
TORSDOF 6
ENDMDL
MODEL 5
REMARK VINA RESULT:    -4.022      1.822      2.560
REMARK INTER + INTRA:          -5.817
REMARK INTER:                  -5.554
REMARK INTRA:                  -0.263
REMARK UNBOUND:                -0.385
REMARK SMILES CCCCCCC=CC(=O)[O-]
REMARK SMILES IDX 5 1 6 2 7 3 8 4 9 5 10 6 11 7 4 8 3 9 2 10 1 11
REMARK H PARENT
REMARK Flexibility Score: inf
ROOT
ATOM      1  C   UNL     1     189.873 251.421 140.073  1.00  0.00     0.004 C 
ENDROOT
BRANCH   1   2
ATOM      2  C   UNL     1     191.253 250.852 140.437  1.00  0.00     0.027 C 
BRANCH   2   3
ATOM      3  C   UNL     1     191.191 249.399 140.815  1.00  0.00    -0.025 C 
ATOM      4  C   UNL     1     191.374 248.431 139.911  1.00  0.00     0.020 C 
BRANCH   4   5
ATOM      5  C   UNL     1     191.310 247.003 140.260  1.00  0.00     0.064 C 
ATOM      6  O   UNL     1     190.542 246.588 141.168  1.00  0.00    -0.545 OA
ATOM      7  O   UNL     1     192.112 246.097 139.578  1.00  0.00    -0.545 OA
ENDBRANCH   4   5
ENDBRANCH   2   3
ENDBRANCH   1   2
BRANCH   1   8
ATOM      8  C   UNL     1     189.823 252.950 140.213  1.00  0.00     0.000 C 
BRANCH   8   9
ATOM      9  C   UNL     1     189.572 253.618 138.856  1.00  0.00    -0.000 C 
BRANCH   9  10
ATOM     10  C   UNL     1     189.564 252.583 137.725  1.00  0.00    -0.003 C 
ATOM     11  C   UNL     1     189.674 253.256 136.361  1.00  0.00     0.004 C 
ENDBRANCH   9  10
ENDBRANCH   8   9
ENDBRANCH   1   8
TORSDOF 6
ENDMDL
MODEL 6
REMARK VINA RESULT:    -4.008      1.163      1.446
REMARK INTER + INTRA:          -5.799
REMARK INTER:                  -5.576
REMARK INTRA:                  -0.223
REMARK UNBOUND:                -0.385
REMARK SMILES CCCCCCC=CC(=O)[O-]
REMARK SMILES IDX 5 1 6 2 7 3 8 4 9 5 10 6 11 7 4 8 3 9 2 10 1 11
REMARK H PARENT
REMARK Flexibility Score: inf
ROOT
ATOM      1  C   UNL     1     191.025 249.063 139.521  1.00  0.00     0.004 C 
ENDROOT
BRANCH   1   2
ATOM      2  C   UNL     1     191.364 248.297 140.809  1.00  0.00     0.027 C 
BRANCH   2   3
ATOM      3  C   UNL     1     191.464 246.814 140.584  1.00  0.00    -0.025 C 
ATOM      4  C   UNL     1     191.966 246.310 139.452  1.00  0.00     0.020 C 
BRANCH   4   5
ATOM      5  C   UNL     1     192.065 244.862 139.209  1.00  0.00     0.064 C 
ATOM      6  O   UNL     1     191.719 244.361 138.106  1.00  0.00    -0.545 OA
ATOM      7  O   UNL     1     192.546 244.033 140.213  1.00  0.00    -0.545 OA
ENDBRANCH   4   5
ENDBRANCH   2   3
ENDBRANCH   1   2
BRANCH   1   8
ATOM      8  C   UNL     1     190.503 250.478 139.810  1.00  0.00     0.000 C 
BRANCH   8   9
ATOM      9  C   UNL     1     190.409 251.304 138.522  1.00  0.00    -0.000 C 
BRANCH   9  10
ATOM     10  C   UNL     1     189.240 252.293 138.585  1.00  0.00    -0.003 C 
ATOM     11  C   UNL     1     188.376 252.046 139.818  1.00  0.00     0.004 C 
ENDBRANCH   9  10
ENDBRANCH   8   9
ENDBRANCH   1   8
TORSDOF 6
ENDMDL
MODEL 7
REMARK VINA RESULT:    -3.945      3.633      5.168
REMARK INTER + INTRA:          -5.714
REMARK INTER:                  -5.418
REMARK INTRA:                  -0.296
REMARK UNBOUND:                -0.385
REMARK SMILES CCCCCCC=CC(=O)[O-]
REMARK SMILES IDX 5 1 6 2 7 3 8 4 9 5 10 6 11 7 4 8 3 9 2 10 1 11
REMARK H PARENT
REMARK Flexibility Score: inf
ROOT
ATOM      1  C   UNL     1     192.241 246.029 138.787  1.00  0.00     0.004 C 
ENDROOT
BRANCH   1   2
ATOM      2  C   UNL     1     191.733 244.826 137.978  1.00  0.00     0.027 C 
BRANCH   2   3
ATOM      3  C   UNL     1     191.433 245.183 136.549  1.00  0.00    -0.025 C 
ATOM      4  C   UNL     1     190.977 244.274 135.681  1.00  0.00     0.020 C 
BRANCH   4   5
ATOM      5  C   UNL     1     190.684 244.601 134.276  1.00  0.00     0.064 C 
ATOM      6  O   UNL     1     191.171 245.628 133.732  1.00  0.00    -0.545 OA
ATOM      7  O   UNL     1     189.855 243.766 133.539  1.00  0.00    -0.545 OA
ENDBRANCH   4   5
ENDBRANCH   2   3
ENDBRANCH   1   2
BRANCH   1   8
ATOM      8  C   UNL     1     191.571 246.123 140.165  1.00  0.00     0.000 C 
BRANCH   8   9
ATOM      9  C   UNL     1     191.346 247.585 140.569  1.00  0.00    -0.000 C 
BRANCH   9  10
ATOM     10  C   UNL     1     191.001 248.446 139.349  1.00  0.00    -0.003 C 
ATOM     11  C   UNL     1     190.886 249.919 139.729  1.00  0.00     0.004 C 
ENDBRANCH   9  10
ENDBRANCH   8   9
ENDBRANCH   1   8
TORSDOF 6
ENDMDL
MODEL 8
REMARK VINA RESULT:    -3.929      7.355      8.985
REMARK INTER + INTRA:          -5.692
REMARK INTER:                  -4.934
REMARK INTRA:                  -0.758
REMARK UNBOUND:                -0.385
REMARK SMILES CCCCCCC=CC(=O)[O-]
REMARK SMILES IDX 5 1 6 2 7 3 8 4 9 5 10 6 11 7 4 8 3 9 2 10 1 11
REMARK H PARENT
REMARK Flexibility Score: inf
ROOT
ATOM      1  C   UNL     1     191.707 245.475 132.608  1.00  0.00     0.004 C 
ENDROOT
BRANCH   1   2
ATOM      2  C   UNL     1     191.392 245.738 134.088  1.00  0.00     0.027 C 
BRANCH   2   3
ATOM      3  C   UNL     1     191.143 244.470 134.855  1.00  0.00    -0.025 C 
ATOM      4  C   UNL     1     190.494 243.437 134.308  1.00  0.00     0.020 C 
BRANCH   4   5
ATOM      5  C   UNL     1     190.233 242.189 135.045  1.00  0.00     0.064 C 
ATOM      6  O   UNL     1     189.294 242.111 135.880  1.00  0.00    -0.545 OA
ATOM      7  O   UNL     1     191.038 241.081 134.816  1.00  0.00    -0.545 OA
ENDBRANCH   4   5
ENDBRANCH   2   3
ENDBRANCH   1   2
BRANCH   1   8
ATOM      8  C   UNL     1     193.103 245.980 132.215  1.00  0.00     0.000 C 
BRANCH   8   9
ATOM      9  C   UNL     1     194.192 245.011 132.692  1.00  0.00    -0.000 C 
BRANCH   9  10
ATOM     10  C   UNL     1     193.917 243.586 132.198  1.00  0.00    -0.003 C 
ATOM     11  C   UNL     1     193.996 242.581 133.343  1.00  0.00     0.004 C 
ENDBRANCH   9  10
ENDBRANCH   8   9
ENDBRANCH   1   8
TORSDOF 6
ENDMDL
MODEL 9
REMARK VINA RESULT:    -3.789      2.860      3.723
REMARK INTER + INTRA:          -5.503
REMARK INTER:                  -5.291
REMARK INTRA:                  -0.212
REMARK UNBOUND:                -0.385
REMARK SMILES CCCCCCC=CC(=O)[O-]
REMARK SMILES IDX 5 1 6 2 7 3 8 4 9 5 10 6 11 7 4 8 3 9 2 10 1 11
REMARK H PARENT
REMARK Flexibility Score: inf
ROOT
ATOM      1  C   UNL     1     189.884 252.093 138.241  1.00  0.00     0.004 C 
ENDROOT
BRANCH   1   2
ATOM      2  C   UNL     1     190.429 252.134 139.677  1.00  0.00     0.027 C 
BRANCH   2   3
ATOM      3  C   UNL     1     190.768 250.766 140.200  1.00  0.00    -0.025 C 
ATOM      4  C   UNL     1     191.003 249.740 139.376  1.00  0.00     0.020 C 
BRANCH   4   5
ATOM      5  C   UNL     1     191.328 248.391 139.868  1.00  0.00     0.064 C 
ATOM      6  O   UNL     1     191.466 247.423 139.073  1.00  0.00    -0.545 OA
ATOM      7  O   UNL     1     191.484 248.182 141.232  1.00  0.00    -0.545 OA
ENDBRANCH   4   5
ENDBRANCH   2   3
ENDBRANCH   1   2
BRANCH   1   8
ATOM      8  C   UNL     1     189.122 253.375 137.875  1.00  0.00     0.000 C 
BRANCH   8   9
ATOM      9  C   UNL     1     189.164 253.627 136.363  1.00  0.00    -0.000 C 
BRANCH   9  10
ATOM     10  C   UNL     1     188.319 254.849 135.985  1.00  0.00    -0.003 C 
ATOM     11  C   UNL     1     187.249 255.126 137.036  1.00  0.00     0.004 C 
ENDBRANCH   9  10
ENDBRANCH   8   9
ENDBRANCH   1   8
TORSDOF 6
ENDMDL
