MODEL 1
REMARK VINA RESULT:    -3.946      0.000      0.000
REMARK INTER + INTRA:          -4.062
REMARK INTER:                  -4.062
REMARK INTRA:                   0.000
REMARK UNBOUND:                 0.000
REMARK SMILES Nc1ncnc2nc[nH]c12
REMARK SMILES IDX 8 1 7 2 6 3 5 4 4 5 3 6 2 7 10 8 9 9 1 11
REMARK H PARENT 9 10 1 12 1 13
REMARK Flexibility Score: inf
ROOT
ATOM      1  C   UNL     1     173.133 179.024 180.192  1.00  0.00     0.199 A 
ATOM      2  N   UNL     1     173.581 179.409 178.964  1.00  0.00    -0.217 NA
ATOM      3  C   UNL     1     174.898 179.558 179.175  1.00  0.00     0.182 A 
ATOM      4  N   UNL     1     175.825 179.936 178.262  1.00  0.00    -0.215 NA
ATOM      5  C   UNL     1     177.128 180.034 178.667  1.00  0.00     0.226 A 
ATOM      6  N   UNL     1     177.476 179.754 179.964  1.00  0.00    -0.217 NA
ATOM      7  C   UNL     1     176.543 179.373 180.886  1.00  0.00     0.152 A 
ATOM      8  C   UNL     1     175.222 179.277 180.459  1.00  0.00     0.127 A 
ATOM      9  N   UNL     1     174.113 178.935 181.126  1.00  0.00    -0.340 N 
ATOM     10  H   UNL     1     174.013 178.661 182.128  1.00  0.00     0.168 HD
ENDROOT
BRANCH   7  11
ATOM     11  N   UNL     1     176.930 179.086 182.231  1.00  0.00    -0.382 N 
ATOM     12  H   UNL     1     176.759 179.788 182.984  1.00  0.00     0.158 HD
ATOM     13  H   UNL     1     177.384 178.180 182.485  1.00  0.00     0.158 HD
ENDBRANCH   7  11
TORSDOF 1
ENDMDL
MODEL 2
REMARK VINA RESULT:    -3.881     13.165     13.726
REMARK INTER + INTRA:          -3.994
REMARK INTER:                  -3.994
REMARK INTRA:                   0.000
REMARK UNBOUND:                 0.000
REMARK SMILES Nc1ncnc2nc[nH]c12
REMARK SMILES IDX 8 1 7 2 6 3 5 4 4 5 3 6 2 7 10 8 9 9 1 11
REMARK H PARENT 9 10 1 12 1 13
REMARK Flexibility Score: inf
ROOT
ATOM      1  C   UNL     1     161.515 175.792 180.206  1.00  0.00     0.199 A 
ATOM      2  N   UNL     1     161.301 176.343 178.978  1.00  0.00    -0.217 NA
ATOM      3  C   UNL     1     161.613 177.632 179.186  1.00  0.00     0.182 A 
ATOM      4  N   UNL     1     161.571 178.632 178.273  1.00  0.00    -0.215 NA
ATOM      5  C   UNL     1     161.927 179.889 178.674  1.00  0.00     0.226 A 
ATOM      6  N   UNL     1     162.316 180.122 179.969  1.00  0.00    -0.217 NA
ATOM      7  C   UNL     1     162.359 179.116 180.892  1.00  0.00     0.152 A 
ATOM      8  C   UNL     1     161.994 177.842 180.468  1.00  0.00     0.127 A 
ATOM      9  N   UNL     1     161.939 176.683 181.138  1.00  0.00    -0.340 N 
ATOM     10  H   UNL     1     162.167 176.497 182.138  1.00  0.00     0.168 HD
ENDROOT
BRANCH   7  11
ATOM     11  N   UNL     1     162.769 179.383 182.235  1.00  0.00    -0.382 N 
ATOM     12  H   UNL     1     162.131 179.897 182.882  1.00  0.00     0.158 HD
ATOM     13  H   UNL     1     163.700 179.073 182.591  1.00  0.00     0.158 HD
ENDBRANCH   7  11
TORSDOF 1
ENDMDL
MODEL 3
REMARK VINA RESULT:    -3.853     21.158     22.764
REMARK INTER + INTRA:          -3.965
REMARK INTER:                  -3.965
REMARK INTRA:                   0.000
REMARK UNBOUND:                 0.000
REMARK SMILES Nc1ncnc2nc[nH]c12
REMARK SMILES IDX 8 1 7 2 6 3 5 4 4 5 3 6 2 7 10 8 9 9 1 11
REMARK H PARENT 9 10 1 12 1 13
REMARK Flexibility Score: inf
ROOT
ATOM      1  C   UNL     1     162.487 162.928 177.925  1.00  0.00     0.199 A 
ATOM      2  N   UNL     1     162.417 163.885 176.957  1.00  0.00    -0.217 NA
ATOM      3  C   UNL     1     161.703 163.270 176.001  1.00  0.00     0.182 A 
ATOM      4  N   UNL     1     161.342 163.789 174.802  1.00  0.00    -0.215 NA
ATOM      5  C   UNL     1     160.610 163.006 173.954  1.00  0.00     0.226 A 
ATOM      6  N   UNL     1     160.255 161.731 174.315  1.00  0.00    -0.217 NA
ATOM      7  C   UNL     1     160.618 161.205 175.523  1.00  0.00     0.152 A 
ATOM      8  C   UNL     1     161.362 162.015 176.376  1.00  0.00     0.127 A 
ATOM      9  N   UNL     1     161.851 161.774 177.599  1.00  0.00    -0.340 N 
ATOM     10  H   UNL     1     161.769 160.909 178.176  1.00  0.00     0.168 HD
ENDROOT
BRANCH   7  11
ATOM     11  N   UNL     1     160.236 159.875 175.878  1.00  0.00    -0.382 N 
ATOM     12  H   UNL     1     160.796 159.063 175.538  1.00  0.00     0.158 HD
ATOM     13  H   UNL     1     159.401 159.691 176.477  1.00  0.00     0.158 HD
ENDBRANCH   7  11
TORSDOF 1
ENDMDL
MODEL 4
REMARK VINA RESULT:    -3.827      2.451      3.469
REMARK INTER + INTRA:          -3.939
REMARK INTER:                  -3.939
REMARK INTRA:                   0.000
REMARK UNBOUND:                 0.000
REMARK SMILES Nc1ncnc2nc[nH]c12
REMARK SMILES IDX 8 1 7 2 6 3 5 4 4 5 3 6 2 7 10 8 9 9 1 11
REMARK H PARENT 9 10 1 12 1 13
REMARK Flexibility Score: inf
ROOT
ATOM      1  C   UNL     1     176.773 178.036 176.949  1.00  0.00     0.199 A 
ATOM      2  N   UNL     1     176.283 179.042 177.726  1.00  0.00    -0.217 NA
ATOM      3  C   UNL     1     176.649 178.653 178.958  1.00  0.00     0.182 A 
ATOM      4  N   UNL     1     176.404 179.309 180.118  1.00  0.00    -0.215 NA
ATOM      5  C   UNL     1     176.859 178.753 181.282  1.00  0.00     0.226 A 
ATOM      6  N   UNL     1     177.544 177.564 181.265  1.00  0.00    -0.217 NA
ATOM      7  C   UNL     1     177.791 176.902 180.096  1.00  0.00     0.152 A 
ATOM      8  C   UNL     1     177.323 177.480 178.920  1.00  0.00     0.127 A 
ATOM      9  N   UNL     1     177.414 177.067 177.650  1.00  0.00    -0.340 N 
ATOM     10  H   UNL     1     177.868 176.206 177.275  1.00  0.00     0.168 HD
ENDROOT
BRANCH   7  11
ATOM     11  N   UNL     1     178.507 175.665 180.103  1.00  0.00    -0.382 N 
ATOM     12  H   UNL     1     179.064 175.380 179.267  1.00  0.00     0.158 HD
ATOM     13  H   UNL     1     178.490 175.031 180.932  1.00  0.00     0.158 HD
ENDBRANCH   7  11
TORSDOF 1
ENDMDL
MODEL 5
REMARK VINA RESULT:    -3.822     15.151     16.308
REMARK INTER + INTRA:          -3.934
REMARK INTER:                  -3.934
REMARK INTRA:                   0.000
REMARK UNBOUND:                 0.000
REMARK SMILES Nc1ncnc2nc[nH]c12
REMARK SMILES IDX 8 1 7 2 6 3 5 4 4 5 3 6 2 7 10 8 9 9 1 11
REMARK H PARENT 9 10 1 12 1 13
REMARK Flexibility Score: inf
ROOT
ATOM      1  C   UNL     1     160.589 170.865 180.042  1.00  0.00     0.199 A 
ATOM      2  N   UNL     1     161.069 171.533 181.128  1.00  0.00    -0.217 NA
ATOM      3  C   UNL     1     161.013 172.812 180.722  1.00  0.00     0.182 A 
ATOM      4  N   UNL     1     161.382 173.903 181.436  1.00  0.00    -0.215 NA
ATOM      5  C   UNL     1     161.251 175.132 180.850  1.00  0.00     0.226 A 
ATOM      6  N   UNL     1     160.759 175.246 179.574  1.00  0.00    -0.217 NA
ATOM      7  C   UNL     1     160.386 174.147 178.853  1.00  0.00     0.152 A 
ATOM      8  C   UNL     1     160.525 172.904 179.463  1.00  0.00     0.127 A 
ATOM      9  N   UNL     1     160.248 171.675 179.009  1.00  0.00    -0.340 N 
ATOM     10  H   UNL     1     159.860 171.395 178.082  1.00  0.00     0.168 HD
ENDROOT
BRANCH   7  11
ATOM     11  N   UNL     1     159.875 174.291 177.526  1.00  0.00    -0.382 N 
ATOM     12  H   UNL     1     159.212 175.066 177.304  1.00  0.00     0.158 HD
ATOM     13  H   UNL     1     160.152 173.635 176.763  1.00  0.00     0.158 HD
ENDBRANCH   7  11
TORSDOF 1
ENDMDL
MODEL 6
REMARK VINA RESULT:    -3.813      9.956     11.873
REMARK INTER + INTRA:          -3.925
REMARK INTER:                  -3.925
REMARK INTRA:                   0.000
REMARK UNBOUND:                 0.000
REMARK SMILES Nc1ncnc2nc[nH]c12
REMARK SMILES IDX 8 1 7 2 6 3 5 4 4 5 3 6 2 7 10 8 9 9 1 11
REMARK H PARENT 9 10 1 12 1 13
REMARK Flexibility Score: inf
ROOT
ATOM      1  C   UNL     1     163.572 179.088 176.906  1.00  0.00     0.199 A 
ATOM      2  N   UNL     1     162.466 178.990 177.696  1.00  0.00    -0.217 NA
ATOM      3  C   UNL     1     162.974 179.189 178.923  1.00  0.00     0.182 A 
ATOM      4  N   UNL     1     162.288 179.192 180.091  1.00  0.00    -0.215 NA
ATOM      5  C   UNL     1     162.983 179.414 181.247  1.00  0.00     0.226 A 
ATOM      6  N   UNL     1     164.338 179.626 181.215  1.00  0.00    -0.217 NA
ATOM      7  C   UNL     1     165.032 179.622 180.038  1.00  0.00     0.152 A 
ATOM      8  C   UNL     1     164.311 179.396 178.870  1.00  0.00     0.127 A 
ATOM      9  N   UNL     1     164.715 179.336 177.595  1.00  0.00    -0.340 N 
ATOM     10  H   UNL     1     165.677 179.452 177.209  1.00  0.00     0.168 HD
ENDROOT
BRANCH   7  11
ATOM     11  N   UNL     1     166.444 179.846 180.030  1.00  0.00    -0.382 N 
ATOM     12  H   UNL     1     166.964 179.861 179.125  1.00  0.00     0.158 HD
ATOM     13  H   UNL     1     166.975 179.998 180.915  1.00  0.00     0.158 HD
ENDBRANCH   7  11
TORSDOF 1
ENDMDL
MODEL 7
REMARK VINA RESULT:    -3.805      3.818      5.705
REMARK INTER + INTRA:          -3.916
REMARK INTER:                  -3.916
REMARK INTRA:                   0.000
REMARK UNBOUND:                 0.000
REMARK SMILES Nc1ncnc2nc[nH]c12
REMARK SMILES IDX 8 1 7 2 6 3 5 4 4 5 3 6 2 7 10 8 9 9 1 11
REMARK H PARENT 9 10 1 12 1 13
REMARK Flexibility Score: inf
ROOT
ATOM      1  C   UNL     1     168.040 178.429 179.931  1.00  0.00     0.199 A 
ATOM      2  N   UNL     1     168.806 178.189 181.032  1.00  0.00    -0.217 NA
ATOM      3  C   UNL     1     170.013 178.628 180.639  1.00  0.00     0.182 A 
ATOM      4  N   UNL     1     171.154 178.618 181.371  1.00  0.00    -0.215 NA
ATOM      5  C   UNL     1     172.293 179.110 180.796  1.00  0.00     0.226 A 
ATOM      6  N   UNL     1     172.271 179.597 179.514  1.00  0.00    -0.217 NA
ATOM      7  C   UNL     1     171.123 179.608 178.775  1.00  0.00     0.152 A 
ATOM      8  C   UNL     1     169.971 179.105 179.373  1.00  0.00     0.127 A 
ATOM      9  N   UNL     1     168.724 178.988 178.901  1.00  0.00    -0.340 N 
ATOM     10  H   UNL     1     168.353 179.260 177.965  1.00  0.00     0.168 HD
ENDROOT
BRANCH   7  11
ATOM     11  N   UNL     1     171.125 180.122 177.442  1.00  0.00    -0.382 N 
ATOM     12  H   UNL     1     171.564 179.572 176.671  1.00  0.00     0.158 HD
ATOM     13  H   UNL     1     170.692 181.044 177.214  1.00  0.00     0.158 HD
ENDBRANCH   7  11
TORSDOF 1
ENDMDL
MODEL 8
REMARK VINA RESULT:    -3.800     20.593     21.387
REMARK INTER + INTRA:          -3.911
REMARK INTER:                  -3.911
REMARK INTRA:                   0.000
REMARK UNBOUND:                 0.000
REMARK SMILES Nc1ncnc2nc[nH]c12
REMARK SMILES IDX 8 1 7 2 6 3 5 4 4 5 3 6 2 7 10 8 9 9 1 11
REMARK H PARENT 9 10 1 12 1 13
REMARK Flexibility Score: inf
ROOT
ATOM      1  C   UNL     1     165.628 161.207 179.882  1.00  0.00     0.199 A 
ATOM      2  N   UNL     1     165.247 161.863 181.013  1.00  0.00    -0.217 NA
ATOM      3  C   UNL     1     164.005 162.268 180.702  1.00  0.00     0.182 A 
ATOM      4  N   UNL     1     163.164 162.978 181.493  1.00  0.00    -0.215 NA
ATOM      5  C   UNL     1     161.931 163.300 180.999  1.00  0.00     0.226 A 
ATOM      6  N   UNL     1     161.564 162.913 179.735  1.00  0.00    -0.217 NA
ATOM      7  C   UNL     1     162.410 162.198 178.936  1.00  0.00     0.152 A 
ATOM      8  C   UNL     1     163.662 161.876 179.453  1.00  0.00     0.127 A 
ATOM      9  N   UNL     1     164.681 161.198 178.910  1.00  0.00    -0.340 N 
ATOM     10  H   UNL     1     164.743 160.761 177.965  1.00  0.00     0.168 HD
ENDROOT
BRANCH   7  11
ATOM     11  N   UNL     1     162.006 161.804 177.623  1.00  0.00    -0.382 N 
ATOM     12  H   UNL     1     161.915 160.791 177.387  1.00  0.00     0.158 HD
ATOM     13  H   UNL     1     161.794 162.511 176.884  1.00  0.00     0.158 HD
ENDBRANCH   7  11
TORSDOF 1
ENDMDL
MODEL 9
REMARK VINA RESULT:    -3.681      2.861      4.200
REMARK INTER + INTRA:          -3.789
REMARK INTER:                  -3.789
REMARK INTRA:                   0.000
REMARK UNBOUND:                 0.000
REMARK SMILES Nc1ncnc2nc[nH]c12
REMARK SMILES IDX 8 1 7 2 6 3 5 4 4 5 3 6 2 7 10 8 9 9 1 11
REMARK H PARENT 9 10 1 12 1 13
REMARK Flexibility Score: inf
ROOT
ATOM      1  C   UNL     1     177.196 175.392 179.021  1.00  0.00     0.199 A 
ATOM      2  N   UNL     1     177.332 176.263 180.059  1.00  0.00    -0.217 NA
ATOM      3  C   UNL     1     177.317 177.453 179.436  1.00  0.00     0.182 A 
ATOM      4  N   UNL     1     177.422 178.672 180.018  1.00  0.00    -0.215 NA
ATOM      5  C   UNL     1     177.386 179.777 179.213  1.00  0.00     0.226 A 
ATOM      6  N   UNL     1     177.248 179.644 177.854  1.00  0.00    -0.217 NA
ATOM      7  C   UNL     1     177.142 178.416 177.266  1.00  0.00     0.152 A 
ATOM      8  C   UNL     1     177.179 177.301 178.098  1.00  0.00     0.127 A 
ATOM      9  N   UNL     1     177.101 175.996 177.810  1.00  0.00    -0.340 N 
ATOM     10  H   UNL     1     176.991 175.539 176.878  1.00  0.00     0.168 HD
ENDROOT
BRANCH   7  11
ATOM     11  N   UNL     1     176.997 178.303 175.848  1.00  0.00    -0.382 N 
ATOM     12  H   UNL     1     176.045 178.251 175.424  1.00  0.00     0.158 HD
ATOM     13  H   UNL     1     177.829 178.271 175.218  1.00  0.00     0.158 HD
ENDBRANCH   7  11
TORSDOF 1
ENDMDL
