MODEL 1
REMARK VINA RESULT:    -5.812      0.000      0.000
REMARK INTER + INTRA:         -10.159
REMARK INTER:                  -8.020
REMARK INTRA:                  -2.139
REMARK UNBOUND:                -2.139
REMARK SMILES C=C(CC[C@H](C(=O)[O-])[C@@H]1CC[C@]2(C)C3=C(CC[C@]12C)[C@@]1(C)CC[C@H](O)C(C)(C)[C@H]1CC3)C(C)C
REMARK SMILES IDX 4 1 5 2 6 3 7 4 8 5 9 6 10 7 18 8 11 9 12 10 17 11 19 12
REMARK SMILES IDX 13 13 14 14 16 15 15 16 31 17 20 18 30 19 29 20 22 21 21 22
REMARK SMILES IDX 26 23 23 24 24 25 27 26 28 27 25 28 3 30 2 31 1 32 32 33
REMARK SMILES IDX 33 34 34 35
REMARK H PARENT 25 29
REMARK Flexibility Score: inf
ROOT
ATOM      1  C   UNL     1      28.425 -34.094 -15.539  1.00  0.00     0.014 C 
ENDROOT
BRANCH   1   2
ATOM      2  C   UNL     1      28.835 -35.004 -14.352  1.00  0.00     0.039 C 
BRANCH   2   3
ATOM      3  C   UNL     1      29.292 -36.341 -14.884  1.00  0.00     0.045 C 
ATOM      4  O   UNL     1      29.980 -37.109 -14.161  1.00  0.00    -0.550 OA
ATOM      5  O   UNL     1      28.935 -36.747 -16.165  1.00  0.00    -0.550 OA
ENDBRANCH   2   3
BRANCH   2   6
ATOM      6  C   UNL     1      27.736 -35.222 -13.248  1.00  0.00     0.004 C 
ATOM      7  C   UNL     1      26.349 -34.647 -13.543  1.00  0.00     0.006 C 
ATOM      8  C   UNL     1      28.079 -34.779 -11.794  1.00  0.00    -0.020 C 
ATOM      9  C   UNL     1      25.677 -34.423 -12.186  1.00  0.00     0.012 C 
ATOM     10  C   UNL     1      26.685 -34.812 -11.068  1.00  0.00    -0.006 C 
ATOM     11  C   UNL     1      28.626 -33.333 -11.763  1.00  0.00     0.012 C 
ATOM     12  C   UNL     1      29.132 -35.746 -11.174  1.00  0.00     0.012 C 
ATOM     13  C   UNL     1      26.341 -36.249 -10.564  1.00  0.00     0.017 C 
ATOM     14  C   UNL     1      26.532 -33.818  -9.882  1.00  0.00    -0.064 C 
ATOM     15  C   UNL     1      28.784 -32.843 -10.334  1.00  0.00     0.032 C 
ATOM     16  C   UNL     1      27.472 -32.873  -9.559  1.00  0.00    -0.064 C 
ATOM     17  C   UNL     1      25.241 -33.902  -9.102  1.00  0.00     0.032 C 
ATOM     18  C   UNL     1      27.259 -31.803  -8.435  1.00  0.00    -0.008 C 
ATOM     19  C   UNL     1      24.830 -32.575  -8.503  1.00  0.00     0.009 C 
ATOM     20  C   UNL     1      25.946 -32.054  -7.571  1.00  0.00     0.007 C 
ATOM     21  C   UNL     1      27.174 -30.411  -9.134  1.00  0.00     0.014 C 
ATOM     22  C   UNL     1      28.513 -31.873  -7.518  1.00  0.00     0.016 C 
ATOM     23  C   UNL     1      25.458 -30.827  -6.665  1.00  0.00    -0.006 C 
ATOM     24  C   UNL     1      26.793 -29.254  -8.210  1.00  0.00     0.033 C 
ATOM     25  C   UNL     1      25.454 -29.515  -7.507  1.00  0.00     0.120 C 
ATOM     26  C   UNL     1      24.009 -31.053  -6.140  1.00  0.00     0.014 C 
ATOM     27  C   UNL     1      26.341 -30.682  -5.385  1.00  0.00     0.014 C 
BRANCH  25  28
ATOM     28  O   UNL     1      25.065 -28.400  -6.738  1.00  0.00    -0.393 OA
ATOM     29  H   UNL     1      25.680 -28.325  -5.964  1.00  0.00     0.210 HD
ENDBRANCH  25  28
ENDBRANCH   2   6
ENDBRANCH   1   2
BRANCH   1  30
ATOM     30  C   UNL     1      29.005 -32.675 -15.407  1.00  0.00     0.031 C 
BRANCH  30  31
ATOM     31  C   UNL     1      27.931 -31.684 -15.007  1.00  0.00    -0.075 C 
ATOM     32  C   UNL     1      26.703 -31.797 -15.543  1.00  0.00     0.008 C 
BRANCH  31  33
ATOM     33  C   UNL     1      28.204 -30.612 -13.959  1.00  0.00     0.008 C 
ATOM     34  C   UNL     1      28.609 -29.292 -14.625  1.00  0.00     0.012 C 
ATOM     35  C   UNL     1      27.002 -30.415 -13.030  1.00  0.00     0.012 C 
ENDBRANCH  31  33
ENDBRANCH  30  31
ENDBRANCH   1  30
TORSDOF 7
ENDMDL
MODEL 2
REMARK VINA RESULT:    -5.576     13.005     16.265
REMARK INTER + INTRA:          -9.834
REMARK INTER:                  -7.464
REMARK INTRA:                  -2.370
REMARK UNBOUND:                -2.139
REMARK SMILES C=C(CC[C@H](C(=O)[O-])[C@@H]1CC[C@]2(C)C3=C(CC[C@]12C)[C@@]1(C)CC[C@H](O)C(C)(C)[C@H]1CC3)C(C)C
REMARK SMILES IDX 4 1 5 2 6 3 7 4 8 5 9 6 10 7 18 8 11 9 12 10 17 11 19 12
REMARK SMILES IDX 13 13 14 14 16 15 15 16 31 17 20 18 30 19 29 20 22 21 21 22
REMARK SMILES IDX 26 23 23 24 24 25 27 26 28 27 25 28 3 30 2 31 1 32 32 33
REMARK SMILES IDX 33 34 34 35
REMARK H PARENT 25 29
REMARK Flexibility Score: inf
ROOT
ATOM      1  C   UNL     1      12.534 -40.524  -8.654  1.00  0.00     0.014 C 
ENDROOT
BRANCH   1   2
ATOM      2  C   UNL     1      12.530 -41.964  -8.078  1.00  0.00     0.039 C 
BRANCH   2   3
ATOM      3  C   UNL     1      11.167 -42.265  -7.500  1.00  0.00     0.045 C 
ATOM      4  O   UNL     1      10.570 -41.402  -6.803  1.00  0.00    -0.550 OA
ATOM      5  O   UNL     1      10.550 -43.484  -7.756  1.00  0.00    -0.550 OA
ENDBRANCH   2   3
BRANCH   2   6
ATOM      6  C   UNL     1      13.639 -42.273  -7.005  1.00  0.00     0.004 C 
ATOM      7  C   UNL     1      14.510 -41.095  -6.565  1.00  0.00     0.006 C 
ATOM      8  C   UNL     1      14.625 -43.441  -7.307  1.00  0.00    -0.020 C 
ATOM      9  C   UNL     1      15.823 -41.696  -6.055  1.00  0.00     0.012 C 
ATOM     10  C   UNL     1      15.763 -43.238  -6.241  1.00  0.00    -0.006 C 
ATOM     11  C   UNL     1      15.234 -43.310  -8.722  1.00  0.00     0.012 C 
ATOM     12  C   UNL     1      13.888 -44.810  -7.184  1.00  0.00     0.012 C 
ATOM     13  C   UNL     1      15.384 -43.891  -4.875  1.00  0.00     0.017 C 
ATOM     14  C   UNL     1      17.168 -43.750  -6.667  1.00  0.00    -0.064 C 
ATOM     15  C   UNL     1      16.327 -44.342  -8.940  1.00  0.00     0.032 C 
ATOM     16  C   UNL     1      17.455 -44.220  -7.922  1.00  0.00    -0.064 C 
ATOM     17  C   UNL     1      18.255 -43.661  -5.622  1.00  0.00     0.032 C 
ATOM     18  C   UNL     1      18.898 -44.627  -8.375  1.00  0.00    -0.008 C 
ATOM     19  C   UNL     1      19.631 -43.474  -6.223  1.00  0.00     0.009 C 
ATOM     20  C   UNL     1      19.949 -44.644  -7.179  1.00  0.00     0.007 C 
ATOM     21  C   UNL     1      19.348 -43.601  -9.460  1.00  0.00     0.014 C 
ATOM     22  C   UNL     1      18.781 -46.050  -8.991  1.00  0.00     0.016 C 
ATOM     23  C   UNL     1      21.493 -44.681  -7.603  1.00  0.00    -0.006 C 
ATOM     24  C   UNL     1      20.807 -43.734  -9.899  1.00  0.00     0.033 C 
ATOM     25  C   UNL     1      21.766 -43.615  -8.707  1.00  0.00     0.120 C 
ATOM     26  C   UNL     1      22.419 -44.354  -6.394  1.00  0.00     0.014 C 
ATOM     27  C   UNL     1      21.917 -46.110  -8.070  1.00  0.00     0.014 C 
BRANCH  25  28
ATOM     28  O   UNL     1      23.107 -43.638  -9.137  1.00  0.00    -0.393 OA
ATOM     29  H   UNL     1      23.375 -44.582  -9.275  1.00  0.00     0.210 HD
ENDBRANCH  25  28
ENDBRANCH   2   6
ENDBRANCH   1   2
BRANCH   1  30
ATOM     30  C   UNL     1      13.377 -40.418  -9.937  1.00  0.00     0.031 C 
BRANCH  30  31
ATOM     31  C   UNL     1      14.537 -39.460  -9.747  1.00  0.00    -0.075 C 
ATOM     32  C   UNL     1      14.352 -38.343  -9.022  1.00  0.00     0.008 C 
BRANCH  31  33
ATOM     33  C   UNL     1      15.917 -39.780 -10.306  1.00  0.00     0.008 C 
ATOM     34  C   UNL     1      16.896 -40.119  -9.177  1.00  0.00     0.012 C 
ATOM     35  C   UNL     1      15.857 -40.909 -11.341  1.00  0.00     0.012 C 
ENDBRANCH  31  33
ENDBRANCH  30  31
ENDBRANCH   1  30
TORSDOF 7
ENDMDL
MODEL 3
REMARK VINA RESULT:    -5.525      4.944     10.377
REMARK INTER + INTRA:          -9.764
REMARK INTER:                  -8.212
REMARK INTRA:                  -1.552
REMARK UNBOUND:                -2.139
REMARK SMILES C=C(CC[C@H](C(=O)[O-])[C@@H]1CC[C@]2(C)C3=C(CC[C@]12C)[C@@]1(C)CC[C@H](O)C(C)(C)[C@H]1CC3)C(C)C
REMARK SMILES IDX 4 1 5 2 6 3 7 4 8 5 9 6 10 7 18 8 11 9 12 10 17 11 19 12
REMARK SMILES IDX 13 13 14 14 16 15 15 16 31 17 20 18 30 19 29 20 22 21 21 22
REMARK SMILES IDX 26 23 23 24 24 25 27 26 28 27 25 28 3 30 2 31 1 32 32 33
REMARK SMILES IDX 33 34 34 35
REMARK H PARENT 25 29
REMARK Flexibility Score: inf
ROOT
ATOM      1  C   UNL     1      29.997 -35.354 -12.926  1.00  0.00     0.014 C 
ENDROOT
BRANCH   1   2
ATOM      2  C   UNL     1      28.639 -36.028 -12.597  1.00  0.00     0.039 C 
BRANCH   2   3
ATOM      3  C   UNL     1      28.085 -35.434 -11.324  1.00  0.00     0.045 C 
ATOM      4  O   UNL     1      28.845 -35.211 -10.346  1.00  0.00    -0.550 OA
ATOM      5  O   UNL     1      26.737 -35.104 -11.232  1.00  0.00    -0.550 OA
ENDBRANCH   2   3
BRANCH   2   6
ATOM      6  C   UNL     1      28.666 -37.596 -12.482  1.00  0.00     0.004 C 
ATOM      7  C   UNL     1      30.034 -38.268 -12.624  1.00  0.00     0.006 C 
ATOM      8  C   UNL     1      27.700 -38.402 -13.401  1.00  0.00    -0.020 C 
ATOM      9  C   UNL     1      29.764 -39.701 -13.088  1.00  0.00     0.012 C 
ATOM     10  C   UNL     1      28.232 -39.876 -13.281  1.00  0.00    -0.006 C 
ATOM     11  C   UNL     1      27.817 -37.945 -14.874  1.00  0.00     0.012 C 
ATOM     12  C   UNL     1      26.228 -38.224 -12.918  1.00  0.00     0.012 C 
ATOM     13  C   UNL     1      27.649 -40.589 -12.020  1.00  0.00     0.017 C 
ATOM     14  C   UNL     1      27.978 -40.776 -14.524  1.00  0.00    -0.064 C 
ATOM     15  C   UNL     1      27.013 -38.853 -15.789  1.00  0.00     0.032 C 
ATOM     16  C   UNL     1      27.459 -40.309 -15.703  1.00  0.00    -0.064 C 
ATOM     17  C   UNL     1      28.386 -42.224 -14.394  1.00  0.00     0.032 C 
ATOM     18  C   UNL     1      27.312 -41.196 -16.986  1.00  0.00    -0.008 C 
ATOM     19  C   UNL     1      28.792 -42.839 -15.715  1.00  0.00     0.009 C 
ATOM     20  C   UNL     1      27.624 -42.735 -16.721  1.00  0.00     0.007 C 
ATOM     21  C   UNL     1      28.301 -40.632 -18.053  1.00  0.00     0.014 C 
ATOM     22  C   UNL     1      25.843 -41.034 -17.469  1.00  0.00     0.016 C 
ATOM     23  C   UNL     1      27.862 -43.636 -18.024  1.00  0.00    -0.006 C 
ATOM     24  C   UNL     1      28.426 -41.480 -19.319  1.00  0.00     0.033 C 
ATOM     25  C   UNL     1      28.851 -42.918 -18.992  1.00  0.00     0.120 C 
ATOM     26  C   UNL     1      28.485 -45.015 -17.652  1.00  0.00     0.014 C 
ATOM     27  C   UNL     1      26.512 -43.973 -18.733  1.00  0.00     0.014 C 
BRANCH  25  28
ATOM     28  O   UNL     1      29.061 -43.660 -20.172  1.00  0.00    -0.393 OA
ATOM     29  H   UNL     1      28.490 -44.470 -20.137  1.00  0.00     0.210 HD
ENDBRANCH  25  28
ENDBRANCH   2   6
ENDBRANCH   1   2
BRANCH   1  30
ATOM     30  C   UNL     1      29.822 -34.095 -13.793  1.00  0.00     0.031 C 
BRANCH  30  31
ATOM     31  C   UNL     1      29.555 -34.464 -15.239  1.00  0.00    -0.075 C 
ATOM     32  C   UNL     1      30.125 -35.570 -15.749  1.00  0.00     0.008 C 
BRANCH  31  33
ATOM     33  C   UNL     1      28.600 -33.641 -16.094  1.00  0.00     0.008 C 
ATOM     34  C   UNL     1      27.380 -34.475 -16.503  1.00  0.00     0.012 C 
ATOM     35  C   UNL     1      28.174 -32.353 -15.381  1.00  0.00     0.012 C 
ENDBRANCH  31  33
ENDBRANCH  30  31
ENDBRANCH   1  30
TORSDOF 7
ENDMDL
MODEL 4
REMARK VINA RESULT:    -5.244      2.937      8.158
REMARK INTER + INTRA:          -9.375
REMARK INTER:                  -6.991
REMARK INTRA:                  -2.384
REMARK UNBOUND:                -2.139
REMARK SMILES C=C(CC[C@H](C(=O)[O-])[C@@H]1CC[C@]2(C)C3=C(CC[C@]12C)[C@@]1(C)CC[C@H](O)C(C)(C)[C@H]1CC3)C(C)C
REMARK SMILES IDX 4 1 5 2 6 3 7 4 8 5 9 6 10 7 18 8 11 9 12 10 17 11 19 12
REMARK SMILES IDX 13 13 14 14 16 15 15 16 31 17 20 18 30 19 29 20 22 21 21 22
REMARK SMILES IDX 26 23 23 24 24 25 27 26 28 27 25 28 3 30 2 31 1 32 32 33
REMARK SMILES IDX 33 34 34 35
REMARK H PARENT 25 29
REMARK Flexibility Score: inf
ROOT
ATOM      1  C   UNL     1      27.491 -30.556 -12.414  1.00  0.00     0.014 C 
ENDROOT
BRANCH   1   2
ATOM      2  C   UNL     1      27.612 -31.811 -11.511  1.00  0.00     0.039 C 
BRANCH   2   3
ATOM      3  C   UNL     1      28.134 -31.400 -10.155  1.00  0.00     0.045 C 
ATOM      4  O   UNL     1      27.828 -30.277  -9.672  1.00  0.00    -0.550 OA
ATOM      5  O   UNL     1      28.933 -32.266  -9.417  1.00  0.00    -0.550 OA
ENDBRANCH   2   3
BRANCH   2   6
ATOM      6  C   UNL     1      28.493 -32.981 -12.084  1.00  0.00     0.004 C 
ATOM      7  C   UNL     1      29.246 -32.694 -13.385  1.00  0.00     0.006 C 
ATOM      8  C   UNL     1      27.808 -34.365 -12.286  1.00  0.00    -0.020 C 
ATOM      9  C   UNL     1      29.495 -34.052 -14.047  1.00  0.00     0.012 C 
ATOM     10  C   UNL     1      28.841 -35.155 -13.169  1.00  0.00    -0.006 C 
ATOM     11  C   UNL     1      26.482 -34.225 -13.070  1.00  0.00     0.012 C 
ATOM     12  C   UNL     1      27.526 -35.030 -10.904  1.00  0.00     0.012 C 
ATOM     13  C   UNL     1      29.949 -35.817 -12.291  1.00  0.00     0.017 C 
ATOM     14  C   UNL     1      28.226 -36.241 -14.097  1.00  0.00    -0.064 C 
ATOM     15  C   UNL     1      25.913 -35.589 -13.423  1.00  0.00     0.032 C 
ATOM     16  C   UNL     1      26.877 -36.423 -14.260  1.00  0.00    -0.064 C 
ATOM     17  C   UNL     1      29.206 -37.084 -14.878  1.00  0.00     0.032 C 
ATOM     18  C   UNL     1      26.267 -37.442 -15.281  1.00  0.00    -0.008 C 
ATOM     19  C   UNL     1      28.643 -37.565 -16.198  1.00  0.00     0.009 C 
ATOM     20  C   UNL     1      27.359 -38.387 -15.951  1.00  0.00     0.007 C 
ATOM     21  C   UNL     1      25.539 -36.611 -16.383  1.00  0.00     0.014 C 
ATOM     22  C   UNL     1      25.243 -38.302 -14.488  1.00  0.00     0.016 C 
ATOM     23  C   UNL     1      26.888 -39.186 -17.257  1.00  0.00    -0.006 C 
ATOM     24  C   UNL     1      25.027 -37.431 -17.567  1.00  0.00     0.033 C 
ATOM     25  C   UNL     1      26.162 -38.218 -18.238  1.00  0.00     0.120 C 
ATOM     26  C   UNL     1      28.104 -39.799 -18.014  1.00  0.00     0.014 C 
ATOM     27  C   UNL     1      25.984 -40.403 -16.879  1.00  0.00     0.014 C 
BRANCH  25  28
ATOM     28  O   UNL     1      25.696 -38.888 -19.387  1.00  0.00    -0.393 OA
ATOM     29  H   UNL     1      26.464 -39.346 -19.815  1.00  0.00     0.210 HD
ENDBRANCH  25  28
ENDBRANCH   2   6
ENDBRANCH   1   2
BRANCH   1  30
ATOM     30  C   UNL     1      26.198 -30.567 -13.247  1.00  0.00     0.031 C 
BRANCH  30  31
ATOM     31  C   UNL     1      26.508 -30.585 -14.731  1.00  0.00    -0.075 C 
ATOM     32  C   UNL     1      27.504 -29.814 -15.202  1.00  0.00     0.008 C 
BRANCH  31  33
ATOM     33  C   UNL     1      25.756 -31.512 -15.678  1.00  0.00     0.008 C 
ATOM     34  C   UNL     1      26.620 -32.720 -16.057  1.00  0.00     0.012 C 
ATOM     35  C   UNL     1      24.416 -31.957 -15.082  1.00  0.00     0.012 C 
ENDBRANCH  31  33
ENDBRANCH  30  31
ENDBRANCH   1  30
TORSDOF 7
ENDMDL
MODEL 5
REMARK VINA RESULT:    -5.222      1.797      4.705
REMARK INTER + INTRA:          -9.345
REMARK INTER:                  -7.394
REMARK INTRA:                  -1.951
REMARK UNBOUND:                -2.139
REMARK SMILES C=C(CC[C@H](C(=O)[O-])[C@@H]1CC[C@]2(C)C3=C(CC[C@]12C)[C@@]1(C)CC[C@H](O)C(C)(C)[C@H]1CC3)C(C)C
REMARK SMILES IDX 4 1 5 2 6 3 7 4 8 5 9 6 10 7 18 8 11 9 12 10 17 11 19 12
REMARK SMILES IDX 13 13 14 14 16 15 15 16 31 17 20 18 30 19 29 20 22 21 21 22
REMARK SMILES IDX 26 23 23 24 24 25 27 26 28 27 25 28 3 30 2 31 1 32 32 33
REMARK SMILES IDX 33 34 34 35
REMARK H PARENT 25 29
REMARK Flexibility Score: inf
ROOT
ATOM      1  C   UNL     1      29.939 -37.739 -13.555  1.00  0.00     0.014 C 
ENDROOT
BRANCH   1   2
ATOM      2  C   UNL     1      28.678 -37.037 -14.121  1.00  0.00     0.039 C 
BRANCH   2   3
ATOM      3  C   UNL     1      28.456 -37.484 -15.546  1.00  0.00     0.045 C 
ATOM      4  O   UNL     1      29.035 -36.889 -16.494  1.00  0.00    -0.550 OA
ATOM      5  O   UNL     1      27.635 -38.571 -15.822  1.00  0.00    -0.550 OA
ENDBRANCH   2   3
BRANCH   2   6
ATOM      6  C   UNL     1      28.684 -35.465 -14.055  1.00  0.00     0.004 C 
ATOM      7  C   UNL     1      29.961 -34.809 -13.525  1.00  0.00     0.006 C 
ATOM      8  C   UNL     1      27.508 -34.772 -13.304  1.00  0.00    -0.020 C 
ATOM      9  C   UNL     1      29.550 -33.438 -12.983  1.00  0.00     0.012 C 
ATOM     10  C   UNL     1      28.010 -33.291 -13.134  1.00  0.00    -0.006 C 
ATOM     11  C   UNL     1      27.295 -35.392 -11.903  1.00  0.00     0.012 C 
ATOM     12  C   UNL     1      26.194 -34.898 -14.133  1.00  0.00     0.012 C 
ATOM     13  C   UNL     1      27.713 -32.443 -14.411  1.00  0.00     0.017 C 
ATOM     14  C   UNL     1      27.449 -32.539 -11.894  1.00  0.00    -0.064 C 
ATOM     15  C   UNL     1      26.275 -34.596 -11.107  1.00  0.00     0.032 C 
ATOM     16  C   UNL     1      26.685 -33.138 -10.926  1.00  0.00    -0.064 C 
ATOM     17  C   UNL     1      27.833 -31.084 -11.767  1.00  0.00     0.032 C 
ATOM     18  C   UNL     1      26.220 -32.402  -9.624  1.00  0.00    -0.008 C 
ATOM     19  C   UNL     1      27.904 -30.621 -10.328  1.00  0.00     0.009 C 
ATOM     20  C   UNL     1      26.539 -30.842  -9.639  1.00  0.00     0.007 C 
ATOM     21  C   UNL     1      26.952 -33.080  -8.424  1.00  0.00     0.014 C 
ATOM     22  C   UNL     1      24.685 -32.623  -9.518  1.00  0.00     0.016 C 
ATOM     23  C   UNL     1      26.443 -30.094  -8.226  1.00  0.00    -0.006 C 
ATOM     24  C   UNL     1      26.756 -32.381  -7.080  1.00  0.00     0.033 C 
ATOM     25  C   UNL     1      27.202 -30.913  -7.139  1.00  0.00     0.120 C 
ATOM     26  C   UNL     1      27.094 -28.680  -8.290  1.00  0.00     0.014 C 
ATOM     27  C   UNL     1      24.956 -29.844  -7.819  1.00  0.00     0.014 C 
BRANCH  25  28
ATOM     28  O   UNL     1      27.112 -30.310  -5.869  1.00  0.00    -0.393 OA
ATOM     29  H   UNL     1      26.399 -29.621  -5.900  1.00  0.00     0.210 HD
ENDBRANCH  25  28
ENDBRANCH   2   6
ENDBRANCH   1   2
BRANCH   1  30
ATOM     30  C   UNL     1      29.580 -38.871 -12.578  1.00  0.00     0.031 C 
BRANCH  30  31
ATOM     31  C   UNL     1      29.289 -38.324 -11.195  1.00  0.00    -0.075 C 
ATOM     32  C   UNL     1      30.125 -37.415 -10.660  1.00  0.00     0.008 C 
BRANCH  31  33
ATOM     33  C   UNL     1      28.033 -38.734 -10.437  1.00  0.00     0.008 C 
ATOM     34  C   UNL     1      26.930 -39.168 -11.409  1.00  0.00     0.012 C 
ATOM     35  C   UNL     1      28.330 -39.834  -9.412  1.00  0.00     0.012 C 
ENDBRANCH  31  33
ENDBRANCH  30  31
ENDBRANCH   1  30
TORSDOF 7
ENDMDL
MODEL 6
REMARK VINA RESULT:    -5.197      7.750     13.362
REMARK INTER + INTRA:          -9.311
REMARK INTER:                  -7.390
REMARK INTRA:                  -1.921
REMARK UNBOUND:                -2.139
REMARK SMILES C=C(CC[C@H](C(=O)[O-])[C@@H]1CC[C@]2(C)C3=C(CC[C@]12C)[C@@]1(C)CC[C@H](O)C(C)(C)[C@H]1CC3)C(C)C
REMARK SMILES IDX 4 1 5 2 6 3 7 4 8 5 9 6 10 7 18 8 11 9 12 10 17 11 19 12
REMARK SMILES IDX 13 13 14 14 16 15 15 16 31 17 20 18 30 19 29 20 22 21 21 22
REMARK SMILES IDX 26 23 23 24 24 25 27 26 28 27 25 28 3 30 2 31 1 32 32 33
REMARK SMILES IDX 33 34 34 35
REMARK H PARENT 25 29
REMARK Flexibility Score: inf
ROOT
ATOM      1  C   UNL     1      28.476 -40.589 -13.714  1.00  0.00     0.014 C 
ENDROOT
BRANCH   1   2
ATOM      2  C   UNL     1      27.581 -41.825 -13.990  1.00  0.00     0.039 C 
BRANCH   2   3
ATOM      3  C   UNL     1      27.473 -42.653 -12.731  1.00  0.00     0.045 C 
ATOM      4  O   UNL     1      26.426 -43.311 -12.495  1.00  0.00    -0.550 OA
ATOM      5  O   UNL     1      28.537 -42.716 -11.838  1.00  0.00    -0.550 OA
ENDBRANCH   2   3
BRANCH   2   6
ATOM      6  C   UNL     1      28.033 -42.741 -15.187  1.00  0.00     0.004 C 
ATOM      7  C   UNL     1      29.384 -42.411 -15.826  1.00  0.00     0.006 C 
ATOM      8  C   UNL     1      27.036 -42.922 -16.370  1.00  0.00    -0.020 C 
ATOM      9  C   UNL     1      29.330 -42.960 -17.254  1.00  0.00     0.012 C 
ATOM     10  C   UNL     1      27.922 -43.573 -17.494  1.00  0.00    -0.006 C 
ATOM     11  C   UNL     1      26.511 -41.557 -16.874  1.00  0.00     0.012 C 
ATOM     12  C   UNL     1      25.833 -43.809 -15.926  1.00  0.00     0.012 C 
ATOM     13  C   UNL     1      28.014 -45.121 -17.317  1.00  0.00     0.017 C 
ATOM     14  C   UNL     1      27.477 -43.263 -18.951  1.00  0.00    -0.064 C 
ATOM     15  C   UNL     1      25.687 -41.726 -18.139  1.00  0.00     0.032 C 
ATOM     16  C   UNL     1      26.478 -42.379 -19.267  1.00  0.00    -0.064 C 
ATOM     17  C   UNL     1      28.248 -43.961 -20.047  1.00  0.00     0.032 C 
ATOM     18  C   UNL     1      26.113 -41.988 -20.739  1.00  0.00    -0.008 C 
ATOM     19  C   UNL     1      28.301 -43.158 -21.328  1.00  0.00     0.009 C 
ATOM     20  C   UNL     1      26.867 -42.874 -21.827  1.00  0.00     0.007 C 
ATOM     21  C   UNL     1      26.491 -40.486 -20.925  1.00  0.00     0.014 C 
ATOM     22  C   UNL     1      24.577 -42.182 -20.879  1.00  0.00     0.016 C 
ATOM     23  C   UNL     1      26.846 -42.310 -23.326  1.00  0.00    -0.006 C 
ATOM     24  C   UNL     1      26.368 -39.970 -22.358  1.00  0.00     0.033 C 
ATOM     25  C   UNL     1      27.222 -40.797 -23.329  1.00  0.00     0.120 C 
ATOM     26  C   UNL     1      27.879 -43.053 -24.224  1.00  0.00     0.014 C 
ATOM     27  C   UNL     1      25.460 -42.557 -24.003  1.00  0.00     0.014 C 
BRANCH  25  28
ATOM     28  O   UNL     1      27.179 -40.249 -24.627  1.00  0.00    -0.393 OA
ATOM     29  H   UNL     1      28.056 -39.830 -24.819  1.00  0.00     0.210 HD
ENDBRANCH  25  28
ENDBRANCH   2   6
ENDBRANCH   1   2
BRANCH   1  30
ATOM     30  C   UNL     1      27.645 -39.317 -13.470  1.00  0.00     0.031 C 
BRANCH  30  31
ATOM     31  C   UNL     1      27.178 -38.714 -14.780  1.00  0.00    -0.075 C 
ATOM     32  C   UNL     1      25.871 -38.447 -14.949  1.00  0.00     0.008 C 
BRANCH  31  33
ATOM     33  C   UNL     1      28.174 -38.346 -15.872  1.00  0.00     0.008 C 
ATOM     34  C   UNL     1      27.465 -38.183 -17.222  1.00  0.00     0.012 C 
ATOM     35  C   UNL     1      28.966 -37.086 -15.509  1.00  0.00     0.012 C 
ENDBRANCH  31  33
ENDBRANCH  30  31
ENDBRANCH   1  30
TORSDOF 7
ENDMDL
MODEL 7
REMARK VINA RESULT:    -5.149      3.149      6.309
REMARK INTER + INTRA:          -9.245
REMARK INTER:                  -6.842
REMARK INTRA:                  -2.403
REMARK UNBOUND:                -2.139
REMARK SMILES C=C(CC[C@H](C(=O)[O-])[C@@H]1CC[C@]2(C)C3=C(CC[C@]12C)[C@@]1(C)CC[C@H](O)C(C)(C)[C@H]1CC3)C(C)C
REMARK SMILES IDX 4 1 5 2 6 3 7 4 8 5 9 6 10 7 18 8 11 9 12 10 17 11 19 12
REMARK SMILES IDX 13 13 14 14 16 15 15 16 31 17 20 18 30 19 29 20 22 21 21 22
REMARK SMILES IDX 26 23 23 24 24 25 27 26 28 27 25 28 3 30 2 31 1 32 32 33
REMARK SMILES IDX 33 34 34 35
REMARK H PARENT 25 29
REMARK Flexibility Score: inf
ROOT
ATOM      1  C   UNL     1      27.116 -30.485 -11.996  1.00  0.00     0.014 C 
ENDROOT
BRANCH   1   2
ATOM      2  C   UNL     1      28.020 -31.320 -12.938  1.00  0.00     0.039 C 
BRANCH   2   3
ATOM      3  C   UNL     1      28.253 -30.551 -14.216  1.00  0.00     0.045 C 
ATOM      4  O   UNL     1      28.293 -31.155 -15.321  1.00  0.00    -0.550 OA
ATOM      5  O   UNL     1      28.396 -29.168 -14.188  1.00  0.00    -0.550 OA
ENDBRANCH   2   3
BRANCH   2   6
ATOM      6  C   UNL     1      27.502 -32.766 -13.278  1.00  0.00     0.004 C 
ATOM      7  C   UNL     1      26.055 -33.081 -12.889  1.00  0.00     0.006 C 
ATOM      8  C   UNL     1      28.349 -33.971 -12.772  1.00  0.00    -0.020 C 
ATOM      9  C   UNL     1      25.972 -34.601 -12.732  1.00  0.00     0.012 C 
ATOM     10  C   UNL     1      27.387 -35.199 -12.971  1.00  0.00    -0.006 C 
ATOM     11  C   UNL     1      28.679 -33.833 -11.268  1.00  0.00     0.012 C 
ATOM     12  C   UNL     1      29.674 -34.074 -13.587  1.00  0.00     0.012 C 
ATOM     13  C   UNL     1      27.457 -35.744 -14.432  1.00  0.00     0.017 C 
ATOM     14  C   UNL     1      27.609 -36.382 -11.987  1.00  0.00    -0.064 C 
ATOM     15  C   UNL     1      29.344 -35.093 -10.740  1.00  0.00     0.032 C 
ATOM     16  C   UNL     1      28.475 -36.332 -10.925  1.00  0.00    -0.064 C 
ATOM     17  C   UNL     1      26.768 -37.614 -12.224  1.00  0.00     0.032 C 
ATOM     18  C   UNL     1      28.609 -37.485  -9.874  1.00  0.00    -0.008 C 
ATOM     19  C   UNL     1      26.477 -38.378 -10.950  1.00  0.00     0.009 C 
ATOM     20  C   UNL     1      27.802 -38.797 -10.277  1.00  0.00     0.007 C 
ATOM     21  C   UNL     1      28.076 -36.934  -8.514  1.00  0.00     0.014 C 
ATOM     22  C   UNL     1      30.125 -37.812  -9.769  1.00  0.00     0.016 C 
ATOM     23  C   UNL     1      27.578 -39.869  -9.108  1.00  0.00    -0.006 C 
ATOM     24  C   UNL     1      27.966 -37.976  -7.402  1.00  0.00     0.033 C 
ATOM     25  C   UNL     1      27.071 -39.152  -7.821  1.00  0.00     0.120 C 
ATOM     26  C   UNL     1      26.508 -40.927  -9.510  1.00  0.00     0.014 C 
ATOM     27  C   UNL     1      28.881 -40.685  -8.833  1.00  0.00     0.014 C 
BRANCH  25  28
ATOM     28  O   UNL     1      26.896 -40.054  -6.753  1.00  0.00    -0.393 OA
ATOM     29  H   UNL     1      27.700 -40.014  -6.175  1.00  0.00     0.210 HD
ENDBRANCH  25  28
ENDBRANCH   2   6
ENDBRANCH   1   2
BRANCH   1  30
ATOM     30  C   UNL     1      27.511 -30.651 -10.518  1.00  0.00     0.031 C 
BRANCH  30  31
ATOM     31  C   UNL     1      26.351 -31.184  -9.701  1.00  0.00    -0.075 C 
ATOM     32  C   UNL     1      25.098 -30.819 -10.027  1.00  0.00     0.008 C 
BRANCH  31  33
ATOM     33  C   UNL     1      26.580 -32.176  -8.568  1.00  0.00     0.008 C 
ATOM     34  C   UNL     1      26.190 -33.594  -9.000  1.00  0.00     0.012 C 
ATOM     35  C   UNL     1      28.027 -32.130  -8.065  1.00  0.00     0.012 C 
ENDBRANCH  31  33
ENDBRANCH  30  31
ENDBRANCH   1  30
TORSDOF 7
ENDMDL
MODEL 8
REMARK VINA RESULT:    -5.148     10.505     14.840
REMARK INTER + INTRA:          -9.244
REMARK INTER:                  -6.893
REMARK INTRA:                  -2.351
REMARK UNBOUND:                -2.139
REMARK SMILES C=C(CC[C@H](C(=O)[O-])[C@@H]1CC[C@]2(C)C3=C(CC[C@]12C)[C@@]1(C)CC[C@H](O)C(C)(C)[C@H]1CC3)C(C)C
REMARK SMILES IDX 4 1 5 2 6 3 7 4 8 5 9 6 10 7 18 8 11 9 12 10 17 11 19 12
REMARK SMILES IDX 13 13 14 14 16 15 15 16 31 17 20 18 30 19 29 20 22 21 21 22
REMARK SMILES IDX 26 23 23 24 24 25 27 26 28 27 25 28 3 30 2 31 1 32 32 33
REMARK SMILES IDX 33 34 34 35
REMARK H PARENT 25 29
REMARK Flexibility Score: inf
ROOT
ATOM      1  C   UNL     1      29.221 -43.032 -16.852  1.00  0.00     0.014 C 
ENDROOT
BRANCH   1   2
ATOM      2  C   UNL     1      28.033 -42.221 -16.273  1.00  0.00     0.039 C 
BRANCH   2   3
ATOM      3  C   UNL     1      28.341 -41.836 -14.846  1.00  0.00     0.045 C 
ATOM      4  O   UNL     1      27.517 -41.153 -14.182  1.00  0.00    -0.550 OA
ATOM      5  O   UNL     1      29.522 -42.256 -14.244  1.00  0.00    -0.550 OA
ENDBRANCH   2   3
BRANCH   2   6
ATOM      6  C   UNL     1      26.629 -42.927 -16.339  1.00  0.00     0.004 C 
ATOM      7  C   UNL     1      26.628 -44.412 -16.711  1.00  0.00     0.006 C 
ATOM      8  C   UNL     1      25.532 -42.267 -17.228  1.00  0.00    -0.020 C 
ATOM      9  C   UNL     1      25.247 -44.709 -17.300  1.00  0.00     0.012 C 
ATOM     10  C   UNL     1      24.433 -43.385 -17.336  1.00  0.00    -0.006 C 
ATOM     11  C   UNL     1      26.071 -41.956 -18.644  1.00  0.00     0.012 C 
ATOM     12  C   UNL     1      25.026 -40.951 -16.564  1.00  0.00     0.012 C 
ATOM     13  C   UNL     1      23.472 -43.357 -16.106  1.00  0.00     0.017 C 
ATOM     14  C   UNL     1      23.579 -43.352 -18.635  1.00  0.00    -0.064 C 
ATOM     15  C   UNL     1      24.953 -41.484 -19.558  1.00  0.00     0.032 C 
ATOM     16  C   UNL     1      23.835 -42.512 -19.688  1.00  0.00    -0.064 C 
ATOM     17  C   UNL     1      22.448 -44.350 -18.717  1.00  0.00     0.032 C 
ATOM     18  C   UNL     1      23.041 -42.564 -21.038  1.00  0.00    -0.008 C 
ATOM     19  C   UNL     1      22.142 -44.773 -20.137  1.00  0.00     0.009 C 
ATOM     20  C   UNL     1      21.780 -43.535 -20.986  1.00  0.00     0.007 C 
ATOM     21  C   UNL     1      24.035 -43.046 -22.140  1.00  0.00     0.014 C 
ATOM     22  C   UNL     1      22.573 -41.111 -21.329  1.00  0.00     0.016 C 
ATOM     23  C   UNL     1      21.143 -43.933 -22.400  1.00  0.00    -0.006 C 
ATOM     24  C   UNL     1      23.394 -43.326 -23.499  1.00  0.00     0.033 C 
ATOM     25  C   UNL     1      22.269 -44.365 -23.387  1.00  0.00     0.120 C 
ATOM     26  C   UNL     1      20.156 -45.129 -22.259  1.00  0.00     0.014 C 
ATOM     27  C   UNL     1      20.289 -42.763 -22.984  1.00  0.00     0.014 C 
BRANCH  25  28
ATOM     28  O   UNL     1      21.756 -44.688 -24.659  1.00  0.00    -0.393 OA
ATOM     29  H   UNL     1      20.865 -44.265 -24.753  1.00  0.00     0.210 HD
ENDBRANCH  25  28
ENDBRANCH   2   6
ENDBRANCH   1   2
BRANCH   1  30
ATOM     30  C   UNL     1      29.402 -42.794 -18.362  1.00  0.00     0.031 C 
BRANCH  30  31
ATOM     31  C   UNL     1      29.186 -44.074 -19.143  1.00  0.00    -0.075 C 
ATOM     32  C   UNL     1      29.481 -45.252 -18.565  1.00  0.00     0.008 C 
BRANCH  31  33
ATOM     33  C   UNL     1      28.579 -44.048 -20.540  1.00  0.00     0.008 C 
ATOM     34  C   UNL     1      27.145 -44.589 -20.519  1.00  0.00     0.012 C 
ATOM     35  C   UNL     1      28.630 -42.642 -21.149  1.00  0.00     0.012 C 
ENDBRANCH  31  33
ENDBRANCH  30  31
ENDBRANCH   1  30
TORSDOF 7
ENDMDL
MODEL 9
REMARK VINA RESULT:    -5.093     12.881     15.220
REMARK INTER + INTRA:          -9.167
REMARK INTER:                  -6.980
REMARK INTRA:                  -2.187
REMARK UNBOUND:                -2.139
REMARK SMILES C=C(CC[C@H](C(=O)[O-])[C@@H]1CC[C@]2(C)C3=C(CC[C@]12C)[C@@]1(C)CC[C@H](O)C(C)(C)[C@H]1CC3)C(C)C
REMARK SMILES IDX 4 1 5 2 6 3 7 4 8 5 9 6 10 7 18 8 11 9 12 10 17 11 19 12
REMARK SMILES IDX 13 13 14 14 16 15 15 16 31 17 20 18 30 19 29 20 22 21 21 22
REMARK SMILES IDX 26 23 23 24 24 25 27 26 28 27 25 28 3 30 2 31 1 32 32 33
REMARK SMILES IDX 33 34 34 35
REMARK H PARENT 25 29
REMARK Flexibility Score: inf
ROOT
ATOM      1  C   UNL     1      20.119 -43.228 -10.609  1.00  0.00     0.014 C 
ENDROOT
BRANCH   1   2
ATOM      2  C   UNL     1      19.994 -43.808  -9.176  1.00  0.00     0.039 C 
BRANCH   2   3
ATOM      3  C   UNL     1      21.094 -44.817  -8.950  1.00  0.00     0.045 C 
ATOM      4  O   UNL     1      21.199 -45.400  -7.838  1.00  0.00    -0.550 OA
ATOM      5  O   UNL     1      21.981 -45.131  -9.973  1.00  0.00    -0.550 OA
ENDBRANCH   2   3
BRANCH   2   6
ATOM      6  C   UNL     1      18.604 -44.452  -8.820  1.00  0.00     0.004 C 
ATOM      7  C   UNL     1      17.675 -44.765  -9.996  1.00  0.00     0.006 C 
ATOM      8  C   UNL     1      17.721 -43.720  -7.765  1.00  0.00    -0.020 C 
ATOM      9  C   UNL     1      16.253 -44.779  -9.431  1.00  0.00     0.012 C 
ATOM     10  C   UNL     1      16.320 -44.417  -7.920  1.00  0.00    -0.006 C 
ATOM     11  C   UNL     1      17.573 -42.218  -8.103  1.00  0.00     0.012 C 
ATOM     12  C   UNL     1      18.344 -43.874  -6.345  1.00  0.00     0.012 C 
ATOM     13  C   UNL     1      16.247 -45.735  -7.088  1.00  0.00     0.017 C 
ATOM     14  C   UNL     1      15.095 -43.530  -7.559  1.00  0.00    -0.064 C 
ATOM     15  C   UNL     1      16.567 -41.551  -7.180  1.00  0.00     0.032 C 
ATOM     16  C   UNL     1      15.188 -42.195  -7.259  1.00  0.00    -0.064 C 
ATOM     17  C   UNL     1      13.745 -44.207  -7.599  1.00  0.00     0.032 C 
ATOM     18  C   UNL     1      13.938 -41.285  -7.008  1.00  0.00    -0.008 C 
ATOM     19  C   UNL     1      12.623 -43.255  -7.949  1.00  0.00     0.009 C 
ATOM     20  C   UNL     1      12.574 -42.102  -6.923  1.00  0.00     0.007 C 
ATOM     21  C   UNL     1      13.869 -40.260  -8.182  1.00  0.00     0.014 C 
ATOM     22  C   UNL     1      14.194 -40.549  -5.662  1.00  0.00     0.016 C 
ATOM     23  C   UNL     1      11.231 -41.238  -7.042  1.00  0.00    -0.006 C 
ATOM     24  C   UNL     1      12.609 -39.395  -8.201  1.00  0.00     0.033 C 
ATOM     25  C   UNL     1      11.338 -40.254  -8.246  1.00  0.00     0.120 C 
ATOM     26  C   UNL     1       9.992 -42.150  -7.288  1.00  0.00     0.014 C 
ATOM     27  C   UNL     1      10.926 -40.482  -5.710  1.00  0.00     0.014 C 
BRANCH  25  28
ATOM     28  O   UNL     1      10.190 -39.445  -8.365  1.00  0.00    -0.393 OA
ATOM     29  H   UNL     1       9.731 -39.678  -9.212  1.00  0.00     0.210 HD
ENDBRANCH  25  28
ENDBRANCH   2   6
ENDBRANCH   1   2
BRANCH   1  30
ATOM     30  C   UNL     1      20.282 -41.697 -10.600  1.00  0.00     0.031 C 
BRANCH  30  31
ATOM     31  C   UNL     1      19.037 -41.016 -11.132  1.00  0.00    -0.075 C 
ATOM     32  C   UNL     1      18.235 -41.685 -11.979  1.00  0.00     0.008 C 
BRANCH  31  33
ATOM     33  C   UNL     1      18.651 -39.617 -10.669  1.00  0.00     0.008 C 
ATOM     34  C   UNL     1      17.132 -39.501 -10.500  1.00  0.00     0.012 C 
ATOM     35  C   UNL     1      19.382 -39.230  -9.379  1.00  0.00     0.012 C 
ENDBRANCH  31  33
ENDBRANCH  30  31
ENDBRANCH   1  30
TORSDOF 7
ENDMDL
