MODEL 1
REMARK VINA RESULT:    -4.841      0.000      0.000
REMARK INTER + INTRA:          -4.841
REMARK INTER:                  -4.841
REMARK INTRA:                   0.000
REMARK UNBOUND:                 0.000
REMARK SMILES CC1=CC[C@@H]2[C@H](C1)C2(C)C
REMARK SMILES IDX 1 1 2 2 3 3 4 4 5 5 6 6 7 7 8 8 9 9 10 10
REMARK H PARENT
REMARK Flexibility Score: inf
ROOT
ATOM      1  C   UNL     1     -56.691 -48.385  21.004  1.00  0.00     0.039 C 
ATOM      2  C   UNL     1     -55.321 -48.107  21.563  1.00  0.00    -0.077 C 
ATOM      3  C   UNL     1     -54.969 -46.843  21.852  1.00  0.00    -0.028 C 
ATOM      4  C   UNL     1     -53.617 -46.511  22.417  1.00  0.00     0.031 C 
ATOM      5  C   UNL     1     -52.505 -47.383  21.798  1.00  0.00     0.003 C 
ATOM      6  C   UNL     1     -52.898 -48.841  21.468  1.00  0.00     0.003 C 
ATOM      7  C   UNL     1     -54.352 -49.242  21.801  1.00  0.00     0.034 C 
ATOM      8  C   UNL     1     -51.893 -48.548  22.593  1.00  0.00    -0.029 C 
ATOM      9  C   UNL     1     -50.434 -48.862  22.243  1.00  0.00     0.012 C 
ATOM     10  C   UNL     1     -52.285 -48.775  24.066  1.00  0.00     0.012 C 
ENDROOT
TORSDOF 0
ENDMDL
MODEL 2
REMARK VINA RESULT:    -4.791     11.313     14.426
REMARK INTER + INTRA:          -4.791
REMARK INTER:                  -4.791
REMARK INTRA:                   0.000
REMARK UNBOUND:                 0.000
REMARK SMILES CC1=CC[C@@H]2[C@H](C1)C2(C)C
REMARK SMILES IDX 1 1 2 2 3 3 4 4 5 5 6 6 7 7 8 8 9 9 10 10
REMARK H PARENT
REMARK Flexibility Score: inf
ROOT
ATOM      1  C   UNL     1     -37.633 -48.495  28.866  1.00  0.00     0.039 C 
ATOM      2  C   UNL     1     -39.030 -48.222  28.375  1.00  0.00    -0.077 C 
ATOM      3  C   UNL     1     -39.521 -46.974  28.441  1.00  0.00    -0.028 C 
ATOM      4  C   UNL     1     -40.907 -46.645  27.960  1.00  0.00     0.031 C 
ATOM      5  C   UNL     1     -41.910 -47.771  28.287  1.00  0.00     0.003 C 
ATOM      6  C   UNL     1     -41.356 -49.212  28.207  1.00  0.00     0.003 C 
ATOM      7  C   UNL     1     -39.870 -49.344  27.808  1.00  0.00     0.034 C 
ATOM      8  C   UNL     1     -42.397 -48.726  27.185  1.00  0.00    -0.029 C 
ATOM      9  C   UNL     1     -43.809 -49.282  27.400  1.00  0.00     0.012 C 
ATOM     10  C   UNL     1     -41.994 -48.489  25.716  1.00  0.00     0.012 C 
ENDROOT
TORSDOF 0
ENDMDL
MODEL 3
REMARK VINA RESULT:    -4.743      1.199      2.242
REMARK INTER + INTRA:          -4.743
REMARK INTER:                  -4.743
REMARK INTRA:                   0.000
REMARK UNBOUND:                 0.000
REMARK SMILES CC1=CC[C@@H]2[C@H](C1)C2(C)C
REMARK SMILES IDX 1 1 2 2 3 3 4 4 5 5 6 6 7 7 8 8 9 9 10 10
REMARK H PARENT
REMARK Flexibility Score: inf
ROOT
ATOM      1  C   UNL     1     -56.399 -46.665  21.000  1.00  0.00     0.039 C 
ATOM      2  C   UNL     1     -55.075 -47.212  21.462  1.00  0.00    -0.077 C 
ATOM      3  C   UNL     1     -54.765 -48.494  21.209  1.00  0.00    -0.028 C 
ATOM      4  C   UNL     1     -53.455 -49.088  21.643  1.00  0.00     0.031 C 
ATOM      5  C   UNL     1     -53.013 -48.559  23.023  1.00  0.00     0.003 C 
ATOM      6  C   UNL     1     -53.358 -47.082  23.321  1.00  0.00     0.003 C 
ATOM      7  C   UNL     1     -54.101 -46.322  22.199  1.00  0.00     0.034 C 
ATOM      8  C   UNL     1     -51.893 -47.511  23.135  1.00  0.00    -0.029 C 
ATOM      9  C   UNL     1     -51.080 -47.581  24.432  1.00  0.00     0.012 C 
ATOM     10  C   UNL     1     -51.108 -47.075  21.882  1.00  0.00     0.012 C 
ENDROOT
TORSDOF 0
ENDMDL
MODEL 4
REMARK VINA RESULT:    -4.725     11.497     14.564
REMARK INTER + INTRA:          -4.725
REMARK INTER:                  -4.725
REMARK INTRA:                   0.000
REMARK UNBOUND:                 0.000
REMARK SMILES CC1=CC[C@@H]2[C@H](C1)C2(C)C
REMARK SMILES IDX 1 1 2 2 3 3 4 4 5 5 6 6 7 7 8 8 9 9 10 10
REMARK H PARENT
REMARK Flexibility Score: inf
ROOT
ATOM      1  C   UNL     1     -38.112 -46.267  29.254  1.00  0.00     0.039 C 
ATOM      2  C   UNL     1     -39.334 -47.091  28.948  1.00  0.00    -0.077 C 
ATOM      3  C   UNL     1     -39.519 -48.260  29.583  1.00  0.00    -0.028 C 
ATOM      4  C   UNL     1     -40.724 -49.118  29.320  1.00  0.00     0.031 C 
ATOM      5  C   UNL     1     -41.126 -49.102  27.830  1.00  0.00     0.003 C 
ATOM      6  C   UNL     1     -40.923 -47.759  27.092  1.00  0.00     0.003 C 
ATOM      7  C   UNL     1     -40.346 -46.602  27.937  1.00  0.00     0.034 C 
ATOM      8  C   UNL     1     -42.342 -48.288  27.359  1.00  0.00    -0.029 C 
ATOM      9  C   UNL     1     -43.052 -48.858  26.126  1.00  0.00     0.012 C 
ATOM     10  C   UNL     1     -43.254 -47.587  28.384  1.00  0.00     0.012 C 
ENDROOT
TORSDOF 0
ENDMDL
MODEL 5
REMARK VINA RESULT:    -4.477     13.818     15.574
REMARK INTER + INTRA:          -4.477
REMARK INTER:                  -4.477
REMARK INTRA:                   0.000
REMARK UNBOUND:                 0.000
REMARK SMILES CC1=CC[C@@H]2[C@H](C1)C2(C)C
REMARK SMILES IDX 1 1 2 2 3 3 4 4 5 5 6 6 7 7 8 8 9 9 10 10
REMARK H PARENT
REMARK Flexibility Score: inf
ROOT
ATOM      1  C   UNL     1     -42.295 -50.360  30.565  1.00  0.00     0.039 C 
ATOM      2  C   UNL     1     -41.318 -49.503  29.806  1.00  0.00    -0.077 C 
ATOM      3  C   UNL     1     -41.497 -49.304  28.490  1.00  0.00    -0.028 C 
ATOM      4  C   UNL     1     -40.555 -48.452  27.687  1.00  0.00     0.031 C 
ATOM      5  C   UNL     1     -39.090 -48.634  28.137  1.00  0.00     0.003 C 
ATOM      6  C   UNL     1     -38.873 -48.857  29.651  1.00  0.00     0.003 C 
ATOM      7  C   UNL     1     -40.148 -48.868  30.523  1.00  0.00     0.034 C 
ATOM      8  C   UNL     1     -38.394 -47.557  28.985  1.00  0.00    -0.029 C 
ATOM      9  C   UNL     1     -36.878 -47.466  28.782  1.00  0.00     0.012 C 
ATOM     10  C   UNL     1     -39.105 -46.222  29.283  1.00  0.00     0.012 C 
ENDROOT
TORSDOF 0
ENDMDL
MODEL 6
REMARK VINA RESULT:    -4.459      1.231      4.218
REMARK INTER + INTRA:          -4.459
REMARK INTER:                  -4.459
REMARK INTRA:                   0.000
REMARK UNBOUND:                 0.000
REMARK SMILES CC1=CC[C@@H]2[C@H](C1)C2(C)C
REMARK SMILES IDX 1 1 2 2 3 3 4 4 5 5 6 6 7 7 8 8 9 9 10 10
REMARK H PARENT
REMARK Flexibility Score: inf
ROOT
ATOM      1  C   UNL     1     -49.815 -49.719  24.703  1.00  0.00     0.039 C 
ATOM      2  C   UNL     1     -50.774 -49.193  23.669  1.00  0.00    -0.077 C 
ATOM      3  C   UNL     1     -50.368 -49.066  22.395  1.00  0.00    -0.028 C 
ATOM      4  C   UNL     1     -51.287 -48.552  21.323  1.00  0.00     0.031 C 
ATOM      5  C   UNL     1     -52.203 -47.425  21.842  1.00  0.00     0.003 C 
ATOM      6  C   UNL     1     -52.681 -47.566  23.305  1.00  0.00     0.003 C 
ATOM      7  C   UNL     1     -52.185 -48.817  24.062  1.00  0.00     0.034 C 
ATOM      8  C   UNL     1     -53.684 -47.701  22.148  1.00  0.00    -0.029 C 
ATOM      9  C   UNL     1     -54.610 -46.494  21.962  1.00  0.00     0.012 C 
ATOM     10  C   UNL     1     -54.305 -49.071  21.812  1.00  0.00     0.012 C 
ENDROOT
TORSDOF 0
ENDMDL
MODEL 7
REMARK VINA RESULT:    -4.434     12.358     13.197
REMARK INTER + INTRA:          -4.434
REMARK INTER:                  -4.434
REMARK INTRA:                   0.000
REMARK UNBOUND:                 0.000
REMARK SMILES CC1=CC[C@@H]2[C@H](C1)C2(C)C
REMARK SMILES IDX 1 1 2 2 3 3 4 4 5 5 6 6 7 7 8 8 9 9 10 10
REMARK H PARENT
REMARK Flexibility Score: inf
ROOT
ATOM      1  C   UNL     1     -46.930 -50.048  33.059  1.00  0.00     0.039 C 
ATOM      2  C   UNL     1     -45.737 -49.987  32.143  1.00  0.00    -0.077 C 
ATOM      3  C   UNL     1     -45.579 -48.927  31.333  1.00  0.00    -0.028 C 
ATOM      4  C   UNL     1     -44.403 -48.813  30.404  1.00  0.00     0.031 C 
ATOM      5  C   UNL     1     -44.019 -50.176  29.794  1.00  0.00     0.003 C 
ATOM      6  C   UNL     1     -44.189 -51.402  30.720  1.00  0.00     0.003 C 
ATOM      7  C   UNL     1     -44.722 -51.107  32.140  1.00  0.00     0.034 C 
ATOM      8  C   UNL     1     -42.784 -50.939  30.303  1.00  0.00    -0.029 C 
ATOM      9  C   UNL     1     -42.106 -51.827  29.254  1.00  0.00     0.012 C 
ATOM     10  C   UNL     1     -41.840 -50.291  31.334  1.00  0.00     0.012 C 
ENDROOT
TORSDOF 0
ENDMDL
MODEL 8
REMARK VINA RESULT:    -4.403      4.955      6.936
REMARK INTER + INTRA:          -4.403
REMARK INTER:                  -4.403
REMARK INTRA:                   0.000
REMARK UNBOUND:                 0.000
REMARK SMILES CC1=CC[C@@H]2[C@H](C1)C2(C)C
REMARK SMILES IDX 1 1 2 2 3 3 4 4 5 5 6 6 7 7 8 8 9 9 10 10
REMARK H PARENT
REMARK Flexibility Score: inf
ROOT
ATOM      1  C   UNL     1     -50.099 -48.849  21.114  1.00  0.00     0.039 C 
ATOM      2  C   UNL     1     -49.351 -49.357  19.911  1.00  0.00    -0.077 C 
ATOM      3  C   UNL     1     -48.206 -48.759  19.544  1.00  0.00    -0.028 C 
ATOM      4  C   UNL     1     -47.416 -49.230  18.355  1.00  0.00     0.031 C 
ATOM      5  C   UNL     1     -48.333 -49.673  17.196  1.00  0.00     0.003 C 
ATOM      6  C   UNL     1     -49.651 -50.368  17.607  1.00  0.00     0.003 C 
ATOM      7  C   UNL     1     -49.884 -50.534  19.125  1.00  0.00     0.034 C 
ATOM      8  C   UNL     1     -48.546 -51.166  16.896  1.00  0.00    -0.029 C 
ATOM      9  C   UNL     1     -48.837 -51.486  15.425  1.00  0.00     0.012 C 
ATOM     10  C   UNL     1     -47.743 -52.235  17.661  1.00  0.00     0.012 C 
ENDROOT
TORSDOF 0
ENDMDL
MODEL 9
REMARK VINA RESULT:    -4.401      9.837     12.348
REMARK INTER + INTRA:          -4.401
REMARK INTER:                  -4.401
REMARK INTRA:                   0.000
REMARK UNBOUND:                 0.000
REMARK SMILES CC1=CC[C@@H]2[C@H](C1)C2(C)C
REMARK SMILES IDX 1 1 2 2 3 3 4 4 5 5 6 6 7 7 8 8 9 9 10 10
REMARK H PARENT
REMARK Flexibility Score: inf
ROOT
ATOM      1  C   UNL     1     -44.390 -49.908  24.571  1.00  0.00     0.039 C 
ATOM      2  C   UNL     1     -43.560 -49.462  25.745  1.00  0.00    -0.077 C 
ATOM      3  C   UNL     1     -44.021 -49.655  26.992  1.00  0.00    -0.028 C 
ATOM      4  C   UNL     1     -43.230 -49.234  28.198  1.00  0.00     0.031 C 
ATOM      5  C   UNL     1     -42.490 -47.901  27.964  1.00  0.00     0.003 C 
ATOM      6  C   UNL     1     -41.949 -47.672  26.535  1.00  0.00     0.003 C 
ATOM      7  C   UNL     1     -42.216 -48.807  25.521  1.00  0.00     0.034 C 
ATOM      8  C   UNL     1     -40.975 -47.884  27.704  1.00  0.00    -0.029 C 
ATOM      9  C   UNL     1     -40.260 -46.613  28.177  1.00  0.00     0.012 C 
ATOM     10  C   UNL     1     -40.153 -49.184  27.807  1.00  0.00     0.012 C 
ENDROOT
TORSDOF 0
ENDMDL
