MODEL 1
REMARK VINA RESULT:    -5.573      0.000      0.000
REMARK INTER + INTRA:         -10.418
REMARK INTER:                  -8.831
REMARK INTRA:                  -1.587
REMARK UNBOUND:                -1.587
REMARK SMILES C[C@@H]1O[C@@H](O[C@H]2CC[C@@]3(C)[C@@H](CC[C@]4(C)[C@@H]3C=C[C@]35OC[C@@]6(CCC(C)(C)C[C@H]63)[C@@H](O)C[C@@]54C)[C@]2(C)CO)[C@H](O)[C@@H](O[C@@H]2O[C@H](CO)[C@@H](O)[C@H](O)[C@H]2O)[C@@H]1O
REMARK SMILES IDX 1 1 2 2 54 3 41 4 39 5 4 6 3 7 55 8 42 10 43 11 52 12 44 13
REMARK SMILES IDX 50 14 45 15 48 16 53 17 51 19 46 21 47 22 49 24 5 26 6 27
REMARK SMILES IDX 7 28 35 29 8 30 11 31 36 32 9 33 12 34 10 35 16 36 13 37
REMARK SMILES IDX 14 38 17 39 15 40 33 41 18 42 19 43 32 44 34 45 29 46 20 47
REMARK SMILES IDX 30 48 22 49 28 50 21 51 23 52 25 53 24 54 26 55 27 56 37 57
REMARK SMILES IDX 38 58 31 60 40 62
REMARK H PARENT 55 9 53 18 51 20 47 23 49 25 38 59 31 61 40 63
REMARK Flexibility Score: inf
ROOT
ATOM      1  C   UNL     1      16.738  20.544  80.006  1.00  0.00     0.041 C 
ATOM      2  C   UNL     1      15.510  21.368  79.617  1.00  0.00     0.150 C 
ATOM      3  C   UNL     1      15.422  22.662  80.457  1.00  0.00     0.175 C 
ATOM      4  C   UNL     1      14.188  23.545  80.056  1.00  0.00     0.186 C 
ATOM      5  C   UNL     1      13.498  22.933  78.821  1.00  0.00     0.202 C 
ATOM      6  C   UNL     1      14.525  22.495  77.743  1.00  0.00     0.282 C 
ATOM      7  O   UNL     1      15.582  21.666  78.230  1.00  0.00    -0.344 OA
ENDROOT
BRANCH   3   8
ATOM      8  O   UNL     1      16.605  23.393  80.242  1.00  0.00    -0.388 OA
ATOM      9  H   UNL     1      17.343  22.742  80.128  1.00  0.00     0.211 HD
ENDBRANCH   3   8
BRANCH   4  10
ATOM     10  O   UNL     1      13.165  23.677  81.039  1.00  0.00    -0.341 OA
BRANCH  10  11
ATOM     11  C   UNL     1      12.746  24.989  81.403  1.00  0.00     0.282 C 
ATOM     12  C   UNL     1      13.368  25.287  82.794  1.00  0.00     0.202 C 
ATOM     13  O   UNL     1      13.083  25.983  80.446  1.00  0.00    -0.341 OA
ATOM     14  C   UNL     1      13.648  26.786  83.010  1.00  0.00     0.179 C 
ATOM     15  C   UNL     1      12.528  27.260  80.749  1.00  0.00     0.178 C 
ATOM     16  C   UNL     1      12.622  27.652  82.259  1.00  0.00     0.177 C 
BRANCH  12  17
ATOM     17  O   UNL     1      12.564  24.755  83.822  1.00  0.00    -0.385 OA
ATOM     18  H   UNL     1      13.005  24.957  84.690  1.00  0.00     0.211 HD
ENDBRANCH  12  17
BRANCH  14  19
ATOM     19  O   UNL     1      14.945  27.087  82.556  1.00  0.00    -0.387 OA
ATOM     20  H   UNL     1      15.329  26.246  82.195  1.00  0.00     0.211 HD
ENDBRANCH  14  19
BRANCH  15  21
ATOM     21  C   UNL     1      13.262  28.293  79.885  1.00  0.00     0.191 C 
BRANCH  21  22
ATOM     22  O   UNL     1      14.629  27.972  79.800  1.00  0.00    -0.394 OA
ATOM     23  H   UNL     1      14.680  27.048  79.426  1.00  0.00     0.210 HD
ENDBRANCH  21  22
ENDBRANCH  15  21
BRANCH  16  24
ATOM     24  O   UNL     1      11.351  27.515  82.846  1.00  0.00    -0.387 OA
ATOM     25  H   UNL     1      11.181  28.334  83.378  1.00  0.00     0.211 HD
ENDBRANCH  16  24
ENDBRANCH  10  11
ENDBRANCH   4  10
BRANCH   6  26
ATOM     26  O   UNL     1      13.849  21.771  76.725  1.00  0.00    -0.346 OA
BRANCH  26  27
ATOM     27  C   UNL     1      14.730  21.060  75.860  1.00  0.00     0.130 C 
ATOM     28  C   UNL     1      14.386  19.556  75.881  1.00  0.00     0.033 C 
ATOM     29  C   UNL     1      14.699  21.667  74.395  1.00  0.00     0.020 C 
ATOM     30  C   UNL     1      13.008  19.210  75.278  1.00  0.00     0.010 C 
ATOM     31  C   UNL     1      13.813  20.778  73.426  1.00  0.00     0.006 C 
ATOM     32  C   UNL     1      14.214  23.146  74.443  1.00  0.00     0.017 C 
ATOM     33  C   UNL     1      12.542  20.115  74.080  1.00  0.00    -0.022 C 
ATOM     34  C   UNL     1      13.626  21.308  71.964  1.00  0.00     0.005 C 
ATOM     35  C   UNL     1      11.511  21.133  74.624  1.00  0.00     0.012 C 
ATOM     36  C   UNL     1      11.909  19.209  72.959  1.00  0.00     0.024 C 
ATOM     37  C   UNL     1      12.208  21.220  71.373  1.00  0.00     0.008 C 
ATOM     38  C   UNL     1      11.383  19.910  71.660  1.00  0.00    -0.017 C 
ATOM     39  C   UNL     1      10.900  18.167  73.380  1.00  0.00    -0.024 C 
ATOM     40  C   UNL     1       9.893  20.387  71.860  1.00  0.00     0.013 C 
ATOM     41  C   UNL     1      11.423  18.793  70.469  1.00  0.00     0.009 C 
ATOM     42  C   UNL     1      10.448  17.318  72.436  1.00  0.00     0.005 C 
ATOM     43  C   UNL     1      11.061  17.306  71.036  1.00  0.00     0.096 C 
ATOM     44  C   UNL     1      12.814  18.734  69.759  1.00  0.00     0.043 C 
ATOM     45  C   UNL     1      10.430  19.228  69.335  1.00  0.00     0.015 C 
ATOM     46  C   UNL     1      12.204  16.260  71.040  1.00  0.00     0.037 C 
ATOM     47  O   UNL     1      10.143  16.718  70.131  1.00  0.00    -0.369 OA
ATOM     48  C   UNL     1      13.102  17.417  68.968  1.00  0.00     0.124 C 
ATOM     49  C   UNL     1      12.412  16.127  69.566  1.00  0.00     0.026 C 
ATOM     50  C   UNL     1      13.521  16.319  71.853  1.00  0.00     0.014 C 
ATOM     51  C   UNL     1      10.920  16.020  69.160  1.00  0.00     0.171 C 
ATOM     52  C   UNL     1      13.229  14.838  69.267  1.00  0.00     0.013 C 
ATOM     53  C   UNL     1      14.415  15.063  71.590  1.00  0.00    -0.035 C 
ATOM     54  C   UNL     1      14.559  14.783  70.059  1.00  0.00     0.007 C 
ATOM     55  C   UNL     1      13.840  13.815  72.307  1.00  0.00     0.011 C 
ATOM     56  C   UNL     1      15.819  15.335  72.174  1.00  0.00     0.011 C 
BRANCH  29  57
ATOM     57  C   UNL     1      16.157  21.725  73.838  1.00  0.00     0.165 C 
BRANCH  57  58
ATOM     58  O   UNL     1      17.102  21.685  74.879  1.00  0.00    -0.396 OA
ATOM     59  H   UNL     1      16.598  21.460  75.704  1.00  0.00     0.210 HD
ENDBRANCH  57  58
ENDBRANCH  29  57
BRANCH  48  60
ATOM     60  O   UNL     1      12.756  17.568  67.614  1.00  0.00    -0.392 OA
ATOM     61  H   UNL     1      13.041  16.742  67.140  1.00  0.00     0.210 HD
ENDBRANCH  48  60
ENDBRANCH  26  27
ENDBRANCH   6  26
BRANCH   5  62
ATOM     62  O   UNL     1      12.538  23.816  78.302  1.00  0.00    -0.385 OA
ATOM     63  H   UNL     1      12.906  24.737  78.362  1.00  0.00     0.211 HD
ENDBRANCH   5  62
TORSDOF 14
ENDMDL
MODEL 2
REMARK VINA RESULT:    -5.495      7.114     11.303
REMARK INTER + INTRA:         -10.295
REMARK INTER:                  -8.505
REMARK INTRA:                  -1.790
REMARK UNBOUND:                -1.587
REMARK SMILES C[C@@H]1O[C@@H](O[C@H]2CC[C@@]3(C)[C@@H](CC[C@]4(C)[C@@H]3C=C[C@]35OC[C@@]6(CCC(C)(C)C[C@H]63)[C@@H](O)C[C@@]54C)[C@]2(C)CO)[C@H](O)[C@@H](O[C@@H]2O[C@H](CO)[C@@H](O)[C@H](O)[C@H]2O)[C@@H]1O
REMARK SMILES IDX 1 1 2 2 54 3 41 4 39 5 4 6 3 7 55 8 42 10 43 11 52 12 44 13
REMARK SMILES IDX 50 14 45 15 48 16 53 17 51 19 46 21 47 22 49 24 5 26 6 27
REMARK SMILES IDX 7 28 35 29 8 30 11 31 36 32 9 33 12 34 10 35 16 36 13 37
REMARK SMILES IDX 14 38 17 39 15 40 33 41 18 42 19 43 32 44 34 45 29 46 20 47
REMARK SMILES IDX 30 48 22 49 28 50 21 51 23 52 25 53 24 54 26 55 27 56 37 57
REMARK SMILES IDX 38 58 31 60 40 62
REMARK H PARENT 55 9 53 18 51 20 47 23 49 25 38 59 31 61 40 63
REMARK Flexibility Score: inf
ROOT
ATOM      1  C   UNL     1       6.206  28.293  71.350  1.00  0.00     0.041 C 
ATOM      2  C   UNL     1       5.903  26.823  71.056  1.00  0.00     0.150 C 
ATOM      3  C   UNL     1       4.592  26.678  70.250  1.00  0.00     0.175 C 
ATOM      4  C   UNL     1       4.273  25.181  69.905  1.00  0.00     0.186 C 
ATOM      5  C   UNL     1       5.452  24.289  70.343  1.00  0.00     0.202 C 
ATOM      6  C   UNL     1       6.821  24.905  69.947  1.00  0.00     0.282 C 
ATOM      7  O   UNL     1       7.001  26.265  70.348  1.00  0.00    -0.344 OA
ENDROOT
BRANCH   3   8
ATOM      8  O   UNL     1       4.742  27.408  69.056  1.00  0.00    -0.388 OA
ATOM      9  H   UNL     1       5.167  28.273  69.284  1.00  0.00     0.211 HD
ENDBRANCH   3   8
BRANCH   4  10
ATOM     10  O   UNL     1       3.121  24.624  70.531  1.00  0.00    -0.341 OA
BRANCH  10  11
ATOM     11  C   UNL     1       1.847  25.179  70.213  1.00  0.00     0.282 C 
ATOM     12  C   UNL     1       1.221  25.657  71.551  1.00  0.00     0.202 C 
ATOM     13  O   UNL     1       1.902  26.221  69.249  1.00  0.00    -0.341 OA
ATOM     14  C   UNL     1       0.276  26.859  71.368  1.00  0.00     0.179 C 
ATOM     15  C   UNL     1       0.614  26.661  68.830  1.00  0.00     0.178 C 
ATOM     16  C   UNL     1      -0.418  26.811  69.995  1.00  0.00     0.177 C 
BRANCH  12  17
ATOM     17  O   UNL     1       0.581  24.588  72.209  1.00  0.00    -0.385 OA
ATOM     18  H   UNL     1       0.498  23.838  71.563  1.00  0.00     0.211 HD
ENDBRANCH  12  17
BRANCH  14  19
ATOM     19  O   UNL     1       1.013  28.052  71.484  1.00  0.00    -0.387 OA
ATOM     20  H   UNL     1       1.916  27.804  71.811  1.00  0.00     0.211 HD
ENDBRANCH  14  19
BRANCH  15  21
ATOM     21  C   UNL     1       0.801  28.004  68.112  1.00  0.00     0.191 C 
BRANCH  21  22
ATOM     22  O   UNL     1       1.930  28.674  68.620  1.00  0.00    -0.394 OA
ATOM     23  H   UNL     1       1.740  29.650  68.536  1.00  0.00     0.210 HD
ENDBRANCH  21  22
ENDBRANCH  15  21
BRANCH  16  24
ATOM     24  O   UNL     1      -1.320  25.732  69.947  1.00  0.00    -0.387 OA
ATOM     25  H   UNL     1      -0.884  24.963  70.394  1.00  0.00     0.211 HD
ENDBRANCH  16  24
ENDBRANCH  10  11
ENDBRANCH   4  10
BRANCH   6  26
ATOM     26  O   UNL     1       7.862  24.143  70.541  1.00  0.00    -0.346 OA
BRANCH  26  27
ATOM     27  C   UNL     1       8.633  24.884  71.484  1.00  0.00     0.130 C 
ATOM     28  C   UNL     1       8.427  24.305  72.900  1.00  0.00     0.033 C 
ATOM     29  C   UNL     1      10.162  24.920  71.062  1.00  0.00     0.020 C 
ATOM     30  C   UNL     1       8.982  22.878  73.092  1.00  0.00     0.010 C 
ATOM     31  C   UNL     1      11.014  23.885  71.909  1.00  0.00     0.006 C 
ATOM     32  C   UNL     1      10.295  24.676  69.530  1.00  0.00     0.017 C 
ATOM     33  C   UNL     1      10.283  22.538  72.276  1.00  0.00    -0.022 C 
ATOM     34  C   UNL     1      12.530  23.755  71.538  1.00  0.00     0.005 C 
ATOM     35  C   UNL     1       9.867  21.692  71.048  1.00  0.00     0.012 C 
ATOM     36  C   UNL     1      11.283  21.747  73.199  1.00  0.00     0.024 C 
ATOM     37  C   UNL     1      13.105  22.329  71.469  1.00  0.00     0.008 C 
ATOM     38  C   UNL     1      12.658  21.313  72.586  1.00  0.00    -0.017 C 
ATOM     39  C   UNL     1      10.737  20.594  74.007  1.00  0.00    -0.024 C 
ATOM     40  C   UNL     1      12.518  19.922  71.856  1.00  0.00     0.013 C 
ATOM     41  C   UNL     1      13.703  21.152  73.831  1.00  0.00     0.009 C 
ATOM     42  C   UNL     1      11.569  19.995  74.881  1.00  0.00     0.005 C 
ATOM     43  C   UNL     1      12.957  20.570  75.161  1.00  0.00     0.096 C 
ATOM     44  C   UNL     1      14.400  22.501  74.197  1.00  0.00     0.043 C 
ATOM     45  C   UNL     1      14.881  20.217  73.384  1.00  0.00     0.015 C 
ATOM     46  C   UNL     1      12.825  21.532  76.368  1.00  0.00     0.037 C 
ATOM     47  O   UNL     1      13.783  19.552  75.700  1.00  0.00    -0.369 OA
ATOM     48  C   UNL     1      15.023  22.561  75.630  1.00  0.00     0.124 C 
ATOM     49  C   UNL     1      14.271  21.687  76.710  1.00  0.00     0.026 C 
ATOM     50  C   UNL     1      12.025  22.858  76.422  1.00  0.00     0.014 C 
ATOM     51  C   UNL     1      14.660  20.189  76.626  1.00  0.00     0.171 C 
ATOM     52  C   UNL     1      14.409  22.283  78.140  1.00  0.00     0.013 C 
ATOM     53  C   UNL     1      12.132  23.535  77.827  1.00  0.00    -0.035 C 
ATOM     54  C   UNL     1      13.617  23.602  78.311  1.00  0.00     0.007 C 
ATOM     55  C   UNL     1      11.267  22.784  78.871  1.00  0.00     0.011 C 
ATOM     56  C   UNL     1      11.586  24.976  77.714  1.00  0.00     0.011 C 
BRANCH  29  57
ATOM     57  C   UNL     1      10.722  26.357  71.306  1.00  0.00     0.165 C 
BRANCH  57  58
ATOM     58  O   UNL     1       9.703  27.323  71.221  1.00  0.00    -0.396 OA
ATOM     59  H   UNL     1       9.872  27.972  71.953  1.00  0.00     0.210 HD
ENDBRANCH  57  58
ENDBRANCH  29  57
BRANCH  48  60
ATOM     60  O   UNL     1      16.385  22.216  75.590  1.00  0.00    -0.392 OA
ATOM     61  H   UNL     1      16.812  22.596  76.405  1.00  0.00     0.210 HD
ENDBRANCH  48  60
ENDBRANCH  26  27
ENDBRANCH   6  26
BRANCH   5  62
ATOM     62  O   UNL     1       5.300  22.987  69.845  1.00  0.00    -0.385 OA
ATOM     63  H   UNL     1       6.123  22.755  69.338  1.00  0.00     0.211 HD
ENDBRANCH   5  62
TORSDOF 14
ENDMDL
MODEL 3
REMARK VINA RESULT:    -5.478      6.284      9.141
REMARK INTER + INTRA:         -10.268
REMARK INTER:                  -8.323
REMARK INTRA:                  -1.945
REMARK UNBOUND:                -1.587
REMARK SMILES C[C@@H]1O[C@@H](O[C@H]2CC[C@@]3(C)[C@@H](CC[C@]4(C)[C@@H]3C=C[C@]35OC[C@@]6(CCC(C)(C)C[C@H]63)[C@@H](O)C[C@@]54C)[C@]2(C)CO)[C@H](O)[C@@H](O[C@@H]2O[C@H](CO)[C@@H](O)[C@H](O)[C@H]2O)[C@@H]1O
REMARK SMILES IDX 1 1 2 2 54 3 41 4 39 5 4 6 3 7 55 8 42 10 43 11 52 12 44 13
REMARK SMILES IDX 50 14 45 15 48 16 53 17 51 19 46 21 47 22 49 24 5 26 6 27
REMARK SMILES IDX 7 28 35 29 8 30 11 31 36 32 9 33 12 34 10 35 16 36 13 37
REMARK SMILES IDX 14 38 17 39 15 40 33 41 18 42 19 43 32 44 34 45 29 46 20 47
REMARK SMILES IDX 30 48 22 49 28 50 21 51 23 52 25 53 24 54 26 55 27 56 37 57
REMARK SMILES IDX 38 58 31 60 40 62
REMARK H PARENT 55 9 53 18 51 20 47 23 49 25 38 59 31 61 40 63
REMARK Flexibility Score: inf
ROOT
ATOM      1  C   UNL     1       9.512  27.856  73.383  1.00  0.00     0.041 C 
ATOM      2  C   UNL     1       8.459  26.823  72.979  1.00  0.00     0.150 C 
ATOM      3  C   UNL     1       7.094  27.497  72.714  1.00  0.00     0.175 C 
ATOM      4  C   UNL     1       6.001  26.464  72.264  1.00  0.00     0.186 C 
ATOM      5  C   UNL     1       6.652  25.081  72.066  1.00  0.00     0.202 C 
ATOM      6  C   UNL     1       7.995  25.179  71.294  1.00  0.00     0.282 C 
ATOM      7  O   UNL     1       8.918  26.133  71.824  1.00  0.00    -0.344 OA
ENDROOT
BRANCH   3   8
ATOM      8  O   UNL     1       7.278  28.451  71.695  1.00  0.00    -0.388 OA
ATOM      9  H   UNL     1       7.655  27.981  70.909  1.00  0.00     0.211 HD
ENDBRANCH   3   8
BRANCH   4  10
ATOM     10  O   UNL     1       4.925  26.253  73.173  1.00  0.00    -0.341 OA
BRANCH  10  11
ATOM     11  C   UNL     1       3.603  26.550  72.732  1.00  0.00     0.282 C 
ATOM     12  C   UNL     1       3.705  27.807  71.827  1.00  0.00     0.202 C 
ATOM     13  O   UNL     1       2.965  25.467  72.069  1.00  0.00    -0.341 OA
ATOM     14  C   UNL     1       2.617  27.843  70.737  1.00  0.00     0.179 C 
ATOM     15  C   UNL     1       1.597  25.726  71.770  1.00  0.00     0.178 C 
ATOM     16  C   UNL     1       1.325  27.165  71.224  1.00  0.00     0.177 C 
BRANCH  12  17
ATOM     17  O   UNL     1       3.698  28.982  72.606  1.00  0.00    -0.385 OA
ATOM     18  H   UNL     1       3.092  28.831  73.379  1.00  0.00     0.211 HD
ENDBRANCH  12  17
BRANCH  14  19
ATOM     19  O   UNL     1       3.091  27.187  69.586  1.00  0.00    -0.387 OA
ATOM     20  H   UNL     1       2.437  26.474  69.369  1.00  0.00     0.211 HD
ENDBRANCH  14  19
BRANCH  15  21
ATOM     21  C   UNL     1       1.148  24.676  70.744  1.00  0.00     0.191 C 
BRANCH  21  22
ATOM     22  O   UNL     1       2.196  24.392  69.849  1.00  0.00    -0.394 OA
ATOM     23  H   UNL     1       3.045  24.571  70.342  1.00  0.00     0.210 HD
ENDBRANCH  21  22
ENDBRANCH  15  21
BRANCH  16  24
ATOM     24  O   UNL     1       0.730  27.933  72.242  1.00  0.00    -0.387 OA
ATOM     25  H   UNL     1       1.420  28.559  72.581  1.00  0.00     0.211 HD
ENDBRANCH  16  24
ENDBRANCH  10  11
ENDBRANCH   4  10
BRANCH   6  26
ATOM     26  O   UNL     1       8.635  23.911  71.313  1.00  0.00    -0.346 OA
BRANCH  26  27
ATOM     27  C   UNL     1       9.870  23.913  72.024  1.00  0.00     0.130 C 
ATOM     28  C   UNL     1       9.780  22.959  73.234  1.00  0.00     0.033 C 
ATOM     29  C   UNL     1      11.079  23.557  71.061  1.00  0.00     0.020 C 
ATOM     30  C   UNL     1       9.636  21.469  72.860  1.00  0.00     0.010 C 
ATOM     31  C   UNL     1      11.533  22.049  71.247  1.00  0.00     0.006 C 
ATOM     32  C   UNL     1      10.696  23.878  69.587  1.00  0.00     0.017 C 
ATOM     33  C   UNL     1      10.378  21.021  71.548  1.00  0.00    -0.022 C 
ATOM     34  C   UNL     1      12.668  21.537  70.296  1.00  0.00     0.005 C 
ATOM     35  C   UNL     1       9.325  20.909  70.420  1.00  0.00     0.012 C 
ATOM     36  C   UNL     1      11.091  19.640  71.800  1.00  0.00     0.024 C 
ATOM     37  C   UNL     1      12.475  20.139  69.683  1.00  0.00     0.008 C 
ATOM     38  C   UNL     1      11.903  19.009  70.619  1.00  0.00    -0.017 C 
ATOM     39  C   UNL     1      10.293  18.545  72.468  1.00  0.00    -0.024 C 
ATOM     40  C   UNL     1      10.955  18.145  69.702  1.00  0.00     0.013 C 
ATOM     41  C   UNL     1      13.027  18.029  71.286  1.00  0.00     0.009 C 
ATOM     42  C   UNL     1      10.940  17.407  72.786  1.00  0.00     0.005 C 
ATOM     43  C   UNL     1      12.456  17.297  72.628  1.00  0.00     0.096 C 
ATOM     44  C   UNL     1      14.338  18.795  71.652  1.00  0.00     0.043 C 
ATOM     45  C   UNL     1      13.482  16.978  70.213  1.00  0.00     0.015 C 
ATOM     46  C   UNL     1      13.094  17.713  73.978  1.00  0.00     0.037 C 
ATOM     47  O   UNL     1      12.819  15.929  72.554  1.00  0.00    -0.369 OA
ATOM     48  C   UNL     1      15.254  18.085  72.701  1.00  0.00     0.124 C 
ATOM     49  C   UNL     1      14.479  17.200  73.756  1.00  0.00     0.026 C 
ATOM     50  C   UNL     1      13.045  19.111  74.643  1.00  0.00     0.014 C 
ATOM     51  C   UNL     1      14.092  15.813  73.185  1.00  0.00     0.171 C 
ATOM     52  C   UNL     1      15.232  17.122  75.115  1.00  0.00     0.013 C 
ATOM     53  C   UNL     1      13.802  19.123  76.010  1.00  0.00    -0.035 C 
ATOM     54  C   UNL     1      15.215  18.468  75.879  1.00  0.00     0.007 C 
ATOM     55  C   UNL     1      12.979  18.397  77.105  1.00  0.00     0.011 C 
ATOM     56  C   UNL     1      13.980  20.592  76.454  1.00  0.00     0.011 C 
BRANCH  29  57
ATOM     57  C   UNL     1      12.284  24.494  71.392  1.00  0.00     0.165 C 
BRANCH  57  58
ATOM     58  O   UNL     1      11.844  25.757  71.826  1.00  0.00    -0.396 OA
ATOM     59  H   UNL     1      12.281  25.919  72.703  1.00  0.00     0.210 HD
ENDBRANCH  57  58
ENDBRANCH  29  57
BRANCH  48  60
ATOM     60  O   UNL     1      16.241  17.319  72.057  1.00  0.00    -0.392 OA
ATOM     61  H   UNL     1      16.509  17.810  71.234  1.00  0.00     0.210 HD
ENDBRANCH  48  60
ENDBRANCH  26  27
ENDBRANCH   6  26
BRANCH   5  62
ATOM     62  O   UNL     1       5.756  24.196  71.447  1.00  0.00    -0.385 OA
ATOM     63  H   UNL     1       5.525  23.486  72.102  1.00  0.00     0.211 HD
ENDBRANCH   5  62
TORSDOF 14
ENDMDL
MODEL 4
REMARK VINA RESULT:    -5.369      1.529      2.295
REMARK INTER + INTRA:         -10.095
REMARK INTER:                  -8.402
REMARK INTRA:                  -1.692
REMARK UNBOUND:                -1.587
REMARK SMILES C[C@@H]1O[C@@H](O[C@H]2CC[C@@]3(C)[C@@H](CC[C@]4(C)[C@@H]3C=C[C@]35OC[C@@]6(CCC(C)(C)C[C@H]63)[C@@H](O)C[C@@]54C)[C@]2(C)CO)[C@H](O)[C@@H](O[C@@H]2O[C@H](CO)[C@@H](O)[C@H](O)[C@H]2O)[C@@H]1O
REMARK SMILES IDX 1 1 2 2 54 3 41 4 39 5 4 6 3 7 55 8 42 10 43 11 52 12 44 13
REMARK SMILES IDX 50 14 45 15 48 16 53 17 51 19 46 21 47 22 49 24 5 26 6 27
REMARK SMILES IDX 7 28 35 29 8 30 11 31 36 32 9 33 12 34 10 35 16 36 13 37
REMARK SMILES IDX 14 38 17 39 15 40 33 41 18 42 19 43 32 44 34 45 29 46 20 47
REMARK SMILES IDX 30 48 22 49 28 50 21 51 23 52 25 53 24 54 26 55 27 56 37 57
REMARK SMILES IDX 38 58 31 60 40 62
REMARK H PARENT 55 9 53 18 51 20 47 23 49 25 38 59 31 61 40 63
REMARK Flexibility Score: inf
ROOT
ATOM      1  C   UNL     1      15.864  19.791  79.632  1.00  0.00     0.041 C 
ATOM      2  C   UNL     1      14.799  20.836  79.296  1.00  0.00     0.150 C 
ATOM      3  C   UNL     1      14.937  22.079  80.203  1.00  0.00     0.175 C 
ATOM      4  C   UNL     1      13.876  23.183  79.858  1.00  0.00     0.186 C 
ATOM      5  C   UNL     1      13.092  22.767  78.597  1.00  0.00     0.202 C 
ATOM      6  C   UNL     1      14.030  22.215  77.490  1.00  0.00     0.282 C 
ATOM      7  O   UNL     1      14.925  21.190  77.925  1.00  0.00    -0.344 OA
ENDROOT
BRANCH   3   8
ATOM      8  O   UNL     1      16.229  22.604  80.018  1.00  0.00    -0.388 OA
ATOM      9  H   UNL     1      16.215  23.548  80.316  1.00  0.00     0.211 HD
ENDBRANCH   3   8
BRANCH   4  10
ATOM     10  O   UNL     1      12.889  23.440  80.853  1.00  0.00    -0.341 OA
BRANCH  10  11
ATOM     11  C   UNL     1      12.662  24.791  81.243  1.00  0.00     0.282 C 
ATOM     12  C   UNL     1      13.422  25.005  82.580  1.00  0.00     0.202 C 
ATOM     13  O   UNL     1      13.039  25.742  80.258  1.00  0.00    -0.341 OA
ATOM     14  C   UNL     1      13.897  26.458  82.767  1.00  0.00     0.179 C 
ATOM     15  C   UNL     1      12.668  27.075  80.599  1.00  0.00     0.178 C 
ATOM     16  C   UNL     1      12.927  27.446  82.095  1.00  0.00     0.177 C 
BRANCH  12  17
ATOM     17  O   UNL     1      12.644  24.569  83.670  1.00  0.00    -0.385 OA
ATOM     18  H   UNL     1      13.263  24.266  84.386  1.00  0.00     0.211 HD
ENDBRANCH  12  17
BRANCH  14  19
ATOM     19  O   UNL     1      15.181  26.604  82.210  1.00  0.00    -0.387 OA
ATOM     20  H   UNL     1      15.833  26.353  82.916  1.00  0.00     0.211 HD
ENDBRANCH  14  19
BRANCH  15  21
ATOM     21  C   UNL     1      13.451  28.017  79.675  1.00  0.00     0.191 C 
BRANCH  21  22
ATOM     22  O   UNL     1      14.764  27.544  79.498  1.00  0.00    -0.394 OA
ATOM     23  H   UNL     1      14.773  27.056  78.627  1.00  0.00     0.210 HD
ENDBRANCH  21  22
ENDBRANCH  15  21
BRANCH  16  24
ATOM     24  O   UNL     1      11.698  27.459  82.780  1.00  0.00    -0.387 OA
ATOM     25  H   UNL     1      11.013  27.096  82.163  1.00  0.00     0.211 HD
ENDBRANCH  16  24
ENDBRANCH  10  11
ENDBRANCH   4  10
BRANCH   6  26
ATOM     26  O   UNL     1      13.240  21.674  76.440  1.00  0.00    -0.346 OA
BRANCH  26  27
ATOM     27  C   UNL     1      13.706  22.034  75.143  1.00  0.00     0.130 C 
ATOM     28  C   UNL     1      14.717  20.982  74.638  1.00  0.00     0.033 C 
ATOM     29  C   UNL     1      12.492  22.236  74.141  1.00  0.00     0.020 C 
ATOM     30  C   UNL     1      14.109  19.588  74.378  1.00  0.00     0.010 C 
ATOM     31  C   UNL     1      12.315  20.974  73.197  1.00  0.00     0.006 C 
ATOM     32  C   UNL     1      11.195  22.561  74.937  1.00  0.00     0.017 C 
ATOM     33  C   UNL     1      12.626  19.578  73.857  1.00  0.00    -0.022 C 
ATOM     34  C   UNL     1      11.098  21.003  72.210  1.00  0.00     0.005 C 
ATOM     35  C   UNL     1      11.704  19.226  75.050  1.00  0.00     0.012 C 
ATOM     36  C   UNL     1      12.489  18.518  72.700  1.00  0.00     0.024 C 
ATOM     37  C   UNL     1      10.284  19.704  72.080  1.00  0.00     0.008 C 
ATOM     38  C   UNL     1      11.085  18.349  72.025  1.00  0.00    -0.017 C 
ATOM     39  C   UNL     1      13.078  17.146  72.927  1.00  0.00    -0.024 C 
ATOM     40  C   UNL     1      10.212  17.312  72.831  1.00  0.00     0.013 C 
ATOM     41  C   UNL     1      11.349  17.762  70.524  1.00  0.00     0.009 C 
ATOM     42  C   UNL     1      13.060  16.282  71.894  1.00  0.00     0.005 C 
ATOM     43  C   UNL     1      12.615  16.732  70.503  1.00  0.00     0.096 C 
ATOM     44  C   UNL     1      11.607  18.896  69.482  1.00  0.00     0.043 C 
ATOM     45  C   UNL     1      10.038  17.063  70.018  1.00  0.00     0.015 C 
ATOM     46  C   UNL     1      13.881  17.195  69.738  1.00  0.00     0.037 C 
ATOM     47  O   UNL     1      12.228  15.598  69.747  1.00  0.00    -0.369 OA
ATOM     48  C   UNL     1      12.326  18.444  68.169  1.00  0.00     0.124 C 
ATOM     49  C   UNL     1      13.324  17.232  68.352  1.00  0.00     0.026 C 
ATOM     50  C   UNL     1      14.788  18.404  70.078  1.00  0.00     0.014 C 
ATOM     51  C   UNL     1      12.587  15.869  68.394  1.00  0.00     0.171 C 
ATOM     52  C   UNL     1      14.487  17.275  67.321  1.00  0.00     0.013 C 
ATOM     53  C   UNL     1      15.976  18.532  69.070  1.00  0.00    -0.035 C 
ATOM     54  C   UNL     1      15.475  18.436  67.592  1.00  0.00     0.007 C 
ATOM     55  C   UNL     1      17.049  17.446  69.339  1.00  0.00     0.011 C 
ATOM     56  C   UNL     1      16.641  19.911  69.276  1.00  0.00     0.011 C 
BRANCH  29  57
ATOM     57  C   UNL     1      12.767  23.495  73.259  1.00  0.00     0.165 C 
BRANCH  57  58
ATOM     58  O   UNL     1      11.801  24.493  73.479  1.00  0.00    -0.396 OA
ATOM     59  H   UNL     1      11.884  25.132  72.725  1.00  0.00     0.210 HD
ENDBRANCH  57  58
ENDBRANCH  29  57
BRANCH  48  60
ATOM     60  O   UNL     1      11.386  18.151  67.167  1.00  0.00    -0.392 OA
ATOM     61  H   UNL     1      11.754  17.403  66.623  1.00  0.00     0.210 HD
ENDBRANCH  48  60
ENDBRANCH  26  27
ENDBRANCH   6  26
BRANCH   5  62
ATOM     62  O   UNL     1      12.303  23.830  78.132  1.00  0.00    -0.385 OA
ATOM     63  H   UNL     1      12.068  23.645  77.184  1.00  0.00     0.211 HD
ENDBRANCH   5  62
TORSDOF 14
ENDMDL
MODEL 5
REMARK VINA RESULT:    -5.346      4.717      7.137
REMARK INTER + INTRA:         -10.059
REMARK INTER:                  -8.207
REMARK INTRA:                  -1.852
REMARK UNBOUND:                -1.587
REMARK SMILES C[C@@H]1O[C@@H](O[C@H]2CC[C@@]3(C)[C@@H](CC[C@]4(C)[C@@H]3C=C[C@]35OC[C@@]6(CCC(C)(C)C[C@H]63)[C@@H](O)C[C@@]54C)[C@]2(C)CO)[C@H](O)[C@@H](O[C@@H]2O[C@H](CO)[C@@H](O)[C@H](O)[C@H]2O)[C@@H]1O
REMARK SMILES IDX 1 1 2 2 54 3 41 4 39 5 4 6 3 7 55 8 42 10 43 11 52 12 44 13
REMARK SMILES IDX 50 14 45 15 48 16 53 17 51 19 46 21 47 22 49 24 5 26 6 27
REMARK SMILES IDX 7 28 35 29 8 30 11 31 36 32 9 33 12 34 10 35 16 36 13 37
REMARK SMILES IDX 14 38 17 39 15 40 33 41 18 42 19 43 32 44 34 45 29 46 20 47
REMARK SMILES IDX 30 48 22 49 28 50 21 51 23 52 25 53 24 54 26 55 27 56 37 57
REMARK SMILES IDX 38 58 31 60 40 62
REMARK H PARENT 55 9 53 18 51 20 47 23 49 25 38 59 31 61 40 63
REMARK Flexibility Score: inf
ROOT
ATOM      1  C   UNL     1      14.675  20.441  76.418  1.00  0.00     0.041 C 
ATOM      2  C   UNL     1      14.176  21.748  77.037  1.00  0.00     0.150 C 
ATOM      3  C   UNL     1      14.607  21.860  78.517  1.00  0.00     0.175 C 
ATOM      4  C   UNL     1      14.137  23.208  79.169  1.00  0.00     0.186 C 
ATOM      5  C   UNL     1      13.506  24.109  78.089  1.00  0.00     0.202 C 
ATOM      6  C   UNL     1      14.350  24.127  76.786  1.00  0.00     0.282 C 
ATOM      7  O   UNL     1      14.685  22.835  76.276  1.00  0.00    -0.344 OA
ENDROOT
BRANCH   3   8
ATOM      8  O   UNL     1      16.012  21.789  78.561  1.00  0.00    -0.388 OA
ATOM      9  H   UNL     1      16.336  22.578  79.064  1.00  0.00     0.211 HD
ENDBRANCH   3   8
BRANCH   4  10
ATOM     10  O   UNL     1      13.155  23.100  80.196  1.00  0.00    -0.341 OA
BRANCH  10  11
ATOM     11  C   UNL     1      13.386  23.787  81.423  1.00  0.00     0.282 C 
ATOM     12  C   UNL     1      14.893  24.160  81.451  1.00  0.00     0.202 C 
ATOM     13  O   UNL     1      12.553  24.923  81.607  1.00  0.00    -0.341 OA
ATOM     14  C   UNL     1      15.171  25.447  82.250  1.00  0.00     0.179 C 
ATOM     15  C   UNL     1      12.688  25.509  82.898  1.00  0.00     0.178 C 
ATOM     16  C   UNL     1      14.164  25.609  83.402  1.00  0.00     0.177 C 
BRANCH  12  17
ATOM     17  O   UNL     1      15.664  23.078  81.923  1.00  0.00    -0.385 OA
ATOM     18  H   UNL     1      16.405  23.449  82.471  1.00  0.00     0.211 HD
ENDBRANCH  12  17
BRANCH  14  19
ATOM     19  O   UNL     1      15.088  26.556  81.389  1.00  0.00    -0.387 OA
ATOM     20  H   UNL     1      15.692  26.375  80.623  1.00  0.00     0.211 HD
ENDBRANCH  14  19
BRANCH  15  21
ATOM     21  C   UNL     1      12.054  26.905  82.834  1.00  0.00     0.191 C 
BRANCH  21  22
ATOM     22  O   UNL     1      12.090  27.395  81.516  1.00  0.00    -0.394 OA
ATOM     23  H   UNL     1      12.383  26.635  80.940  1.00  0.00     0.210 HD
ENDBRANCH  21  22
ENDBRANCH  15  21
BRANCH  16  24
ATOM     24  O   UNL     1      14.381  24.618  84.377  1.00  0.00    -0.387 OA
ATOM     25  H   UNL     1      13.528  24.128  84.494  1.00  0.00     0.211 HD
ENDBRANCH  16  24
ENDBRANCH  10  11
ENDBRANCH   4  10
BRANCH   6  26
ATOM     26  O   UNL     1      13.626  24.812  75.774  1.00  0.00    -0.346 OA
BRANCH  26  27
ATOM     27  C   UNL     1      12.948  23.937  74.877  1.00  0.00     0.130 C 
ATOM     28  C   UNL     1      11.442  23.905  75.212  1.00  0.00     0.033 C 
ATOM     29  C   UNL     1      13.224  24.346  73.369  1.00  0.00     0.020 C 
ATOM     30  C   UNL     1      10.706  25.239  74.965  1.00  0.00     0.010 C 
ATOM     31  C   UNL     1      11.994  25.138  72.758  1.00  0.00     0.006 C 
ATOM     32  C   UNL     1      14.550  25.156  73.273  1.00  0.00     0.017 C 
ATOM     33  C   UNL     1      11.233  26.093  73.754  1.00  0.00    -0.022 C 
ATOM     34  C   UNL     1      12.164  25.677  71.297  1.00  0.00     0.005 C 
ATOM     35  C   UNL     1      12.108  27.236  74.322  1.00  0.00     0.012 C 
ATOM     36  C   UNL     1      10.007  26.663  72.948  1.00  0.00     0.024 C 
ATOM     37  C   UNL     1      11.669  27.110  71.028  1.00  0.00     0.008 C 
ATOM     38  C   UNL     1      10.305  27.542  71.685  1.00  0.00    -0.017 C 
ATOM     39  C   UNL     1       8.890  27.314  73.729  1.00  0.00    -0.024 C 
ATOM     40  C   UNL     1      10.499  29.050  72.102  1.00  0.00     0.013 C 
ATOM     41  C   UNL     1       9.001  27.427  70.709  1.00  0.00     0.009 C 
ATOM     42  C   UNL     1       7.792  27.695  73.047  1.00  0.00     0.005 C 
ATOM     43  C   UNL     1       7.619  27.329  71.573  1.00  0.00     0.096 C 
ATOM     44  C   UNL     1       9.083  26.195  69.753  1.00  0.00     0.043 C 
ATOM     45  C   UNL     1       8.982  28.664  69.744  1.00  0.00     0.015 C 
ATOM     46  C   UNL     1       6.852  25.984  71.516  1.00  0.00     0.037 C 
ATOM     47  O   UNL     1       6.683  28.213  70.980  1.00  0.00    -0.369 OA
ATOM     48  C   UNL     1       7.719  25.731  69.145  1.00  0.00     0.124 C 
ATOM     49  C   UNL     1       6.466  25.989  70.073  1.00  0.00     0.026 C 
ATOM     50  C   UNL     1       7.343  24.606  72.026  1.00  0.00     0.014 C 
ATOM     51  C   UNL     1       5.976  27.458  70.000  1.00  0.00     0.171 C 
ATOM     52  C   UNL     1       5.337  24.948  69.829  1.00  0.00     0.013 C 
ATOM     53  C   UNL     1       6.269  23.493  71.796  1.00  0.00    -0.035 C 
ATOM     54  C   UNL     1       5.717  23.534  70.334  1.00  0.00     0.007 C 
ATOM     55  C   UNL     1       5.104  23.632  72.808  1.00  0.00     0.011 C 
ATOM     56  C   UNL     1       6.936  22.120  72.032  1.00  0.00     0.011 C 
BRANCH  29  57
ATOM     57  C   UNL     1      13.463  23.052  72.527  1.00  0.00     0.165 C 
BRANCH  57  58
ATOM     58  O   UNL     1      13.869  21.981  73.343  1.00  0.00    -0.396 OA
ATOM     59  H   UNL     1      14.851  22.075  73.456  1.00  0.00     0.210 HD
ENDBRANCH  57  58
ENDBRANCH  29  57
BRANCH  48  60
ATOM     60  O   UNL     1       7.517  26.316  67.883  1.00  0.00    -0.392 OA
ATOM     61  H   UNL     1       6.895  25.726  67.378  1.00  0.00     0.210 HD
ENDBRANCH  48  60
ENDBRANCH  26  27
ENDBRANCH   6  26
BRANCH   5  62
ATOM     62  O   UNL     1      13.287  25.402  78.589  1.00  0.00    -0.385 OA
ATOM     63  H   UNL     1      12.631  25.336  79.332  1.00  0.00     0.211 HD
ENDBRANCH   5  62
TORSDOF 14
ENDMDL
MODEL 6
REMARK VINA RESULT:    -5.249      6.172     10.453
REMARK INTER + INTRA:          -9.904
REMARK INTER:                  -8.440
REMARK INTRA:                  -1.464
REMARK UNBOUND:                -1.587
REMARK SMILES C[C@@H]1O[C@@H](O[C@H]2CC[C@@]3(C)[C@@H](CC[C@]4(C)[C@@H]3C=C[C@]35OC[C@@]6(CCC(C)(C)C[C@H]63)[C@@H](O)C[C@@]54C)[C@]2(C)CO)[C@H](O)[C@@H](O[C@@H]2O[C@H](CO)[C@@H](O)[C@H](O)[C@H]2O)[C@@H]1O
REMARK SMILES IDX 1 1 2 2 54 3 41 4 39 5 4 6 3 7 55 8 42 10 43 11 52 12 44 13
REMARK SMILES IDX 50 14 45 15 48 16 53 17 51 19 46 21 47 22 49 24 5 26 6 27
REMARK SMILES IDX 7 28 35 29 8 30 11 31 36 32 9 33 12 34 10 35 16 36 13 37
REMARK SMILES IDX 14 38 17 39 15 40 33 41 18 42 19 43 32 44 34 45 29 46 20 47
REMARK SMILES IDX 30 48 22 49 28 50 21 51 23 52 25 53 24 54 26 55 27 56 37 57
REMARK SMILES IDX 38 58 31 60 40 62
REMARK H PARENT 55 9 53 18 51 20 47 23 49 25 38 59 31 61 40 63
REMARK Flexibility Score: inf
ROOT
ATOM      1  C   UNL     1       9.210  27.371  70.011  1.00  0.00     0.041 C 
ATOM      2  C   UNL     1       8.379  26.109  70.244  1.00  0.00     0.150 C 
ATOM      3  C   UNL     1       6.960  26.262  69.651  1.00  0.00     0.175 C 
ATOM      4  C   UNL     1       6.095  24.967  69.847  1.00  0.00     0.186 C 
ATOM      5  C   UNL     1       6.971  23.849  70.447  1.00  0.00     0.202 C 
ATOM      6  C   UNL     1       8.355  23.762  69.749  1.00  0.00     0.282 C 
ATOM      7  O   UNL     1       9.057  25.003  69.663  1.00  0.00    -0.344 OA
ENDROOT
BRANCH   3   8
ATOM      8  O   UNL     1       7.098  26.524  68.275  1.00  0.00    -0.388 OA
ATOM      9  H   UNL     1       6.285  27.007  67.980  1.00  0.00     0.211 HD
ENDBRANCH   3   8
BRANCH   4  10
ATOM     10  O   UNL     1       4.977  25.086  70.721  1.00  0.00    -0.341 OA
BRANCH  10  11
ATOM     11  C   UNL     1       3.742  25.546  70.178  1.00  0.00     0.282 C 
ATOM     12  C   UNL     1       2.731  24.374  70.309  1.00  0.00     0.202 C 
ATOM     13  O   UNL     1       3.259  26.736  70.784  1.00  0.00    -0.341 OA
ATOM     14  C   UNL     1       1.279  24.859  70.471  1.00  0.00     0.179 C 
ATOM     15  C   UNL     1       2.108  27.265  70.133  1.00  0.00     0.178 C 
ATOM     16  C   UNL     1       1.054  26.186  69.724  1.00  0.00     0.177 C 
BRANCH  12  17
ATOM     17  O   UNL     1       2.863  23.481  69.228  1.00  0.00    -0.385 OA
ATOM     18  H   UNL     1       2.597  22.577  69.545  1.00  0.00     0.211 HD
ENDBRANCH  12  17
BRANCH  14  19
ATOM     19  O   UNL     1       0.995  25.032  71.838  1.00  0.00    -0.387 OA
ATOM     20  H   UNL     1       0.101  25.458  71.897  1.00  0.00     0.211 HD
ENDBRANCH  14  19
BRANCH  15  21
ATOM     21  C   UNL     1       1.476  28.290  71.084  1.00  0.00     0.191 C 
BRANCH  21  22
ATOM     22  O   UNL     1       1.030  27.655  72.257  1.00  0.00    -0.394 OA
ATOM     23  H   UNL     1       0.694  26.757  71.981  1.00  0.00     0.210 HD
ENDBRANCH  21  22
ENDBRANCH  15  21
BRANCH  16  24
ATOM     24  O   UNL     1       1.130  25.978  68.335  1.00  0.00    -0.387 OA
ATOM     25  H   UNL     1       1.728  26.676  67.965  1.00  0.00     0.211 HD
ENDBRANCH  16  24
ENDBRANCH  10  11
ENDBRANCH   4  10
BRANCH   6  26
ATOM     26  O   UNL     1       9.179  22.853  70.465  1.00  0.00    -0.346 OA
BRANCH  26  27
ATOM     27  C   UNL     1      10.167  23.499  71.264  1.00  0.00     0.130 C 
ATOM     28  C   UNL     1       9.880  23.246  72.759  1.00  0.00     0.033 C 
ATOM     29  C   UNL     1      11.626  23.040  70.841  1.00  0.00     0.020 C 
ATOM     30  C   UNL     1      10.035  21.775  73.197  1.00  0.00     0.010 C 
ATOM     31  C   UNL     1      12.204  21.968  71.856  1.00  0.00     0.006 C 
ATOM     32  C   UNL     1      11.613  22.515  69.376  1.00  0.00     0.017 C 
ATOM     33  C   UNL     1      11.153  20.957  72.453  1.00  0.00    -0.022 C 
ATOM     34  C   UNL     1      13.608  21.364  71.513  1.00  0.00     0.005 C 
ATOM     35  C   UNL     1      10.464  20.065  71.392  1.00  0.00     0.012 C 
ATOM     36  C   UNL     1      11.944  20.087  73.500  1.00  0.00     0.024 C 
ATOM     37  C   UNL     1      13.769  19.844  71.694  1.00  0.00     0.008 C 
ATOM     38  C   UNL     1      13.118  19.193  72.972  1.00  0.00    -0.017 C 
ATOM     39  C   UNL     1      11.144  19.282  74.497  1.00  0.00    -0.024 C 
ATOM     40  C   UNL     1      12.569  17.793  72.497  1.00  0.00     0.013 C 
ATOM     41  C   UNL     1      14.138  18.962  74.226  1.00  0.00     0.009 C 
ATOM     42  C   UNL     1      11.823  18.632  75.462  1.00  0.00     0.005 C 
ATOM     43  C   UNL     1      13.328  18.840  75.637  1.00  0.00     0.096 C 
ATOM     44  C   UNL     1      15.193  20.107  74.351  1.00  0.00     0.043 C 
ATOM     45  C   UNL     1      14.995  17.677  73.949  1.00  0.00     0.015 C 
ATOM     46  C   UNL     1      13.521  19.991  76.658  1.00  0.00     0.037 C 
ATOM     47  O   UNL     1      13.871  17.740  76.346  1.00  0.00    -0.369 OA
ATOM     48  C   UNL     1      15.878  20.233  75.750  1.00  0.00     0.124 C 
ATOM     49  C   UNL     1      14.969  19.795  76.967  1.00  0.00     0.026 C 
ATOM     50  C   UNL     1      13.116  21.475  76.479  1.00  0.00     0.014 C 
ATOM     51  C   UNL     1      14.932  18.256  77.146  1.00  0.00     0.171 C 
ATOM     52  C   UNL     1      15.334  20.561  78.271  1.00  0.00     0.013 C 
ATOM     53  C   UNL     1      13.471  22.322  77.744  1.00  0.00    -0.035 C 
ATOM     54  C   UNL     1      14.940  22.057  78.208  1.00  0.00     0.007 C 
ATOM     55  C   UNL     1      12.486  22.026  78.903  1.00  0.00     0.011 C 
ATOM     56  C   UNL     1      13.333  23.818  77.381  1.00  0.00     0.011 C 
BRANCH  29  57
ATOM     57  C   UNL     1      12.566  24.287  70.830  1.00  0.00     0.165 C 
BRANCH  57  58
ATOM     58  O   UNL     1      11.828  25.483  70.865  1.00  0.00    -0.396 OA
ATOM     59  H   UNL     1      12.157  26.035  70.108  1.00  0.00     0.210 HD
ENDBRANCH  57  58
ENDBRANCH  29  57
BRANCH  48  60
ATOM     60  O   UNL     1      17.091  19.524  75.771  1.00  0.00    -0.392 OA
ATOM     61  H   UNL     1      17.428  19.482  74.836  1.00  0.00     0.210 HD
ENDBRANCH  48  60
ENDBRANCH  26  27
ENDBRANCH   6  26
BRANCH   5  62
ATOM     62  O   UNL     1       6.293  22.621  70.419  1.00  0.00    -0.385 OA
ATOM     63  H   UNL     1       5.415  22.765  69.977  1.00  0.00     0.211 HD
ENDBRANCH   5  62
TORSDOF 14
ENDMDL
MODEL 7
REMARK VINA RESULT:    -5.236      1.331      2.026
REMARK INTER + INTRA:          -9.884
REMARK INTER:                  -8.292
REMARK INTRA:                  -1.591
REMARK UNBOUND:                -1.587
REMARK SMILES C[C@@H]1O[C@@H](O[C@H]2CC[C@@]3(C)[C@@H](CC[C@]4(C)[C@@H]3C=C[C@]35OC[C@@]6(CCC(C)(C)C[C@H]63)[C@@H](O)C[C@@]54C)[C@]2(C)CO)[C@H](O)[C@@H](O[C@@H]2O[C@H](CO)[C@@H](O)[C@H](O)[C@H]2O)[C@@H]1O
REMARK SMILES IDX 1 1 2 2 54 3 41 4 39 5 4 6 3 7 55 8 42 10 43 11 52 12 44 13
REMARK SMILES IDX 50 14 45 15 48 16 53 17 51 19 46 21 47 22 49 24 5 26 6 27
REMARK SMILES IDX 7 28 35 29 8 30 11 31 36 32 9 33 12 34 10 35 16 36 13 37
REMARK SMILES IDX 14 38 17 39 15 40 33 41 18 42 19 43 32 44 34 45 29 46 20 47
REMARK SMILES IDX 30 48 22 49 28 50 21 51 23 52 25 53 24 54 26 55 27 56 37 57
REMARK SMILES IDX 38 58 31 60 40 62
REMARK H PARENT 55 9 53 18 51 20 47 23 49 25 38 59 31 61 40 63
REMARK Flexibility Score: inf
ROOT
ATOM      1  C   UNL     1      11.905  21.885  80.373  1.00  0.00     0.041 C 
ATOM      2  C   UNL     1      12.474  22.936  79.419  1.00  0.00     0.150 C 
ATOM      3  C   UNL     1      13.330  23.972  80.182  1.00  0.00     0.175 C 
ATOM      4  C   UNL     1      13.955  25.045  79.223  1.00  0.00     0.186 C 
ATOM      5  C   UNL     1      13.657  24.662  77.759  1.00  0.00     0.202 C 
ATOM      6  C   UNL     1      13.894  23.151  77.497  1.00  0.00     0.282 C 
ATOM      7  O   UNL     1      13.243  22.277  78.422  1.00  0.00    -0.344 OA
ENDROOT
BRANCH   3   8
ATOM      8  O   UNL     1      14.364  23.275  80.836  1.00  0.00    -0.388 OA
ATOM      9  H   UNL     1      14.932  22.860  80.139  1.00  0.00     0.211 HD
ENDBRANCH   3   8
BRANCH   4  10
ATOM     10  O   UNL     1      13.476  26.378  79.373  1.00  0.00    -0.341 OA
BRANCH  10  11
ATOM     11  C   UNL     1      13.721  27.046  80.608  1.00  0.00     0.282 C 
ATOM     12  C   UNL     1      12.338  27.490  81.158  1.00  0.00     0.202 C 
ATOM     13  O   UNL     1      14.441  26.263  81.549  1.00  0.00    -0.341 OA
ATOM     14  C   UNL     1      12.302  27.547  82.697  1.00  0.00     0.179 C 
ATOM     15  C   UNL     1      14.809  26.993  82.716  1.00  0.00     0.178 C 
ATOM     16  C   UNL     1      13.680  27.923  83.267  1.00  0.00     0.177 C 
BRANCH  12  17
ATOM     17  O   UNL     1      11.945  28.715  80.584  1.00  0.00    -0.385 OA
ATOM     18  H   UNL     1      12.218  28.705  79.628  1.00  0.00     0.211 HD
ENDBRANCH  12  17
BRANCH  14  19
ATOM     19  O   UNL     1      11.908  26.293  83.199  1.00  0.00    -0.387 OA
ATOM     20  H   UNL     1      11.414  25.832  82.473  1.00  0.00     0.211 HD
ENDBRANCH  14  19
BRANCH  15  21
ATOM     21  C   UNL     1      15.221  25.969  83.783  1.00  0.00     0.191 C 
BRANCH  21  22
ATOM     22  O   UNL     1      14.505  24.770  83.609  1.00  0.00    -0.394 OA
ATOM     23  H   UNL     1      14.552  24.285  84.479  1.00  0.00     0.210 HD
ENDBRANCH  21  22
ENDBRANCH  15  21
BRANCH  16  24
ATOM     24  O   UNL     1      13.991  29.257  82.942  1.00  0.00    -0.387 OA
ATOM     25  H   UNL     1      13.360  29.836  83.441  1.00  0.00     0.211 HD
ENDBRANCH  16  24
ENDBRANCH  10  11
ENDBRANCH   4  10
BRANCH   6  26
ATOM     26  O   UNL     1      13.422  22.825  76.198  1.00  0.00    -0.346 OA
BRANCH  26  27
ATOM     27  C   UNL     1      14.355  22.067  75.433  1.00  0.00     0.130 C 
ATOM     28  C   UNL     1      14.086  20.559  75.622  1.00  0.00     0.033 C 
ATOM     29  C   UNL     1      14.324  22.501  73.908  1.00  0.00     0.020 C 
ATOM     30  C   UNL     1      12.740  20.075  75.043  1.00  0.00     0.010 C 
ATOM     31  C   UNL     1      13.503  21.462  73.035  1.00  0.00     0.006 C 
ATOM     32  C   UNL     1      13.764  23.948  73.779  1.00  0.00     0.017 C 
ATOM     33  C   UNL     1      12.254  20.813  73.742  1.00  0.00    -0.022 C 
ATOM     34  C   UNL     1      13.320  21.812  71.519  1.00  0.00     0.005 C 
ATOM     35  C   UNL     1      11.162  21.831  74.151  1.00  0.00     0.012 C 
ATOM     36  C   UNL     1      11.690  19.753  72.723  1.00  0.00     0.024 C 
ATOM     37  C   UNL     1      11.920  21.583  70.922  1.00  0.00     0.008 C 
ATOM     38  C   UNL     1      11.156  20.273  71.345  1.00  0.00    -0.017 C 
ATOM     39  C   UNL     1      10.726  18.715  73.247  1.00  0.00    -0.024 C 
ATOM     40  C   UNL     1       9.641  20.691  71.468  1.00  0.00     0.013 C 
ATOM     41  C   UNL     1      11.277  19.031  70.291  1.00  0.00     0.009 C 
ATOM     42  C   UNL     1      10.337  17.741  72.400  1.00  0.00     0.005 C 
ATOM     43  C   UNL     1      10.978  17.602  71.019  1.00  0.00     0.096 C 
ATOM     44  C   UNL     1      12.682  18.964  69.613  1.00  0.00     0.043 C 
ATOM     45  C   UNL     1      10.286  19.282  69.100  1.00  0.00     0.015 C 
ATOM     46  C   UNL     1      12.172  16.624  71.160  1.00  0.00     0.037 C 
ATOM     47  O   UNL     1      10.109  16.867  70.174  1.00  0.00    -0.369 OA
ATOM     48  C   UNL     1      13.053  17.582  68.982  1.00  0.00     0.124 C 
ATOM     49  C   UNL     1      12.416  16.335  69.715  1.00  0.00     0.026 C 
ATOM     50  C   UNL     1      13.467  16.844  71.980  1.00  0.00     0.014 C 
ATOM     51  C   UNL     1      10.940  16.105  69.302  1.00  0.00     0.171 C 
ATOM     52  C   UNL     1      13.302  15.065  69.577  1.00  0.00     0.013 C 
ATOM     53  C   UNL     1      14.428  15.614  71.876  1.00  0.00    -0.035 C 
ATOM     54  C   UNL     1      14.617  15.169  70.390  1.00  0.00     0.007 C 
ATOM     55  C   UNL     1      13.901  14.428  72.723  1.00  0.00     0.011 C 
ATOM     56  C   UNL     1      15.804  16.024  72.445  1.00  0.00     0.011 C 
BRANCH  29  57
ATOM     57  C   UNL     1      15.788  22.571  73.369  1.00  0.00     0.165 C 
BRANCH  57  58
ATOM     58  O   UNL     1      16.709  22.750  74.417  1.00  0.00    -0.396 OA
ATOM     59  H   UNL     1      17.597  22.499  74.053  1.00  0.00     0.210 HD
ENDBRANCH  57  58
ENDBRANCH  29  57
BRANCH  48  60
ATOM     60  O   UNL     1      12.727  17.561  67.615  1.00  0.00    -0.392 OA
ATOM     61  H   UNL     1      12.577  16.611  67.360  1.00  0.00     0.210 HD
ENDBRANCH  48  60
ENDBRANCH  26  27
ENDBRANCH   6  26
BRANCH   5  62
ATOM     62  O   UNL     1      14.392  25.468  76.876  1.00  0.00    -0.385 OA
ATOM     63  H   UNL     1      13.747  25.964  76.306  1.00  0.00     0.211 HD
ENDBRANCH   5  62
TORSDOF 14
ENDMDL
MODEL 8
REMARK VINA RESULT:    -5.218      2.703     12.015
REMARK INTER + INTRA:          -9.855
REMARK INTER:                  -8.535
REMARK INTRA:                  -1.320
REMARK UNBOUND:                -1.587
REMARK SMILES C[C@@H]1O[C@@H](O[C@H]2CC[C@@]3(C)[C@@H](CC[C@]4(C)[C@@H]3C=C[C@]35OC[C@@]6(CCC(C)(C)C[C@H]63)[C@@H](O)C[C@@]54C)[C@]2(C)CO)[C@H](O)[C@@H](O[C@@H]2O[C@H](CO)[C@@H](O)[C@H](O)[C@H]2O)[C@@H]1O
REMARK SMILES IDX 1 1 2 2 54 3 41 4 39 5 4 6 3 7 55 8 42 10 43 11 52 12 44 13
REMARK SMILES IDX 50 14 45 15 48 16 53 17 51 19 46 21 47 22 49 24 5 26 6 27
REMARK SMILES IDX 7 28 35 29 8 30 11 31 36 32 9 33 12 34 10 35 16 36 13 37
REMARK SMILES IDX 14 38 17 39 15 40 33 41 18 42 19 43 32 44 34 45 29 46 20 47
REMARK SMILES IDX 30 48 22 49 28 50 21 51 23 52 25 53 24 54 26 55 27 56 37 57
REMARK SMILES IDX 38 58 31 60 40 62
REMARK H PARENT 55 9 53 18 51 20 47 23 49 25 38 59 31 61 40 63
REMARK Flexibility Score: inf
ROOT
ATOM      1  C   UNL     1       7.531  23.059  73.163  1.00  0.00     0.041 C 
ATOM      2  C   UNL     1       9.020  22.767  72.968  1.00  0.00     0.150 C 
ATOM      3  C   UNL     1       9.356  22.577  71.471  1.00  0.00     0.175 C 
ATOM      4  C   UNL     1      10.885  22.309  71.239  1.00  0.00     0.186 C 
ATOM      5  C   UNL     1      11.643  22.466  72.572  1.00  0.00     0.202 C 
ATOM      6  C   UNL     1      11.184  23.726  73.353  1.00  0.00     0.282 C 
ATOM      7  O   UNL     1       9.770  23.837  73.526  1.00  0.00    -0.344 OA
ENDROOT
BRANCH   3   8
ATOM      8  O   UNL     1       8.984  23.755  70.796  1.00  0.00    -0.388 OA
ATOM      9  H   UNL     1       7.996  23.818  70.828  1.00  0.00     0.211 HD
ENDBRANCH   3   8
BRANCH   4  10
ATOM     10  O   UNL     1      11.228  21.014  70.754  1.00  0.00    -0.341 OA
BRANCH  10  11
ATOM     11  C   UNL     1      11.296  19.941  71.689  1.00  0.00     0.282 C 
ATOM     12  C   UNL     1      10.209  18.914  71.270  1.00  0.00     0.202 C 
ATOM     13  O   UNL     1      12.582  19.345  71.784  1.00  0.00    -0.341 OA
ATOM     14  C   UNL     1      10.583  17.468  71.646  1.00  0.00     0.179 C 
ATOM     15  C   UNL     1      12.673  18.379  72.826  1.00  0.00     0.178 C 
ATOM     16  C   UNL     1      11.432  17.434  72.928  1.00  0.00     0.177 C 
BRANCH  12  17
ATOM     17  O   UNL     1       8.953  19.279  71.794  1.00  0.00    -0.385 OA
ATOM     18  H   UNL     1       8.872  20.267  71.732  1.00  0.00     0.211 HD
ENDBRANCH  12  17
BRANCH  14  19
ATOM     19  O   UNL     1      11.300  16.883  70.587  1.00  0.00    -0.387 OA
ATOM     20  H   UNL     1      11.860  16.163  70.978  1.00  0.00     0.211 HD
ENDBRANCH  14  19
BRANCH  15  21
ATOM     21  C   UNL     1      13.946  17.559  72.578  1.00  0.00     0.191 C 
BRANCH  21  22
ATOM     22  O   UNL     1      13.654  16.183  72.619  1.00  0.00    -0.394 OA
ATOM     23  H   UNL     1      13.049  15.999  71.848  1.00  0.00     0.210 HD
ENDBRANCH  21  22
ENDBRANCH  15  21
BRANCH  16  24
ATOM     24  O   UNL     1      10.654  17.821  74.035  1.00  0.00    -0.387 OA
ATOM     25  H   UNL     1      10.030  17.077  74.231  1.00  0.00     0.211 HD
ENDBRANCH  16  24
ENDBRANCH  10  11
ENDBRANCH   4  10
BRANCH   6  26
ATOM     26  O   UNL     1      11.773  23.710  74.646  1.00  0.00    -0.346 OA
BRANCH  26  27
ATOM     27  C   UNL     1      12.174  25.001  75.098  1.00  0.00     0.130 C 
ATOM     28  C   UNL     1      11.328  25.415  76.320  1.00  0.00     0.033 C 
ATOM     29  C   UNL     1      13.731  25.037  75.399  1.00  0.00     0.020 C 
ATOM     30  C   UNL     1      11.564  24.554  77.579  1.00  0.00     0.010 C 
ATOM     31  C   UNL     1      14.014  24.938  76.956  1.00  0.00     0.006 C 
ATOM     32  C   UNL     1      14.453  23.915  74.598  1.00  0.00     0.017 C 
ATOM     33  C   UNL     1      13.030  24.018  77.772  1.00  0.00    -0.022 C 
ATOM     34  C   UNL     1      15.518  24.879  77.392  1.00  0.00     0.005 C 
ATOM     35  C   UNL     1      13.054  22.532  77.340  1.00  0.00     0.012 C 
ATOM     36  C   UNL     1      13.447  24.178  79.281  1.00  0.00     0.024 C 
ATOM     37  C   UNL     1      15.880  23.859  78.486  1.00  0.00     0.008 C 
ATOM     38  C   UNL     1      14.884  23.711  79.697  1.00  0.00    -0.017 C 
ATOM     39  C   UNL     1      12.471  23.714  80.337  1.00  0.00    -0.024 C 
ATOM     40  C   UNL     1      14.879  22.174  80.051  1.00  0.00     0.013 C 
ATOM     41  C   UNL     1      15.290  24.559  81.033  1.00  0.00     0.009 C 
ATOM     42  C   UNL     1      12.782  23.959  81.625  1.00  0.00     0.005 C 
ATOM     43  C   UNL     1      13.992  24.819  81.988  1.00  0.00     0.096 C 
ATOM     44  C   UNL     1      15.941  25.935  80.686  1.00  0.00     0.043 C 
ATOM     45  C   UNL     1      16.416  23.782  81.802  1.00  0.00     0.015 C 
ATOM     46  C   UNL     1      13.499  26.283  82.116  1.00  0.00     0.037 C 
ATOM     47  O   UNL     1      14.382  24.536  83.321  1.00  0.00    -0.369 OA
ATOM     48  C   UNL     1      15.918  26.992  81.838  1.00  0.00     0.124 C 
ATOM     49  C   UNL     1      14.680  26.874  82.813  1.00  0.00     0.026 C 
ATOM     50  C   UNL     1      12.927  27.177  80.988  1.00  0.00     0.014 C 
ATOM     51  C   UNL     1      14.872  25.757  83.869  1.00  0.00     0.171 C 
ATOM     52  C   UNL     1      14.291  28.248  83.428  1.00  0.00     0.013 C 
ATOM     53  C   UNL     1      12.530  28.591  81.522  1.00  0.00    -0.035 C 
ATOM     54  C   UNL     1      13.677  29.212  82.384  1.00  0.00     0.007 C 
ATOM     55  C   UNL     1      11.222  28.523  82.350  1.00  0.00     0.011 C 
ATOM     56  C   UNL     1      12.272  29.513  80.310  1.00  0.00     0.011 C 
BRANCH  29  57
ATOM     57  C   UNL     1      14.321  26.380  74.860  1.00  0.00     0.165 C 
BRANCH  57  58
ATOM     58  O   UNL     1      15.222  26.154  73.805  1.00  0.00    -0.396 OA
ATOM     59  H   UNL     1      15.016  25.249  73.452  1.00  0.00     0.210 HD
ENDBRANCH  57  58
ENDBRANCH  29  57
BRANCH  48  60
ATOM     60  O   UNL     1      17.118  26.951  82.569  1.00  0.00    -0.392 OA
ATOM     61  H   UNL     1      16.940  27.368  83.455  1.00  0.00     0.210 HD
ENDBRANCH  48  60
ENDBRANCH  26  27
ENDBRANCH   6  26
BRANCH   5  62
ATOM     62  O   UNL     1      13.030  22.460  72.356  1.00  0.00    -0.385 OA
ATOM     63  H   UNL     1      13.457  22.001  73.127  1.00  0.00     0.211 HD
ENDBRANCH   5  62
TORSDOF 14
ENDMDL
MODEL 9
REMARK VINA RESULT:    -5.076      3.667      6.149
REMARK INTER + INTRA:          -9.631
REMARK INTER:                  -8.211
REMARK INTRA:                  -1.419
REMARK UNBOUND:                -1.587
REMARK SMILES C[C@@H]1O[C@@H](O[C@H]2CC[C@@]3(C)[C@@H](CC[C@]4(C)[C@@H]3C=C[C@]35OC[C@@]6(CCC(C)(C)C[C@H]63)[C@@H](O)C[C@@]54C)[C@]2(C)CO)[C@H](O)[C@@H](O[C@@H]2O[C@H](CO)[C@@H](O)[C@H](O)[C@H]2O)[C@@H]1O
REMARK SMILES IDX 1 1 2 2 54 3 41 4 39 5 4 6 3 7 55 8 42 10 43 11 52 12 44 13
REMARK SMILES IDX 50 14 45 15 48 16 53 17 51 19 46 21 47 22 49 24 5 26 6 27
REMARK SMILES IDX 7 28 35 29 8 30 11 31 36 32 9 33 12 34 10 35 16 36 13 37
REMARK SMILES IDX 14 38 17 39 15 40 33 41 18 42 19 43 32 44 34 45 29 46 20 47
REMARK SMILES IDX 30 48 22 49 28 50 21 51 23 52 25 53 24 54 26 55 27 56 37 57
REMARK SMILES IDX 38 58 31 60 40 62
REMARK H PARENT 55 9 53 18 51 20 47 23 49 25 38 59 31 61 40 63
REMARK Flexibility Score: inf
ROOT
ATOM      1  C   UNL     1      12.685  21.163  79.525  1.00  0.00     0.041 C 
ATOM      2  C   UNL     1      13.460  22.371  78.997  1.00  0.00     0.150 C 
ATOM      3  C   UNL     1      14.729  22.628  79.842  1.00  0.00     0.175 C 
ATOM      4  C   UNL     1      15.562  23.844  79.303  1.00  0.00     0.186 C 
ATOM      5  C   UNL     1      14.947  24.342  77.979  1.00  0.00     0.202 C 
ATOM      6  C   UNL     1      14.583  23.166  77.033  1.00  0.00     0.282 C 
ATOM      7  O   UNL     1      13.794  22.139  77.636  1.00  0.00    -0.344 OA
ENDROOT
BRANCH   3   8
ATOM      8  O   UNL     1      15.519  21.465  79.792  1.00  0.00    -0.388 OA
ATOM      9  H   UNL     1      14.961  20.739  79.414  1.00  0.00     0.211 HD
ENDBRANCH   3   8
BRANCH   4  10
ATOM     10  O   UNL     1      15.623  24.988  80.149  1.00  0.00    -0.341 OA
BRANCH  10  11
ATOM     11  C   UNL     1      14.650  25.114  81.183  1.00  0.00     0.282 C 
ATOM     12  C   UNL     1      15.417  25.033  82.531  1.00  0.00     0.202 C 
ATOM     13  O   UNL     1      13.864  26.294  81.088  1.00  0.00    -0.341 OA
ATOM     14  C   UNL     1      14.730  25.835  83.653  1.00  0.00     0.179 C 
ATOM     15  C   UNL     1      12.801  26.333  82.034  1.00  0.00     0.178 C 
ATOM     16  C   UNL     1      13.203  25.849  83.465  1.00  0.00     0.177 C 
BRANCH  12  17
ATOM     17  O   UNL     1      15.625  23.691  82.904  1.00  0.00    -0.385 OA
ATOM     18  H   UNL     1      16.553  23.443  82.649  1.00  0.00     0.211 HD
ENDBRANCH  12  17
BRANCH  14  19
ATOM     19  O   UNL     1      15.220  27.154  83.650  1.00  0.00    -0.387 OA
ATOM     20  H   UNL     1      15.956  27.188  82.985  1.00  0.00     0.211 HD
ENDBRANCH  14  19
BRANCH  15  21
ATOM     21  C   UNL     1      12.290  27.779  82.087  1.00  0.00     0.191 C 
BRANCH  21  22
ATOM     22  O   UNL     1      11.154  27.864  82.913  1.00  0.00    -0.394 OA
ATOM     23  H   UNL     1      11.285  27.195  83.642  1.00  0.00     0.210 HD
ENDBRANCH  21  22
ENDBRANCH  15  21
BRANCH  16  24
ATOM     24  O   UNL     1      12.677  24.561  83.675  1.00  0.00    -0.387 OA
ATOM     25  H   UNL     1      13.250  24.116  84.350  1.00  0.00     0.211 HD
ENDBRANCH  16  24
ENDBRANCH  10  11
ENDBRANCH   4  10
BRANCH   6  26
ATOM     26  O   UNL     1      13.852  23.672  75.925  1.00  0.00    -0.346 OA
BRANCH  26  27
ATOM     27  C   UNL     1      12.696  22.899  75.613  1.00  0.00     0.130 C 
ATOM     28  C   UNL     1      11.452  23.810  75.568  1.00  0.00     0.033 C 
ATOM     29  C   UNL     1      12.904  22.090  74.264  1.00  0.00     0.020 C 
ATOM     30  C   UNL     1      11.459  24.842  74.420  1.00  0.00     0.010 C 
ATOM     31  C   UNL     1      12.161  22.797  73.054  1.00  0.00     0.006 C 
ATOM     32  C   UNL     1      14.423  21.897  73.989  1.00  0.00     0.017 C 
ATOM     33  C   UNL     1      12.149  24.372  73.087  1.00  0.00    -0.022 C 
ATOM     34  C   UNL     1      12.351  22.148  71.641  1.00  0.00     0.005 C 
ATOM     35  C   UNL     1      13.556  25.014  73.027  1.00  0.00     0.012 C 
ATOM     36  C   UNL     1      11.268  24.818  71.861  1.00  0.00     0.024 C 
ATOM     37  C   UNL     1      12.609  23.111  70.469  1.00  0.00     0.008 C 
ATOM     38  C   UNL     1      11.768  24.442  70.424  1.00  0.00    -0.017 C 
ATOM     39  C   UNL     1      10.766  26.242  71.833  1.00  0.00    -0.024 C 
ATOM     40  C   UNL     1      12.756  25.545  69.882  1.00  0.00     0.013 C 
ATOM     41  C   UNL     1      10.450  24.395  69.461  1.00  0.00     0.009 C 
ATOM     42  C   UNL     1       9.919  26.586  70.843  1.00  0.00     0.005 C 
ATOM     43  C   UNL     1       9.360  25.531  69.889  1.00  0.00     0.096 C 
ATOM     44  C   UNL     1       9.752  22.998  69.479  1.00  0.00     0.043 C 
ATOM     45  C   UNL     1      10.907  24.578  67.971  1.00  0.00     0.015 C 
ATOM     46  C   UNL     1       8.022  25.028  70.488  1.00  0.00     0.037 C 
ATOM     47  O   UNL     1       8.917  26.165  68.701  1.00  0.00    -0.369 OA
ATOM     48  C   UNL     1       8.265  22.989  68.997  1.00  0.00     0.124 C 
ATOM     49  C   UNL     1       7.473  24.325  69.289  1.00  0.00     0.026 C 
ATOM     50  C   UNL     1       7.826  24.249  71.812  1.00  0.00     0.014 C 
ATOM     51  C   UNL     1       7.784  25.429  68.247  1.00  0.00     0.171 C 
ATOM     52  C   UNL     1       5.951  24.069  69.484  1.00  0.00     0.013 C 
ATOM     53  C   UNL     1       6.317  23.930  72.072  1.00  0.00    -0.035 C 
ATOM     54  C   UNL     1       5.642  23.318  70.803  1.00  0.00     0.007 C 
ATOM     55  C   UNL     1       5.553  25.202  72.520  1.00  0.00     0.011 C 
ATOM     56  C   UNL     1       6.230  22.901  73.221  1.00  0.00     0.011 C 
BRANCH  29  57
ATOM     57  C   UNL     1      12.326  20.650  74.442  1.00  0.00     0.165 C 
BRANCH  57  58
ATOM     58  O   UNL     1      12.676  20.111  75.693  1.00  0.00    -0.396 OA
ATOM     59  H   UNL     1      11.878  19.615  76.016  1.00  0.00     0.210 HD
ENDBRANCH  57  58
ENDBRANCH  29  57
BRANCH  48  60
ATOM     60  O   UNL     1       8.192  22.671  67.630  1.00  0.00    -0.392 OA
ATOM     61  H   UNL     1       8.914  23.175  67.168  1.00  0.00     0.210 HD
ENDBRANCH  48  60
ENDBRANCH  26  27
ENDBRANCH   6  26
BRANCH   5  62
ATOM     62  O   UNL     1      15.796  25.271  77.358  1.00  0.00    -0.385 OA
ATOM     63  H   UNL     1      15.408  26.176  77.490  1.00  0.00     0.211 HD
ENDBRANCH   5  62
TORSDOF 14
ENDMDL
