MODEL 1
REMARK VINA RESULT:    -5.939      0.000      0.000
REMARK INTER + INTRA:         -12.290
REMARK INTER:                 -10.453
REMARK INTRA:                  -1.838
REMARK UNBOUND:                -1.838
REMARK SMILES CCCCCCCCCCCCCCC(=O)[O-]
REMARK SMILES IDX 9 1 10 2 11 3 12 4 13 5 14 6 15 7 16 8 17 9 8 10 7 11 6 12
REMARK SMILES IDX 5 13 4 14 3 15 2 16 1 17
REMARK H PARENT
REMARK Flexibility Score: inf
ROOT
ATOM      1  C   UNL     1      51.729  48.986   3.827  1.00  0.00     0.000 C 
ENDROOT
BRANCH   1   2
ATOM      2  C   UNL     1      52.559  50.084   4.509  1.00  0.00     0.000 C 
BRANCH   2   3
ATOM      3  C   UNL     1      54.072  49.878   4.336  1.00  0.00     0.000 C 
BRANCH   3   4
ATOM      4  C   UNL     1      54.837  51.203   4.191  1.00  0.00     0.000 C 
BRANCH   4   5
ATOM      5  C   UNL     1      54.388  52.215   5.257  1.00  0.00     0.006 C 
BRANCH   5   6
ATOM      6  C   UNL     1      55.137  52.034   6.584  1.00  0.00     0.053 C 
BRANCH   6   7
ATOM      7  C   UNL     1      54.205  51.701   7.707  1.00  0.00     0.041 C 
ATOM      8  O   UNL     1      53.684  52.620   8.393  1.00  0.00    -0.550 OA
ATOM      9  O   UNL     1      53.938  50.374   8.020  1.00  0.00    -0.550 OA
ENDBRANCH   6   7
ENDBRANCH   5   6
ENDBRANCH   4   5
ENDBRANCH   3   4
ENDBRANCH   2   3
ENDBRANCH   1   2
BRANCH   1  10
ATOM     10  C   UNL     1      50.231  49.183   4.102  1.00  0.00     0.000 C 
BRANCH  10  11
ATOM     11  C   UNL     1      49.498  49.871   2.939  1.00  0.00    -0.000 C 
BRANCH  11  12
ATOM     12  C   UNL     1      48.427  50.866   3.421  1.00  0.00    -0.000 C 
BRANCH  12  13
ATOM     13  C   UNL     1      48.799  52.326   3.113  1.00  0.00    -0.000 C 
BRANCH  13  14
ATOM     14  C   UNL     1      49.148  53.125   4.382  1.00  0.00    -0.000 C 
BRANCH  14  15
ATOM     15  C   UNL     1      50.643  53.052   4.741  1.00  0.00    -0.000 C 
BRANCH  15  16
ATOM     16  C   UNL     1      50.943  52.865   6.240  1.00  0.00    -0.003 C 
ATOM     17  C   UNL     1      50.428  51.537   6.793  1.00  0.00     0.004 C 
ENDBRANCH  15  16
ENDBRANCH  14  15
ENDBRANCH  13  14
ENDBRANCH  12  13
ENDBRANCH  11  12
ENDBRANCH  10  11
ENDBRANCH   1  10
TORSDOF 13
ENDMDL
MODEL 2
REMARK VINA RESULT:    -5.867      1.252      2.791
REMARK INTER + INTRA:         -12.164
REMARK INTER:                 -10.183
REMARK INTRA:                  -1.981
REMARK UNBOUND:                -1.838
REMARK SMILES CCCCCCCCCCCCCCC(=O)[O-]
REMARK SMILES IDX 9 1 10 2 11 3 12 4 13 5 14 6 15 7 16 8 17 9 8 10 7 11 6 12
REMARK SMILES IDX 5 13 4 14 3 15 2 16 1 17
REMARK H PARENT
REMARK Flexibility Score: inf
ROOT
ATOM      1  C   UNL     1      51.547  50.137   6.053  1.00  0.00     0.000 C 
ENDROOT
BRANCH   1   2
ATOM      2  C   UNL     1      52.166  50.659   4.748  1.00  0.00     0.000 C 
BRANCH   2   3
ATOM      3  C   UNL     1      53.460  49.922   4.368  1.00  0.00     0.000 C 
BRANCH   3   4
ATOM      4  C   UNL     1      54.679  50.855   4.313  1.00  0.00     0.000 C 
BRANCH   4   5
ATOM      5  C   UNL     1      54.379  52.191   5.010  1.00  0.00     0.006 C 
BRANCH   5   6
ATOM      6  C   UNL     1      55.131  52.335   6.340  1.00  0.00     0.053 C 
BRANCH   6   7
ATOM      7  C   UNL     1      54.260  51.999   7.510  1.00  0.00     0.041 C 
ATOM      8  O   UNL     1      54.395  50.897   8.106  1.00  0.00    -0.550 OA
ATOM      9  O   UNL     1      53.274  52.887   7.923  1.00  0.00    -0.550 OA
ENDBRANCH   6   7
ENDBRANCH   5   6
ENDBRANCH   4   5
ENDBRANCH   3   4
ENDBRANCH   2   3
ENDBRANCH   1   2
BRANCH   1  10
ATOM     10  C   UNL     1      50.303  50.953   6.433  1.00  0.00     0.000 C 
BRANCH  10  11
ATOM     11  C   UNL     1      49.022  50.103   6.471  1.00  0.00    -0.000 C 
BRANCH  11  12
ATOM     12  C   UNL     1      47.938  50.625   5.512  1.00  0.00    -0.000 C 
BRANCH  12  13
ATOM     13  C   UNL     1      48.528  51.398   4.321  1.00  0.00    -0.000 C 
BRANCH  13  14
ATOM     14  C   UNL     1      48.215  50.729   2.970  1.00  0.00    -0.000 C 
BRANCH  14  15
ATOM     15  C   UNL     1      49.368  49.847   2.459  1.00  0.00    -0.000 C 
BRANCH  15  16
ATOM     16  C   UNL     1      49.172  48.334   2.672  1.00  0.00    -0.003 C 
ATOM     17  C   UNL     1      50.120  47.749   3.718  1.00  0.00     0.004 C 
ENDBRANCH  15  16
ENDBRANCH  14  15
ENDBRANCH  13  14
ENDBRANCH  12  13
ENDBRANCH  11  12
ENDBRANCH  10  11
ENDBRANCH   1  10
TORSDOF 13
ENDMDL
MODEL 3
REMARK VINA RESULT:    -5.615      1.860      3.615
REMARK INTER + INTRA:         -11.719
REMARK INTER:                 -10.180
REMARK INTRA:                  -1.539
REMARK UNBOUND:                -1.838
REMARK SMILES CCCCCCCCCCCCCCC(=O)[O-]
REMARK SMILES IDX 9 1 10 2 11 3 12 4 13 5 14 6 15 7 16 8 17 9 8 10 7 11 6 12
REMARK SMILES IDX 5 13 4 14 3 15 2 16 1 17
REMARK H PARENT
REMARK Flexibility Score: inf
ROOT
ATOM      1  C   UNL     1      51.880  50.507   6.876  1.00  0.00     0.000 C 
ENDROOT
BRANCH   1   2
ATOM      2  C   UNL     1      53.308  50.866   7.313  1.00  0.00     0.000 C 
BRANCH   2   3
ATOM      3  C   UNL     1      53.541  52.383   7.396  1.00  0.00     0.000 C 
BRANCH   3   4
ATOM      4  C   UNL     1      54.723  52.848   6.533  1.00  0.00     0.000 C 
BRANCH   4   5
ATOM      5  C   UNL     1      54.441  52.613   5.041  1.00  0.00     0.006 C 
BRANCH   5   6
ATOM      6  C   UNL     1      55.609  51.915   4.331  1.00  0.00     0.053 C 
BRANCH   6   7
ATOM      7  C   UNL     1      55.244  50.533   3.886  1.00  0.00     0.041 C 
ATOM      8  O   UNL     1      54.081  50.091   4.081  1.00  0.00    -0.550 OA
ATOM      9  O   UNL     1      56.197  49.720   3.286  1.00  0.00    -0.550 OA
ENDBRANCH   6   7
ENDBRANCH   5   6
ENDBRANCH   4   5
ENDBRANCH   3   4
ENDBRANCH   2   3
ENDBRANCH   1   2
BRANCH   1  10
ATOM     10  C   UNL     1      51.096  51.767   6.479  1.00  0.00     0.000 C 
BRANCH  10  11
ATOM     11  C   UNL     1      50.951  51.922   4.956  1.00  0.00    -0.000 C 
BRANCH  11  12
ATOM     12  C   UNL     1      49.901  52.977   4.567  1.00  0.00    -0.000 C 
BRANCH  12  13
ATOM     13  C   UNL     1      48.847  52.427   3.591  1.00  0.00    -0.000 C 
BRANCH  13  14
ATOM     14  C   UNL     1      48.258  51.084   4.057  1.00  0.00    -0.000 C 
BRANCH  14  15
ATOM     15  C   UNL     1      48.215  50.030   2.936  1.00  0.00    -0.000 C 
BRANCH  15  16
ATOM     16  C   UNL     1      49.593  49.554   2.440  1.00  0.00    -0.003 C 
ATOM     17  C   UNL     1      50.318  48.662   3.448  1.00  0.00     0.004 C 
ENDBRANCH  15  16
ENDBRANCH  14  15
ENDBRANCH  13  14
ENDBRANCH  12  13
ENDBRANCH  11  12
ENDBRANCH  10  11
ENDBRANCH   1  10
TORSDOF 13
ENDMDL
MODEL 4
REMARK VINA RESULT:    -5.606      2.009      3.729
REMARK INTER + INTRA:         -11.703
REMARK INTER:                 -10.024
REMARK INTRA:                  -1.679
REMARK UNBOUND:                -1.838
REMARK SMILES CCCCCCCCCCCCCCC(=O)[O-]
REMARK SMILES IDX 9 1 10 2 11 3 12 4 13 5 14 6 15 7 16 8 17 9 8 10 7 11 6 12
REMARK SMILES IDX 5 13 4 14 3 15 2 16 1 17
REMARK H PARENT
REMARK Flexibility Score: inf
ROOT
ATOM      1  C   UNL     1      49.471  50.135   6.618  1.00  0.00     0.000 C 
ENDROOT
BRANCH   1   2
ATOM      2  C   UNL     1      50.507  51.247   6.841  1.00  0.00     0.000 C 
BRANCH   2   3
ATOM      3  C   UNL     1      51.950  50.770   6.611  1.00  0.00     0.000 C 
BRANCH   3   4
ATOM      4  C   UNL     1      52.967  51.920   6.645  1.00  0.00     0.000 C 
BRANCH   4   5
ATOM      5  C   UNL     1      53.230  52.464   5.232  1.00  0.00     0.006 C 
BRANCH   5   6
ATOM      6  C   UNL     1      54.726  52.509   4.895  1.00  0.00     0.053 C 
BRANCH   6   7
ATOM      7  C   UNL     1      55.179  51.257   4.209  1.00  0.00     0.041 C 
ATOM      8  O   UNL     1      54.386  50.289   4.069  1.00  0.00    -0.550 OA
ATOM      9  O   UNL     1      56.487  51.146   3.755  1.00  0.00    -0.550 OA
ENDBRANCH   6   7
ENDBRANCH   5   6
ENDBRANCH   4   5
ENDBRANCH   3   4
ENDBRANCH   2   3
ENDBRANCH   1   2
BRANCH   1  10
ATOM     10  C   UNL     1      48.455  50.542   5.541  1.00  0.00     0.000 C 
BRANCH  10  11
ATOM     11  C   UNL     1      48.959  51.689   4.650  1.00  0.00    -0.000 C 
BRANCH  11  12
ATOM     12  C   UNL     1      48.453  51.578   3.201  1.00  0.00    -0.000 C 
BRANCH  12  13
ATOM     13  C   UNL     1      47.827  50.206   2.900  1.00  0.00    -0.000 C 
BRANCH  13  14
ATOM     14  C   UNL     1      48.787  49.275   2.137  1.00  0.00    -0.000 C 
BRANCH  14  15
ATOM     15  C   UNL     1      48.960  47.907   2.820  1.00  0.00    -0.000 C 
BRANCH  15  16
ATOM     16  C   UNL     1      50.173  47.799   3.763  1.00  0.00    -0.003 C 
ATOM     17  C   UNL     1      51.180  48.933   3.574  1.00  0.00     0.004 C 
ENDBRANCH  15  16
ENDBRANCH  14  15
ENDBRANCH  13  14
ENDBRANCH  12  13
ENDBRANCH  11  12
ENDBRANCH  10  11
ENDBRANCH   1  10
TORSDOF 13
ENDMDL
MODEL 5
REMARK VINA RESULT:    -5.554      2.540      6.080
REMARK INTER + INTRA:         -11.613
REMARK INTER:                 -10.205
REMARK INTRA:                  -1.408
REMARK UNBOUND:                -1.838
REMARK SMILES CCCCCCCCCCCCCCC(=O)[O-]
REMARK SMILES IDX 9 1 10 2 11 3 12 4 13 5 14 6 15 7 16 8 17 9 8 10 7 11 6 12
REMARK SMILES IDX 5 13 4 14 3 15 2 16 1 17
REMARK H PARENT
REMARK Flexibility Score: inf
ROOT
ATOM      1  C   UNL     1      50.687  51.712   5.313  1.00  0.00     0.000 C 
ENDROOT
BRANCH   1   2
ATOM      2  C   UNL     1      49.936  52.927   4.749  1.00  0.00     0.000 C 
BRANCH   2   3
ATOM      3  C   UNL     1      48.995  52.560   3.591  1.00  0.00     0.000 C 
BRANCH   3   4
ATOM      4  C   UNL     1      48.044  51.407   3.945  1.00  0.00     0.000 C 
BRANCH   4   5
ATOM      5  C   UNL     1      47.921  50.418   2.775  1.00  0.00     0.006 C 
BRANCH   5   6
ATOM      6  C   UNL     1      49.277  49.831   2.364  1.00  0.00     0.053 C 
BRANCH   6   7
ATOM      7  C   UNL     1      49.516  48.491   2.989  1.00  0.00     0.041 C 
ATOM      8  O   UNL     1      48.758  47.522   2.719  1.00  0.00    -0.550 OA
ATOM      9  O   UNL     1      50.553  48.321   3.898  1.00  0.00    -0.550 OA
ENDBRANCH   6   7
ENDBRANCH   5   6
ENDBRANCH   4   5
ENDBRANCH   3   4
ENDBRANCH   2   3
ENDBRANCH   1   2
BRANCH   1  10
ATOM     10  C   UNL     1      51.157  51.977   6.751  1.00  0.00     0.000 C 
BRANCH  10  11
ATOM     11  C   UNL     1      52.270  53.035   6.828  1.00  0.00    -0.000 C 
BRANCH  11  12
ATOM     12  C   UNL     1      53.619  52.442   7.270  1.00  0.00    -0.000 C 
BRANCH  12  13
ATOM     13  C   UNL     1      54.778  52.867   6.353  1.00  0.00    -0.000 C 
BRANCH  13  14
ATOM     14  C   UNL     1      54.507  52.544   4.873  1.00  0.00    -0.000 C 
BRANCH  14  15
ATOM     15  C   UNL     1      55.597  51.657   4.245  1.00  0.00    -0.000 C 
BRANCH  15  16
ATOM     16  C   UNL     1      55.142  50.234   3.872  1.00  0.00    -0.003 C 
ATOM     17  C   UNL     1      53.713  49.926   4.316  1.00  0.00     0.004 C 
ENDBRANCH  15  16
ENDBRANCH  14  15
ENDBRANCH  13  14
ENDBRANCH  12  13
ENDBRANCH  11  12
ENDBRANCH  10  11
ENDBRANCH   1  10
TORSDOF 13
ENDMDL
MODEL 6
REMARK VINA RESULT:    -5.537      1.469      2.018
REMARK INTER + INTRA:         -11.583
REMARK INTER:                  -9.788
REMARK INTRA:                  -1.795
REMARK UNBOUND:                -1.838
REMARK SMILES CCCCCCCCCCCCCCC(=O)[O-]
REMARK SMILES IDX 9 1 10 2 11 3 12 4 13 5 14 6 15 7 16 8 17 9 8 10 7 11 6 12
REMARK SMILES IDX 5 13 4 14 3 15 2 16 1 17
REMARK H PARENT
REMARK Flexibility Score: inf
ROOT
ATOM      1  C   UNL     1      50.503  48.093   3.806  1.00  0.00     0.000 C 
ENDROOT
BRANCH   1   2
ATOM      2  C   UNL     1      51.195  49.423   3.471  1.00  0.00     0.000 C 
BRANCH   2   3
ATOM      3  C   UNL     1      52.075  49.941   4.619  1.00  0.00     0.000 C 
BRANCH   3   4
ATOM      4  C   UNL     1      53.576  49.779   4.334  1.00  0.00     0.000 C 
BRANCH   4   5
ATOM      5  C   UNL     1      54.305  51.127   4.449  1.00  0.00     0.006 C 
BRANCH   5   6
ATOM      6  C   UNL     1      53.438  52.203   5.116  1.00  0.00     0.053 C 
BRANCH   6   7
ATOM      7  C   UNL     1      53.750  52.344   6.573  1.00  0.00     0.041 C 
ATOM      8  O   UNL     1      52.822  52.522   7.406  1.00  0.00    -0.550 OA
ATOM      9  O   UNL     1      55.069  52.314   7.009  1.00  0.00    -0.550 OA
ENDBRANCH   6   7
ENDBRANCH   5   6
ENDBRANCH   4   5
ENDBRANCH   3   4
ENDBRANCH   2   3
ENDBRANCH   1   2
BRANCH   1  10
ATOM     10  C   UNL     1      49.127  48.006   3.131  1.00  0.00     0.000 C 
BRANCH  10  11
ATOM     11  C   UNL     1      48.916  49.097   2.068  1.00  0.00    -0.000 C 
BRANCH  11  12
ATOM     12  C   UNL     1      47.472  49.627   2.043  1.00  0.00    -0.000 C 
BRANCH  12  13
ATOM     13  C   UNL     1      47.155  50.528   3.249  1.00  0.00    -0.000 C 
BRANCH  13  14
ATOM     14  C   UNL     1      48.165  51.680   3.405  1.00  0.00    -0.000 C 
BRANCH  14  15
ATOM     15  C   UNL     1      48.807  51.726   4.803  1.00  0.00    -0.000 C 
BRANCH  15  16
ATOM     16  C   UNL     1      48.382  50.589   5.751  1.00  0.00    -0.003 C 
ATOM     17  C   UNL     1      49.411  50.304   6.844  1.00  0.00     0.004 C 
ENDBRANCH  15  16
ENDBRANCH  14  15
ENDBRANCH  13  14
ENDBRANCH  12  13
ENDBRANCH  11  12
ENDBRANCH  10  11
ENDBRANCH   1  10
TORSDOF 13
ENDMDL
MODEL 7
REMARK VINA RESULT:    -5.499      1.626      3.729
REMARK INTER + INTRA:         -11.515
REMARK INTER:                  -9.779
REMARK INTRA:                  -1.736
REMARK UNBOUND:                -1.838
REMARK SMILES CCCCCCCCCCCCCCC(=O)[O-]
REMARK SMILES IDX 9 1 10 2 11 3 12 4 13 5 14 6 15 7 16 8 17 9 8 10 7 11 6 12
REMARK SMILES IDX 5 13 4 14 3 15 2 16 1 17
REMARK H PARENT
REMARK Flexibility Score: inf
ROOT
ATOM      1  C   UNL     1      50.770  50.626   6.804  1.00  0.00     0.000 C 
ENDROOT
BRANCH   1   2
ATOM      2  C   UNL     1      50.829  52.082   6.318  1.00  0.00     0.000 C 
BRANCH   2   3
ATOM      3  C   UNL     1      51.621  52.241   5.010  1.00  0.00     0.000 C 
BRANCH   3   4
ATOM      4  C   UNL     1      52.904  51.397   4.989  1.00  0.00     0.000 C 
BRANCH   4   5
ATOM      5  C   UNL     1      54.150  52.289   5.090  1.00  0.00     0.006 C 
BRANCH   5   6
ATOM      6  C   UNL     1      55.053  51.898   6.267  1.00  0.00     0.053 C 
BRANCH   6   7
ATOM      7  C   UNL     1      54.285  51.806   7.549  1.00  0.00     0.041 C 
ATOM      8  O   UNL     1      53.838  52.848   8.097  1.00  0.00    -0.550 OA
ATOM      9  O   UNL     1      54.093  50.572   8.159  1.00  0.00    -0.550 OA
ENDBRANCH   6   7
ENDBRANCH   5   6
ENDBRANCH   4   5
ENDBRANCH   3   4
ENDBRANCH   2   3
ENDBRANCH   1   2
BRANCH   1  10
ATOM     10  C   UNL     1      49.338  50.078   6.720  1.00  0.00     0.000 C 
BRANCH  10  11
ATOM     11  C   UNL     1      48.982  49.556   5.318  1.00  0.00    -0.000 C 
BRANCH  11  12
ATOM     12  C   UNL     1      50.132  48.765   4.671  1.00  0.00    -0.000 C 
BRANCH  12  13
ATOM     13  C   UNL     1      50.267  49.047   3.166  1.00  0.00    -0.000 C 
BRANCH  13  14
ATOM     14  C   UNL     1      49.011  49.713   2.576  1.00  0.00    -0.000 C 
BRANCH  14  15
ATOM     15  C   UNL     1      48.200  48.764   1.675  1.00  0.00    -0.000 C 
BRANCH  15  16
ATOM     16  C   UNL     1      47.405  47.678   2.424  1.00  0.00    -0.003 C 
ATOM     17  C   UNL     1      47.790  46.259   2.005  1.00  0.00     0.004 C 
ENDBRANCH  15  16
ENDBRANCH  14  15
ENDBRANCH  13  14
ENDBRANCH  12  13
ENDBRANCH  11  12
ENDBRANCH  10  11
ENDBRANCH   1  10
TORSDOF 13
ENDMDL
MODEL 8
REMARK VINA RESULT:    -5.476      3.712      6.357
REMARK INTER + INTRA:         -11.475
REMARK INTER:                 -10.034
REMARK INTRA:                  -1.441
REMARK UNBOUND:                -1.838
REMARK SMILES CCCCCCCCCCCCCCC(=O)[O-]
REMARK SMILES IDX 9 1 10 2 11 3 12 4 13 5 14 6 15 7 16 8 17 9 8 10 7 11 6 12
REMARK SMILES IDX 5 13 4 14 3 15 2 16 1 17
REMARK H PARENT
REMARK Flexibility Score: inf
ROOT
ATOM      1  C   UNL     1      50.861  50.484   6.278  1.00  0.00     0.000 C 
ENDROOT
BRANCH   1   2
ATOM      2  C   UNL     1      49.429  49.956   6.099  1.00  0.00     0.000 C 
BRANCH   2   3
ATOM      3  C   UNL     1      48.860  50.246   4.702  1.00  0.00     0.000 C 
BRANCH   3   4
ATOM      4  C   UNL     1      49.943  50.260   3.612  1.00  0.00     0.000 C 
BRANCH   4   5
ATOM      5  C   UNL     1      49.530  49.388   2.416  1.00  0.00     0.006 C 
BRANCH   5   6
ATOM      6  C   UNL     1      48.946  48.038   2.854  1.00  0.00     0.053 C 
BRANCH   6   7
ATOM      7  C   UNL     1      47.776  47.639   2.010  1.00  0.00     0.041 C 
ATOM      8  O   UNL     1      47.378  46.443   2.002  1.00  0.00    -0.550 OA
ATOM      9  O   UNL     1      47.145  48.578   1.204  1.00  0.00    -0.550 OA
ENDBRANCH   6   7
ENDBRANCH   5   6
ENDBRANCH   4   5
ENDBRANCH   3   4
ENDBRANCH   2   3
ENDBRANCH   1   2
BRANCH   1  10
ATOM     10  C   UNL     1      50.852  51.898   6.877  1.00  0.00     0.000 C 
BRANCH  10  11
ATOM     11  C   UNL     1      51.113  52.991   5.827  1.00  0.00    -0.000 C 
BRANCH  11  12
ATOM     12  C   UNL     1      52.587  53.048   5.388  1.00  0.00    -0.000 C 
BRANCH  12  13
ATOM     13  C   UNL     1      53.559  52.814   6.556  1.00  0.00    -0.000 C 
BRANCH  13  14
ATOM     14  C   UNL     1      54.756  51.931   6.158  1.00  0.00    -0.000 C 
BRANCH  14  15
ATOM     15  C   UNL     1      55.001  51.907   4.639  1.00  0.00    -0.000 C 
BRANCH  15  16
ATOM     16  C   UNL     1      54.984  50.505   4.001  1.00  0.00    -0.003 C 
ATOM     17  C   UNL     1      53.706  49.724   4.303  1.00  0.00     0.004 C 
ENDBRANCH  15  16
ENDBRANCH  14  15
ENDBRANCH  13  14
ENDBRANCH  12  13
ENDBRANCH  11  12
ENDBRANCH  10  11
ENDBRANCH   1  10
TORSDOF 13
ENDMDL
MODEL 9
REMARK VINA RESULT:    -5.401      2.602      5.470
REMARK INTER + INTRA:         -11.343
REMARK INTER:                  -9.518
REMARK INTRA:                  -1.825
REMARK UNBOUND:                -1.838
REMARK SMILES CCCCCCCCCCCCCCC(=O)[O-]
REMARK SMILES IDX 9 1 10 2 11 3 12 4 13 5 14 6 15 7 16 8 17 9 8 10 7 11 6 12
REMARK SMILES IDX 5 13 4 14 3 15 2 16 1 17
REMARK H PARENT
REMARK Flexibility Score: inf
ROOT
ATOM      1  C   UNL     1      51.614  50.235   4.718  1.00  0.00     0.000 C 
ENDROOT
BRANCH   1   2
ATOM      2  C   UNL     1      51.238  49.300   3.558  1.00  0.00     0.000 C 
BRANCH   2   3
ATOM      3  C   UNL     1      50.169  48.268   3.949  1.00  0.00     0.000 C 
BRANCH   3   4
ATOM      4  C   UNL     1      48.974  48.258   2.984  1.00  0.00     0.000 C 
BRANCH   4   5
ATOM      5  C   UNL     1      48.852  49.602   2.247  1.00  0.00     0.006 C 
BRANCH   5   6
ATOM      6  C   UNL     1      47.628  50.406   2.704  1.00  0.00     0.053 C 
BRANCH   6   7
ATOM      7  C   UNL     1      47.959  51.328   3.836  1.00  0.00     0.041 C 
ATOM      8  O   UNL     1      47.461  51.136   4.977  1.00  0.00    -0.550 OA
ATOM      9  O   UNL     1      48.791  52.421   3.624  1.00  0.00    -0.550 OA
ENDBRANCH   6   7
ENDBRANCH   5   6
ENDBRANCH   4   5
ENDBRANCH   3   4
ENDBRANCH   2   3
ENDBRANCH   1   2
BRANCH   1  10
ATOM     10  C   UNL     1      50.652  50.053   5.901  1.00  0.00     0.000 C 
BRANCH  10  11
ATOM     11  C   UNL     1      50.671  51.245   6.872  1.00  0.00    -0.000 C 
BRANCH  11  12
ATOM     12  C   UNL     1      51.187  52.537   6.213  1.00  0.00    -0.000 C 
BRANCH  12  13
ATOM     13  C   UNL     1      52.405  53.124   6.943  1.00  0.00    -0.000 C 
BRANCH  13  14
ATOM     14  C   UNL     1      53.454  52.054   7.295  1.00  0.00    -0.000 C 
BRANCH  14  15
ATOM     15  C   UNL     1      54.789  52.260   6.557  1.00  0.00    -0.000 C 
BRANCH  15  16
ATOM     16  C   UNL     1      54.666  52.440   5.032  1.00  0.00    -0.003 C 
ATOM     17  C   UNL     1      55.162  51.227   4.244  1.00  0.00     0.004 C 
ENDBRANCH  15  16
ENDBRANCH  14  15
ENDBRANCH  13  14
ENDBRANCH  12  13
ENDBRANCH  11  12
ENDBRANCH  10  11
ENDBRANCH   1  10
TORSDOF 13
ENDMDL
