MODEL 1
REMARK VINA RESULT:    -4.104      0.000      0.000
REMARK INTER + INTRA:          -7.141
REMARK INTER:                  -6.263
REMARK INTRA:                  -0.877
REMARK UNBOUND:                -0.877
REMARK SMILES O=C([O-])CCCCCCCCC(=O)[O-]
REMARK SMILES IDX 7 1 6 2 5 3 4 4 2 5 1 6 3 7 8 8 9 9 10 10 11 11 12 12 13 13
REMARK SMILES IDX 14 14
REMARK H PARENT
REMARK Flexibility Score: inf
ROOT
ATOM      1  C   UNL     1       1.539   4.510  29.028  1.00  0.00     0.000 C 
ENDROOT
BRANCH   1   2
ATOM      2  C   UNL     1       1.910   3.418  28.011  1.00  0.00     0.000 C 
BRANCH   2   3
ATOM      3  C   UNL     1       3.395   3.461  27.607  1.00  0.00     0.006 C 
BRANCH   3   4
ATOM      4  C   UNL     1       3.876   4.830  27.098  1.00  0.00     0.053 C 
BRANCH   4   5
ATOM      5  C   UNL     1       3.514   5.054  25.663  1.00  0.00     0.041 C 
ATOM      6  O   UNL     1       4.249   4.603  24.745  1.00  0.00    -0.550 OA
ATOM      7  O   UNL     1       2.379   5.788  25.337  1.00  0.00    -0.550 OA
ENDBRANCH   4   5
ENDBRANCH   3   4
ENDBRANCH   2   3
ENDBRANCH   1   2
BRANCH   1   8
ATOM      8  C   UNL     1       1.972   4.155  30.460  1.00  0.00     0.000 C 
BRANCH   8   9
ATOM      9  C   UNL     1       2.501   5.368  31.240  1.00  0.00     0.000 C 
BRANCH   9  10
ATOM     10  C   UNL     1       3.773   5.924  30.589  1.00  0.00     0.006 C 
BRANCH  10  11
ATOM     11  C   UNL     1       4.939   4.941  30.733  1.00  0.00     0.053 C 
BRANCH  11  12
ATOM     12  C   UNL     1       6.241   5.677  30.789  1.00  0.00     0.041 C 
ATOM     13  O   UNL     1       7.327   5.040  30.819  1.00  0.00    -0.550 OA
ATOM     14  O   UNL     1       6.258   7.065  30.757  1.00  0.00    -0.550 OA
ENDBRANCH  11  12
ENDBRANCH  10  11
ENDBRANCH   9  10
ENDBRANCH   8   9
ENDBRANCH   1   8
TORSDOF 9
ENDMDL
MODEL 2
REMARK VINA RESULT:    -4.075      2.760      3.713
REMARK INTER + INTRA:          -7.096
REMARK INTER:                  -6.396
REMARK INTRA:                  -0.700
REMARK UNBOUND:                -0.877
REMARK SMILES O=C([O-])CCCCCCCCC(=O)[O-]
REMARK SMILES IDX 7 1 6 2 5 3 4 4 2 5 1 6 3 7 8 8 9 9 10 10 11 11 12 12 13 13
REMARK SMILES IDX 14 14
REMARK H PARENT
REMARK Flexibility Score: inf
ROOT
ATOM      1  C   UNL     1       4.064   5.455  28.963  1.00  0.00     0.000 C 
ENDROOT
BRANCH   1   2
ATOM      2  C   UNL     1       4.642   4.070  28.628  1.00  0.00     0.000 C 
BRANCH   2   3
ATOM      3  C   UNL     1       3.840   3.340  27.534  1.00  0.00     0.006 C 
BRANCH   3   4
ATOM      4  C   UNL     1       2.320   3.326  27.764  1.00  0.00     0.053 C 
BRANCH   4   5
ATOM      5  C   UNL     1       1.564   3.732  26.537  1.00  0.00     0.041 C 
ATOM      6  O   UNL     1       2.087   4.512  25.698  1.00  0.00    -0.550 OA
ATOM      7  O   UNL     1       0.267   3.273  26.335  1.00  0.00    -0.550 OA
ENDBRANCH   4   5
ENDBRANCH   3   4
ENDBRANCH   2   3
ENDBRANCH   1   2
BRANCH   1   8
ATOM      8  C   UNL     1       3.909   5.679  30.477  1.00  0.00     0.000 C 
BRANCH   8   9
ATOM      9  C   UNL     1       3.108   4.563  31.164  1.00  0.00     0.000 C 
BRANCH   9  10
ATOM     10  C   UNL     1       1.610   4.889  31.173  1.00  0.00     0.006 C 
BRANCH  10  11
ATOM     11  C   UNL     1       1.257   5.823  32.334  1.00  0.00     0.053 C 
BRANCH  11  12
ATOM     12  C   UNL     1       0.868   7.174  31.822  1.00  0.00     0.041 C 
ATOM     13  O   UNL     1       0.046   7.279  30.874  1.00  0.00    -0.550 OA
ATOM     14  O   UNL     1       1.374   8.319  32.423  1.00  0.00    -0.550 OA
ENDBRANCH  11  12
ENDBRANCH  10  11
ENDBRANCH   9  10
ENDBRANCH   8   9
ENDBRANCH   1   8
TORSDOF 9
ENDMDL
MODEL 3
REMARK VINA RESULT:    -4.065      2.404      4.271
REMARK INTER + INTRA:          -7.082
REMARK INTER:                  -6.179
REMARK INTRA:                  -0.903
REMARK UNBOUND:                -0.877
REMARK SMILES O=C([O-])CCCCCCCCC(=O)[O-]
REMARK SMILES IDX 7 1 6 2 5 3 4 4 2 5 1 6 3 7 8 8 9 9 10 10 11 11 12 12 13 13
REMARK SMILES IDX 14 14
REMARK H PARENT
REMARK Flexibility Score: inf
ROOT
ATOM      1  C   UNL     1       1.499   4.989  31.645  1.00  0.00     0.000 C 
ENDROOT
BRANCH   1   2
ATOM      2  C   UNL     1       1.249   6.435  31.185  1.00  0.00     0.000 C 
BRANCH   2   3
ATOM      3  C   UNL     1       0.769   6.520  29.725  1.00  0.00     0.006 C 
BRANCH   3   4
ATOM      4  C   UNL     1      -0.697   6.106  29.513  1.00  0.00     0.053 C 
BRANCH   4   5
ATOM      5  C   UNL     1      -0.816   4.896  28.640  1.00  0.00     0.041 C 
ATOM      6  O   UNL     1       0.207   4.399  28.100  1.00  0.00    -0.550 OA
ATOM      7  O   UNL     1      -2.064   4.334  28.395  1.00  0.00    -0.550 OA
ENDBRANCH   4   5
ENDBRANCH   3   4
ENDBRANCH   2   3
ENDBRANCH   1   2
BRANCH   1   8
ATOM      8  C   UNL     1       2.534   4.261  30.771  1.00  0.00     0.000 C 
BRANCH   8   9
ATOM      9  C   UNL     1       3.937   4.880  30.873  1.00  0.00     0.000 C 
BRANCH   9  10
ATOM     10  C   UNL     1       4.707   4.712  29.558  1.00  0.00     0.006 C 
BRANCH  10  11
ATOM     11  C   UNL     1       3.808   4.128  28.465  1.00  0.00     0.053 C 
BRANCH  11  12
ATOM     12  C   UNL     1       3.811   5.010  27.257  1.00  0.00     0.041 C 
ATOM     13  O   UNL     1       3.843   6.262  27.387  1.00  0.00    -0.550 OA
ATOM     14  O   UNL     1       3.828   4.450  25.986  1.00  0.00    -0.550 OA
ENDBRANCH  11  12
ENDBRANCH  10  11
ENDBRANCH   9  10
ENDBRANCH   8   9
ENDBRANCH   1   8
TORSDOF 9
ENDMDL
MODEL 4
REMARK VINA RESULT:    -4.034      2.964      5.752
REMARK INTER + INTRA:          -7.034
REMARK INTER:                  -6.287
REMARK INTRA:                  -0.747
REMARK UNBOUND:                -0.877
REMARK SMILES O=C([O-])CCCCCCCCC(=O)[O-]
REMARK SMILES IDX 7 1 6 2 5 3 4 4 2 5 1 6 3 7 8 8 9 9 10 10 11 11 12 12 13 13
REMARK SMILES IDX 14 14
REMARK H PARENT
REMARK Flexibility Score: inf
ROOT
ATOM      1  C   UNL     1       3.675   4.784  30.892  1.00  0.00     0.000 C 
ENDROOT
BRANCH   1   2
ATOM      2  C   UNL     1       2.222   4.302  31.037  1.00  0.00     0.000 C 
BRANCH   2   3
ATOM      3  C   UNL     1       1.335   5.304  31.799  1.00  0.00     0.006 C 
BRANCH   3   4
ATOM      4  C   UNL     1       0.793   6.456  30.938  1.00  0.00     0.053 C 
BRANCH   4   5
ATOM      5  C   UNL     1       0.889   7.774  31.641  1.00  0.00     0.041 C 
ATOM      6  O   UNL     1       1.632   7.903  32.649  1.00  0.00    -0.550 OA
ATOM      7  O   UNL     1       0.133   8.854  31.201  1.00  0.00    -0.550 OA
ENDBRANCH   4   5
ENDBRANCH   3   4
ENDBRANCH   2   3
ENDBRANCH   1   2
BRANCH   1   8
ATOM      8  C   UNL     1       4.027   5.174  29.447  1.00  0.00     0.000 C 
BRANCH   8   9
ATOM      9  C   UNL     1       4.681   4.026  28.664  1.00  0.00     0.000 C 
BRANCH   9  10
ATOM     10  C   UNL     1       3.705   3.435  27.640  1.00  0.00     0.006 C 
BRANCH  10  11
ATOM     11  C   UNL     1       2.588   4.428  27.308  1.00  0.00     0.053 C 
BRANCH  11  12
ATOM     12  C   UNL     1       1.253   3.755  27.364  1.00  0.00     0.041 C 
ATOM     13  O   UNL     1       0.328   4.240  28.068  1.00  0.00    -0.550 OA
ATOM     14  O   UNL     1       1.014   2.619  26.602  1.00  0.00    -0.550 OA
ENDBRANCH  11  12
ENDBRANCH  10  11
ENDBRANCH   9  10
ENDBRANCH   8   9
ENDBRANCH   1   8
TORSDOF 9
ENDMDL
MODEL 5
REMARK VINA RESULT:    -4.027      3.110      5.889
REMARK INTER + INTRA:          -7.023
REMARK INTER:                  -6.402
REMARK INTRA:                  -0.621
REMARK UNBOUND:                -0.877
REMARK SMILES O=C([O-])CCCCCCCCC(=O)[O-]
REMARK SMILES IDX 7 1 6 2 5 3 4 4 2 5 1 6 3 7 8 8 9 9 10 10 11 11 12 12 13 13
REMARK SMILES IDX 14 14
REMARK H PARENT
REMARK Flexibility Score: inf
ROOT
ATOM      1  C   UNL     1       1.435   5.495  31.759  1.00  0.00     0.000 C 
ENDROOT
BRANCH   1   2
ATOM      2  C   UNL     1       2.219   4.419  30.989  1.00  0.00     0.000 C 
BRANCH   2   3
ATOM      3  C   UNL     1       3.721   4.738  30.884  1.00  0.00     0.006 C 
BRANCH   3   4
ATOM      4  C   UNL     1       4.112   5.558  29.643  1.00  0.00     0.053 C 
BRANCH   4   5
ATOM      5  C   UNL     1       3.997   4.757  28.383  1.00  0.00     0.041 C 
ATOM      6  O   UNL     1       3.260   5.156  27.443  1.00  0.00    -0.550 OA
ATOM      7  O   UNL     1       4.678   3.553  28.259  1.00  0.00    -0.550 OA
ENDBRANCH   4   5
ENDBRANCH   3   4
ENDBRANCH   2   3
ENDBRANCH   1   2
BRANCH   1   8
ATOM      8  C   UNL     1       0.457   6.271  30.860  1.00  0.00     0.000 C 
BRANCH   8   9
ATOM      9  C   UNL     1       0.191   5.563  29.522  1.00  0.00     0.000 C 
BRANCH   9  10
ATOM     10  C   UNL     1      -1.259   5.771  29.071  1.00  0.00     0.006 C 
BRANCH  10  11
ATOM     11  C   UNL     1      -1.800   4.523  28.367  1.00  0.00     0.053 C 
BRANCH  11  12
ATOM     12  C   UNL     1      -2.528   4.901  27.116  1.00  0.00     0.041 C 
ATOM     13  O   UNL     1      -3.748   4.616  26.982  1.00  0.00    -0.550 OA
ATOM     14  O   UNL     1      -1.875   5.614  26.119  1.00  0.00    -0.550 OA
ENDBRANCH  11  12
ENDBRANCH  10  11
ENDBRANCH   9  10
ENDBRANCH   8   9
ENDBRANCH   1   8
TORSDOF 9
ENDMDL
MODEL 6
REMARK VINA RESULT:    -4.014      2.750      5.503
REMARK INTER + INTRA:          -7.003
REMARK INTER:                  -6.393
REMARK INTRA:                  -0.610
REMARK UNBOUND:                -0.877
REMARK SMILES O=C([O-])CCCCCCCCC(=O)[O-]
REMARK SMILES IDX 7 1 6 2 5 3 4 4 2 5 1 6 3 7 8 8 9 9 10 10 11 11 12 12 13 13
REMARK SMILES IDX 14 14
REMARK H PARENT
REMARK Flexibility Score: inf
ROOT
ATOM      1  C   UNL     1       1.646   4.409  29.018  1.00  0.00     0.000 C 
ENDROOT
BRANCH   1   2
ATOM      2  C   UNL     1       1.984   4.010  30.465  1.00  0.00     0.000 C 
BRANCH   2   3
ATOM      3  C   UNL     1       2.371   5.217  31.339  1.00  0.00     0.006 C 
BRANCH   3   4
ATOM      4  C   UNL     1       1.228   5.762  32.212  1.00  0.00     0.053 C 
BRANCH   4   5
ATOM      5  C   UNL     1       0.952   7.207  31.937  1.00  0.00     0.041 C 
ATOM      6  O   UNL     1       1.631   8.102  32.505  1.00  0.00    -0.550 OA
ATOM      7  O   UNL     1      -0.076   7.567  31.075  1.00  0.00    -0.550 OA
ENDBRANCH   4   5
ENDBRANCH   3   4
ENDBRANCH   2   3
ENDBRANCH   1   2
BRANCH   1   8
ATOM      8  C   UNL     1       2.139   3.376  27.991  1.00  0.00     0.000 C 
BRANCH   8   9
ATOM      9  C   UNL     1       3.641   3.505  27.693  1.00  0.00     0.000 C 
BRANCH   9  10
ATOM     10  C   UNL     1       4.026   4.968  27.444  1.00  0.00     0.006 C 
BRANCH  10  11
ATOM     11  C   UNL     1       3.707   5.384  26.005  1.00  0.00     0.053 C 
BRANCH  11  12
ATOM     12  C   UNL     1       2.635   6.426  25.986  1.00  0.00     0.041 C 
ATOM     13  O   UNL     1       2.615   7.331  26.861  1.00  0.00    -0.550 OA
ATOM     14  O   UNL     1       1.685   6.428  24.973  1.00  0.00    -0.550 OA
ENDBRANCH  11  12
ENDBRANCH  10  11
ENDBRANCH   9  10
ENDBRANCH   8   9
ENDBRANCH   1   8
TORSDOF 9
ENDMDL
MODEL 7
REMARK VINA RESULT:    -3.969      1.053      5.141
REMARK INTER + INTRA:          -6.934
REMARK INTER:                  -6.061
REMARK INTRA:                  -0.873
REMARK UNBOUND:                -0.877
REMARK SMILES O=C([O-])CCCCCCCCC(=O)[O-]
REMARK SMILES IDX 7 1 6 2 5 3 4 4 2 5 1 6 3 7 8 8 9 9 10 10 11 11 12 12 13 13
REMARK SMILES IDX 14 14
REMARK H PARENT
REMARK Flexibility Score: inf
ROOT
ATOM      1  C   UNL     1       1.820   4.512  28.941  1.00  0.00     0.000 C 
ENDROOT
BRANCH   1   2
ATOM      2  C   UNL     1       2.068   4.111  30.405  1.00  0.00     0.000 C 
BRANCH   2   3
ATOM      3  C   UNL     1       3.070   5.041  31.114  1.00  0.00     0.006 C 
BRANCH   3   4
ATOM      4  C   UNL     1       4.525   4.886  30.644  1.00  0.00     0.053 C 
BRANCH   4   5
ATOM      5  C   UNL     1       5.146   6.202  30.296  1.00  0.00     0.041 C 
ATOM      6  O   UNL     1       4.495   7.057  29.639  1.00  0.00    -0.550 OA
ATOM      7  O   UNL     1       6.456   6.475  30.670  1.00  0.00    -0.550 OA
ENDBRANCH   4   5
ENDBRANCH   3   4
ENDBRANCH   2   3
ENDBRANCH   1   2
BRANCH   1   8
ATOM      8  C   UNL     1       2.077   3.355  27.960  1.00  0.00     0.000 C 
BRANCH   8   9
ATOM      9  C   UNL     1       3.499   3.374  27.380  1.00  0.00     0.000 C 
BRANCH   9  10
ATOM     10  C   UNL     1       3.909   4.796  26.979  1.00  0.00     0.006 C 
BRANCH  10  11
ATOM     11  C   UNL     1       3.793   4.996  25.465  1.00  0.00     0.053 C 
BRANCH  11  12
ATOM     12  C   UNL     1       2.445   5.538  25.109  1.00  0.00     0.041 C 
ATOM     13  O   UNL     1       1.655   4.858  24.403  1.00  0.00    -0.550 OA
ATOM     14  O   UNL     1       2.040   6.773  25.598  1.00  0.00    -0.550 OA
ENDBRANCH  11  12
ENDBRANCH  10  11
ENDBRANCH   9  10
ENDBRANCH   8   9
ENDBRANCH   1   8
TORSDOF 9
ENDMDL
MODEL 8
REMARK VINA RESULT:    -3.964      2.369      3.201
REMARK INTER + INTRA:          -6.926
REMARK INTER:                  -6.229
REMARK INTRA:                  -0.698
REMARK UNBOUND:                -0.877
REMARK SMILES O=C([O-])CCCCCCCCC(=O)[O-]
REMARK SMILES IDX 7 1 6 2 5 3 4 4 2 5 1 6 3 7 8 8 9 9 10 10 11 11 12 12 13 13
REMARK SMILES IDX 14 14
REMARK H PARENT
REMARK Flexibility Score: inf
ROOT
ATOM      1  C   UNL     1       4.001   5.173  29.750  1.00  0.00     0.000 C 
ENDROOT
BRANCH   1   2
ATOM      2  C   UNL     1       4.761   4.183  28.852  1.00  0.00     0.000 C 
BRANCH   2   3
ATOM      3  C   UNL     1       3.854   3.515  27.802  1.00  0.00     0.006 C 
BRANCH   3   4
ATOM      4  C   UNL     1       3.028   4.500  26.958  1.00  0.00     0.053 C 
BRANCH   4   5
ATOM      5  C   UNL     1       3.861   5.185  25.920  1.00  0.00     0.041 C 
ATOM      6  O   UNL     1       4.246   4.557  24.899  1.00  0.00    -0.550 OA
ATOM      7  O   UNL     1       4.240   6.510  26.096  1.00  0.00    -0.550 OA
ENDBRANCH   4   5
ENDBRANCH   3   4
ENDBRANCH   2   3
ENDBRANCH   1   2
BRANCH   1   8
ATOM      8  C   UNL     1       3.426   4.506  31.011  1.00  0.00     0.000 C 
BRANCH   8   9
ATOM      9  C   UNL     1       1.890   4.495  31.029  1.00  0.00     0.000 C 
BRANCH   9  10
ATOM     10  C   UNL     1       1.347   5.536  32.016  1.00  0.00     0.006 C 
BRANCH  10  11
ATOM     11  C   UNL     1       0.660   6.688  31.278  1.00  0.00     0.053 C 
BRANCH  11  12
ATOM     12  C   UNL     1       1.601   7.838  31.108  1.00  0.00     0.041 C 
ATOM     13  O   UNL     1       2.025   8.464  32.116  1.00  0.00    -0.550 OA
ATOM     14  O   UNL     1       2.050   8.189  29.842  1.00  0.00    -0.550 OA
ENDBRANCH  11  12
ENDBRANCH  10  11
ENDBRANCH   9  10
ENDBRANCH   8   9
ENDBRANCH   1   8
TORSDOF 9
ENDMDL
MODEL 9
REMARK VINA RESULT:    -3.927      2.979      4.030
REMARK INTER + INTRA:          -6.871
REMARK INTER:                  -6.015
REMARK INTRA:                  -0.856
REMARK UNBOUND:                -0.877
REMARK SMILES O=C([O-])CCCCCCCCC(=O)[O-]
REMARK SMILES IDX 7 1 6 2 5 3 4 4 2 5 1 6 3 7 8 8 9 9 10 10 11 11 12 12 13 13
REMARK SMILES IDX 14 14
REMARK H PARENT
REMARK Flexibility Score: inf
ROOT
ATOM      1  C   UNL     1       0.153   7.011  30.897  1.00  0.00     0.000 C 
ENDROOT
BRANCH   1   2
ATOM      2  C   UNL     1      -0.160   7.072  29.392  1.00  0.00     0.000 C 
BRANCH   2   3
ATOM      3  C   UNL     1      -1.361   6.194  28.998  1.00  0.00     0.006 C 
BRANCH   3   4
ATOM      4  C   UNL     1      -0.982   4.812  28.439  1.00  0.00     0.053 C 
BRANCH   4   5
ATOM      5  C   UNL     1      -1.725   4.494  27.180  1.00  0.00     0.041 C 
ATOM      6  O   UNL     1      -1.097   4.202  26.128  1.00  0.00    -0.550 OA
ATOM      7  O   UNL     1      -3.114   4.550  27.158  1.00  0.00    -0.550 OA
ENDBRANCH   4   5
ENDBRANCH   3   4
ENDBRANCH   2   3
ENDBRANCH   1   2
BRANCH   1   8
ATOM      8  C   UNL     1       1.580   6.513  31.183  1.00  0.00     0.000 C 
BRANCH   8   9
ATOM      9  C   UNL     1       1.617   5.047  31.640  1.00  0.00     0.000 C 
BRANCH   9  10
ATOM     10  C   UNL     1       2.071   4.129  30.499  1.00  0.00     0.006 C 
BRANCH  10  11
ATOM     11  C   UNL     1       2.915   4.896  29.477  1.00  0.00     0.053 C 
BRANCH  11  12
ATOM     12  C   UNL     1       4.358   4.521  29.602  1.00  0.00     0.041 C 
ATOM     13  O   UNL     1       4.930   3.888  28.675  1.00  0.00    -0.550 OA
ATOM     14  O   UNL     1       5.085   4.913  30.718  1.00  0.00    -0.550 OA
ENDBRANCH  11  12
ENDBRANCH  10  11
ENDBRANCH   9  10
ENDBRANCH   8   9
ENDBRANCH   1   8
TORSDOF 9
ENDMDL
