MODEL 1
REMARK VINA RESULT:    -7.430      0.000      0.000
REMARK INTER + INTRA:         -12.430
REMARK INTER:                 -10.905
REMARK INTRA:                  -1.525
REMARK UNBOUND:                -1.525
REMARK SMILES O=c1c(O[C@@H]2O[C@H](CO)[C@H](O)[C@H](O)[C@H]2O)c(-c2ccc(O)c(O)c2)oc2cc(O)cc(O)c12
REMARK SMILES IDX 4 1 3 2 16 3 25 4 2 5 26 6 1 7 33 8 27 9 31 10 28 11 30 12
REMARK SMILES IDX 17 13 18 14 19 15 20 16 24 17 22 18 21 19 23 21 32 23 29 25
REMARK SMILES IDX 5 27 14 28 6 29 12 30 7 31 10 32 15 33 13 35 8 37 9 38 11 40
REMARK H PARENT 21 20 23 22 32 24 29 26 15 34 13 36 9 39 11 41
REMARK Flexibility Score: inf
ROOT
ATOM      1  O   UNL     1      16.676 -28.066 -18.905  1.00  0.00    -0.454 OA
ENDROOT
BRANCH   1   2
ATOM      2  C   UNL     1      17.047 -29.140 -19.730  1.00  0.00     0.214 A 
ATOM      3  C   UNL     1      16.466 -30.393 -19.528  1.00  0.00     0.180 A 
ATOM      4  O   UNL     1      16.986 -31.478 -20.110  1.00  0.00    -0.452 OA
ATOM      5  C   UNL     1      17.886 -29.010 -20.886  1.00  0.00     0.239 A 
ATOM      6  C   UNL     1      17.959 -31.426 -21.011  1.00  0.00     0.146 A 
ATOM      7  O   UNL     1      17.741 -28.031 -21.638  1.00  0.00    -0.285 OA
ATOM      8  C   UNL     1      18.466 -30.176 -21.442  1.00  0.00     0.111 A 
ATOM      9  C   UNL     1      18.361 -32.609 -21.623  1.00  0.00     0.094 A 
ATOM     10  C   UNL     1      19.397 -30.149 -22.493  1.00  0.00     0.134 A 
ATOM     11  C   UNL     1      19.317 -32.583 -22.639  1.00  0.00     0.123 A 
ATOM     12  C   UNL     1      19.870 -31.364 -23.045  1.00  0.00     0.093 A 
BRANCH   3  13
ATOM     13  C   UNL     1      15.098 -30.513 -18.846  1.00  0.00     0.025 A 
ATOM     14  C   UNL     1      14.033 -30.270 -19.759  1.00  0.00     0.016 A 
ATOM     15  C   UNL     1      13.201 -31.318 -20.170  1.00  0.00     0.051 A 
ATOM     16  C   UNL     1      13.378 -32.568 -19.562  1.00  0.00     0.157 A 
ATOM     17  C   UNL     1      14.871 -31.567 -17.885  1.00  0.00     0.062 A 
ATOM     18  C   UNL     1      13.976 -32.632 -18.284  1.00  0.00     0.158 A 
BRANCH  16  19
ATOM     19  O   UNL     1      13.054 -33.703 -20.328  1.00  0.00    -0.504 OA
ATOM     20  H   UNL     1      12.652 -33.539 -21.269  1.00  0.00     0.293 HD
ENDBRANCH  16  19
BRANCH  18  21
ATOM     21  O   UNL     1      13.590 -33.703 -17.388  1.00  0.00    -0.504 OA
ATOM     22  H   UNL     1      12.593 -33.966 -17.312  1.00  0.00     0.293 HD
ENDBRANCH  18  21
ENDBRANCH   3  13
BRANCH  10  23
ATOM     23  O   UNL     1      19.903 -28.936 -22.930  1.00  0.00    -0.507 OA
ATOM     24  H   UNL     1      19.782 -28.142 -22.291  1.00  0.00     0.293 HD
ENDBRANCH  10  23
BRANCH  11  25
ATOM     25  O   UNL     1      19.716 -33.769 -23.229  1.00  0.00    -0.508 OA
ATOM     26  H   UNL     1      20.577 -34.235 -22.944  1.00  0.00     0.293 HD
ENDBRANCH  11  25
ENDBRANCH   1   2
BRANCH   1  27
ATOM     27  C   UNL     1      16.882 -28.021 -17.467  1.00  0.00     0.339 C 
ATOM     28  C   UNL     1      18.190 -27.256 -17.019  1.00  0.00     0.214 C 
ATOM     29  O   UNL     1      15.683 -27.501 -16.880  1.00  0.00    -0.332 OA
ATOM     30  C   UNL     1      18.195 -26.644 -15.582  1.00  0.00     0.180 C 
ATOM     31  C   UNL     1      15.779 -26.298 -16.163  1.00  0.00     0.179 C 
ATOM     32  C   UNL     1      16.798 -26.429 -14.992  1.00  0.00     0.177 C 
BRANCH  28  33
ATOM     33  O   UNL     1      19.279 -28.147 -17.090  1.00  0.00    -0.384 OA
ATOM     34  H   UNL     1      20.087 -27.651 -17.443  1.00  0.00     0.211 HD
ENDBRANCH  28  33
BRANCH  30  35
ATOM     35  O   UNL     1      18.838 -25.359 -15.695  1.00  0.00    -0.387 OA
ATOM     36  H   UNL     1      19.672 -25.448 -16.263  1.00  0.00     0.211 HD
ENDBRANCH  30  35
BRANCH  31  37
ATOM     37  C   UNL     1      15.883 -25.056 -17.071  1.00  0.00     0.191 C 
BRANCH  37  38
ATOM     38  O   UNL     1      16.142 -23.889 -16.302  1.00  0.00    -0.394 OA
ATOM     39  H   UNL     1      15.769 -23.065 -16.755  1.00  0.00     0.210 HD
ENDBRANCH  37  38
ENDBRANCH  31  37
BRANCH  32  40
ATOM     40  O   UNL     1      16.726 -25.311 -14.102  1.00  0.00    -0.387 OA
ATOM     41  H   UNL     1      16.193 -24.606 -14.568  1.00  0.00     0.211 HD
ENDBRANCH  32  40
ENDBRANCH   1  27
TORSDOF 12
ENDMDL
MODEL 2
REMARK VINA RESULT:    -7.345      1.898      3.094
REMARK INTER + INTRA:         -12.306
REMARK INTER:                 -10.619
REMARK INTRA:                  -1.687
REMARK UNBOUND:                -1.525
REMARK SMILES O=c1c(O[C@@H]2O[C@H](CO)[C@H](O)[C@H](O)[C@H]2O)c(-c2ccc(O)c(O)c2)oc2cc(O)cc(O)c12
REMARK SMILES IDX 4 1 3 2 16 3 25 4 2 5 26 6 1 7 33 8 27 9 31 10 28 11 30 12
REMARK SMILES IDX 17 13 18 14 19 15 20 16 24 17 22 18 21 19 23 21 32 23 29 25
REMARK SMILES IDX 5 27 14 28 6 29 12 30 7 31 10 32 15 33 13 35 8 37 9 38 11 40
REMARK H PARENT 21 20 23 22 32 24 29 26 15 34 13 36 9 39 11 41
REMARK Flexibility Score: inf
ROOT
ATOM      1  O   UNL     1      15.498 -26.735 -17.581  1.00  0.00    -0.454 OA
ENDROOT
BRANCH   1   2
ATOM      2  C   UNL     1      16.136 -27.561 -18.520  1.00  0.00     0.214 A 
ATOM      3  C   UNL     1      16.329 -28.913 -18.227  1.00  0.00     0.180 A 
ATOM      4  O   UNL     1      17.156 -29.651 -18.972  1.00  0.00    -0.452 OA
ATOM      5  C   UNL     1      16.480 -27.147 -19.850  1.00  0.00     0.239 A 
ATOM      6  C   UNL     1      17.714 -29.215 -20.094  1.00  0.00     0.146 A 
ATOM      7  O   UNL     1      15.685 -26.442 -20.494  1.00  0.00    -0.285 OA
ATOM      8  C   UNL     1      17.404 -27.924 -20.589  1.00  0.00     0.111 A 
ATOM      9  C   UNL     1      18.485 -30.099 -20.841  1.00  0.00     0.094 A 
ATOM     10  C   UNL     1      17.902 -27.544 -21.846  1.00  0.00     0.134 A 
ATOM     11  C   UNL     1      19.013 -29.704 -22.071  1.00  0.00     0.123 A 
ATOM     12  C   UNL     1      18.763 -28.415 -22.554  1.00  0.00     0.093 A 
BRANCH   3  13
ATOM     13  C   UNL     1      15.423 -29.624 -17.215  1.00  0.00     0.025 A 
ATOM     14  C   UNL     1      14.351 -30.306 -17.859  1.00  0.00     0.016 A 
ATOM     15  C   UNL     1      14.324 -31.705 -17.894  1.00  0.00     0.051 A 
ATOM     16  C   UNL     1      15.310 -32.395 -17.177  1.00  0.00     0.157 A 
ATOM     17  C   UNL     1      16.013 -30.306 -16.087  1.00  0.00     0.062 A 
ATOM     18  C   UNL     1      15.948 -31.752 -16.092  1.00  0.00     0.158 A 
BRANCH  16  19
ATOM     19  O   UNL     1      15.692 -33.658 -17.666  1.00  0.00    -0.504 OA
ATOM     20  H   UNL     1      15.053 -34.452 -17.473  1.00  0.00     0.293 HD
ENDBRANCH  16  19
BRANCH  18  21
ATOM     21  O   UNL     1      16.420 -32.557 -14.985  1.00  0.00    -0.504 OA
ATOM     22  H   UNL     1      15.958 -32.471 -14.063  1.00  0.00     0.293 HD
ENDBRANCH  18  21
ENDBRANCH   3  13
BRANCH  10  23
ATOM     23  O   UNL     1      17.608 -26.286 -22.347  1.00  0.00    -0.507 OA
ATOM     24  H   UNL     1      16.701 -25.892 -22.073  1.00  0.00     0.293 HD
ENDBRANCH  10  23
BRANCH  11  25
ATOM     25  O   UNL     1      19.788 -30.590 -22.796  1.00  0.00    -0.508 OA
ATOM     26  H   UNL     1      20.571 -31.080 -22.364  1.00  0.00     0.293 HD
ENDBRANCH  11  25
ENDBRANCH   1   2
BRANCH   1  27
ATOM     27  C   UNL     1      16.002 -25.445 -17.141  1.00  0.00     0.339 C 
ATOM     28  C   UNL     1      15.443 -24.969 -15.742  1.00  0.00     0.214 C 
ATOM     29  O   UNL     1      17.432 -25.504 -17.197  1.00  0.00    -0.332 OA
ATOM     30  C   UNL     1      16.324 -23.966 -14.931  1.00  0.00     0.180 C 
ATOM     31  C   UNL     1      18.138 -25.333 -15.995  1.00  0.00     0.179 C 
ATOM     32  C   UNL     1      17.798 -23.960 -15.343  1.00  0.00     0.177 C 
BRANCH  28  33
ATOM     33  O   UNL     1      14.194 -24.348 -15.945  1.00  0.00    -0.384 OA
ATOM     34  H   UNL     1      14.291 -23.354 -15.781  1.00  0.00     0.211 HD
ENDBRANCH  28  33
BRANCH  30  35
ATOM     35  O   UNL     1      16.243 -24.382 -13.554  1.00  0.00    -0.387 OA
ATOM     36  H   UNL     1      15.940 -25.349 -13.511  1.00  0.00     0.211 HD
ENDBRANCH  30  35
BRANCH  31  37
ATOM     37  C   UNL     1      18.114 -26.584 -15.094  1.00  0.00     0.191 C 
BRANCH  37  38
ATOM     38  O   UNL     1      18.720 -26.312 -13.838  1.00  0.00    -0.394 OA
ATOM     39  H   UNL     1      19.475 -26.959 -13.650  1.00  0.00     0.210 HD
ENDBRANCH  37  38
ENDBRANCH  31  37
BRANCH  32  40
ATOM     40  O   UNL     1      18.686 -23.656 -14.262  1.00  0.00    -0.387 OA
ATOM     41  H   UNL     1      18.186 -23.839 -13.417  1.00  0.00     0.211 HD
ENDBRANCH  32  40
ENDBRANCH   1  27
TORSDOF 12
ENDMDL
MODEL 3
REMARK VINA RESULT:    -7.287      2.296      7.791
REMARK INTER + INTRA:         -12.221
REMARK INTER:                 -10.534
REMARK INTRA:                  -1.687
REMARK UNBOUND:                -1.525
REMARK SMILES O=c1c(O[C@@H]2O[C@H](CO)[C@H](O)[C@H](O)[C@H]2O)c(-c2ccc(O)c(O)c2)oc2cc(O)cc(O)c12
REMARK SMILES IDX 4 1 3 2 16 3 25 4 2 5 26 6 1 7 33 8 27 9 31 10 28 11 30 12
REMARK SMILES IDX 17 13 18 14 19 15 20 16 24 17 22 18 21 19 23 21 32 23 29 25
REMARK SMILES IDX 5 27 14 28 6 29 12 30 7 31 10 32 15 33 13 35 8 37 9 38 11 40
REMARK H PARENT 21 20 23 22 32 24 29 26 15 34 13 36 9 39 11 41
REMARK Flexibility Score: inf
ROOT
ATOM      1  O   UNL     1      13.427 -31.770 -18.173  1.00  0.00    -0.454 OA
ENDROOT
BRANCH   1   2
ATOM      2  C   UNL     1      14.354 -30.761 -17.868  1.00  0.00     0.214 A 
ATOM      3  C   UNL     1      15.522 -30.649 -18.626  1.00  0.00     0.180 A 
ATOM      4  O   UNL     1      16.530 -29.884 -18.199  1.00  0.00    -0.452 OA
ATOM      5  C   UNL     1      14.121 -29.720 -16.909  1.00  0.00     0.239 A 
ATOM      6  C   UNL     1      16.444 -29.084 -17.144  1.00  0.00     0.146 A 
ATOM      7  O   UNL     1      12.999 -29.188 -16.848  1.00  0.00    -0.285 OA
ATOM      8  C   UNL     1      15.222 -28.968 -16.436  1.00  0.00     0.111 A 
ATOM      9  C   UNL     1      17.525 -28.262 -16.843  1.00  0.00     0.094 A 
ATOM     10  C   UNL     1      15.123 -28.013 -15.411  1.00  0.00     0.134 A 
ATOM     11  C   UNL     1      17.437 -27.343 -15.796  1.00  0.00     0.123 A 
ATOM     12  C   UNL     1      16.258 -27.248 -15.050  1.00  0.00     0.093 A 
BRANCH   3  13
ATOM     13  C   UNL     1      15.571 -31.193 -20.058  1.00  0.00     0.025 A 
ATOM     14  C   UNL     1      15.921 -30.179 -20.994  1.00  0.00     0.016 A 
ATOM     15  C   UNL     1      17.169 -30.203 -21.629  1.00  0.00     0.051 A 
ATOM     16  C   UNL     1      17.994 -31.312 -21.403  1.00  0.00     0.157 A 
ATOM     17  C   UNL     1      16.141 -32.497 -20.305  1.00  0.00     0.062 A 
ATOM     18  C   UNL     1      17.409 -32.534 -21.002  1.00  0.00     0.158 A 
BRANCH  16  19
ATOM     19  O   UNL     1      19.383 -31.102 -21.475  1.00  0.00    -0.504 OA
ATOM     20  H   UNL     1      19.842 -31.286 -22.387  1.00  0.00     0.293 HD
ENDBRANCH  16  19
BRANCH  18  21
ATOM     21  O   UNL     1      18.048 -33.774 -21.393  1.00  0.00    -0.504 OA
ATOM     22  H   UNL     1      17.919 -34.129 -22.356  1.00  0.00     0.293 HD
ENDBRANCH  18  21
ENDBRANCH   3  13
BRANCH  10  23
ATOM     23  O   UNL     1      13.936 -27.883 -14.708  1.00  0.00    -0.507 OA
ATOM     24  H   UNL     1      13.082 -27.826 -15.274  1.00  0.00     0.293 HD
ENDBRANCH  10  23
BRANCH  11  25
ATOM     25  O   UNL     1      18.524 -26.541 -15.501  1.00  0.00    -0.508 OA
ATOM     26  H   UNL     1      18.432 -25.736 -14.882  1.00  0.00     0.293 HD
ENDBRANCH  11  25
ENDBRANCH   1   2
BRANCH   1  27
ATOM     27  C   UNL     1      13.441 -33.105 -17.598  1.00  0.00     0.339 C 
ATOM     28  C   UNL     1      12.392 -33.326 -16.438  1.00  0.00     0.214 C 
ATOM     29  O   UNL     1      13.307 -34.036 -18.678  1.00  0.00    -0.332 OA
ATOM     30  C   UNL     1      11.915 -34.792 -16.185  1.00  0.00     0.180 C 
ATOM     31  C   UNL     1      12.182 -34.875 -18.678  1.00  0.00     0.179 C 
ATOM     32  C   UNL     1      12.127 -35.729 -17.376  1.00  0.00     0.177 C 
BRANCH  28  33
ATOM     33  O   UNL     1      12.952 -32.862 -15.231  1.00  0.00    -0.384 OA
ATOM     34  H   UNL     1      12.764 -31.871 -15.142  1.00  0.00     0.211 HD
ENDBRANCH  28  33
BRANCH  30  35
ATOM     35  O   UNL     1      10.500 -34.713 -15.920  1.00  0.00    -0.387 OA
ATOM     36  H   UNL     1       9.987 -35.031 -16.735  1.00  0.00     0.211 HD
ENDBRANCH  30  35
BRANCH  31  37
ATOM     37  C   UNL     1      10.891 -34.160 -19.123  1.00  0.00     0.191 C 
BRANCH  37  38
ATOM     38  O   UNL     1       9.746 -34.937 -18.798  1.00  0.00    -0.394 OA
ATOM     39  H   UNL     1       9.831 -35.879 -19.156  1.00  0.00     0.210 HD
ENDBRANCH  37  38
ENDBRANCH  31  37
BRANCH  32  40
ATOM     40  O   UNL     1      11.142 -36.763 -17.465  1.00  0.00    -0.387 OA
ATOM     41  H   UNL     1      11.133 -37.072 -18.415  1.00  0.00     0.211 HD
ENDBRANCH  32  40
ENDBRANCH   1  27
TORSDOF 12
ENDMDL
MODEL 4
REMARK VINA RESULT:    -7.271      4.236      6.692
REMARK INTER + INTRA:         -12.197
REMARK INTER:                 -10.809
REMARK INTRA:                  -1.388
REMARK UNBOUND:                -1.525
REMARK SMILES O=c1c(O[C@@H]2O[C@H](CO)[C@H](O)[C@H](O)[C@H]2O)c(-c2ccc(O)c(O)c2)oc2cc(O)cc(O)c12
REMARK SMILES IDX 4 1 3 2 16 3 25 4 2 5 26 6 1 7 33 8 27 9 31 10 28 11 30 12
REMARK SMILES IDX 17 13 18 14 19 15 20 16 24 17 22 18 21 19 23 21 32 23 29 25
REMARK SMILES IDX 5 27 14 28 6 29 12 30 7 31 10 32 15 33 13 35 8 37 9 38 11 40
REMARK H PARENT 21 20 23 22 32 24 29 26 15 34 13 36 9 39 11 41
REMARK Flexibility Score: inf
ROOT
ATOM      1  O   UNL     1      11.608 -29.247 -18.620  1.00  0.00    -0.454 OA
ENDROOT
BRANCH   1   2
ATOM      2  C   UNL     1      12.514 -30.183 -19.143  1.00  0.00     0.214 A 
ATOM      3  C   UNL     1      12.357 -31.536 -18.838  1.00  0.00     0.180 A 
ATOM      4  O   UNL     1      13.341 -32.403 -19.096  1.00  0.00    -0.452 OA
ATOM      5  C   UNL     1      13.526 -29.865 -20.110  1.00  0.00     0.239 A 
ATOM      6  C   UNL     1      14.435 -32.083 -19.777  1.00  0.00     0.146 A 
ATOM      7  O   UNL     1      13.256 -29.087 -21.041  1.00  0.00    -0.285 OA
ATOM      8  C   UNL     1      14.584 -30.782 -20.317  1.00  0.00     0.111 A 
ATOM      9  C   UNL     1      15.352 -33.087 -20.069  1.00  0.00     0.094 A 
ATOM     10  C   UNL     1      15.687 -30.516 -21.145  1.00  0.00     0.134 A 
ATOM     11  C   UNL     1      16.469 -32.809 -20.858  1.00  0.00     0.123 A 
ATOM     12  C   UNL     1      16.664 -31.517 -21.359  1.00  0.00     0.093 A 
BRANCH   3  13
ATOM     13  C   UNL     1      10.984 -32.086 -18.437  1.00  0.00     0.025 A 
ATOM     14  C   UNL     1      10.345 -32.748 -19.523  1.00  0.00     0.016 A 
ATOM     15  C   UNL     1      10.189 -34.139 -19.512  1.00  0.00     0.051 A 
ATOM     16  C   UNL     1      10.570 -34.827 -18.353  1.00  0.00     0.157 A 
ATOM     17  C   UNL     1      10.815 -32.702 -17.141  1.00  0.00     0.062 A 
ATOM     18  C   UNL     1      10.607 -34.135 -17.122  1.00  0.00     0.158 A 
BRANCH  16  19
ATOM     19  O   UNL     1      11.012 -36.154 -18.512  1.00  0.00    -0.504 OA
ATOM     20  H   UNL     1      11.697 -36.509 -17.820  1.00  0.00     0.293 HD
ENDBRANCH  16  19
BRANCH  18  21
ATOM     21  O   UNL     1      10.335 -34.867 -15.902  1.00  0.00    -0.504 OA
ATOM     22  H   UNL     1       9.532 -35.519 -15.870  1.00  0.00     0.293 HD
ENDBRANCH  18  21
ENDBRANCH   3  13
BRANCH  10  23
ATOM     23  O   UNL     1      15.849 -29.249 -21.683  1.00  0.00    -0.507 OA
ATOM     24  H   UNL     1      15.713 -29.171 -22.698  1.00  0.00     0.293 HD
ENDBRANCH  10  23
BRANCH  11  25
ATOM     25  O   UNL     1      17.379 -33.814 -21.130  1.00  0.00    -0.508 OA
ATOM     26  H   UNL     1      17.469 -34.623 -20.516  1.00  0.00     0.293 HD
ENDBRANCH  11  25
ENDBRANCH   1   2
BRANCH   1  27
ATOM     27  C   UNL     1      10.581 -28.571 -19.394  1.00  0.00     0.339 C 
ATOM     28  C   UNL     1       9.843 -29.493 -20.444  1.00  0.00     0.214 C 
ATOM     29  O   UNL     1       9.694 -27.937 -18.465  1.00  0.00    -0.332 OA
ATOM     30  C   UNL     1       8.399 -29.071 -20.866  1.00  0.00     0.180 C 
ATOM     31  C   UNL     1       8.351 -28.344 -18.465  1.00  0.00     0.179 C 
ATOM     32  C   UNL     1       7.708 -28.136 -19.870  1.00  0.00     0.177 C 
BRANCH  28  33
ATOM     33  O   UNL     1      10.617 -29.543 -21.620  1.00  0.00    -0.384 OA
ATOM     34  H   UNL     1      10.095 -29.115 -22.375  1.00  0.00     0.211 HD
ENDBRANCH  28  33
BRANCH  30  35
ATOM     35  O   UNL     1       7.633 -30.288 -20.947  1.00  0.00    -0.387 OA
ATOM     36  H   UNL     1       6.951 -30.208 -21.693  1.00  0.00     0.211 HD
ENDBRANCH  30  35
BRANCH  31  37
ATOM     37  C   UNL     1       8.127 -29.699 -17.765  1.00  0.00     0.191 C 
BRANCH  37  38
ATOM     38  O   UNL     1       7.006 -30.374 -18.319  1.00  0.00    -0.394 OA
ATOM     39  H   UNL     1       6.440 -30.796 -17.595  1.00  0.00     0.210 HD
ENDBRANCH  37  38
ENDBRANCH  31  37
BRANCH  32  40
ATOM     40  O   UNL     1       6.287 -28.304 -19.829  1.00  0.00    -0.387 OA
ATOM     41  H   UNL     1       6.064 -29.032 -20.474  1.00  0.00     0.211 HD
ENDBRANCH  32  40
ENDBRANCH   1  27
TORSDOF 12
ENDMDL
MODEL 5
REMARK VINA RESULT:    -7.252      7.825      9.312
REMARK INTER + INTRA:         -12.169
REMARK INTER:                 -10.380
REMARK INTRA:                  -1.789
REMARK UNBOUND:                -1.525
REMARK SMILES O=c1c(O[C@@H]2O[C@H](CO)[C@H](O)[C@H](O)[C@H]2O)c(-c2ccc(O)c(O)c2)oc2cc(O)cc(O)c12
REMARK SMILES IDX 4 1 3 2 16 3 25 4 2 5 26 6 1 7 33 8 27 9 31 10 28 11 30 12
REMARK SMILES IDX 17 13 18 14 19 15 20 16 24 17 22 18 21 19 23 21 32 23 29 25
REMARK SMILES IDX 5 27 14 28 6 29 12 30 7 31 10 32 15 33 13 35 8 37 9 38 11 40
REMARK H PARENT 21 20 23 22 32 24 29 26 15 34 13 36 9 39 11 41
REMARK Flexibility Score: inf
ROOT
ATOM      1  O   UNL     1       9.450 -27.502 -15.472  1.00  0.00    -0.454 OA
ENDROOT
BRANCH   1   2
ATOM      2  C   UNL     1       9.715 -28.874 -15.609  1.00  0.00     0.214 A 
ATOM      3  C   UNL     1       9.414 -29.515 -16.813  1.00  0.00     0.180 A 
ATOM      4  O   UNL     1       9.405 -30.849 -16.881  1.00  0.00    -0.452 OA
ATOM      5  C   UNL     1      10.423 -29.655 -14.636  1.00  0.00     0.239 A 
ATOM      6  C   UNL     1       9.815 -31.633 -15.891  1.00  0.00     0.146 A 
ATOM      7  O   UNL     1      11.414 -29.168 -14.067  1.00  0.00    -0.285 OA
ATOM      8  C   UNL     1      10.343 -31.066 -14.705  1.00  0.00     0.111 A 
ATOM      9  C   UNL     1       9.850 -33.007 -16.104  1.00  0.00     0.094 A 
ATOM     10  C   UNL     1      10.893 -31.920 -13.735  1.00  0.00     0.134 A 
ATOM     11  C   UNL     1      10.359 -33.856 -15.121  1.00  0.00     0.123 A 
ATOM     12  C   UNL     1      10.838 -33.323 -13.919  1.00  0.00     0.093 A 
BRANCH   3  13
ATOM     13  C   UNL     1       9.334 -28.715 -18.118  1.00  0.00     0.025 A 
ATOM     14  C   UNL     1      10.093 -29.326 -19.156  1.00  0.00     0.016 A 
ATOM     15  C   UNL     1       9.447 -29.931 -20.241  1.00  0.00     0.051 A 
ATOM     16  C   UNL     1       8.055 -29.804 -20.324  1.00  0.00     0.157 A 
ATOM     17  C   UNL     1       8.075 -28.134 -18.520  1.00  0.00     0.062 A 
ATOM     18  C   UNL     1       7.422 -28.723 -19.670  1.00  0.00     0.158 A 
BRANCH  16  19
ATOM     19  O   UNL     1       7.354 -30.844 -20.963  1.00  0.00    -0.504 OA
ATOM     20  H   UNL     1       6.418 -30.617 -21.347  1.00  0.00     0.293 HD
ENDBRANCH  16  19
BRANCH  18  21
ATOM     21  O   UNL     1       6.202 -28.185 -20.235  1.00  0.00    -0.504 OA
ATOM     22  H   UNL     1       6.030 -28.277 -21.251  1.00  0.00     0.293 HD
ENDBRANCH  18  21
ENDBRANCH   3  13
BRANCH  10  23
ATOM     23  O   UNL     1      11.417 -31.385 -12.569  1.00  0.00    -0.507 OA
ATOM     24  H   UNL     1      10.748 -31.227 -11.807  1.00  0.00     0.293 HD
ENDBRANCH  10  23
BRANCH  11  25
ATOM     25  O   UNL     1      10.376 -35.222 -15.341  1.00  0.00    -0.508 OA
ATOM     26  H   UNL     1      10.073 -35.615 -16.231  1.00  0.00     0.293 HD
ENDBRANCH  11  25
ENDBRANCH   1   2
BRANCH   1  27
ATOM     27  C   UNL     1       8.706 -26.911 -14.372  1.00  0.00     0.339 C 
ATOM     28  C   UNL     1       9.542 -25.906 -13.485  1.00  0.00     0.214 C 
ATOM     29  O   UNL     1       7.516 -26.335 -14.923  1.00  0.00    -0.332 OA
ATOM     30  C   UNL     1       8.743 -24.812 -12.709  1.00  0.00     0.180 C 
ATOM     31  C   UNL     1       7.339 -24.950 -14.784  1.00  0.00     0.179 C 
ATOM     32  C   UNL     1       7.349 -24.538 -13.281  1.00  0.00     0.177 C 
BRANCH  28  33
ATOM     33  O   UNL     1      10.262 -26.647 -12.525  1.00  0.00    -0.384 OA
ATOM     34  H   UNL     1       9.648 -26.862 -11.750  1.00  0.00     0.211 HD
ENDBRANCH  28  33
BRANCH  30  35
ATOM     35  O   UNL     1       9.517 -23.601 -12.811  1.00  0.00    -0.387 OA
ATOM     36  H   UNL     1      10.180 -23.559 -12.046  1.00  0.00     0.211 HD
ENDBRANCH  30  35
BRANCH  31  37
ATOM     37  C   UNL     1       8.199 -24.125 -15.762  1.00  0.00     0.191 C 
BRANCH  37  38
ATOM     38  O   UNL     1       8.062 -22.734 -15.505  1.00  0.00    -0.394 OA
ATOM     39  H   UNL     1       7.253 -22.549 -14.927  1.00  0.00     0.210 HD
ENDBRANCH  37  38
ENDBRANCH  31  37
BRANCH  32  40
ATOM     40  O   UNL     1       6.921 -23.184 -13.103  1.00  0.00    -0.387 OA
ATOM     41  H   UNL     1       6.804 -22.796 -14.016  1.00  0.00     0.211 HD
ENDBRANCH  32  40
ENDBRANCH   1  27
TORSDOF 12
ENDMDL
MODEL 6
REMARK VINA RESULT:    -7.238      3.813      6.228
REMARK INTER + INTRA:         -12.149
REMARK INTER:                 -11.032
REMARK INTRA:                  -1.117
REMARK UNBOUND:                -1.525
REMARK SMILES O=c1c(O[C@@H]2O[C@H](CO)[C@H](O)[C@H](O)[C@H]2O)c(-c2ccc(O)c(O)c2)oc2cc(O)cc(O)c12
REMARK SMILES IDX 4 1 3 2 16 3 25 4 2 5 26 6 1 7 33 8 27 9 31 10 28 11 30 12
REMARK SMILES IDX 17 13 18 14 19 15 20 16 24 17 22 18 21 19 23 21 32 23 29 25
REMARK SMILES IDX 5 27 14 28 6 29 12 30 7 31 10 32 15 33 13 35 8 37 9 38 11 40
REMARK H PARENT 21 20 23 22 32 24 29 26 15 34 13 36 9 39 11 41
REMARK Flexibility Score: inf
ROOT
ATOM      1  O   UNL     1      15.416 -33.180 -15.462  1.00  0.00    -0.454 OA
ENDROOT
BRANCH   1   2
ATOM      2  C   UNL     1      15.449 -32.411 -16.637  1.00  0.00     0.214 A 
ATOM      3  C   UNL     1      14.490 -32.629 -17.628  1.00  0.00     0.180 A 
ATOM      4  O   UNL     1      14.652 -32.110 -18.847  1.00  0.00    -0.452 OA
ATOM      5  C   UNL     1      16.324 -31.292 -16.838  1.00  0.00     0.239 A 
ATOM      6  C   UNL     1      15.620 -31.254 -19.154  1.00  0.00     0.146 A 
ATOM      7  O   UNL     1      16.527 -30.501 -15.901  1.00  0.00    -0.285 OA
ATOM      8  C   UNL     1      16.516 -30.804 -18.153  1.00  0.00     0.111 A 
ATOM      9  C   UNL     1      15.641 -30.703 -20.431  1.00  0.00     0.094 A 
ATOM     10  C   UNL     1      17.441 -29.798 -18.476  1.00  0.00     0.134 A 
ATOM     11  C   UNL     1      16.588 -29.733 -20.761  1.00  0.00     0.123 A 
ATOM     12  C   UNL     1      17.517 -29.312 -19.803  1.00  0.00     0.093 A 
BRANCH   3  13
ATOM     13  C   UNL     1      13.134 -33.249 -17.271  1.00  0.00     0.025 A 
ATOM     14  C   UNL     1      12.067 -32.329 -17.472  1.00  0.00     0.016 A 
ATOM     15  C   UNL     1      11.154 -32.522 -18.516  1.00  0.00     0.051 A 
ATOM     16  C   UNL     1      11.260 -33.702 -19.264  1.00  0.00     0.157 A 
ATOM     17  C   UNL     1      12.859 -34.618 -17.638  1.00  0.00     0.062 A 
ATOM     18  C   UNL     1      11.883 -34.830 -18.685  1.00  0.00     0.158 A 
BRANCH  16  19
ATOM     19  O   UNL     1      10.840 -33.648 -20.606  1.00  0.00    -0.504 OA
ATOM     20  H   UNL     1      10.964 -32.747 -21.105  1.00  0.00     0.293 HD
ENDBRANCH  16  19
BRANCH  18  21
ATOM     21  O   UNL     1      11.446 -36.150 -19.090  1.00  0.00    -0.504 OA
ATOM     22  H   UNL     1      10.451 -36.305 -19.327  1.00  0.00     0.293 HD
ENDBRANCH  18  21
ENDBRANCH   3  13
BRANCH  10  23
ATOM     23  O   UNL     1      18.325 -29.344 -17.510  1.00  0.00    -0.507 OA
ATOM     24  H   UNL     1      19.056 -28.701 -17.835  1.00  0.00     0.293 HD
ENDBRANCH  10  23
BRANCH  11  25
ATOM     25  O   UNL     1      16.604 -29.204 -22.039  1.00  0.00    -0.508 OA
ATOM     26  H   UNL     1      16.529 -29.805 -22.858  1.00  0.00     0.293 HD
ENDBRANCH  11  25
ENDBRANCH   1   2
BRANCH   1  27
ATOM     27  C   UNL     1      14.869 -32.727 -14.195  1.00  0.00     0.339 C 
ATOM     28  C   UNL     1      13.944 -33.783 -13.469  1.00  0.00     0.214 C 
ATOM     29  O   UNL     1      15.967 -32.279 -13.392  1.00  0.00    -0.332 OA
ATOM     30  C   UNL     1      13.812 -33.660 -11.918  1.00  0.00     0.180 C 
ATOM     31  C   UNL     1      16.203 -32.947 -12.180  1.00  0.00     0.179 C 
ATOM     32  C   UNL     1      14.950 -32.878 -11.256  1.00  0.00     0.177 C 
BRANCH  28  33
ATOM     33  O   UNL     1      12.644 -33.682 -14.002  1.00  0.00    -0.384 OA
ATOM     34  H   UNL     1      12.592 -32.858 -14.588  1.00  0.00     0.211 HD
ENDBRANCH  28  33
BRANCH  30  35
ATOM     35  O   UNL     1      13.834 -35.006 -11.405  1.00  0.00    -0.387 OA
ATOM     36  H   UNL     1      13.146 -35.566 -11.896  1.00  0.00     0.211 HD
ENDBRANCH  30  35
BRANCH  31  37
ATOM     37  C   UNL     1      16.886 -34.316 -12.364  1.00  0.00     0.191 C 
BRANCH  37  38
ATOM     38  O   UNL     1      18.244 -34.262 -11.949  1.00  0.00    -0.394 OA
ATOM     39  H   UNL     1      18.321 -33.931 -10.996  1.00  0.00     0.210 HD
ENDBRANCH  37  38
ENDBRANCH  31  37
BRANCH  32  40
ATOM     40  O   UNL     1      15.249 -33.326  -9.930  1.00  0.00    -0.387 OA
ATOM     41  H   UNL     1      14.493 -33.030  -9.348  1.00  0.00     0.211 HD
ENDBRANCH  32  40
ENDBRANCH   1  27
TORSDOF 12
ENDMDL
MODEL 7
REMARK VINA RESULT:    -7.225      5.019      7.915
REMARK INTER + INTRA:         -12.130
REMARK INTER:                 -10.429
REMARK INTRA:                  -1.700
REMARK UNBOUND:                -1.525
REMARK SMILES O=c1c(O[C@@H]2O[C@H](CO)[C@H](O)[C@H](O)[C@H]2O)c(-c2ccc(O)c(O)c2)oc2cc(O)cc(O)c12
REMARK SMILES IDX 4 1 3 2 16 3 25 4 2 5 26 6 1 7 33 8 27 9 31 10 28 11 30 12
REMARK SMILES IDX 17 13 18 14 19 15 20 16 24 17 22 18 21 19 23 21 32 23 29 25
REMARK SMILES IDX 5 27 14 28 6 29 12 30 7 31 10 32 15 33 13 35 8 37 9 38 11 40
REMARK H PARENT 21 20 23 22 32 24 29 26 15 34 13 36 9 39 11 41
REMARK Flexibility Score: inf
ROOT
ATOM      1  O   UNL     1      11.860 -31.068 -14.878  1.00  0.00    -0.454 OA
ENDROOT
BRANCH   1   2
ATOM      2  C   UNL     1      12.201 -31.425 -16.193  1.00  0.00     0.214 A 
ATOM      3  C   UNL     1      11.221 -31.398 -17.187  1.00  0.00     0.180 A 
ATOM      4  O   UNL     1      11.446 -31.979 -18.369  1.00  0.00    -0.452 OA
ATOM      5  C   UNL     1      13.543 -31.679 -16.633  1.00  0.00     0.239 A 
ATOM      6  C   UNL     1      12.626 -32.469 -18.729  1.00  0.00     0.146 A 
ATOM      7  O   UNL     1      14.466 -30.956 -16.221  1.00  0.00    -0.285 OA
ATOM      8  C   UNL     1      13.742 -32.347 -17.864  1.00  0.00     0.111 A 
ATOM      9  C   UNL     1      12.773 -32.968 -20.019  1.00  0.00     0.094 A 
ATOM     10  C   UNL     1      15.004 -32.753 -18.328  1.00  0.00     0.134 A 
ATOM     11  C   UNL     1      14.020 -33.409 -20.462  1.00  0.00     0.123 A 
ATOM     12  C   UNL     1      15.126 -33.347 -19.607  1.00  0.00     0.093 A 
BRANCH   3  13
ATOM     13  C   UNL     1       9.986 -30.504 -17.035  1.00  0.00     0.025 A 
ATOM     14  C   UNL     1       9.966 -29.465 -18.007  1.00  0.00     0.016 A 
ATOM     15  C   UNL     1       9.026 -29.485 -19.045  1.00  0.00     0.051 A 
ATOM     16  C   UNL     1       8.046 -30.485 -19.017  1.00  0.00     0.157 A 
ATOM     17  C   UNL     1       8.707 -31.102 -16.731  1.00  0.00     0.062 A 
ATOM     18  C   UNL     1       7.713 -31.087 -17.782  1.00  0.00     0.158 A 
BRANCH  16  19
ATOM     19  O   UNL     1       7.535 -30.915 -20.255  1.00  0.00    -0.504 OA
ATOM     20  H   UNL     1       6.568 -30.626 -20.493  1.00  0.00     0.293 HD
ENDBRANCH  16  19
BRANCH  18  21
ATOM     21  O   UNL     1       6.362 -31.571 -17.586  1.00  0.00    -0.504 OA
ATOM     22  H   UNL     1       5.678 -30.977 -17.087  1.00  0.00     0.293 HD
ENDBRANCH  18  21
ENDBRANCH   3  13
BRANCH  10  23
ATOM     23  O   UNL     1      16.107 -32.640 -17.498  1.00  0.00    -0.507 OA
ATOM     24  H   UNL     1      16.574 -33.518 -17.246  1.00  0.00     0.293 HD
ENDBRANCH  10  23
BRANCH  11  25
ATOM     25  O   UNL     1      14.149 -33.915 -21.743  1.00  0.00    -0.508 OA
ATOM     26  H   UNL     1      15.040 -34.280 -22.078  1.00  0.00     0.293 HD
ENDBRANCH  11  25
ENDBRANCH   1   2
BRANCH   1  27
ATOM     27  C   UNL     1      12.063 -31.916 -13.715  1.00  0.00     0.339 C 
ATOM     28  C   UNL     1      10.880 -31.881 -12.668  1.00  0.00     0.214 C 
ATOM     29  O   UNL     1      12.368 -33.231 -14.193  1.00  0.00    -0.332 OA
ATOM     30  C   UNL     1      10.711 -33.133 -11.749  1.00  0.00     0.180 C 
ATOM     31  C   UNL     1      11.488 -34.269 -13.846  1.00  0.00     0.179 C 
ATOM     32  C   UNL     1      11.369 -34.401 -12.299  1.00  0.00     0.177 C 
BRANCH  28  33
ATOM     33  O   UNL     1      11.063 -30.771 -11.820  1.00  0.00    -0.384 OA
ATOM     34  H   UNL     1      11.336 -29.972 -12.379  1.00  0.00     0.211 HD
ENDBRANCH  28  33
BRANCH  30  35
ATOM     35  O   UNL     1       9.293 -33.369 -11.650  1.00  0.00    -0.387 OA
ATOM     36  H   UNL     1       9.105 -33.967 -10.854  1.00  0.00     0.211 HD
ENDBRANCH  30  35
BRANCH  31  37
ATOM     37  C   UNL     1      10.185 -34.262 -14.670  1.00  0.00     0.191 C 
BRANCH  37  38
ATOM     38  O   UNL     1       9.236 -35.164 -14.119  1.00  0.00    -0.394 OA
ATOM     39  H   UNL     1       9.326 -35.219 -13.113  1.00  0.00     0.210 HD
ENDBRANCH  37  38
ENDBRANCH  31  37
BRANCH  32  40
ATOM     40  O   UNL     1      10.686 -35.601 -11.923  1.00  0.00    -0.387 OA
ATOM     41  H   UNL     1      11.105 -35.919 -11.074  1.00  0.00     0.211 HD
ENDBRANCH  32  40
ENDBRANCH   1  27
TORSDOF 12
ENDMDL
MODEL 8
REMARK VINA RESULT:    -7.222      1.780      7.581
REMARK INTER + INTRA:         -12.125
REMARK INTER:                 -10.398
REMARK INTRA:                  -1.727
REMARK UNBOUND:                -1.525
REMARK SMILES O=c1c(O[C@@H]2O[C@H](CO)[C@H](O)[C@H](O)[C@H]2O)c(-c2ccc(O)c(O)c2)oc2cc(O)cc(O)c12
REMARK SMILES IDX 4 1 3 2 16 3 25 4 2 5 26 6 1 7 33 8 27 9 31 10 28 11 30 12
REMARK SMILES IDX 17 13 18 14 19 15 20 16 24 17 22 18 21 19 23 21 32 23 29 25
REMARK SMILES IDX 5 27 14 28 6 29 12 30 7 31 10 32 15 33 13 35 8 37 9 38 11 40
REMARK H PARENT 21 20 23 22 32 24 29 26 15 34 13 36 9 39 11 41
REMARK Flexibility Score: inf
ROOT
ATOM      1  O   UNL     1      13.734 -29.664 -19.582  1.00  0.00    -0.454 OA
ENDROOT
BRANCH   1   2
ATOM      2  C   UNL     1      14.753 -28.870 -19.031  1.00  0.00     0.214 A 
ATOM      3  C   UNL     1      16.080 -29.107 -19.393  1.00  0.00     0.180 A 
ATOM      4  O   UNL     1      17.077 -28.557 -18.694  1.00  0.00    -0.452 OA
ATOM      5  C   UNL     1      14.516 -27.711 -18.218  1.00  0.00     0.239 A 
ATOM      6  C   UNL     1      16.888 -27.655 -17.739  1.00  0.00     0.146 A 
ATOM      7  O   UNL     1      13.597 -26.931 -18.522  1.00  0.00    -0.285 OA
ATOM      8  C   UNL     1      15.582 -27.189 -17.448  1.00  0.00     0.111 A 
ATOM      9  C   UNL     1      18.002 -27.078 -17.139  1.00  0.00     0.094 A 
ATOM     10  C   UNL     1      15.428 -26.138 -16.528  1.00  0.00     0.134 A 
ATOM     11  C   UNL     1      17.844 -26.062 -16.196  1.00  0.00     0.123 A 
ATOM     12  C   UNL     1      16.561 -25.623 -15.854  1.00  0.00     0.093 A 
BRANCH   3  13
ATOM     13  C   UNL     1      16.410 -29.791 -20.725  1.00  0.00     0.025 A 
ATOM     14  C   UNL     1      16.360 -28.873 -21.812  1.00  0.00     0.016 A 
ATOM     15  C   UNL     1      17.537 -28.481 -22.462  1.00  0.00     0.051 A 
ATOM     16  C   UNL     1      18.730 -29.110 -22.084  1.00  0.00     0.157 A 
ATOM     17  C   UNL     1      17.470 -30.770 -20.779  1.00  0.00     0.062 A 
ATOM     18  C   UNL     1      18.674 -30.390 -21.487  1.00  0.00     0.158 A 
BRANCH  16  19
ATOM     19  O   UNL     1      19.916 -28.365 -22.216  1.00  0.00    -0.504 OA
ATOM     20  H   UNL     1      20.411 -28.106 -21.342  1.00  0.00     0.293 HD
ENDBRANCH  16  19
BRANCH  18  21
ATOM     21  O   UNL     1      19.778 -31.304 -21.696  1.00  0.00    -0.504 OA
ATOM     22  H   UNL     1      20.712 -30.926 -21.930  1.00  0.00     0.293 HD
ENDBRANCH  18  21
ENDBRANCH   3  13
BRANCH  10  23
ATOM     23  O   UNL     1      14.159 -25.668 -16.231  1.00  0.00    -0.507 OA
ATOM     24  H   UNL     1      14.115 -24.848 -15.615  1.00  0.00     0.293 HD
ENDBRANCH  10  23
BRANCH  11  25
ATOM     25  O   UNL     1      18.961 -25.506 -15.598  1.00  0.00    -0.508 OA
ATOM     26  H   UNL     1      19.323 -25.870 -14.717  1.00  0.00     0.293 HD
ENDBRANCH  11  25
ENDBRANCH   1   2
BRANCH   1  27
ATOM     27  C   UNL     1      13.165 -30.837 -18.941  1.00  0.00     0.339 C 
ATOM     28  C   UNL     1      11.843 -31.374 -19.619  1.00  0.00     0.214 C 
ATOM     29  O   UNL     1      14.203 -31.820 -18.851  1.00  0.00    -0.332 OA
ATOM     30  C   UNL     1      11.507 -32.886 -19.417  1.00  0.00     0.180 C 
ATOM     31  C   UNL     1      14.008 -33.035 -19.526  1.00  0.00     0.179 C 
ATOM     32  C   UNL     1      12.713 -33.744 -19.029  1.00  0.00     0.177 C 
BRANCH  28  33
ATOM     33  O   UNL     1      10.750 -30.639 -19.116  1.00  0.00    -0.384 OA
ATOM     34  H   UNL     1      10.062 -31.285 -18.749  1.00  0.00     0.211 HD
ENDBRANCH  28  33
BRANCH  30  35
ATOM     35  O   UNL     1      11.007 -33.358 -20.683  1.00  0.00    -0.387 OA
ATOM     36  H   UNL     1       9.996 -33.280 -20.698  1.00  0.00     0.211 HD
ENDBRANCH  30  35
BRANCH  31  37
ATOM     37  C   UNL     1      14.231 -32.928 -21.047  1.00  0.00     0.191 C 
BRANCH  37  38
ATOM     38  O   UNL     1      13.868 -34.138 -21.697  1.00  0.00    -0.394 OA
ATOM     39  H   UNL     1      14.232 -34.941 -21.202  1.00  0.00     0.210 HD
ENDBRANCH  37  38
ENDBRANCH  31  37
BRANCH  32  40
ATOM     40  O   UNL     1      12.630 -35.089 -19.513  1.00  0.00    -0.387 OA
ATOM     41  H   UNL     1      13.162 -35.655 -18.885  1.00  0.00     0.211 HD
ENDBRANCH  32  40
ENDBRANCH   1  27
TORSDOF 12
ENDMDL
MODEL 9
REMARK VINA RESULT:    -7.161      8.385     10.226
REMARK INTER + INTRA:         -12.036
REMARK INTER:                 -10.378
REMARK INTRA:                  -1.658
REMARK UNBOUND:                -1.525
REMARK SMILES O=c1c(O[C@@H]2O[C@H](CO)[C@H](O)[C@H](O)[C@H]2O)c(-c2ccc(O)c(O)c2)oc2cc(O)cc(O)c12
REMARK SMILES IDX 4 1 3 2 16 3 25 4 2 5 26 6 1 7 33 8 27 9 31 10 28 11 30 12
REMARK SMILES IDX 17 13 18 14 19 15 20 16 24 17 22 18 21 19 23 21 32 23 29 25
REMARK SMILES IDX 5 27 14 28 6 29 12 30 7 31 10 32 15 33 13 35 8 37 9 38 11 40
REMARK H PARENT 21 20 23 22 32 24 29 26 15 34 13 36 9 39 11 41
REMARK Flexibility Score: inf
ROOT
ATOM      1  O   UNL     1       8.662 -26.595 -13.806  1.00  0.00    -0.454 OA
ENDROOT
BRANCH   1   2
ATOM      2  C   UNL     1       8.642 -26.836 -15.190  1.00  0.00     0.214 A 
ATOM      3  C   UNL     1       8.684 -25.758 -16.075  1.00  0.00     0.180 A 
ATOM      4  O   UNL     1       8.400 -25.937 -17.368  1.00  0.00    -0.452 OA
ATOM      5  C   UNL     1       8.733 -28.142 -15.778  1.00  0.00     0.239 A 
ATOM      6  C   UNL     1       8.217 -27.132 -17.916  1.00  0.00     0.146 A 
ATOM      7  O   UNL     1       9.518 -28.975 -15.293  1.00  0.00    -0.285 OA
ATOM      8  C   UNL     1       8.370 -28.305 -17.136  1.00  0.00     0.111 A 
ATOM      9  C   UNL     1       8.019 -27.210 -19.291  1.00  0.00     0.094 A 
ATOM     10  C   UNL     1       8.304 -29.555 -17.773  1.00  0.00     0.134 A 
ATOM     11  C   UNL     1       7.913 -28.454 -19.915  1.00  0.00     0.123 A 
ATOM     12  C   UNL     1       8.008 -29.625 -19.156  1.00  0.00     0.093 A 
BRANCH   3  13
ATOM     13  C   UNL     1       9.286 -24.418 -15.638  1.00  0.00     0.025 A 
ATOM     14  C   UNL     1      10.249 -23.944 -16.573  1.00  0.00     0.016 A 
ATOM     15  C   UNL     1       9.973 -22.826 -17.368  1.00  0.00     0.051 A 
ATOM     16  C   UNL     1       8.782 -22.130 -17.123  1.00  0.00     0.157 A 
ATOM     17  C   UNL     1       8.432 -23.410 -15.053  1.00  0.00     0.062 A 
ATOM     18  C   UNL     1       8.177 -22.229 -15.849  1.00  0.00     0.158 A 
BRANCH  16  19
ATOM     19  O   UNL     1       8.192 -21.466 -18.214  1.00  0.00    -0.504 OA
ATOM     20  H   UNL     1       7.862 -20.496 -18.055  1.00  0.00     0.293 HD
ENDBRANCH  16  19
BRANCH  18  21
ATOM     21  O   UNL     1       7.413 -21.103 -15.353  1.00  0.00    -0.504 OA
ATOM     22  H   UNL     1       7.753 -20.586 -14.524  1.00  0.00     0.293 HD
ENDBRANCH  18  21
ENDBRANCH   3  13
BRANCH  10  23
ATOM     23  O   UNL     1       8.453 -30.713 -17.027  1.00  0.00    -0.507 OA
ATOM     24  H   UNL     1       7.586 -31.195 -16.766  1.00  0.00     0.293 HD
ENDBRANCH  10  23
BRANCH  11  25
ATOM     25  O   UNL     1       7.703 -28.515 -21.281  1.00  0.00    -0.508 OA
ATOM     26  H   UNL     1       8.262 -27.955 -21.925  1.00  0.00     0.293 HD
ENDBRANCH  11  25
ENDBRANCH   1   2
BRANCH   1  27
ATOM     27  C   UNL     1       9.799 -26.858 -12.940  1.00  0.00     0.339 C 
ATOM     28  C   UNL     1      11.151 -26.197 -13.420  1.00  0.00     0.214 C 
ATOM     29  O   UNL     1       9.418 -26.484 -11.611  1.00  0.00    -0.332 OA
ATOM     30  C   UNL     1      12.226 -25.906 -12.324  1.00  0.00     0.180 C 
ATOM     31  C   UNL     1      10.150 -25.461 -10.988  1.00  0.00     0.179 C 
ATOM     32  C   UNL     1      11.661 -25.833 -10.903  1.00  0.00     0.177 C 
BRANCH  28  33
ATOM     33  O   UNL     1      11.753 -27.045 -14.371  1.00  0.00    -0.384 OA
ATOM     34  H   UNL     1      11.278 -27.939 -14.361  1.00  0.00     0.211 HD
ENDBRANCH  28  33
BRANCH  30  35
ATOM     35  O   UNL     1      12.794 -24.623 -12.649  1.00  0.00    -0.387 OA
ATOM     36  H   UNL     1      13.098 -24.163 -11.799  1.00  0.00     0.211 HD
ENDBRANCH  30  35
BRANCH  31  37
ATOM     37  C   UNL     1       9.783 -24.054 -11.497  1.00  0.00     0.191 C 
BRANCH  37  38
ATOM     38  O   UNL     1      10.638 -23.072 -10.927  1.00  0.00    -0.394 OA
ATOM     39  H   UNL     1      11.371 -22.808 -11.571  1.00  0.00     0.210 HD
ENDBRANCH  37  38
ENDBRANCH  31  37
BRANCH  32  40
ATOM     40  O   UNL     1      12.379 -24.931 -10.055  1.00  0.00    -0.387 OA
ATOM     41  H   UNL     1      12.440 -24.062 -10.543  1.00  0.00     0.211 HD
ENDBRANCH  32  40
ENDBRANCH   1  27
TORSDOF 12
ENDMDL
