MODEL 1
REMARK VINA RESULT:    -4.257      0.000      0.000
REMARK INTER + INTRA:          -7.409
REMARK INTER:                  -5.750
REMARK INTRA:                  -1.659
REMARK UNBOUND:                -1.659
REMARK SMILES CC(=O)CCC=C(C)CCC=C(C)C
REMARK SMILES IDX 7 1 6 2 8 3 9 4 10 5 11 6 13 7 12 8 14 9 5 10 4 11 2 12 3 13
REMARK SMILES IDX 1 14
REMARK H PARENT
REMARK Flexibility Score: inf
ROOT
ATOM      1  C   UNL     1       6.850   5.902  -7.125  1.00  0.00    -0.077 C 
ATOM      2  C   UNL     1       6.538   5.409  -5.902  1.00  0.00    -0.028 C 
ATOM      3  C   UNL     1       6.163   7.169  -7.572  1.00  0.00     0.039 C 
ENDROOT
BRANCH   1   4
ATOM      4  C   UNL     1       7.856   5.253  -8.055  1.00  0.00     0.034 C 
BRANCH   4   5
ATOM      5  C   UNL     1       7.203   4.843  -9.381  1.00  0.00     0.032 C 
BRANCH   5   6
ATOM      6  C   UNL     1       7.076   3.343  -9.472  1.00  0.00    -0.028 C 
ATOM      7  C   UNL     1       4.607   3.364  -9.054  1.00  0.00     0.039 C 
ATOM      8  C   UNL     1       5.912   2.666  -9.353  1.00  0.00    -0.080 C 
ATOM      9  C   UNL     1       5.934   1.166  -9.509  1.00  0.00     0.039 C 
ENDBRANCH   5   6
ENDBRANCH   4   5
ENDBRANCH   1   4
BRANCH   2  10
ATOM     10  C   UNL     1       7.096   4.145  -5.288  1.00  0.00     0.035 C 
BRANCH  10  11
ATOM     11  C   UNL     1       6.288   2.914  -5.717  1.00  0.00     0.079 C 
BRANCH  11  12
ATOM     12  C   UNL     1       7.167   1.708  -5.924  1.00  0.00     0.130 C 
ATOM     13  O   UNL     1       6.764   0.602  -5.595  1.00  0.00    -0.300 OA
ATOM     14  C   UNL     1       8.545   1.846  -6.496  1.00  0.00     0.087 C 
ENDBRANCH  11  12
ENDBRANCH  10  11
ENDBRANCH   2  10
TORSDOF 6
ENDMDL
MODEL 2
REMARK VINA RESULT:    -3.941     12.779     14.839
REMARK INTER + INTRA:          -6.983
REMARK INTER:                  -5.925
REMARK INTRA:                  -1.058
REMARK UNBOUND:                -1.659
REMARK SMILES CC(=O)CCC=C(C)CCC=C(C)C
REMARK SMILES IDX 7 1 6 2 8 3 9 4 10 5 11 6 13 7 12 8 14 9 5 10 4 11 2 12 3 13
REMARK SMILES IDX 1 14
REMARK H PARENT
REMARK Flexibility Score: inf
ROOT
ATOM      1  C   UNL     1      -4.510  12.886  -4.784  1.00  0.00    -0.077 C 
ATOM      2  C   UNL     1      -3.698  12.103  -5.533  1.00  0.00    -0.028 C 
ATOM      3  C   UNL     1      -4.454  12.731  -3.284  1.00  0.00     0.039 C 
ENDROOT
BRANCH   1   4
ATOM      4  C   UNL     1      -5.459  13.911  -5.374  1.00  0.00     0.034 C 
BRANCH   4   5
ATOM      5  C   UNL     1      -6.919  13.560  -5.063  1.00  0.00     0.032 C 
BRANCH   5   6
ATOM      6  C   UNL     1      -7.473  12.612  -6.096  1.00  0.00    -0.028 C 
ATOM      7  C   UNL     1      -7.346  10.625  -4.578  1.00  0.00     0.039 C 
ATOM      8  C   UNL     1      -7.695  11.296  -5.886  1.00  0.00    -0.080 C 
ATOM      9  C   UNL     1      -8.293  10.480  -7.004  1.00  0.00     0.039 C 
ENDBRANCH   5   6
ENDBRANCH   4   5
ENDBRANCH   1   4
BRANCH   2  10
ATOM     10  C   UNL     1      -3.625  12.092  -7.043  1.00  0.00     0.035 C 
BRANCH  10  11
ATOM     11  C   UNL     1      -2.238  12.522  -7.537  1.00  0.00     0.079 C 
BRANCH  11  12
ATOM     12  C   UNL     1      -1.766  11.681  -8.694  1.00  0.00     0.130 C 
ATOM     13  O   UNL     1      -0.568  11.564  -8.906  1.00  0.00    -0.300 OA
ATOM     14  C   UNL     1      -2.742  11.011  -9.611  1.00  0.00     0.087 C 
ENDBRANCH  11  12
ENDBRANCH  10  11
ENDBRANCH   2  10
TORSDOF 6
ENDMDL
MODEL 3
REMARK VINA RESULT:    -3.871     12.826     14.787
REMARK INTER + INTRA:          -6.888
REMARK INTER:                  -6.335
REMARK INTRA:                  -0.553
REMARK UNBOUND:                -1.659
REMARK SMILES CC(=O)CCC=C(C)CCC=C(C)C
REMARK SMILES IDX 7 1 6 2 8 3 9 4 10 5 11 6 13 7 12 8 14 9 5 10 4 11 2 12 3 13
REMARK SMILES IDX 1 14
REMARK H PARENT
REMARK Flexibility Score: inf
ROOT
ATOM      1  C   UNL     1      -4.997  12.514  -4.670  1.00  0.00    -0.077 C 
ATOM      2  C   UNL     1      -5.969  11.571  -4.684  1.00  0.00    -0.028 C 
ATOM      3  C   UNL     1      -4.325  12.817  -3.353  1.00  0.00     0.039 C 
ENDROOT
BRANCH   1   4
ATOM      4  C   UNL     1      -4.545  13.268  -5.906  1.00  0.00     0.034 C 
BRANCH   4   5
ATOM      5  C   UNL     1      -3.116  12.879  -6.302  1.00  0.00     0.032 C 
BRANCH   5   6
ATOM      6  C   UNL     1      -3.125  11.953  -7.492  1.00  0.00    -0.028 C 
ATOM      7  C   UNL     1      -0.905  12.749  -8.334  1.00  0.00     0.039 C 
ATOM      8  C   UNL     1      -2.127  11.864  -8.400  1.00  0.00    -0.080 C 
ATOM      9  C   UNL     1      -2.258  10.860  -9.516  1.00  0.00     0.039 C 
ENDBRANCH   5   6
ENDBRANCH   4   5
ENDBRANCH   1   4
BRANCH   2  10
ATOM     10  C   UNL     1      -6.772  11.146  -5.892  1.00  0.00     0.035 C 
BRANCH  10  11
ATOM     11  C   UNL     1      -7.863  10.137  -5.509  1.00  0.00     0.079 C 
BRANCH  11  12
ATOM     12  C   UNL     1      -8.607   9.627  -6.715  1.00  0.00     0.130 C 
ATOM     13  O   UNL     1      -8.769   8.424  -6.860  1.00  0.00    -0.300 OA
ATOM     14  C   UNL     1      -9.121  10.569  -7.761  1.00  0.00     0.087 C 
ENDBRANCH  11  12
ENDBRANCH  10  11
ENDBRANCH   2  10
TORSDOF 6
ENDMDL
MODEL 4
REMARK VINA RESULT:    -3.866      1.610      1.926
REMARK INTER + INTRA:          -6.881
REMARK INTER:                  -5.744
REMARK INTRA:                  -1.137
REMARK UNBOUND:                -1.659
REMARK SMILES CC(=O)CCC=C(C)CCC=C(C)C
REMARK SMILES IDX 7 1 6 2 8 3 9 4 10 5 11 6 13 7 12 8 14 9 5 10 4 11 2 12 3 13
REMARK SMILES IDX 1 14
REMARK H PARENT
REMARK Flexibility Score: inf
ROOT
ATOM      1  C   UNL     1       7.042   5.617  -7.029  1.00  0.00    -0.077 C 
ATOM      2  C   UNL     1       6.444   5.274  -5.864  1.00  0.00    -0.028 C 
ATOM      3  C   UNL     1       6.907   7.045  -7.498  1.00  0.00     0.039 C 
ENDROOT
BRANCH   1   4
ATOM      4  C   UNL     1       7.843   4.646  -7.875  1.00  0.00     0.034 C 
BRANCH   4   5
ATOM      5  C   UNL     1       7.214   4.469  -9.263  1.00  0.00     0.032 C 
BRANCH   5   6
ATOM      6  C   UNL     1       5.907   3.723  -9.164  1.00  0.00    -0.028 C 
ATOM      7  C   UNL     1       4.645   5.431 -10.492  1.00  0.00     0.039 C 
ATOM      8  C   UNL     1       4.750   4.129  -9.733  1.00  0.00    -0.080 C 
ATOM      9  C   UNL     1       3.530   3.256  -9.584  1.00  0.00     0.039 C 
ENDBRANCH   5   6
ENDBRANCH   4   5
ENDBRANCH   1   4
BRANCH   2  10
ATOM     10  C   UNL     1       6.442   3.895  -5.242  1.00  0.00     0.035 C 
BRANCH  10  11
ATOM     11  C   UNL     1       7.565   3.750  -4.207  1.00  0.00     0.079 C 
BRANCH  11  12
ATOM     12  C   UNL     1       8.684   2.875  -4.710  1.00  0.00     0.130 C 
ATOM     13  O   UNL     1       9.844   3.227  -4.552  1.00  0.00    -0.300 OA
ATOM     14  C   UNL     1       8.397   1.594  -5.432  1.00  0.00     0.087 C 
ENDBRANCH  11  12
ENDBRANCH  10  11
ENDBRANCH   2  10
TORSDOF 6
ENDMDL
MODEL 5
REMARK VINA RESULT:    -3.781      1.510      3.855
REMARK INTER + INTRA:          -6.767
REMARK INTER:                  -5.473
REMARK INTRA:                  -1.294
REMARK UNBOUND:                -1.659
REMARK SMILES CC(=O)CCC=C(C)CCC=C(C)C
REMARK SMILES IDX 7 1 6 2 8 3 9 4 10 5 11 6 13 7 12 8 14 9 5 10 4 11 2 12 3 13
REMARK SMILES IDX 1 14
REMARK H PARENT
REMARK Flexibility Score: inf
ROOT
ATOM      1  C   UNL     1       7.193   2.316  -8.926  1.00  0.00    -0.077 C 
ATOM      2  C   UNL     1       7.999   1.473  -8.238  1.00  0.00    -0.028 C 
ATOM      3  C   UNL     1       6.027   1.722  -9.678  1.00  0.00     0.039 C 
ENDROOT
BRANCH   1   4
ATOM      4  C   UNL     1       7.396   3.818  -8.968  1.00  0.00     0.034 C 
BRANCH   4   5
ATOM      5  C   UNL     1       6.318   4.547  -8.157  1.00  0.00     0.032 C 
BRANCH   5   6
ATOM      6  C   UNL     1       6.834   4.908  -6.787  1.00  0.00    -0.028 C 
ATOM      7  C   UNL     1       5.629   3.026  -5.658  1.00  0.00     0.039 C 
ATOM      8  C   UNL     1       6.555   4.219  -5.658  1.00  0.00    -0.080 C 
ATOM      9  C   UNL     1       7.179   4.676  -4.364  1.00  0.00     0.039 C 
ENDBRANCH   5   6
ENDBRANCH   4   5
ENDBRANCH   1   4
BRANCH   2  10
ATOM     10  C   UNL     1       9.225   1.869  -7.447  1.00  0.00     0.035 C 
BRANCH  10  11
ATOM     11  C   UNL     1       9.807   0.671  -6.685  1.00  0.00     0.079 C 
BRANCH  11  12
ATOM     12  C   UNL     1       9.299   0.604  -5.269  1.00  0.00     0.130 C 
ATOM     13  O   UNL     1       8.850  -0.447  -4.837  1.00  0.00    -0.300 OA
ATOM     14  C   UNL     1       9.300   1.817  -4.389  1.00  0.00     0.087 C 
ENDBRANCH  11  12
ENDBRANCH  10  11
ENDBRANCH   2  10
TORSDOF 6
ENDMDL
MODEL 6
REMARK VINA RESULT:    -3.668      1.856      3.227
REMARK INTER + INTRA:          -6.615
REMARK INTER:                  -5.630
REMARK INTRA:                  -0.985
REMARK UNBOUND:                -1.659
REMARK SMILES CC(=O)CCC=C(C)CCC=C(C)C
REMARK SMILES IDX 7 1 6 2 8 3 9 4 10 5 11 6 13 7 12 8 14 9 5 10 4 11 2 12 3 13
REMARK SMILES IDX 1 14
REMARK H PARENT
REMARK Flexibility Score: inf
ROOT
ATOM      1  C   UNL     1       6.959   3.264  -6.001  1.00  0.00    -0.077 C 
ATOM      2  C   UNL     1       7.853   3.135  -4.992  1.00  0.00    -0.028 C 
ATOM      3  C   UNL     1       5.551   3.677  -5.647  1.00  0.00     0.039 C 
ENDROOT
BRANCH   1   4
ATOM      4  C   UNL     1       7.302   3.025  -7.458  1.00  0.00     0.034 C 
BRANCH   4   5
ATOM      5  C   UNL     1       7.753   4.321  -8.142  1.00  0.00     0.032 C 
BRANCH   5   6
ATOM      6  C   UNL     1       6.663   4.863  -9.032  1.00  0.00    -0.028 C 
ATOM      7  C   UNL     1       6.324   6.917  -7.641  1.00  0.00     0.039 C 
ATOM      8  C   UNL     1       6.029   6.040  -8.835  1.00  0.00    -0.080 C 
ATOM      9  C   UNL     1       4.986   6.471  -9.835  1.00  0.00     0.039 C 
ENDBRANCH   5   6
ENDBRANCH   4   5
ENDBRANCH   1   4
BRANCH   2  10
ATOM     10  C   UNL     1       9.297   2.709  -5.139  1.00  0.00     0.035 C 
BRANCH  10  11
ATOM     11  C   UNL     1       9.586   1.435  -4.334  1.00  0.00     0.079 C 
BRANCH  11  12
ATOM     12  C   UNL     1       9.618   0.210  -5.211  1.00  0.00     0.130 C 
ATOM     13  O   UNL     1       9.324  -0.878  -4.739  1.00  0.00    -0.300 OA
ATOM     14  C   UNL     1      10.039   0.298  -6.646  1.00  0.00     0.087 C 
ENDBRANCH  11  12
ENDBRANCH  10  11
ENDBRANCH   2  10
TORSDOF 6
ENDMDL
MODEL 7
REMARK VINA RESULT:    -3.663     14.294     16.236
REMARK INTER + INTRA:          -6.608
REMARK INTER:                  -5.347
REMARK INTRA:                  -1.261
REMARK UNBOUND:                -1.659
REMARK SMILES CC(=O)CCC=C(C)CCC=C(C)C
REMARK SMILES IDX 7 1 6 2 8 3 9 4 10 5 11 6 13 7 12 8 14 9 5 10 4 11 2 12 3 13
REMARK SMILES IDX 1 14
REMARK H PARENT
REMARK Flexibility Score: inf
ROOT
ATOM      1  C   UNL     1      -6.376  13.866  -2.996  1.00  0.00    -0.077 C 
ATOM      2  C   UNL     1      -5.030  13.725  -2.939  1.00  0.00    -0.028 C 
ATOM      3  C   UNL     1      -7.151  13.770  -1.705  1.00  0.00     0.039 C 
ENDROOT
BRANCH   1   4
ATOM      4  C   UNL     1      -7.136  14.125  -4.283  1.00  0.00     0.034 C 
BRANCH   4   5
ATOM      5  C   UNL     1      -8.473  13.374  -4.299  1.00  0.00     0.032 C 
BRANCH   5   6
ATOM      6  C   UNL     1      -8.599  12.535  -5.545  1.00  0.00    -0.028 C 
ATOM      7  C   UNL     1      -7.151  10.698  -4.650  1.00  0.00     0.039 C 
ATOM      8  C   UNL     1      -8.032  11.318  -5.708  1.00  0.00    -0.080 C 
ATOM      9  C   UNL     1      -8.281  10.577  -6.997  1.00  0.00     0.039 C 
ENDBRANCH   5   6
ENDBRANCH   4   5
ENDBRANCH   1   4
BRANCH   2  10
ATOM     10  C   UNL     1      -4.085  13.764  -4.119  1.00  0.00     0.035 C 
BRANCH  10  11
ATOM     11  C   UNL     1      -3.754  12.351  -4.614  1.00  0.00     0.079 C 
BRANCH  11  12
ATOM     12  C   UNL     1      -3.913  12.226  -6.107  1.00  0.00     0.130 C 
ATOM     13  O   UNL     1      -3.132  11.531  -6.742  1.00  0.00    -0.300 OA
ATOM     14  C   UNL     1      -4.992  12.968  -6.834  1.00  0.00     0.087 C 
ENDBRANCH  11  12
ENDBRANCH  10  11
ENDBRANCH   2  10
TORSDOF 6
ENDMDL
MODEL 8
REMARK VINA RESULT:    -3.609      1.656      3.754
REMARK INTER + INTRA:          -6.535
REMARK INTER:                  -5.423
REMARK INTRA:                  -1.111
REMARK UNBOUND:                -1.659
REMARK SMILES CC(=O)CCC=C(C)CCC=C(C)C
REMARK SMILES IDX 7 1 6 2 8 3 9 4 10 5 11 6 13 7 12 8 14 9 5 10 4 11 2 12 3 13
REMARK SMILES IDX 1 14
REMARK H PARENT
REMARK Flexibility Score: inf
ROOT
ATOM      1  C   UNL     1       4.825   3.708  -9.728  1.00  0.00    -0.077 C 
ATOM      2  C   UNL     1       5.108   3.260  -8.481  1.00  0.00    -0.028 C 
ATOM      3  C   UNL     1       3.411   3.551 -10.231  1.00  0.00     0.039 C 
ENDROOT
BRANCH   1   4
ATOM      4  C   UNL     1       5.851   4.363 -10.633  1.00  0.00     0.034 C 
BRANCH   4   5
ATOM      5  C   UNL     1       5.565   5.860 -10.802  1.00  0.00     0.032 C 
BRANCH   5   6
ATOM      6  C   UNL     1       5.371   6.522  -9.461  1.00  0.00    -0.028 C 
ATOM      7  C   UNL     1       7.825   6.849  -9.086  1.00  0.00     0.039 C 
ATOM      8  C   UNL     1       6.375   6.995  -8.690  1.00  0.00    -0.080 C 
ATOM      9  C   UNL     1       6.024   7.671  -7.389  1.00  0.00     0.039 C 
ENDBRANCH   5   6
ENDBRANCH   4   5
ENDBRANCH   1   4
BRANCH   2  10
ATOM     10  C   UNL     1       6.462   3.304  -7.810  1.00  0.00     0.035 C 
BRANCH  10  11
ATOM     11  C   UNL     1       6.384   3.992  -6.442  1.00  0.00     0.079 C 
BRANCH  11  12
ATOM     12  C   UNL     1       6.710   3.045  -5.316  1.00  0.00     0.130 C 
ATOM     13  O   UNL     1       6.042   2.032  -5.166  1.00  0.00    -0.300 OA
ATOM     14  C   UNL     1       7.820   3.341  -4.354  1.00  0.00     0.087 C 
ENDBRANCH  11  12
ENDBRANCH  10  11
ENDBRANCH   2  10
TORSDOF 6
ENDMDL
MODEL 9
REMARK VINA RESULT:    -3.570      1.506      3.627
REMARK INTER + INTRA:          -6.482
REMARK INTER:                  -4.962
REMARK INTRA:                  -1.519
REMARK UNBOUND:                -1.659
REMARK SMILES CC(=O)CCC=C(C)CCC=C(C)C
REMARK SMILES IDX 7 1 6 2 8 3 9 4 10 5 11 6 13 7 12 8 14 9 5 10 4 11 2 12 3 13
REMARK SMILES IDX 1 14
REMARK H PARENT
REMARK Flexibility Score: inf
ROOT
ATOM      1  C   UNL     1       6.139   5.263  -9.861  1.00  0.00    -0.077 C 
ATOM      2  C   UNL     1       5.188   4.416 -10.322  1.00  0.00    -0.028 C 
ATOM      3  C   UNL     1       5.702   6.632  -9.400  1.00  0.00     0.039 C 
ENDROOT
BRANCH   1   4
ATOM      4  C   UNL     1       7.610   4.903  -9.777  1.00  0.00     0.034 C 
BRANCH   4   5
ATOM      5  C   UNL     1       8.127   5.012  -8.338  1.00  0.00     0.032 C 
BRANCH   5   6
ATOM      6  C   UNL     1       7.487   3.967  -7.460  1.00  0.00    -0.028 C 
ATOM      7  C   UNL     1       6.545   5.650  -5.863  1.00  0.00     0.039 C 
ATOM      8  C   UNL     1       6.751   4.239  -6.359  1.00  0.00    -0.080 C 
ATOM      9  C   UNL     1       6.137   3.088  -5.603  1.00  0.00     0.039 C 
ENDBRANCH   5   6
ENDBRANCH   4   5
ENDBRANCH   1   4
BRANCH   2  10
ATOM     10  C   UNL     1       5.427   3.019 -10.850  1.00  0.00     0.035 C 
BRANCH  10  11
ATOM     11  C   UNL     1       5.112   1.961  -9.785  1.00  0.00     0.079 C 
BRANCH  11  12
ATOM     12  C   UNL     1       6.341   1.194  -9.373  1.00  0.00     0.130 C 
ATOM     13  O   UNL     1       6.348   0.588  -8.311  1.00  0.00    -0.300 OA
ATOM     14  C   UNL     1       7.571   1.188 -10.228  1.00  0.00     0.087 C 
ENDBRANCH  11  12
ENDBRANCH  10  11
ENDBRANCH   2  10
TORSDOF 6
ENDMDL
