MODEL 1
REMARK VINA RESULT:    -2.889      0.000      0.000
REMARK INTER + INTRA:          -3.368
REMARK INTER:                  -3.311
REMARK INTRA:                  -0.057
REMARK UNBOUND:                -0.057
REMARK SMILES CC(C)[C@H]([NH3+])C(=O)[O-]
REMARK SMILES IDX 4 1 5 2 6 6 7 7 8 8 2 9 1 10 3 11
REMARK H PARENT 5 3 5 4 5 5
REMARK Flexibility Score: inf
ROOT
ATOM      1  C   UNL     1     154.208 103.503  40.573  1.00  0.00     0.230 C 
ENDROOT
BRANCH   1   2
ATOM      2  N   UNL     1     153.840 102.287  39.831  1.00  0.00    -0.350 N 
ATOM      3  H   UNL     1     152.998 101.840  40.257  1.00  0.00     0.345 HD
ATOM      4  H   UNL     1     154.626 101.599  39.810  1.00  0.00     0.345 HD
ATOM      5  H   UNL     1     153.597 102.542  38.845  1.00  0.00     0.345 HD
ENDBRANCH   1   2
BRANCH   1   6
ATOM      6  C   UNL     1     155.669 103.477  40.950  1.00  0.00     0.099 C 
ATOM      7  O   UNL     1     156.112 102.555  41.687  1.00  0.00    -0.544 OA
ATOM      8  O   UNL     1     156.547 104.434  40.456  1.00  0.00    -0.544 OA
ENDBRANCH   1   6
BRANCH   1   9
ATOM      9  C   UNL     1     153.316 103.744  41.828  1.00  0.00     0.047 C 
ATOM     10  C   UNL     1     153.137 105.239  42.125  1.00  0.00     0.014 C 
ATOM     11  C   UNL     1     151.946 103.051  41.752  1.00  0.00     0.014 C 
ENDBRANCH   1   9
TORSDOF 3
ENDMDL
MODEL 2
REMARK VINA RESULT:    -2.880      2.692      3.488
REMARK INTER + INTRA:          -3.358
REMARK INTER:                  -3.314
REMARK INTRA:                  -0.044
REMARK UNBOUND:                -0.057
REMARK SMILES CC(C)[C@H]([NH3+])C(=O)[O-]
REMARK SMILES IDX 4 1 5 2 6 6 7 7 8 8 2 9 1 10 3 11
REMARK H PARENT 5 3 5 4 5 5
REMARK Flexibility Score: inf
ROOT
ATOM      1  C   UNL     1     153.299 102.916  40.751  1.00  0.00     0.230 C 
ENDROOT
BRANCH   1   2
ATOM      2  N   UNL     1     153.676 102.454  39.406  1.00  0.00    -0.350 N 
ATOM      3  H   UNL     1     152.866 102.535  38.752  1.00  0.00     0.345 HD
ATOM      4  H   UNL     1     154.013 101.465  39.422  1.00  0.00     0.345 HD
ATOM      5  H   UNL     1     154.444 103.059  39.034  1.00  0.00     0.345 HD
ENDBRANCH   1   2
BRANCH   1   6
ATOM      6  C   UNL     1     152.045 103.755  40.695  1.00  0.00     0.099 C 
ATOM      7  O   UNL     1     151.618 104.172  39.585  1.00  0.00    -0.544 OA
ATOM      8  O   UNL     1     151.327 104.037  41.851  1.00  0.00    -0.544 OA
ENDBRANCH   1   6
BRANCH   1   9
ATOM      9  C   UNL     1     154.446 103.680  41.477  1.00  0.00     0.047 C 
ATOM     10  C   UNL     1     155.799 102.975  41.310  1.00  0.00     0.014 C 
ATOM     11  C   UNL     1     154.562 105.156  41.062  1.00  0.00     0.014 C 
ENDBRANCH   1   9
TORSDOF 3
ENDMDL
MODEL 3
REMARK VINA RESULT:    -2.867      0.534      1.123
REMARK INTER + INTRA:          -3.343
REMARK INTER:                  -3.317
REMARK INTRA:                  -0.026
REMARK UNBOUND:                -0.057
REMARK SMILES CC(C)[C@H]([NH3+])C(=O)[O-]
REMARK SMILES IDX 4 1 5 2 6 6 7 7 8 8 2 9 1 10 3 11
REMARK H PARENT 5 3 5 4 5 5
REMARK Flexibility Score: inf
ROOT
ATOM      1  C   UNL     1     154.138 103.450  40.441  1.00  0.00     0.230 C 
ENDROOT
BRANCH   1   2
ATOM      2  N   UNL     1     153.537 102.338  39.689  1.00  0.00    -0.350 N 
ATOM      3  H   UNL     1     152.547 102.189  39.988  1.00  0.00     0.345 HD
ATOM      4  H   UNL     1     154.077 101.453  39.818  1.00  0.00     0.345 HD
ATOM      5  H   UNL     1     153.527 102.574  38.669  1.00  0.00     0.345 HD
ENDBRANCH   1   2
BRANCH   1   6
ATOM      6  C   UNL     1     155.612 103.212  40.661  1.00  0.00     0.099 C 
ATOM      7  O   UNL     1     156.369 104.178  40.945  1.00  0.00    -0.544 OA
ATOM      8  O   UNL     1     156.140 101.927  40.601  1.00  0.00    -0.544 OA
ENDBRANCH   1   6
BRANCH   1   9
ATOM      9  C   UNL     1     153.414 103.735  41.791  1.00  0.00     0.047 C 
ATOM     10  C   UNL     1     153.265 105.240  42.055  1.00  0.00     0.014 C 
ATOM     11  C   UNL     1     152.050 103.037  41.918  1.00  0.00     0.014 C 
ENDBRANCH   1   9
TORSDOF 3
ENDMDL
MODEL 4
REMARK VINA RESULT:    -2.840      1.741      2.159
REMARK INTER + INTRA:          -3.313
REMARK INTER:                  -3.235
REMARK INTRA:                  -0.078
REMARK UNBOUND:                -0.057
REMARK SMILES CC(C)[C@H]([NH3+])C(=O)[O-]
REMARK SMILES IDX 4 1 5 2 6 6 7 7 8 8 2 9 1 10 3 11
REMARK H PARENT 5 3 5 4 5 5
REMARK Flexibility Score: inf
ROOT
ATOM      1  C   UNL     1     154.849 103.395  41.442  1.00  0.00     0.230 C 
ENDROOT
BRANCH   1   2
ATOM      2  N   UNL     1     154.634 104.780  41.889  1.00  0.00    -0.350 N 
ATOM      3  H   UNL     1     154.998 105.453  41.178  1.00  0.00     0.345 HD
ATOM      4  H   UNL     1     155.095 104.962  42.808  1.00  0.00     0.345 HD
ATOM      5  H   UNL     1     153.607 104.956  41.993  1.00  0.00     0.345 HD
ENDBRANCH   1   2
BRANCH   1   6
ATOM      6  C   UNL     1     156.279 103.191  41.004  1.00  0.00     0.099 C 
ATOM      7  O   UNL     1     156.717 102.025  40.812  1.00  0.00    -0.544 OA
ATOM      8  O   UNL     1     157.110 104.279  40.764  1.00  0.00    -0.544 OA
ENDBRANCH   1   6
BRANCH   1   9
ATOM      9  C   UNL     1     153.858 102.953  40.324  1.00  0.00     0.047 C 
ATOM     10  C   UNL     1     152.401 102.979  40.807  1.00  0.00     0.014 C 
ATOM     11  C   UNL     1     153.999 103.760  39.022  1.00  0.00     0.014 C 
ENDBRANCH   1   9
TORSDOF 3
ENDMDL
MODEL 5
REMARK VINA RESULT:    -2.826      2.534      3.489
REMARK INTER + INTRA:          -3.296
REMARK INTER:                  -3.223
REMARK INTRA:                  -0.072
REMARK UNBOUND:                -0.057
REMARK SMILES CC(C)[C@H]([NH3+])C(=O)[O-]
REMARK SMILES IDX 4 1 5 2 6 6 7 7 8 8 2 9 1 10 3 11
REMARK H PARENT 5 3 5 4 5 5
REMARK Flexibility Score: inf
ROOT
ATOM      1  C   UNL     1     154.630 104.214  40.686  1.00  0.00     0.230 C 
ENDROOT
BRANCH   1   2
ATOM      2  N   UNL     1     154.347 104.503  42.100  1.00  0.00    -0.350 N 
ATOM      3  H   UNL     1     153.427 104.095  42.379  1.00  0.00     0.345 HD
ATOM      4  H   UNL     1     154.343 105.531  42.287  1.00  0.00     0.345 HD
ATOM      5  H   UNL     1     155.082 104.060  42.699  1.00  0.00     0.345 HD
ENDBRANCH   1   2
BRANCH   1   6
ATOM      6  C   UNL     1     153.589 103.285  40.112  1.00  0.00     0.099 C 
ATOM      7  O   UNL     1     153.623 102.981  38.889  1.00  0.00    -0.544 OA
ATOM      8  O   UNL     1     152.614 102.720  40.926  1.00  0.00    -0.544 OA
ENDBRANCH   1   6
BRANCH   1   9
ATOM      9  C   UNL     1     156.064 103.650  40.454  1.00  0.00     0.047 C 
ATOM     10  C   UNL     1     157.137 104.740  40.591  1.00  0.00     0.014 C 
ATOM     11  C   UNL     1     156.408 102.452  41.354  1.00  0.00     0.014 C 
ENDBRANCH   1   9
TORSDOF 3
ENDMDL
MODEL 6
REMARK VINA RESULT:    -2.694      2.199      3.413
REMARK INTER + INTRA:          -3.145
REMARK INTER:                  -3.080
REMARK INTRA:                  -0.065
REMARK UNBOUND:                -0.057
REMARK SMILES CC(C)[C@H]([NH3+])C(=O)[O-]
REMARK SMILES IDX 4 1 5 2 6 6 7 7 8 8 2 9 1 10 3 11
REMARK H PARENT 5 3 5 4 5 5
REMARK Flexibility Score: inf
ROOT
ATOM      1  C   UNL     1     154.020 102.854  40.609  1.00  0.00     0.230 C 
ENDROOT
BRANCH   1   2
ATOM      2  N   UNL     1     153.461 102.500  39.296  1.00  0.00    -0.350 N 
ATOM      3  H   UNL     1     152.558 101.987  39.410  1.00  0.00     0.345 HD
ATOM      4  H   UNL     1     154.126 101.915  38.742  1.00  0.00     0.345 HD
ATOM      5  H   UNL     1     153.260 103.374  38.756  1.00  0.00     0.345 HD
ENDBRANCH   1   2
BRANCH   1   6
ATOM      6  C   UNL     1     153.152 103.877  41.301  1.00  0.00     0.099 C 
ATOM      7  O   UNL     1     153.682 104.776  42.007  1.00  0.00    -0.544 OA
ATOM      8  O   UNL     1     151.772 103.868  41.133  1.00  0.00    -0.544 OA
ENDBRANCH   1   6
BRANCH   1   9
ATOM      9  C   UNL     1     155.497 103.343  40.532  1.00  0.00     0.047 C 
ATOM     10  C   UNL     1     156.485 102.253  40.973  1.00  0.00     0.014 C 
ATOM     11  C   UNL     1     155.893 103.890  39.150  1.00  0.00     0.014 C 
ENDBRANCH   1   9
TORSDOF 3
ENDMDL
MODEL 7
REMARK VINA RESULT:    -2.673      3.073      3.723
REMARK INTER + INTRA:          -3.120
REMARK INTER:                  -3.126
REMARK INTRA:                   0.006
REMARK UNBOUND:                -0.057
REMARK SMILES CC(C)[C@H]([NH3+])C(=O)[O-]
REMARK SMILES IDX 4 1 5 2 6 6 7 7 8 8 2 9 1 10 3 11
REMARK H PARENT 5 3 5 4 5 5
REMARK Flexibility Score: inf
ROOT
ATOM      1  C   UNL     1     152.299 104.996  41.980  1.00  0.00     0.230 C 
ENDROOT
BRANCH   1   2
ATOM      2  N   UNL     1     150.900 104.605  41.754  1.00  0.00    -0.350 N 
ATOM      3  H   UNL     1     150.435 105.275  41.101  1.00  0.00     0.345 HD
ATOM      4  H   UNL     1     150.364 104.563  42.650  1.00  0.00     0.345 HD
ATOM      5  H   UNL     1     150.871 103.659  41.307  1.00  0.00     0.345 HD
ENDBRANCH   1   2
BRANCH   1   6
ATOM      6  C   UNL     1     152.657 106.206  41.152  1.00  0.00     0.099 C 
ATOM      7  O   UNL     1     152.383 106.227  39.922  1.00  0.00    -0.544 OA
ATOM      8  O   UNL     1     153.245 107.320  41.738  1.00  0.00    -0.544 OA
ENDBRANCH   1   6
BRANCH   1   9
ATOM      9  C   UNL     1     153.306 103.834  41.728  1.00  0.00     0.047 C 
ATOM     10  C   UNL     1     152.837 102.905  40.599  1.00  0.00     0.014 C 
ATOM     11  C   UNL     1     154.743 104.311  41.460  1.00  0.00     0.014 C 
ENDBRANCH   1   9
TORSDOF 3
ENDMDL
MODEL 8
REMARK VINA RESULT:    -2.656      3.056      3.780
REMARK INTER + INTRA:          -3.101
REMARK INTER:                  -3.041
REMARK INTRA:                  -0.060
REMARK UNBOUND:                -0.057
REMARK SMILES CC(C)[C@H]([NH3+])C(=O)[O-]
REMARK SMILES IDX 4 1 5 2 6 6 7 7 8 8 2 9 1 10 3 11
REMARK H PARENT 5 3 5 4 5 5
REMARK Flexibility Score: inf
ROOT
ATOM      1  C   UNL     1     153.387 104.545  40.961  1.00  0.00     0.230 C 
ENDROOT
BRANCH   1   2
ATOM      2  N   UNL     1     154.228 104.870  42.123  1.00  0.00    -0.350 N 
ATOM      3  H   UNL     1     153.634 105.058  42.962  1.00  0.00     0.345 HD
ATOM      4  H   UNL     1     154.837 105.698  41.936  1.00  0.00     0.345 HD
ATOM      5  H   UNL     1     154.841 104.052  42.348  1.00  0.00     0.345 HD
ENDBRANCH   1   2
BRANCH   1   6
ATOM      6  C   UNL     1     151.930 104.506  41.350  1.00  0.00     0.099 C 
ATOM      7  O   UNL     1     151.473 103.512  41.977  1.00  0.00    -0.544 OA
ATOM      8  O   UNL     1     151.090 105.577  41.067  1.00  0.00    -0.544 OA
ENDBRANCH   1   6
BRANCH   1   9
ATOM      9  C   UNL     1     153.808 103.221  40.255  1.00  0.00     0.047 C 
ATOM     10  C   UNL     1     153.522 103.260  38.747  1.00  0.00     0.014 C 
ATOM     11  C   UNL     1     155.273 102.828  40.507  1.00  0.00     0.014 C 
ENDBRANCH   1   9
TORSDOF 3
ENDMDL
MODEL 9
REMARK VINA RESULT:    -2.575      3.043      3.431
REMARK INTER + INTRA:          -3.009
REMARK INTER:                  -2.962
REMARK INTRA:                  -0.047
REMARK UNBOUND:                -0.057
REMARK SMILES CC(C)[C@H]([NH3+])C(=O)[O-]
REMARK SMILES IDX 4 1 5 2 6 6 7 7 8 8 2 9 1 10 3 11
REMARK H PARENT 5 3 5 4 5 5
REMARK Flexibility Score: inf
ROOT
ATOM      1  C   UNL     1     151.648 104.096  40.557  1.00  0.00     0.230 C 
ENDROOT
BRANCH   1   2
ATOM      2  N   UNL     1     150.940 104.426  41.803  1.00  0.00    -0.350 N 
ATOM      3  H   UNL     1     150.407 105.318  41.695  1.00  0.00     0.345 HD
ATOM      4  H   UNL     1     151.601 104.511  42.608  1.00  0.00     0.345 HD
ATOM      5  H   UNL     1     150.249 103.670  42.021  1.00  0.00     0.345 HD
ENDBRANCH   1   2
BRANCH   1   6
ATOM      6  C   UNL     1     153.045 103.608  40.849  1.00  0.00     0.099 C 
ATOM      7  O   UNL     1     153.511 102.621  40.218  1.00  0.00    -0.544 OA
ATOM      8  O   UNL     1     153.847 104.262  41.777  1.00  0.00    -0.544 OA
ENDBRANCH   1   6
BRANCH   1   9
ATOM      9  C   UNL     1     151.674 105.276  39.539  1.00  0.00     0.047 C 
ATOM     10  C   UNL     1     151.667 104.780  38.086  1.00  0.00     0.014 C 
ATOM     11  C   UNL     1     150.548 106.300  39.755  1.00  0.00     0.014 C 
ENDBRANCH   1   9
TORSDOF 3
ENDMDL
