MODEL 1
REMARK VINA RESULT:     4.066      0.000      0.000
REMARK INTER + INTRA:           5.527
REMARK INTER:                   5.017
REMARK INTRA:                   0.510
REMARK UNBOUND:                 0.510
REMARK SMILES O=c1c(O)c(-c2cc(O)c(O)c(O)c2)oc2cc(O)cc(O)c12
REMARK SMILES IDX 5 1 3 2 2 3 1 4 23 5 21 6 20 7 18 8 17 9 16 10 15 11 6 12
REMARK SMILES IDX 7 13 8 14 14 15 10 16 12 17 9 18 11 20 13 22 4 24 22 26
REMARK SMILES IDX 19 28
REMARK H PARENT 9 19 11 21 13 23 4 25 22 27 19 29
REMARK Flexibility Score: inf
ROOT
ATOM      1  C   UNL     1      10.324  17.963  16.375  1.00  0.00     0.180 A 
ATOM      2  C   UNL     1      11.308  18.923  16.678  1.00  0.00     0.208 A 
ATOM      3  C   UNL     1      11.857  19.686  15.636  1.00  0.00     0.238 A 
ATOM      4  O   UNL     1      12.747  20.541  15.895  1.00  0.00    -0.285 OA
ATOM      5  C   UNL     1      11.400  19.493  14.316  1.00  0.00     0.111 A 
ATOM      6  C   UNL     1      11.897  20.223  13.209  1.00  0.00     0.134 A 
ATOM      7  C   UNL     1      11.385  19.977  11.927  1.00  0.00     0.093 A 
ATOM      8  C   UNL     1      10.384  19.019  11.731  1.00  0.00     0.123 A 
ATOM      9  C   UNL     1       9.892  18.296  12.818  1.00  0.00     0.094 A 
ATOM     10  C   UNL     1      10.391  18.523  14.104  1.00  0.00     0.146 A 
ATOM     11  O   UNL     1       9.907  17.818  15.120  1.00  0.00    -0.452 OA
ENDROOT
BRANCH   1  12
ATOM     12  C   UNL     1       9.712  17.107  17.416  1.00  0.00     0.029 A 
ATOM     13  C   UNL     1      10.045  17.314  18.761  1.00  0.00     0.062 A 
ATOM     14  C   UNL     1       9.468  16.533  19.768  1.00  0.00     0.162 A 
ATOM     15  C   UNL     1       8.760  16.128  17.091  1.00  0.00     0.062 A 
ATOM     16  C   UNL     1       8.531  15.536  19.441  1.00  0.00     0.200 A 
ATOM     17  C   UNL     1       8.169  15.340  18.086  1.00  0.00     0.162 A 
BRANCH  14  18
ATOM     18  O   UNL     1       9.842  16.765  21.092  1.00  0.00    -0.504 OA
ATOM     19  H   UNL     1       9.269  16.473  21.874  1.00  0.00     0.293 HD
ENDBRANCH  14  18
BRANCH  16  20
ATOM     20  O   UNL     1       7.985  14.772  20.475  1.00  0.00    -0.502 OA
ATOM     21  H   UNL     1       7.055  14.901  20.847  1.00  0.00     0.293 HD
ENDBRANCH  16  20
BRANCH  17  22
ATOM     22  O   UNL     1       7.231  14.387  17.685  1.00  0.00    -0.504 OA
ATOM     23  H   UNL     1       7.195  13.442  18.039  1.00  0.00     0.293 HD
ENDBRANCH  17  22
ENDBRANCH   1  12
BRANCH   2  24
ATOM     24  O   UNL     1      11.708  19.130  18.002  1.00  0.00    -0.502 OA
ATOM     25  H   UNL     1      12.462  18.604  18.429  1.00  0.00     0.293 HD
ENDBRANCH   2  24
BRANCH   6  26
ATOM     26  O   UNL     1      12.894  21.186  13.374  1.00  0.00    -0.507 OA
ATOM     27  H   UNL     1      13.266  21.416  14.288  1.00  0.00     0.293 HD
ENDBRANCH   6  26
BRANCH   8  28
ATOM     28  O   UNL     1       9.875  18.775  10.457  1.00  0.00    -0.508 OA
ATOM     29  H   UNL     1      10.473  18.766   9.639  1.00  0.00     0.293 HD
ENDBRANCH   8  28
TORSDOF 7
ENDMDL
MODEL 2
REMARK VINA RESULT:     4.323      0.056      1.767
REMARK INTER + INTRA:           5.844
REMARK INTER:                   5.414
REMARK INTRA:                   0.431
REMARK UNBOUND:                 0.510
REMARK SMILES O=c1c(O)c(-c2cc(O)c(O)c(O)c2)oc2cc(O)cc(O)c12
REMARK SMILES IDX 5 1 3 2 2 3 1 4 23 5 21 6 20 7 18 8 17 9 16 10 15 11 6 12
REMARK SMILES IDX 7 13 8 14 14 15 10 16 12 17 9 18 11 20 13 22 4 24 22 26
REMARK SMILES IDX 19 28
REMARK H PARENT 9 19 11 21 13 23 4 25 22 27 19 29
REMARK Flexibility Score: inf
ROOT
ATOM      1  C   UNL     1      10.310  18.015  16.393  1.00  0.00     0.180 A 
ATOM      2  C   UNL     1      11.318  18.955  16.678  1.00  0.00     0.208 A 
ATOM      3  C   UNL     1      11.873  19.696  15.623  1.00  0.00     0.238 A 
ATOM      4  O   UNL     1      12.785  20.533  15.866  1.00  0.00    -0.285 OA
ATOM      5  C   UNL     1      11.399  19.502  14.310  1.00  0.00     0.111 A 
ATOM      6  C   UNL     1      11.901  20.211  13.192  1.00  0.00     0.134 A 
ATOM      7  C   UNL     1      11.370  19.967  11.917  1.00  0.00     0.093 A 
ATOM      8  C   UNL     1      10.346  19.029  11.739  1.00  0.00     0.123 A 
ATOM      9  C   UNL     1       9.848  18.327  12.838  1.00  0.00     0.094 A 
ATOM     10  C   UNL     1      10.366  18.554  14.117  1.00  0.00     0.146 A 
ATOM     11  O   UNL     1       9.877  17.869  15.144  1.00  0.00    -0.452 OA
ENDROOT
BRANCH   1  12
ATOM     12  C   UNL     1       9.689  17.181  17.448  1.00  0.00     0.029 A 
ATOM     13  C   UNL     1       8.769  16.188  17.089  1.00  0.00     0.062 A 
ATOM     14  C   UNL     1       8.182  15.374  18.062  1.00  0.00     0.162 A 
ATOM     15  C   UNL     1      10.047  17.326  18.797  1.00  0.00     0.062 A 
ATOM     16  C   UNL     1       8.523  15.533  19.418  1.00  0.00     0.200 A 
ATOM     17  C   UNL     1       9.472  16.516  19.785  1.00  0.00     0.162 A 
BRANCH  14  18
ATOM     18  O   UNL     1       7.259  14.408  17.659  1.00  0.00    -0.504 OA
ATOM     19  H   UNL     1       6.451  14.165  18.220  1.00  0.00     0.293 HD
ENDBRANCH  14  18
BRANCH  16  20
ATOM     20  O   UNL     1       7.906  14.705  20.360  1.00  0.00    -0.502 OA
ATOM     21  H   UNL     1       8.070  13.712  20.437  1.00  0.00     0.293 HD
ENDBRANCH  16  20
BRANCH  17  22
ATOM     22  O   UNL     1       9.878  16.719  21.106  1.00  0.00    -0.504 OA
ATOM     23  H   UNL     1       9.900  17.621  21.559  1.00  0.00     0.293 HD
ENDBRANCH  17  22
ENDBRANCH   1  12
BRANCH   2  24
ATOM     24  O   UNL     1      11.737  19.163  17.995  1.00  0.00    -0.502 OA
ATOM     25  H   UNL     1      12.707  19.329  18.237  1.00  0.00     0.293 HD
ENDBRANCH   2  24
BRANCH   6  26
ATOM     26  O   UNL     1      12.920  21.153  13.338  1.00  0.00    -0.507 OA
ATOM     27  H   UNL     1      12.896  22.044  12.856  1.00  0.00     0.293 HD
ENDBRANCH   6  26
BRANCH   8  28
ATOM     28  O   UNL     1       9.817  18.787  10.473  1.00  0.00    -0.508 OA
ATOM     29  H   UNL     1       8.826  18.883  10.285  1.00  0.00     0.293 HD
ENDBRANCH   8  28
TORSDOF 7
ENDMDL
MODEL 3
REMARK VINA RESULT:     6.244      1.397      6.822
REMARK INTER + INTRA:           8.215
REMARK INTER:                   8.289
REMARK INTRA:                  -0.074
REMARK UNBOUND:                 0.510
REMARK SMILES O=c1c(O)c(-c2cc(O)c(O)c(O)c2)oc2cc(O)cc(O)c12
REMARK SMILES IDX 5 1 3 2 2 3 1 4 23 5 21 6 20 7 18 8 17 9 16 10 15 11 6 12
REMARK SMILES IDX 7 13 8 14 14 15 10 16 12 17 9 18 11 20 13 22 4 24 22 26
REMARK SMILES IDX 19 28
REMARK H PARENT 9 19 11 21 13 23 4 25 22 27 19 29
REMARK Flexibility Score: inf
ROOT
ATOM      1  C   UNL     1      10.234  17.727  16.727  1.00  0.00     0.180 A 
ATOM      2  C   UNL     1      10.940  17.890  17.934  1.00  0.00     0.208 A 
ATOM      3  C   UNL     1      10.495  17.210  19.078  1.00  0.00     0.238 A 
ATOM      4  O   UNL     1      11.113  17.357  20.167  1.00  0.00    -0.285 OA
ATOM      5  C   UNL     1       9.369  16.365  18.992  1.00  0.00     0.111 A 
ATOM      6  C   UNL     1       8.858  15.641  20.096  1.00  0.00     0.134 A 
ATOM      7  C   UNL     1       7.738  14.814  19.928  1.00  0.00     0.093 A 
ATOM      8  C   UNL     1       7.120  14.697  18.677  1.00  0.00     0.123 A 
ATOM      9  C   UNL     1       7.620  15.410  17.586  1.00  0.00     0.094 A 
ATOM     10  C   UNL     1       8.734  16.241  17.734  1.00  0.00     0.146 A 
ATOM     11  O   UNL     1       9.185  16.911  16.680  1.00  0.00    -0.452 OA
ENDROOT
BRANCH   1  12
ATOM     12  C   UNL     1      10.630  18.426  15.483  1.00  0.00     0.029 A 
ATOM     13  C   UNL     1      10.767  19.820  15.489  1.00  0.00     0.062 A 
ATOM     14  C   UNL     1      11.158  20.505  14.335  1.00  0.00     0.162 A 
ATOM     15  C   UNL     1      10.929  17.716  14.309  1.00  0.00     0.062 A 
ATOM     16  C   UNL     1      11.436  19.796  13.151  1.00  0.00     0.200 A 
ATOM     17  C   UNL     1      11.327  18.385  13.145  1.00  0.00     0.162 A 
BRANCH  14  18
ATOM     18  O   UNL     1      11.266  21.895  14.384  1.00  0.00    -0.504 OA
ATOM     19  H   UNL     1      10.705  22.458  15.013  1.00  0.00     0.293 HD
ENDBRANCH  14  18
BRANCH  16  20
ATOM     20  O   UNL     1      11.815  20.519  12.017  1.00  0.00    -0.502 OA
ATOM     21  H   UNL     1      12.686  21.021  11.928  1.00  0.00     0.293 HD
ENDBRANCH  16  20
BRANCH  17  22
ATOM     22  O   UNL     1      11.606  17.610  12.017  1.00  0.00    -0.504 OA
ATOM     23  H   UNL     1      12.315  16.892  11.985  1.00  0.00     0.293 HD
ENDBRANCH  17  22
ENDBRANCH   1  12
BRANCH   2  24
ATOM     24  O   UNL     1      12.082  18.695  17.980  1.00  0.00    -0.502 OA
ATOM     25  H   UNL     1      12.859  18.499  18.600  1.00  0.00     0.293 HD
ENDBRANCH   2  24
BRANCH   6  26
ATOM     26  O   UNL     1       9.453  15.737  21.355  1.00  0.00    -0.507 OA
ATOM     27  H   UNL     1      10.357  16.177  21.484  1.00  0.00     0.293 HD
ENDBRANCH   6  26
BRANCH   8  28
ATOM     28  O   UNL     1       6.007  13.875  18.509  1.00  0.00    -0.508 OA
ATOM     29  H   UNL     1       6.045  13.043  17.932  1.00  0.00     0.293 HD
ENDBRANCH   8  28
TORSDOF 7
ENDMDL
