MODEL 1
REMARK VINA RESULT:    -4.571      0.000      0.000
REMARK INTER + INTRA:          -5.831
REMARK INTER:                  -5.639
REMARK INTRA:                  -0.191
REMARK UNBOUND:                -0.191
REMARK SMILES CCCCC=CC(C)=O
REMARK SMILES IDX 4 1 3 2 2 3 1 4 5 5 6 6 7 7 9 8 8 9
REMARK H PARENT
REMARK Flexibility Score: inf
ROOT
ATOM      1  C   UNL     1      19.238   2.703  20.154  1.00  0.00     0.027 C 
ENDROOT
BRANCH   1   2
ATOM      2  C   UNL     1      19.030   2.243  18.707  1.00  0.00     0.004 C 
BRANCH   2   3
ATOM      3  C   UNL     1      18.142   3.229  17.939  1.00  0.00    -0.003 C 
ATOM      4  C   UNL     1      18.655   4.658  18.078  1.00  0.00     0.004 C 
ENDBRANCH   2   3
ENDBRANCH   1   2
BRANCH   1   5
ATOM      5  C   UNL     1      19.428   1.532  21.075  1.00  0.00    -0.023 C 
ATOM      6  C   UNL     1      19.521   0.281  20.605  1.00  0.00     0.042 C 
BRANCH   6   7
ATOM      7  C   UNL     1      19.697  -0.900  21.472  1.00  0.00     0.152 C 
ATOM      8  O   UNL     1      19.769  -2.038  20.935  1.00  0.00    -0.295 OA
ATOM      9  C   UNL     1      19.795  -0.796  22.965  1.00  0.00     0.093 C 
ENDBRANCH   6   7
ENDBRANCH   1   5
TORSDOF 4
ENDMDL
MODEL 2
REMARK VINA RESULT:    -4.541      2.349      5.123
REMARK INTER + INTRA:          -5.794
REMARK INTER:                  -5.588
REMARK INTRA:                  -0.206
REMARK UNBOUND:                -0.191
REMARK SMILES CCCCC=CC(C)=O
REMARK SMILES IDX 4 1 3 2 2 3 1 4 5 5 6 6 7 7 9 8 8 9
REMARK H PARENT
REMARK Flexibility Score: inf
ROOT
ATOM      1  C   UNL     1      19.391   1.122  21.503  1.00  0.00     0.027 C 
ENDROOT
BRANCH   1   2
ATOM      2  C   UNL     1      19.502  -0.196  20.729  1.00  0.00     0.004 C 
BRANCH   2   3
ATOM      3  C   UNL     1      19.811  -1.363  21.673  1.00  0.00    -0.003 C 
ATOM      4  C   UNL     1      19.830  -0.906  23.128  1.00  0.00     0.004 C 
ENDBRANCH   2   3
ENDBRANCH   1   2
BRANCH   1   5
ATOM      5  C   UNL     1      19.400   2.302  20.574  1.00  0.00    -0.023 C 
ATOM      6  C   UNL     1      19.232   2.153  19.253  1.00  0.00     0.042 C 
BRANCH   6   7
ATOM      7  C   UNL     1      19.245   3.280  18.301  1.00  0.00     0.152 C 
ATOM      8  O   UNL     1      18.279   3.407  17.502  1.00  0.00    -0.295 OA
ATOM      9  C   UNL     1      20.363   4.278  18.251  1.00  0.00     0.093 C 
ENDBRANCH   6   7
ENDBRANCH   1   5
TORSDOF 4
ENDMDL
MODEL 3
REMARK VINA RESULT:    -4.540      2.422      5.517
REMARK INTER + INTRA:          -5.792
REMARK INTER:                  -5.706
REMARK INTRA:                  -0.086
REMARK UNBOUND:                -0.191
REMARK SMILES CCCCC=CC(C)=O
REMARK SMILES IDX 4 1 3 2 2 3 1 4 5 5 6 6 7 7 9 8 8 9
REMARK H PARENT
REMARK Flexibility Score: inf
ROOT
ATOM      1  C   UNL     1      19.392   0.942  21.423  1.00  0.00     0.027 C 
ENDROOT
BRANCH   1   2
ATOM      2  C   UNL     1      19.715  -0.555  21.368  1.00  0.00     0.004 C 
BRANCH   2   3
ATOM      3  C   UNL     1      19.835  -1.144  22.778  1.00  0.00    -0.003 C 
ATOM      4  C   UNL     1      20.205  -2.623  22.729  1.00  0.00     0.004 C 
ENDBRANCH   2   3
ENDBRANCH   1   2
BRANCH   1   5
ATOM      5  C   UNL     1      19.362   1.544  20.047  1.00  0.00    -0.023 C 
ATOM      6  C   UNL     1      19.380   2.871  19.865  1.00  0.00     0.042 C 
BRANCH   6   7
ATOM      7  C   UNL     1      19.341   3.507  18.534  1.00  0.00     0.152 C 
ATOM      8  O   UNL     1      20.393   4.037  18.087  1.00  0.00    -0.295 OA
ATOM      9  C   UNL     1      18.097   3.545  17.697  1.00  0.00     0.093 C 
ENDBRANCH   6   7
ENDBRANCH   1   5
TORSDOF 4
ENDMDL
MODEL 4
REMARK VINA RESULT:    -4.250      2.049      3.117
REMARK INTER + INTRA:          -5.435
REMARK INTER:                  -5.210
REMARK INTRA:                  -0.225
REMARK UNBOUND:                -0.191
REMARK SMILES CCCCC=CC(C)=O
REMARK SMILES IDX 4 1 3 2 2 3 1 4 5 5 6 6 7 7 9 8 8 9
REMARK H PARENT
REMARK Flexibility Score: inf
ROOT
ATOM      1  C   UNL     1      18.583   3.756  17.815  1.00  0.00     0.027 C 
ENDROOT
BRANCH   1   2
ATOM      2  C   UNL     1      19.282   5.083  18.133  1.00  0.00     0.004 C 
BRANCH   2   3
ATOM      3  C   UNL     1      18.286   6.248  18.111  1.00  0.00    -0.003 C 
ATOM      4  C   UNL     1      18.689   7.338  19.098  1.00  0.00     0.004 C 
ENDBRANCH   2   3
ENDBRANCH   1   2
BRANCH   1   5
ATOM      5  C   UNL     1      18.674   2.802  18.971  1.00  0.00    -0.023 C 
ATOM      6  C   UNL     1      19.394   3.093  20.062  1.00  0.00     0.042 C 
BRANCH   6   7
ATOM      7  C   UNL     1      19.522   2.182  21.216  1.00  0.00     0.152 C 
ATOM      8  O   UNL     1      19.684   2.680  22.363  1.00  0.00    -0.295 OA
ATOM      9  C   UNL     1      19.462   0.690  21.076  1.00  0.00     0.093 C 
ENDBRANCH   6   7
ENDBRANCH   1   5
TORSDOF 4
ENDMDL
MODEL 5
REMARK VINA RESULT:    -4.131      4.385      6.810
REMARK INTER + INTRA:          -5.288
REMARK INTER:                  -5.084
REMARK INTRA:                  -0.204
REMARK UNBOUND:                -0.191
REMARK SMILES CCCCC=CC(C)=O
REMARK SMILES IDX 4 1 3 2 2 3 1 4 5 5 6 6 7 7 9 8 8 9
REMARK H PARENT
REMARK Flexibility Score: inf
ROOT
ATOM      1  C   UNL     1      19.248   4.708  17.881  1.00  0.00     0.027 C 
ENDROOT
BRANCH   1   2
ATOM      2  C   UNL     1      18.311   3.510  18.075  1.00  0.00     0.004 C 
BRANCH   2   3
ATOM      3  C   UNL     1      19.029   2.362  18.793  1.00  0.00    -0.003 C 
ATOM      4  C   UNL     1      19.533   2.797  20.165  1.00  0.00     0.004 C 
ENDBRANCH   2   3
ENDBRANCH   1   2
BRANCH   1   5
ATOM      5  C   UNL     1      18.516   6.007  18.062  1.00  0.00    -0.023 C 
ATOM      6  C   UNL     1      18.873   6.883  19.010  1.00  0.00     0.042 C 
BRANCH   6   7
ATOM      7  C   UNL     1      18.177   8.165  19.232  1.00  0.00     0.152 C 
ATOM      8  O   UNL     1      17.511   8.663  18.284  1.00  0.00    -0.295 OA
ATOM      9  C   UNL     1      18.231   8.895  20.541  1.00  0.00     0.093 C 
ENDBRANCH   6   7
ENDBRANCH   1   5
TORSDOF 4
ENDMDL
MODEL 6
REMARK VINA RESULT:    -4.034      2.772      4.516
REMARK INTER + INTRA:          -5.168
REMARK INTER:                  -5.022
REMARK INTRA:                  -0.146
REMARK UNBOUND:                -0.191
REMARK SMILES CCCCC=CC(C)=O
REMARK SMILES IDX 4 1 3 2 2 3 1 4 5 5 6 6 7 7 9 8 8 9
REMARK H PARENT
REMARK Flexibility Score: inf
ROOT
ATOM      1  C   UNL     1      19.070   6.093  17.946  1.00  0.00     0.027 C 
ENDROOT
BRANCH   1   2
ATOM      2  C   UNL     1      17.972   7.061  18.401  1.00  0.00     0.004 C 
BRANCH   2   3
ATOM      3  C   UNL     1      18.466   7.952  19.547  1.00  0.00    -0.003 C 
ATOM      4  C   UNL     1      18.198   9.425  19.256  1.00  0.00     0.004 C 
ENDBRANCH   2   3
ENDBRANCH   1   2
BRANCH   1   5
ATOM      5  C   UNL     1      18.775   4.688  18.388  1.00  0.00    -0.023 C 
ATOM      6  C   UNL     1      19.621   4.012  19.176  1.00  0.00     0.042 C 
BRANCH   6   7
ATOM      7  C   UNL     1      19.379   2.627  19.626  1.00  0.00     0.152 C 
ATOM      8  O   UNL     1      19.390   2.384  20.863  1.00  0.00    -0.295 OA
ATOM      9  C   UNL     1      19.119   1.503  18.668  1.00  0.00     0.093 C 
ENDBRANCH   6   7
ENDBRANCH   1   5
TORSDOF 4
ENDMDL
MODEL 7
REMARK VINA RESULT:    -3.953      4.023      6.061
REMARK INTER + INTRA:          -5.068
REMARK INTER:                  -4.887
REMARK INTRA:                  -0.182
REMARK UNBOUND:                -0.191
REMARK SMILES CCCCC=CC(C)=O
REMARK SMILES IDX 4 1 3 2 2 3 1 4 5 5 6 6 7 7 9 8 8 9
REMARK H PARENT
REMARK Flexibility Score: inf
ROOT
ATOM      1  C   UNL     1      17.783   7.639  18.455  1.00  0.00     0.027 C 
ENDROOT
BRANCH   1   2
ATOM      2  C   UNL     1      18.667   8.171  19.589  1.00  0.00     0.004 C 
BRANCH   2   3
ATOM      3  C   UNL     1      18.030   9.397  20.253  1.00  0.00    -0.003 C 
ATOM      4  C   UNL     1      17.710  10.478  19.225  1.00  0.00     0.004 C 
ENDBRANCH   2   3
ENDBRANCH   1   2
BRANCH   1   5
ATOM      5  C   UNL     1      18.192   6.251  18.053  1.00  0.00    -0.023 C 
ATOM      6  C   UNL     1      19.151   5.587  18.711  1.00  0.00     0.042 C 
BRANCH   6   7
ATOM      7  C   UNL     1      19.593   4.227  18.345  1.00  0.00     0.152 C 
ATOM      8  O   UNL     1      20.823   4.019  18.167  1.00  0.00    -0.295 OA
ATOM      9  C   UNL     1      18.634   3.086  18.179  1.00  0.00     0.093 C 
ENDBRANCH   6   7
ENDBRANCH   1   5
TORSDOF 4
ENDMDL
MODEL 8
REMARK VINA RESULT:    -3.903      2.761      4.914
REMARK INTER + INTRA:          -5.007
REMARK INTER:                  -4.806
REMARK INTRA:                  -0.201
REMARK UNBOUND:                -0.191
REMARK SMILES CCCCC=CC(C)=O
REMARK SMILES IDX 4 1 3 2 2 3 1 4 5 5 6 6 7 7 9 8 8 9
REMARK H PARENT
REMARK Flexibility Score: inf
ROOT
ATOM      1  C   UNL     1      19.468   0.992  21.489  1.00  0.00     0.027 C 
ENDROOT
BRANCH   1   2
ATOM      2  C   UNL     1      19.783   1.471  22.911  1.00  0.00     0.004 C 
BRANCH   2   3
ATOM      3  C   UNL     1      19.907   2.998  22.961  1.00  0.00    -0.003 C 
ATOM      4  C   UNL     1      21.136   3.426  23.756  1.00  0.00     0.004 C 
ENDBRANCH   2   3
ENDBRANCH   1   2
BRANCH   1   5
ATOM      5  C   UNL     1      19.270   2.151  20.555  1.00  0.00    -0.023 C 
ATOM      6  C   UNL     1      19.231   1.979  19.227  1.00  0.00     0.042 C 
BRANCH   6   7
ATOM      7  C   UNL     1      19.050   3.088  18.271  1.00  0.00     0.152 C 
ATOM      8  O   UNL     1      20.041   3.817  17.996  1.00  0.00    -0.295 OA
ATOM      9  C   UNL     1      17.734   3.378  17.614  1.00  0.00     0.093 C 
ENDBRANCH   6   7
ENDBRANCH   1   5
TORSDOF 4
ENDMDL
MODEL 9
REMARK VINA RESULT:    -3.874      5.189      7.704
REMARK INTER + INTRA:          -4.971
REMARK INTER:                  -4.838
REMARK INTRA:                  -0.133
REMARK UNBOUND:                -0.191
REMARK SMILES CCCCC=CC(C)=O
REMARK SMILES IDX 4 1 3 2 2 3 1 4 5 5 6 6 7 7 9 8 8 9
REMARK H PARENT
REMARK Flexibility Score: inf
ROOT
ATOM      1  C   UNL     1      18.658   6.125  17.984  1.00  0.00     0.027 C 
ENDROOT
BRANCH   1   2
ATOM      2  C   UNL     1      19.457   5.011  18.669  1.00  0.00     0.004 C 
BRANCH   2   3
ATOM      3  C   UNL     1      19.291   3.680  17.929  1.00  0.00    -0.003 C 
ATOM      4  C   UNL     1      17.889   3.111  18.123  1.00  0.00     0.004 C 
ENDBRANCH   2   3
ENDBRANCH   1   2
BRANCH   1   5
ATOM      5  C   UNL     1      18.178   7.142  18.979  1.00  0.00    -0.023 C 
ATOM      6  C   UNL     1      18.440   8.447  18.826  1.00  0.00     0.042 C 
BRANCH   6   7
ATOM      7  C   UNL     1      17.999   9.480  19.783  1.00  0.00     0.152 C 
ATOM      8  O   UNL     1      17.984   9.199  21.011  1.00  0.00    -0.295 OA
ATOM      9  C   UNL     1      17.572  10.850  19.348  1.00  0.00     0.093 C 
ENDBRANCH   6   7
ENDBRANCH   1   5
TORSDOF 4
ENDMDL
