MODEL 1
REMARK VINA RESULT:    -4.638      0.000      0.000
REMARK INTER + INTRA:          -6.944
REMARK INTER:                  -6.264
REMARK INTRA:                  -0.680
REMARK UNBOUND:                -0.680
REMARK SMILES CC(=O)CCC=C(C)CCC=C(C)C
REMARK SMILES IDX 7 1 6 2 8 3 9 4 10 5 11 6 13 7 12 8 14 9 5 10 4 11 2 12 3 13
REMARK SMILES IDX 1 14
REMARK H PARENT
REMARK Flexibility Score: inf
ROOT
ATOM      1  C   UNL     1     -20.865  22.517  40.698  1.00  0.00    -0.077 C 
ATOM      2  C   UNL     1     -20.892  21.187  40.928  1.00  0.00    -0.028 C 
ATOM      3  C   UNL     1     -20.172  23.466  41.646  1.00  0.00     0.039 C 
ENDROOT
BRANCH   1   4
ATOM      4  C   UNL     1     -21.548  23.069  39.463  1.00  0.00     0.034 C 
BRANCH   4   5
ATOM      5  C   UNL     1     -21.855  21.969  38.437  1.00  0.00     0.032 C 
BRANCH   5   6
ATOM      6  C   UNL     1     -21.253  22.277  37.086  1.00  0.00    -0.028 C 
ATOM      7  C   UNL     1     -22.941  20.915  35.832  1.00  0.00     0.039 C 
ATOM      8  C   UNL     1     -21.710  21.787  35.913  1.00  0.00    -0.080 C 
ATOM      9  C   UNL     1     -20.970  22.146  34.650  1.00  0.00     0.039 C 
ENDBRANCH   5   6
ENDBRANCH   4   5
ENDBRANCH   1   4
BRANCH   2  10
ATOM     10  C   UNL     1     -20.253  20.545  42.138  1.00  0.00     0.035 C 
BRANCH  10  11
ATOM     11  C   UNL     1     -18.897  19.909  41.803  1.00  0.00     0.079 C 
BRANCH  11  12
ATOM     12  C   UNL     1     -17.750  20.761  42.285  1.00  0.00     0.130 C 
ATOM     13  O   UNL     1     -16.933  21.181  41.480  1.00  0.00    -0.300 OA
ATOM     14  C   UNL     1     -17.584  21.097  43.737  1.00  0.00     0.087 C 
ENDBRANCH  11  12
ENDBRANCH  10  11
ENDBRANCH   2  10
TORSDOF 6
ENDMDL
MODEL 2
REMARK VINA RESULT:    -4.557     16.453     18.941
REMARK INTER + INTRA:          -6.835
REMARK INTER:                  -6.096
REMARK INTRA:                  -0.739
REMARK UNBOUND:                -0.680
REMARK SMILES CC(=O)CCC=C(C)CCC=C(C)C
REMARK SMILES IDX 7 1 6 2 8 3 9 4 10 5 11 6 13 7 12 8 14 9 5 10 4 11 2 12 3 13
REMARK SMILES IDX 1 14
REMARK H PARENT
REMARK Flexibility Score: inf
ROOT
ATOM      1  C   UNL     1      -7.227  31.769  46.741  1.00  0.00    -0.077 C 
ATOM      2  C   UNL     1      -6.065  31.978  47.396  1.00  0.00    -0.028 C 
ATOM      3  C   UNL     1      -7.909  32.878  45.975  1.00  0.00     0.039 C 
ENDROOT
BRANCH   1   4
ATOM      4  C   UNL     1      -7.862  30.394  46.778  1.00  0.00     0.034 C 
BRANCH   4   5
ATOM      5  C   UNL     1      -7.589  29.602  45.490  1.00  0.00     0.032 C 
BRANCH   5   6
ATOM      6  C   UNL     1      -7.398  28.129  45.768  1.00  0.00    -0.028 C 
ATOM      7  C   UNL     1      -5.015  28.400  46.491  1.00  0.00     0.039 C 
ATOM      8  C   UNL     1      -6.241  27.571  46.187  1.00  0.00    -0.080 C 
ATOM      9  C   UNL     1      -6.192  26.076  46.372  1.00  0.00     0.039 C 
ENDBRANCH   5   6
ENDBRANCH   4   5
ENDBRANCH   1   4
BRANCH   2  10
ATOM     10  C   UNL     1      -5.364  33.317  47.430  1.00  0.00     0.035 C 
BRANCH  10  11
ATOM     11  C   UNL     1      -4.786  33.629  48.817  1.00  0.00     0.079 C 
BRANCH  11  12
ATOM     12  C   UNL     1      -5.859  34.079  49.777  1.00  0.00     0.130 C 
ATOM     13  O   UNL     1      -5.859  33.653  50.921  1.00  0.00    -0.300 OA
ATOM     14  C   UNL     1      -6.933  35.035  49.353  1.00  0.00     0.087 C 
ENDBRANCH  11  12
ENDBRANCH  10  11
ENDBRANCH   2  10
TORSDOF 6
ENDMDL
MODEL 3
REMARK VINA RESULT:    -4.340      1.612      3.604
REMARK INTER + INTRA:          -6.542
REMARK INTER:                  -6.028
REMARK INTRA:                  -0.515
REMARK UNBOUND:                -0.680
REMARK SMILES CC(=O)CCC=C(C)CCC=C(C)C
REMARK SMILES IDX 7 1 6 2 8 3 9 4 10 5 11 6 13 7 12 8 14 9 5 10 4 11 2 12 3 13
REMARK SMILES IDX 1 14
REMARK H PARENT
REMARK Flexibility Score: inf
ROOT
ATOM      1  C   UNL     1     -22.721  21.257  37.490  1.00  0.00    -0.077 C 
ATOM      2  C   UNL     1     -21.870  21.792  38.392  1.00  0.00    -0.028 C 
ATOM      3  C   UNL     1     -24.109  20.814  37.886  1.00  0.00     0.039 C 
ENDROOT
BRANCH   1   4
ATOM      4  C   UNL     1     -22.271  21.095  36.053  1.00  0.00     0.034 C 
BRANCH   4   5
ATOM      5  C   UNL     1     -21.604  22.368  35.514  1.00  0.00     0.032 C 
BRANCH   5   6
ATOM      6  C   UNL     1     -20.263  22.074  34.881  1.00  0.00    -0.028 C 
ATOM      7  C   UNL     1     -20.011  24.379  33.935  1.00  0.00     0.039 C 
ATOM      8  C   UNL     1     -19.551  22.956  34.146  1.00  0.00    -0.080 C 
ATOM      9  C   UNL     1     -18.251  22.496  33.537  1.00  0.00     0.039 C 
ENDBRANCH   5   6
ENDBRANCH   4   5
ENDBRANCH   1   4
BRANCH   2  10
ATOM     10  C   UNL     1     -22.221  21.981  39.851  1.00  0.00     0.035 C 
BRANCH  10  11
ATOM     11  C   UNL     1     -21.102  22.689  40.625  1.00  0.00     0.079 C 
BRANCH  11  12
ATOM     12  C   UNL     1     -20.082  21.709  41.148  1.00  0.00     0.130 C 
ATOM     13  O   UNL     1     -18.902  21.865  40.876  1.00  0.00    -0.300 OA
ATOM     14  C   UNL     1     -20.488  20.538  41.992  1.00  0.00     0.087 C 
ENDBRANCH  11  12
ENDBRANCH  10  11
ENDBRANCH   2  10
TORSDOF 6
ENDMDL
MODEL 4
REMARK VINA RESULT:    -4.290     15.683     19.019
REMARK INTER + INTRA:          -6.474
REMARK INTER:                  -5.427
REMARK INTRA:                  -1.047
REMARK UNBOUND:                -0.680
REMARK SMILES CC(=O)CCC=C(C)CCC=C(C)C
REMARK SMILES IDX 7 1 6 2 8 3 9 4 10 5 11 6 13 7 12 8 14 9 5 10 4 11 2 12 3 13
REMARK SMILES IDX 1 14
REMARK H PARENT
REMARK Flexibility Score: inf
ROOT
ATOM      1  C   UNL     1      -6.747  31.139  46.247  1.00  0.00    -0.077 C 
ATOM      2  C   UNL     1      -5.554  30.507  46.217  1.00  0.00    -0.028 C 
ATOM      3  C   UNL     1      -7.927  30.558  46.989  1.00  0.00     0.039 C 
ENDROOT
BRANCH   1   4
ATOM      4  C   UNL     1      -6.905  32.458  45.518  1.00  0.00     0.034 C 
BRANCH   4   5
ATOM      5  C   UNL     1      -6.039  33.563  46.138  1.00  0.00     0.032 C 
BRANCH   5   6
ATOM      6  C   UNL     1      -6.343  33.757  47.606  1.00  0.00    -0.028 C 
ATOM      7  C   UNL     1      -3.972  33.385  48.322  1.00  0.00     0.039 C 
ATOM      8  C   UNL     1      -5.433  33.650  48.599  1.00  0.00    -0.080 C 
ATOM      9  C   UNL     1      -5.902  33.822  50.021  1.00  0.00     0.039 C 
ENDBRANCH   5   6
ENDBRANCH   4   5
ENDBRANCH   1   4
BRANCH   2  10
ATOM     10  C   UNL     1      -5.303  29.182  46.901  1.00  0.00     0.035 C 
BRANCH  10  11
ATOM     11  C   UNL     1      -5.029  28.058  45.893  1.00  0.00     0.079 C 
BRANCH  11  12
ATOM     12  C   UNL     1      -6.119  27.015  45.914  1.00  0.00     0.130 C 
ATOM     13  O   UNL     1      -5.878  25.902  46.353  1.00  0.00    -0.300 OA
ATOM     14  C   UNL     1      -7.494  27.314  45.396  1.00  0.00     0.087 C 
ENDBRANCH  11  12
ENDBRANCH  10  11
ENDBRANCH   2  10
TORSDOF 6
ENDMDL
MODEL 5
REMARK VINA RESULT:    -4.263     16.193     19.268
REMARK INTER + INTRA:          -6.438
REMARK INTER:                  -5.435
REMARK INTRA:                  -1.004
REMARK UNBOUND:                -0.680
REMARK SMILES CC(=O)CCC=C(C)CCC=C(C)C
REMARK SMILES IDX 7 1 6 2 8 3 9 4 10 5 11 6 13 7 12 8 14 9 5 10 4 11 2 12 3 13
REMARK SMILES IDX 1 14
REMARK H PARENT
REMARK Flexibility Score: inf
ROOT
ATOM      1  C   UNL     1      -4.253  30.729  45.937  1.00  0.00    -0.077 C 
ATOM      2  C   UNL     1      -4.141  31.484  47.051  1.00  0.00    -0.028 C 
ATOM      3  C   UNL     1      -4.435  31.358  44.576  1.00  0.00     0.039 C 
ENDROOT
BRANCH   1   4
ATOM      4  C   UNL     1      -4.197  29.220  46.056  1.00  0.00     0.034 C 
BRANCH   4   5
ATOM      5  C   UNL     1      -5.451  28.652  46.734  1.00  0.00     0.032 C 
BRANCH   5   6
ATOM      6  C   UNL     1      -6.638  28.636  45.798  1.00  0.00    -0.028 C 
ATOM      7  C   UNL     1      -7.822  30.492  46.993  1.00  0.00     0.039 C 
ATOM      8  C   UNL     1      -7.721  29.434  45.919  1.00  0.00    -0.080 C 
ATOM      9  C   UNL     1      -8.849  29.265  44.934  1.00  0.00     0.039 C 
ENDBRANCH   5   6
ENDBRANCH   4   5
ENDBRANCH   1   4
BRANCH   2  10
ATOM     10  C   UNL     1      -4.199  32.995  47.035  1.00  0.00     0.035 C 
BRANCH  10  11
ATOM     11  C   UNL     1      -4.284  33.582  48.451  1.00  0.00     0.079 C 
BRANCH  11  12
ATOM     12  C   UNL     1      -5.715  33.738  48.902  1.00  0.00     0.130 C 
ATOM     13  O   UNL     1      -6.611  33.731  48.074  1.00  0.00    -0.300 OA
ATOM     14  C   UNL     1      -6.060  33.911  50.351  1.00  0.00     0.087 C 
ENDBRANCH  11  12
ENDBRANCH  10  11
ENDBRANCH   2  10
TORSDOF 6
ENDMDL
MODEL 6
REMARK VINA RESULT:    -4.245      2.478      4.742
REMARK INTER + INTRA:          -6.414
REMARK INTER:                  -5.750
REMARK INTRA:                  -0.664
REMARK UNBOUND:                -0.680
REMARK SMILES CC(=O)CCC=C(C)CCC=C(C)C
REMARK SMILES IDX 7 1 6 2 8 3 9 4 10 5 11 6 13 7 12 8 14 9 5 10 4 11 2 12 3 13
REMARK SMILES IDX 1 14
REMARK H PARENT
REMARK Flexibility Score: inf
ROOT
ATOM      1  C   UNL     1     -21.633  22.190  40.950  1.00  0.00    -0.077 C 
ATOM      2  C   UNL     1     -21.137  21.328  41.864  1.00  0.00    -0.028 C 
ATOM      3  C   UNL     1     -21.088  22.242  39.542  1.00  0.00     0.039 C 
ENDROOT
BRANCH   1   4
ATOM      4  C   UNL     1     -22.756  23.126  41.346  1.00  0.00     0.034 C 
BRANCH   4   5
ATOM      5  C   UNL     1     -22.626  24.497  40.667  1.00  0.00     0.032 C 
BRANCH   5   6
ATOM      6  C   UNL     1     -22.703  25.628  41.667  1.00  0.00    -0.028 C 
ATOM      7  C   UNL     1     -20.265  25.524  42.230  1.00  0.00     0.039 C 
ATOM      8  C   UNL     1     -21.660  26.079  42.397  1.00  0.00    -0.080 C 
ATOM      9  C   UNL     1     -21.906  27.183  43.392  1.00  0.00     0.039 C 
ENDBRANCH   5   6
ENDBRANCH   4   5
ENDBRANCH   1   4
BRANCH   2  10
ATOM     10  C   UNL     1     -20.008  20.367  41.567  1.00  0.00     0.035 C 
BRANCH  10  11
ATOM     11  C   UNL     1     -18.705  20.779  42.265  1.00  0.00     0.079 C 
BRANCH  11  12
ATOM     12  C   UNL     1     -17.854  19.580  42.604  1.00  0.00     0.130 C 
ATOM     13  O   UNL     1     -17.491  19.406  43.756  1.00  0.00    -0.300 OA
ATOM     14  C   UNL     1     -17.434  18.599  41.550  1.00  0.00     0.087 C 
ENDBRANCH  11  12
ENDBRANCH  10  11
ENDBRANCH   2  10
TORSDOF 6
ENDMDL
MODEL 7
REMARK VINA RESULT:    -4.244     15.449     18.333
REMARK INTER + INTRA:          -6.412
REMARK INTER:                  -5.452
REMARK INTRA:                  -0.960
REMARK UNBOUND:                -0.680
REMARK SMILES CC(=O)CCC=C(C)CCC=C(C)C
REMARK SMILES IDX 7 1 6 2 8 3 9 4 10 5 11 6 13 7 12 8 14 9 5 10 4 11 2 12 3 13
REMARK SMILES IDX 1 14
REMARK H PARENT
REMARK Flexibility Score: inf
ROOT
ATOM      1  C   UNL     1      -6.184  30.629  46.992  1.00  0.00    -0.077 C 
ATOM      2  C   UNL     1      -5.055  31.372  46.986  1.00  0.00    -0.028 C 
ATOM      3  C   UNL     1      -7.547  31.272  47.092  1.00  0.00     0.039 C 
ENDROOT
BRANCH   1   4
ATOM      4  C   UNL     1      -6.079  29.121  46.901  1.00  0.00     0.034 C 
BRANCH   4   5
ATOM      5  C   UNL     1      -6.199  28.624  45.454  1.00  0.00     0.032 C 
BRANCH   5   6
ATOM      6  C   UNL     1      -7.547  27.996  45.187  1.00  0.00    -0.028 C 
ATOM      7  C   UNL     1      -8.337  29.889  43.749  1.00  0.00     0.039 C 
ATOM      8  C   UNL     1      -8.527  28.564  44.450  1.00  0.00    -0.080 C 
ATOM      9  C   UNL     1      -9.838  27.834  44.316  1.00  0.00     0.039 C 
ENDBRANCH   5   6
ENDBRANCH   4   5
ENDBRANCH   1   4
BRANCH   2  10
ATOM     10  C   UNL     1      -5.057  32.880  47.087  1.00  0.00     0.035 C 
BRANCH  10  11
ATOM     11  C   UNL     1      -4.578  33.364  48.462  1.00  0.00     0.079 C 
BRANCH  11  12
ATOM     12  C   UNL     1      -5.726  33.858  49.308  1.00  0.00     0.130 C 
ATOM     13  O   UNL     1      -5.778  33.551  50.488  1.00  0.00    -0.300 OA
ATOM     14  C   UNL     1      -6.812  34.713  48.726  1.00  0.00     0.087 C 
ENDBRANCH  11  12
ENDBRANCH  10  11
ENDBRANCH   2  10
TORSDOF 6
ENDMDL
MODEL 8
REMARK VINA RESULT:    -4.185     16.693     19.169
REMARK INTER + INTRA:          -6.332
REMARK INTER:                  -5.653
REMARK INTRA:                  -0.680
REMARK UNBOUND:                -0.680
REMARK SMILES CC(=O)CCC=C(C)CCC=C(C)C
REMARK SMILES IDX 7 1 6 2 8 3 9 4 10 5 11 6 13 7 12 8 14 9 5 10 4 11 2 12 3 13
REMARK SMILES IDX 1 14
REMARK H PARENT
REMARK Flexibility Score: inf
ROOT
ATOM      1  C   UNL     1      -6.068  30.831  46.910  1.00  0.00    -0.077 C 
ATOM      2  C   UNL     1      -4.806  31.312  46.905  1.00  0.00    -0.028 C 
ATOM      3  C   UNL     1      -7.262  31.756  46.883  1.00  0.00     0.039 C 
ENDROOT
BRANCH   1   4
ATOM      4  C   UNL     1      -6.291  29.333  46.946  1.00  0.00     0.034 C 
BRANCH   4   5
ATOM      5  C   UNL     1      -4.990  28.554  46.700  1.00  0.00     0.032 C 
BRANCH   5   6
ATOM      6  C   UNL     1      -5.066  27.719  45.443  1.00  0.00    -0.028 C 
ATOM      7  C   UNL     1      -6.142  25.773  46.595  1.00  0.00     0.039 C 
ATOM      8  C   UNL     1      -5.552  26.460  45.386  1.00  0.00    -0.080 C 
ATOM      9  C   UNL     1      -5.513  25.736  44.065  1.00  0.00     0.039 C 
ENDBRANCH   5   6
ENDBRANCH   4   5
ENDBRANCH   1   4
BRANCH   2  10
ATOM     10  C   UNL     1      -4.484  32.789  46.885  1.00  0.00     0.035 C 
BRANCH  10  11
ATOM     11  C   UNL     1      -4.146  33.322  48.283  1.00  0.00     0.079 C 
BRANCH  11  12
ATOM     12  C   UNL     1      -5.300  34.087  48.881  1.00  0.00     0.130 C 
ATOM     13  O   UNL     1      -5.791  35.018  48.261  1.00  0.00    -0.300 OA
ATOM     14  C   UNL     1      -5.855  33.734  50.228  1.00  0.00     0.087 C 
ENDBRANCH  11  12
ENDBRANCH  10  11
ENDBRANCH   2  10
TORSDOF 6
ENDMDL
MODEL 9
REMARK VINA RESULT:    -4.160     14.877     17.862
REMARK INTER + INTRA:          -6.299
REMARK INTER:                  -5.425
REMARK INTRA:                  -0.873
REMARK UNBOUND:                -0.680
REMARK SMILES CC(=O)CCC=C(C)CCC=C(C)C
REMARK SMILES IDX 7 1 6 2 8 3 9 4 10 5 11 6 13 7 12 8 14 9 5 10 4 11 2 12 3 13
REMARK SMILES IDX 1 14
REMARK H PARENT
REMARK Flexibility Score: inf
ROOT
ATOM      1  C   UNL     1      -5.672  29.512  46.494  1.00  0.00    -0.077 C 
ATOM      2  C   UNL     1      -6.489  30.234  47.291  1.00  0.00    -0.028 C 
ATOM      3  C   UNL     1      -4.826  30.172  45.431  1.00  0.00     0.039 C 
ENDROOT
BRANCH   1   4
ATOM      4  C   UNL     1      -5.606  28.009  46.668  1.00  0.00     0.034 C 
BRANCH   4   5
ATOM      5  C   UNL     1      -6.073  27.265  45.408  1.00  0.00     0.032 C 
BRANCH   5   6
ATOM      6  C   UNL     1      -7.578  27.278  45.275  1.00  0.00    -0.028 C 
ATOM      7  C   UNL     1      -7.556  28.719  43.226  1.00  0.00     0.039 C 
ATOM      8  C   UNL     1      -8.258  27.949  44.320  1.00  0.00    -0.080 C 
ATOM      9  C   UNL     1      -9.765  27.906  44.349  1.00  0.00     0.039 C 
ENDBRANCH   5   6
ENDBRANCH   4   5
ENDBRANCH   1   4
BRANCH   2  10
ATOM     10  C   UNL     1      -6.633  31.735  47.184  1.00  0.00     0.035 C 
BRANCH  10  11
ATOM     11  C   UNL     1      -5.692  32.473  48.145  1.00  0.00     0.079 C 
BRANCH  11  12
ATOM     12  C   UNL     1      -6.377  33.643  48.806  1.00  0.00     0.130 C 
ATOM     13  O   UNL     1      -7.090  34.377  48.140  1.00  0.00    -0.300 OA
ATOM     14  C   UNL     1      -6.195  33.929  50.266  1.00  0.00     0.087 C 
ENDBRANCH  11  12
ENDBRANCH  10  11
ENDBRANCH   2  10
TORSDOF 6
ENDMDL
