MODEL 1
REMARK VINA RESULT:     0.799      0.000      0.000
REMARK INTER + INTRA:           1.495
REMARK INTER:                   0.986
REMARK INTRA:                   0.509
REMARK UNBOUND:                 0.509
REMARK SMILES C=C1[C@@H]2CC[C@H]3[C@H]2C(C)(C)CCC[C@@]13C
REMARK SMILES IDX 14 1 6 2 7 3 3 4 2 5 1 6 4 7 5 8 15 9 8 10 9 11 10 12 11 13
REMARK SMILES IDX 13 15 12 16
REMARK H PARENT
REMARK Flexibility Score: 80.00
ROOT
ATOM      1  C   UNL     1       3.821   9.969  13.050  1.00  0.00    -0.008 C 
ATOM      2  C   UNL     1       4.865   9.145  13.788  1.00  0.00     0.003 C 
ATOM      3  C   UNL     1       4.210   7.757  13.659  1.00  0.00     0.006 C 
ATOM      4  C   UNL     1       3.004   8.122  14.508  1.00  0.00     0.019 C 
ATOM      5  C   UNL     1       2.564   9.360  13.692  1.00  0.00    -0.068 C 
ATOM      6  C   UNL     1       1.304   9.772  13.523  1.00  0.00     0.009 C 
ATOM      7  C   UNL     1       3.625   8.625  15.804  1.00  0.00     0.008 C 
ATOM      8  C   UNL     1       4.886   9.345  15.322  1.00  0.00     0.005 C 
ATOM      9  C   UNL     1       3.916  11.481  13.349  1.00  0.00     0.016 C 
ENDROOT
BRANCH   3  10
ATOM     10  C   UNL     1       5.185   6.757  13.000  1.00  0.00    -0.032 C 
ATOM     11  C   UNL     1       4.525   5.366  12.787  1.00  0.00     0.011 C 
ATOM     12  C   UNL     1       6.437   6.540  13.879  1.00  0.00     0.011 C 
BRANCH  10  13
ATOM     13  C   UNL     1       5.584   7.406  11.595  1.00  0.00     0.007 CG0
ATOM     14  G   UNL     1       4.485   8.313  10.888  1.00  0.00     0.000 G0
ENDBRANCH  10  13
ENDBRANCH   3  10
BRANCH   1  15
ATOM     15  C   UNL     1       4.050   9.716  11.490  1.00  0.00     0.011 C 
BRANCH  15  16
ATOM     16  C   UNL     1       4.493   8.307  10.880  1.00  0.00     0.001 CG0
ATOM     17  G   UNL     1       5.586   7.407  11.605  1.00  0.00     0.000 G0
ENDBRANCH  15  16
ENDBRANCH   1  15
TORSDOF 0
ENDMDL
MODEL 2
REMARK VINA RESULT:     0.799      0.975      3.739
REMARK INTER + INTRA:           1.496
REMARK INTER:                   1.000
REMARK INTRA:                   0.496
REMARK UNBOUND:                 0.509
REMARK SMILES C=C1[C@@H]2CC[C@H]3[C@H]2C(C)(C)CCC[C@@]13C
REMARK SMILES IDX 14 1 6 2 7 3 3 4 2 5 1 6 4 7 5 8 15 9 8 10 9 11 10 12 11 13
REMARK SMILES IDX 13 15 12 16
REMARK H PARENT
REMARK Flexibility Score: 80.00
ROOT
ATOM      1  C   UNL     1       4.783   7.336  12.892  1.00  0.00    -0.008 C 
ATOM      2  C   UNL     1       3.487   8.017  13.303  1.00  0.00     0.003 C 
ATOM      3  C   UNL     1       4.039   9.423  13.604  1.00  0.00     0.006 C 
ATOM      4  C   UNL     1       4.889   8.962  14.776  1.00  0.00     0.019 C 
ATOM      5  C   UNL     1       5.681   7.869  14.020  1.00  0.00    -0.068 C 
ATOM      6  C   UNL     1       6.946   7.516  14.266  1.00  0.00     0.009 C 
ATOM      7  C   UNL     1       3.888   8.257  15.681  1.00  0.00     0.008 C 
ATOM      8  C   UNL     1       2.937   7.589  14.685  1.00  0.00     0.005 C 
ATOM      9  C   UNL     1       4.701   5.795  12.934  1.00  0.00     0.016 C 
ENDROOT
BRANCH   3  10
ATOM     10  C   UNL     1       3.290  10.489  12.774  1.00  0.00    -0.032 C 
ATOM     11  C   UNL     1       3.849  11.916  13.032  1.00  0.00     0.011 C 
ATOM     12  C   UNL     1       1.786  10.513  13.129  1.00  0.00     0.011 C 
BRANCH  10  13
ATOM     13  C   UNL     1       3.504  10.074  11.246  1.00  0.00     0.007 CG0
ATOM     14  G   UNL     1       4.846   9.295  10.897  1.00  0.00     0.000 G0
ENDBRANCH  10  13
ENDBRANCH   3  10
BRANCH   1  15
ATOM     15  C   UNL     1       5.104   7.814  11.402  1.00  0.00     0.011 C 
BRANCH  15  16
ATOM     16  C   UNL     1       4.836   9.299  10.875  1.00  0.00     0.001 CG0
ATOM     17  G   UNL     1       3.496  10.071  11.245  1.00  0.00     0.000 G0
ENDBRANCH  15  16
ENDBRANCH   1  15
TORSDOF 0
ENDMDL
MODEL 3
REMARK VINA RESULT:     0.927      1.737      4.482
REMARK INTER + INTRA:           1.653
REMARK INTER:                   1.157
REMARK INTRA:                   0.496
REMARK UNBOUND:                 0.509
REMARK SMILES C=C1[C@@H]2CC[C@H]3[C@H]2C(C)(C)CCC[C@@]13C
REMARK SMILES IDX 14 1 6 2 7 3 3 4 2 5 1 6 4 7 5 8 15 9 8 10 9 11 10 12 11 13
REMARK SMILES IDX 13 15 12 16
REMARK H PARENT
REMARK Flexibility Score: 80.00
ROOT
ATOM      1  C   UNL     1       6.250   5.642  13.665  1.00  0.00    -0.008 C 
ATOM      2  C   UNL     1       5.872   7.076  14.000  1.00  0.00     0.003 C 
ATOM      3  C   UNL     1       5.781   7.641  12.570  1.00  0.00     0.006 C 
ATOM      4  C   UNL     1       7.259   7.449  12.279  1.00  0.00     0.019 C 
ATOM      5  C   UNL     1       7.324   5.938  12.606  1.00  0.00    -0.068 C 
ATOM      6  C   UNL     1       8.123   5.048  12.009  1.00  0.00     0.009 C 
ATOM      7  C   UNL     1       7.943   8.192  13.419  1.00  0.00     0.008 C 
ATOM      8  C   UNL     1       7.015   7.926  14.606  1.00  0.00     0.005 C 
ATOM      9  C   UNL     1       6.854   4.875  14.862  1.00  0.00     0.016 C 
ENDROOT
BRANCH   3  10
ATOM     10  C   UNL     1       4.395   8.278  12.326  1.00  0.00    -0.032 C 
ATOM     11  C   UNL     1       4.271   8.849  10.886  1.00  0.00     0.011 C 
ATOM     12  C   UNL     1       4.139   9.444  13.307  1.00  0.00     0.011 C 
BRANCH  10  13
ATOM     13  C   UNL     1       3.336   7.103  12.553  1.00  0.00     0.007 CG0
ATOM     14  G   UNL     1       3.827   5.624  12.234  1.00  0.00     0.000 G0
ENDBRANCH  10  13
ENDBRANCH   3  10
BRANCH   1  15
ATOM     15  C   UNL     1       4.915   4.912  13.181  1.00  0.00     0.011 C 
BRANCH  15  16
ATOM     16  C   UNL     1       3.818   5.607  12.249  1.00  0.00     0.001 CG0
ATOM     17  G   UNL     1       3.324   7.092  12.532  1.00  0.00     0.000 G0
ENDBRANCH  15  16
ENDBRANCH   1  15
TORSDOF 0
ENDMDL
MODEL 4
REMARK VINA RESULT:     2.770      1.775      4.423
REMARK INTER + INTRA:           3.927
REMARK INTER:                   3.423
REMARK INTRA:                   0.504
REMARK UNBOUND:                 0.509
REMARK SMILES C=C1[C@@H]2CC[C@H]3[C@H]2C(C)(C)CCC[C@@]13C
REMARK SMILES IDX 14 1 6 2 7 3 3 4 2 5 1 6 4 7 5 8 15 9 8 10 9 11 10 12 11 13
REMARK SMILES IDX 13 15 12 16
REMARK H PARENT
REMARK Flexibility Score: 80.00
ROOT
ATOM      1  C   UNL     1       6.805   7.148  13.151  1.00  0.00    -0.008 C 
ATOM      2  C   UNL     1       5.681   7.871  12.424  1.00  0.00     0.003 C 
ATOM      3  C   UNL     1       4.587   7.758  13.502  1.00  0.00     0.006 C 
ATOM      4  C   UNL     1       4.499   6.244  13.416  1.00  0.00     0.019 C 
ATOM      5  C   UNL     1       5.996   5.951  13.675  1.00  0.00    -0.068 C 
ATOM      6  C   UNL     1       6.479   4.879  14.310  1.00  0.00     0.009 C 
ATOM      7  C   UNL     1       4.233   5.990  11.939  1.00  0.00     0.008 C 
ATOM      8  C   UNL     1       5.053   7.082  11.250  1.00  0.00     0.005 C 
ATOM      9  C   UNL     1       7.936   6.680  12.210  1.00  0.00     0.016 C 
ENDROOT
BRANCH   3  10
ATOM     10  C   UNL     1       4.042   9.156  13.869  1.00  0.00    -0.032 C 
ATOM     11  C   UNL     1       2.956   9.076  14.979  1.00  0.00     0.011 C 
ATOM     12  C   UNL     1       3.397   9.840  12.644  1.00  0.00     0.011 C 
BRANCH  10  13
ATOM     13  C   UNL     1       5.305   9.989  14.384  1.00  0.00     0.007 CG0
ATOM     14  G   UNL     1       6.472   9.163  15.080  1.00  0.00     0.000 G0
ENDBRANCH  10  13
ENDBRANCH   3  10
BRANCH   1  15
ATOM     15  C   UNL     1       7.393   8.171  14.227  1.00  0.00     0.011 C 
BRANCH  15  16
ATOM     16  C   UNL     1       6.485   9.169  15.083  1.00  0.00     0.001 CG0
ATOM     17  G   UNL     1       5.289   9.973  14.409  1.00  0.00     0.000 G0
ENDBRANCH  15  16
ENDBRANCH   1  15
TORSDOF 0
ENDMDL
MODEL 5
REMARK VINA RESULT:     3.495      2.105      3.971
REMARK INTER + INTRA:           4.822
REMARK INTER:                   4.303
REMARK INTRA:                   0.519
REMARK UNBOUND:                 0.509
REMARK SMILES C=C1[C@@H]2CC[C@H]3[C@H]2C(C)(C)CCC[C@@]13C
REMARK SMILES IDX 14 1 6 2 7 3 3 4 2 5 1 6 4 7 5 8 15 9 8 10 9 11 10 12 11 13
REMARK SMILES IDX 13 15 12 16
REMARK H PARENT
REMARK Flexibility Score: 80.00
ROOT
ATOM      1  C   UNL     1       4.167   6.032  13.023  1.00  0.00    -0.008 C 
ATOM      2  C   UNL     1       5.156   6.498  11.966  1.00  0.00     0.003 C 
ATOM      3  C   UNL     1       6.067   7.366  12.855  1.00  0.00     0.006 C 
ATOM      4  C   UNL     1       4.982   8.382  13.170  1.00  0.00     0.019 C 
ATOM      5  C   UNL     1       3.939   7.382  13.723  1.00  0.00    -0.068 C 
ATOM      6  C   UNL     1       3.053   7.638  14.691  1.00  0.00     0.009 C 
ATOM      7  C   UNL     1       4.504   8.826  11.794  1.00  0.00     0.008 C 
ATOM      8  C   UNL     1       4.598   7.541  10.968  1.00  0.00     0.005 C 
ATOM      9  C   UNL     1       2.850   5.490  12.428  1.00  0.00     0.016 C 
ENDROOT
BRANCH   3  10
ATOM     10  C   UNL     1       7.536   6.902  12.742  1.00  0.00    -0.032 C 
ATOM     11  C   UNL     1       8.464   7.695  13.703  1.00  0.00     0.011 C 
ATOM     12  C   UNL     1       8.075   7.109  11.309  1.00  0.00     0.011 C 
BRANCH  10  13
ATOM     13  C   UNL     1       7.528   5.351  13.127  1.00  0.00     0.007 CG0
ATOM     14  G   UNL     1       6.440   4.882  14.188  1.00  0.00     0.000 G0
ENDBRANCH  10  13
ENDBRANCH   3  10
BRANCH   1  15
ATOM     15  C   UNL     1       4.892   4.880  13.859  1.00  0.00     0.011 C 
BRANCH  15  16
ATOM     16  C   UNL     1       6.457   4.876  14.182  1.00  0.00     0.001 CG0
ATOM     17  G   UNL     1       7.518   5.368  13.104  1.00  0.00     0.000 G0
ENDBRANCH  15  16
ENDBRANCH   1  15
TORSDOF 0
ENDMDL
