MODEL 1
REMARK VINA RESULT:    -5.447      0.000      0.000
REMARK INTER + INTRA:          -6.378
REMARK INTER:                  -6.243
REMARK INTRA:                  -0.135
REMARK UNBOUND:                -0.135
REMARK SMILES O=C([O-])C=Cc1ccc(O)cc1
REMARK SMILES IDX 6 1 7 2 12 3 8 4 11 5 9 6 5 7 4 8 2 9 1 10 3 11 10 12
REMARK H PARENT 10 13
REMARK Flexibility Score: inf
ROOT
ATOM      1  C   UNL     1     -31.744  -4.858 -17.289  1.00  0.00    -0.025 A 
ATOM      2  C   UNL     1     -33.066  -5.322 -17.446  1.00  0.00     0.012 A 
ATOM      3  C   UNL     1     -31.399  -3.601 -17.815  1.00  0.00     0.012 A 
ATOM      4  C   UNL     1     -34.009  -4.551 -18.135  1.00  0.00     0.047 A 
ATOM      5  C   UNL     1     -32.344  -2.835 -18.504  1.00  0.00     0.047 A 
ATOM      6  C   UNL     1     -33.651  -3.309 -18.667  1.00  0.00     0.115 A 
ENDROOT
BRANCH   1   7
ATOM      7  C   UNL     1     -30.708  -5.630 -16.556  1.00  0.00     0.010 C 
ATOM      8  C   UNL     1     -30.296  -6.852 -16.918  1.00  0.00     0.025 C 
BRANCH   8   9
ATOM      9  C   UNL     1     -29.257  -7.576 -16.169  1.00  0.00     0.064 C 
ATOM     10  O   UNL     1     -28.388  -8.238 -16.793  1.00  0.00    -0.545 OA
ATOM     11  O   UNL     1     -29.221  -7.544 -14.780  1.00  0.00    -0.545 OA
ENDBRANCH   8   9
ENDBRANCH   1   7
BRANCH   6  12
ATOM     12  O   UNL     1     -34.600  -2.555 -19.352  1.00  0.00    -0.508 OA
ATOM     13  H   UNL     1     -35.515  -2.368 -18.956  1.00  0.00     0.293 HD
ENDBRANCH   6  12
TORSDOF 3
ENDMDL
MODEL 2
REMARK VINA RESULT:    -5.444      3.822      4.565
REMARK INTER + INTRA:          -6.375
REMARK INTER:                  -6.224
REMARK INTRA:                  -0.152
REMARK UNBOUND:                -0.135
REMARK SMILES O=C([O-])C=Cc1ccc(O)cc1
REMARK SMILES IDX 6 1 7 2 12 3 8 4 11 5 9 6 5 7 4 8 2 9 1 10 3 11 10 12
REMARK H PARENT 10 13
REMARK Flexibility Score: inf
ROOT
ATOM      1  C   UNL     1     -32.221  -3.249 -18.377  1.00  0.00    -0.025 A 
ATOM      2  C   UNL     1     -30.841  -3.005 -18.539  1.00  0.00     0.012 A 
ATOM      3  C   UNL     1     -33.089  -2.968 -19.446  1.00  0.00     0.012 A 
ATOM      4  C   UNL     1     -30.353  -2.471 -19.737  1.00  0.00     0.047 A 
ATOM      5  C   UNL     1     -32.598  -2.432 -20.640  1.00  0.00     0.047 A 
ATOM      6  C   UNL     1     -31.229  -2.181 -20.787  1.00  0.00     0.115 A 
ENDROOT
BRANCH   1   7
ATOM      7  C   UNL     1     -32.789  -3.826 -17.133  1.00  0.00     0.010 C 
ATOM      8  C   UNL     1     -34.101  -3.985 -16.918  1.00  0.00     0.025 C 
BRANCH   8   9
ATOM      9  C   UNL     1     -34.620  -4.574 -15.673  1.00  0.00     0.064 C 
ATOM     10  O   UNL     1     -34.530  -3.928 -14.596  1.00  0.00    -0.545 OA
ATOM     11  O   UNL     1     -35.205  -5.835 -15.665  1.00  0.00    -0.545 OA
ENDBRANCH   8   9
ENDBRANCH   1   7
BRANCH   6  12
ATOM     12  O   UNL     1     -30.728  -1.647 -21.973  1.00  0.00    -0.508 OA
ATOM     13  H   UNL     1     -31.299  -1.067 -22.576  1.00  0.00     0.293 HD
ENDBRANCH   6  12
TORSDOF 3
ENDMDL
MODEL 3
REMARK VINA RESULT:    -5.313      6.446      7.744
REMARK INTER + INTRA:          -6.224
REMARK INTER:                  -6.089
REMARK INTRA:                  -0.135
REMARK UNBOUND:                -0.135
REMARK SMILES O=C([O-])C=Cc1ccc(O)cc1
REMARK SMILES IDX 6 1 7 2 12 3 8 4 11 5 9 6 5 7 4 8 2 9 1 10 3 11 10 12
REMARK H PARENT 10 13
REMARK Flexibility Score: inf
ROOT
ATOM      1  C   UNL     1     -37.409  -6.995 -14.071  1.00  0.00    -0.025 A 
ATOM      2  C   UNL     1     -37.410  -8.405 -14.043  1.00  0.00     0.012 A 
ATOM      3  C   UNL     1     -38.596  -6.310 -13.760  1.00  0.00     0.012 A 
ATOM      4  C   UNL     1     -38.581  -9.105 -13.733  1.00  0.00     0.047 A 
ATOM      5  C   UNL     1     -39.764  -7.013 -13.452  1.00  0.00     0.047 A 
ATOM      6  C   UNL     1     -39.759  -8.413 -13.440  1.00  0.00     0.115 A 
ENDROOT
BRANCH   1   7
ATOM      7  C   UNL     1     -36.192  -6.203 -14.382  1.00  0.00     0.010 C 
ATOM      8  C   UNL     1     -35.777  -5.933 -15.626  1.00  0.00     0.025 C 
BRANCH   8   9
ATOM      9  C   UNL     1     -34.570  -5.133 -15.888  1.00  0.00     0.064 C 
ATOM     10  O   UNL     1     -34.314  -4.138 -15.160  1.00  0.00    -0.545 OA
ATOM     11  O   UNL     1     -33.707  -5.455 -16.929  1.00  0.00    -0.545 OA
ENDBRANCH   8   9
ENDBRANCH   1   7
BRANCH   6  12
ATOM     12  O   UNL     1     -40.917  -9.125 -13.134  1.00  0.00    -0.508 OA
ATOM     13  H   UNL     1     -41.837  -8.711 -13.239  1.00  0.00     0.293 HD
ENDBRANCH   6  12
TORSDOF 3
ENDMDL
MODEL 4
REMARK VINA RESULT:    -5.306      3.872      4.403
REMARK INTER + INTRA:          -6.217
REMARK INTER:                  -6.076
REMARK INTRA:                  -0.142
REMARK UNBOUND:                -0.135
REMARK SMILES O=C([O-])C=Cc1ccc(O)cc1
REMARK SMILES IDX 6 1 7 2 12 3 8 4 11 5 9 6 5 7 4 8 2 9 1 10 3 11 10 12
REMARK H PARENT 10 13
REMARK Flexibility Score: inf
ROOT
ATOM      1  C   UNL     1     -32.449  -3.327 -18.272  1.00  0.00    -0.025 A 
ATOM      2  C   UNL     1     -33.263  -3.092 -19.398  1.00  0.00     0.012 A 
ATOM      3  C   UNL     1     -31.081  -3.012 -18.346  1.00  0.00     0.012 A 
ATOM      4  C   UNL     1     -32.710  -2.576 -20.576  1.00  0.00     0.047 A 
ATOM      5  C   UNL     1     -30.532  -2.498 -19.524  1.00  0.00     0.047 A 
ATOM      6  C   UNL     1     -31.346  -2.281 -20.643  1.00  0.00     0.115 A 
ENDROOT
BRANCH   1   7
ATOM      7  C   UNL     1     -32.987  -3.861 -16.995  1.00  0.00     0.010 C 
ATOM      8  C   UNL     1     -34.267  -4.210 -16.815  1.00  0.00     0.025 C 
BRANCH   8   9
ATOM      9  C   UNL     1     -34.754  -4.747 -15.534  1.00  0.00     0.064 C 
ATOM     10  O   UNL     1     -34.522  -4.118 -14.468  1.00  0.00    -0.545 OA
ATOM     11  O   UNL     1     -35.465  -5.940 -15.480  1.00  0.00    -0.545 OA
ENDBRANCH   8   9
ENDBRANCH   1   7
BRANCH   6  12
ATOM     12  O   UNL     1     -30.810  -1.769 -21.823  1.00  0.00    -0.508 OA
ATOM     13  H   UNL     1     -31.052  -0.843 -22.157  1.00  0.00     0.293 HD
ENDBRANCH   6  12
TORSDOF 3
ENDMDL
MODEL 5
REMARK VINA RESULT:    -5.303      6.433      7.759
REMARK INTER + INTRA:          -6.213
REMARK INTER:                  -6.077
REMARK INTRA:                  -0.136
REMARK UNBOUND:                -0.135
REMARK SMILES O=C([O-])C=Cc1ccc(O)cc1
REMARK SMILES IDX 6 1 7 2 12 3 8 4 11 5 9 6 5 7 4 8 2 9 1 10 3 11 10 12
REMARK H PARENT 10 13
REMARK Flexibility Score: inf
ROOT
ATOM      1  C   UNL     1     -37.391  -7.015 -14.084  1.00  0.00    -0.025 A 
ATOM      2  C   UNL     1     -38.585  -6.328 -13.783  1.00  0.00     0.012 A 
ATOM      3  C   UNL     1     -37.395  -8.420 -14.064  1.00  0.00     0.012 A 
ATOM      4  C   UNL     1     -39.744  -7.036 -13.447  1.00  0.00     0.047 A 
ATOM      5  C   UNL     1     -38.554  -9.124 -13.727  1.00  0.00     0.047 A 
ATOM      6  C   UNL     1     -39.731  -8.434 -13.415  1.00  0.00     0.115 A 
ENDROOT
BRANCH   1   7
ATOM      7  C   UNL     1     -36.138  -6.313 -14.459  1.00  0.00     0.010 C 
ATOM      8  C   UNL     1     -35.828  -5.961 -15.713  1.00  0.00     0.025 C 
BRANCH   8   9
ATOM      9  C   UNL     1     -34.579  -5.254 -16.037  1.00  0.00     0.064 C 
ATOM     10  O   UNL     1     -34.259  -4.227 -15.384  1.00  0.00    -0.545 OA
ATOM     11  O   UNL     1     -33.745  -5.701 -17.056  1.00  0.00    -0.545 OA
ENDBRANCH   8   9
ENDBRANCH   1   7
BRANCH   6  12
ATOM     12  O   UNL     1     -40.893  -9.124 -13.078  1.00  0.00    -0.508 OA
ATOM     13  H   UNL     1     -41.412  -8.908 -12.234  1.00  0.00     0.293 HD
ENDBRANCH   6  12
TORSDOF 3
ENDMDL
MODEL 6
REMARK VINA RESULT:    -5.236      3.504      5.137
REMARK INTER + INTRA:          -6.136
REMARK INTER:                  -5.996
REMARK INTRA:                  -0.140
REMARK UNBOUND:                -0.135
REMARK SMILES O=C([O-])C=Cc1ccc(O)cc1
REMARK SMILES IDX 6 1 7 2 12 3 8 4 11 5 9 6 5 7 4 8 2 9 1 10 3 11 10 12
REMARK H PARENT 10 13
REMARK Flexibility Score: inf
ROOT
ATOM      1  C   UNL     1     -32.324  -3.004 -18.537  1.00  0.00    -0.025 A 
ATOM      2  C   UNL     1     -31.657  -3.530 -17.411  1.00  0.00     0.012 A 
ATOM      3  C   UNL     1     -33.721  -3.136 -18.620  1.00  0.00     0.012 A 
ATOM      4  C   UNL     1     -32.375  -4.193 -16.410  1.00  0.00     0.047 A 
ATOM      5  C   UNL     1     -34.434  -3.800 -17.618  1.00  0.00     0.047 A 
ATOM      6  C   UNL     1     -33.762  -4.332 -16.511  1.00  0.00     0.115 A 
ENDROOT
BRANCH   1   7
ATOM      7  C   UNL     1     -31.613  -2.281 -19.621  1.00  0.00     0.010 C 
ATOM      8  C   UNL     1     -30.401  -2.627 -20.075  1.00  0.00     0.025 C 
BRANCH   8   9
ATOM      9  C   UNL     1     -29.738  -1.888 -21.162  1.00  0.00     0.064 C 
ATOM     10  O   UNL     1     -30.433  -1.355 -22.065  1.00  0.00    -0.545 OA
ATOM     11  O   UNL     1     -28.354  -1.772 -21.210  1.00  0.00    -0.545 OA
ENDBRANCH   8   9
ENDBRANCH   1   7
BRANCH   6  12
ATOM     12  O   UNL     1     -34.462  -4.995 -15.506  1.00  0.00    -0.508 OA
ATOM     13  H   UNL     1     -34.729  -4.527 -14.648  1.00  0.00     0.293 HD
ENDBRANCH   6  12
TORSDOF 3
ENDMDL
MODEL 7
REMARK VINA RESULT:    -5.110      4.176      5.393
REMARK INTER + INTRA:          -5.993
REMARK INTER:                  -5.859
REMARK INTRA:                  -0.133
REMARK UNBOUND:                -0.135
REMARK SMILES O=C([O-])C=Cc1ccc(O)cc1
REMARK SMILES IDX 6 1 7 2 12 3 8 4 11 5 9 6 5 7 4 8 2 9 1 10 3 11 10 12
REMARK H PARENT 10 13
REMARK Flexibility Score: inf
ROOT
ATOM      1  C   UNL     1     -35.580  -5.724 -17.111  1.00  0.00    -0.025 A 
ATOM      2  C   UNL     1     -34.227  -5.328 -17.132  1.00  0.00     0.012 A 
ATOM      3  C   UNL     1     -36.491  -5.065 -17.954  1.00  0.00     0.012 A 
ATOM      4  C   UNL     1     -33.808  -4.282 -17.961  1.00  0.00     0.047 A 
ATOM      5  C   UNL     1     -36.069  -4.020 -18.780  1.00  0.00     0.047 A 
ATOM      6  C   UNL     1     -34.726  -3.625 -18.784  1.00  0.00     0.115 A 
ENDROOT
BRANCH   1   7
ATOM      7  C   UNL     1     -36.075  -6.835 -16.260  1.00  0.00     0.010 C 
ATOM      8  C   UNL     1     -36.362  -6.704 -14.958  1.00  0.00     0.025 C 
BRANCH   8   9
ATOM      9  C   UNL     1     -36.862  -7.831 -14.154  1.00  0.00     0.064 C 
ATOM     10  O   UNL     1     -36.363  -8.055 -13.020  1.00  0.00    -0.545 OA
ATOM     11  O   UNL     1     -37.875  -8.656 -14.628  1.00  0.00    -0.545 OA
ENDBRANCH   8   9
ENDBRANCH   1   7
BRANCH   6  12
ATOM     12  O   UNL     1     -34.294  -2.584 -19.603  1.00  0.00    -0.508 OA
ATOM     13  H   UNL     1     -33.308  -2.378 -19.723  1.00  0.00     0.293 HD
ENDBRANCH   6  12
TORSDOF 3
ENDMDL
MODEL 8
REMARK VINA RESULT:    -5.074      4.638      6.245
REMARK INTER + INTRA:          -5.951
REMARK INTER:                  -5.813
REMARK INTRA:                  -0.138
REMARK UNBOUND:                -0.135
REMARK SMILES O=C([O-])C=Cc1ccc(O)cc1
REMARK SMILES IDX 6 1 7 2 12 3 8 4 11 5 9 6 5 7 4 8 2 9 1 10 3 11 10 12
REMARK H PARENT 10 13
REMARK Flexibility Score: inf
ROOT
ATOM      1  C   UNL     1     -35.786  -6.187 -15.381  1.00  0.00    -0.025 A 
ATOM      2  C   UNL     1     -36.377  -7.218 -16.140  1.00  0.00     0.012 A 
ATOM      3  C   UNL     1     -35.989  -6.169 -13.990  1.00  0.00     0.012 A 
ATOM      4  C   UNL     1     -37.169  -8.190 -15.519  1.00  0.00     0.047 A 
ATOM      5  C   UNL     1     -36.783  -7.140 -13.374  1.00  0.00     0.047 A 
ATOM      6  C   UNL     1     -37.376  -8.152 -14.137  1.00  0.00     0.115 A 
ENDROOT
BRANCH   1   7
ATOM      7  C   UNL     1     -34.927  -5.140 -15.988  1.00  0.00     0.010 C 
ATOM      8  C   UNL     1     -34.039  -5.378 -16.963  1.00  0.00     0.025 C 
BRANCH   8   9
ATOM      9  C   UNL     1     -33.216  -4.305 -17.544  1.00  0.00     0.064 C 
ATOM     10  O   UNL     1     -32.220  -3.872 -16.907  1.00  0.00    -0.545 OA
ATOM     11  O   UNL     1     -33.521  -3.759 -18.785  1.00  0.00    -0.545 OA
ENDBRANCH   8   9
ENDBRANCH   1   7
BRANCH   6  12
ATOM     12  O   UNL     1     -38.170  -9.125 -13.534  1.00  0.00    -0.508 OA
ATOM     13  H   UNL     1     -38.740  -9.759 -14.082  1.00  0.00     0.293 HD
ENDBRANCH   6  12
TORSDOF 3
ENDMDL
MODEL 9
REMARK VINA RESULT:    -5.021      5.742      7.030
REMARK INTER + INTRA:          -5.890
REMARK INTER:                  -5.749
REMARK INTRA:                  -0.141
REMARK UNBOUND:                -0.135
REMARK SMILES O=C([O-])C=Cc1ccc(O)cc1
REMARK SMILES IDX 6 1 7 2 12 3 8 4 11 5 9 6 5 7 4 8 2 9 1 10 3 11 10 12
REMARK H PARENT 10 13
REMARK Flexibility Score: inf
ROOT
ATOM      1  C   UNL     1     -36.135  -6.291 -15.037  1.00  0.00    -0.025 A 
ATOM      2  C   UNL     1     -35.670  -6.460 -16.357  1.00  0.00     0.012 A 
ATOM      3  C   UNL     1     -35.708  -5.169 -14.306  1.00  0.00     0.012 A 
ATOM      4  C   UNL     1     -34.779  -5.537 -16.917  1.00  0.00     0.047 A 
ATOM      5  C   UNL     1     -34.818  -4.250 -14.868  1.00  0.00     0.047 A 
ATOM      6  C   UNL     1     -34.350  -4.433 -16.175  1.00  0.00     0.115 A 
ENDROOT
BRANCH   1   7
ATOM      7  C   UNL     1     -37.089  -7.233 -14.399  1.00  0.00     0.010 C 
ATOM      8  C   UNL     1     -38.373  -6.939 -14.153  1.00  0.00     0.025 C 
BRANCH   8   9
ATOM      9  C   UNL     1     -39.287  -7.909 -13.529  1.00  0.00     0.064 C 
ATOM     10  O   UNL     1     -38.963  -9.125 -13.481  1.00  0.00    -0.545 OA
ATOM     11  O   UNL     1     -40.505  -7.506 -12.995  1.00  0.00    -0.545 OA
ENDBRANCH   8   9
ENDBRANCH   1   7
BRANCH   6  12
ATOM     12  O   UNL     1     -33.462  -3.524 -16.746  1.00  0.00    -0.508 OA
ATOM     13  H   UNL     1     -33.765  -2.854 -17.444  1.00  0.00     0.293 HD
ENDBRANCH   6  12
TORSDOF 3
ENDMDL
