MODEL 1
REMARK VINA RESULT:    -4.545      0.000      0.000
REMARK INTER + INTRA:          -7.938
REMARK INTER:                  -6.936
REMARK INTRA:                  -1.001
REMARK UNBOUND:                -1.001
REMARK SMILES O=C([O-])CCCCCCCCC(=O)[O-]
REMARK SMILES IDX 7 1 6 2 5 3 4 4 2 5 1 6 3 7 8 8 9 9 10 10 11 11 12 12 13 13
REMARK SMILES IDX 14 14
REMARK H PARENT
REMARK Flexibility Score: inf
ROOT
ATOM      1  C   UNL     1     -12.990 -28.617 -31.386  1.00  0.00     0.000 C 
ENDROOT
BRANCH   1   2
ATOM      2  C   UNL     1     -12.635 -28.300 -32.851  1.00  0.00     0.000 C 
BRANCH   2   3
ATOM      3  C   UNL     1     -13.709 -27.518 -33.630  1.00  0.00     0.006 C 
BRANCH   3   4
ATOM      4  C   UNL     1     -13.477 -27.531 -35.146  1.00  0.00     0.053 C 
BRANCH   4   5
ATOM      5  C   UNL     1     -12.736 -26.303 -35.570  1.00  0.00     0.041 C 
ATOM      6  O   UNL     1     -11.508 -26.185 -35.324  1.00  0.00    -0.550 OA
ATOM      7  O   UNL     1     -13.394 -25.307 -36.283  1.00  0.00    -0.550 OA
ENDBRANCH   4   5
ENDBRANCH   3   4
ENDBRANCH   2   3
ENDBRANCH   1   2
BRANCH   1   8
ATOM      8  C   UNL     1     -11.886 -28.205 -30.398  1.00  0.00     0.000 C 
BRANCH   8   9
ATOM      9  C   UNL     1     -10.668 -27.587 -31.101  1.00  0.00     0.000 C 
BRANCH   9  10
ATOM     10  C   UNL     1     -10.473 -26.100 -30.755  1.00  0.00     0.006 C 
BRANCH  10  11
ATOM     11  C   UNL     1     -10.672 -25.191 -31.975  1.00  0.00     0.053 C 
BRANCH  11  12
ATOM     12  C   UNL     1     -12.055 -24.617 -32.020  1.00  0.00     0.041 C 
ATOM     13  O   UNL     1     -12.857 -24.822 -31.073  1.00  0.00    -0.550 OA
ATOM     14  O   UNL     1     -12.445 -23.826 -33.094  1.00  0.00    -0.550 OA
ENDBRANCH  11  12
ENDBRANCH  10  11
ENDBRANCH   9  10
ENDBRANCH   8   9
ENDBRANCH   1   8
TORSDOF 9
ENDMDL
MODEL 2
REMARK VINA RESULT:    -4.501      0.160      3.843
REMARK INTER + INTRA:          -7.870
REMARK INTER:                  -6.876
REMARK INTRA:                  -0.994
REMARK UNBOUND:                -1.001
REMARK SMILES O=C([O-])CCCCCCCCC(=O)[O-]
REMARK SMILES IDX 7 1 6 2 5 3 4 4 2 5 1 6 3 7 8 8 9 9 10 10 11 11 12 12 13 13
REMARK SMILES IDX 14 14
REMARK H PARENT
REMARK Flexibility Score: inf
ROOT
ATOM      1  C   UNL     1     -12.056 -27.994 -30.305  1.00  0.00     0.000 C 
ENDROOT
BRANCH   1   2
ATOM      2  C   UNL     1     -10.725 -27.516 -30.916  1.00  0.00     0.000 C 
BRANCH   2   3
ATOM      3  C   UNL     1     -10.466 -26.002 -30.816  1.00  0.00     0.006 C 
BRANCH   3   4
ATOM      4  C   UNL     1     -10.714 -25.264 -32.138  1.00  0.00     0.053 C 
BRANCH   4   5
ATOM      5  C   UNL     1     -12.022 -24.539 -32.093  1.00  0.00     0.041 C 
ATOM      6  O   UNL     1     -12.765 -24.632 -31.082  1.00  0.00    -0.550 OA
ATOM      7  O   UNL     1     -12.398 -23.719 -33.151  1.00  0.00    -0.550 OA
ENDBRANCH   4   5
ENDBRANCH   3   4
ENDBRANCH   2   3
ENDBRANCH   1   2
BRANCH   1   8
ATOM      8  C   UNL     1     -12.959 -28.713 -31.322  1.00  0.00     0.000 C 
BRANCH   8   9
ATOM      9  C   UNL     1     -12.570 -28.403 -32.775  1.00  0.00     0.000 C 
BRANCH   9  10
ATOM     10  C   UNL     1     -13.635 -27.570 -33.511  1.00  0.00     0.006 C 
BRANCH  10  11
ATOM     11  C   UNL     1     -13.438 -27.591 -35.032  1.00  0.00     0.053 C 
BRANCH  11  12
ATOM     12  C   UNL     1     -12.722 -26.368 -35.517  1.00  0.00     0.041 C 
ATOM     13  O   UNL     1     -11.475 -26.266 -35.375  1.00  0.00    -0.550 OA
ATOM     14  O   UNL     1     -13.427 -25.356 -36.157  1.00  0.00    -0.550 OA
ENDBRANCH  11  12
ENDBRANCH  10  11
ENDBRANCH   9  10
ENDBRANCH   8   9
ENDBRANCH   1   8
TORSDOF 9
ENDMDL
MODEL 3
REMARK VINA RESULT:    -4.485      1.769      2.829
REMARK INTER + INTRA:          -7.846
REMARK INTER:                  -6.977
REMARK INTRA:                  -0.869
REMARK UNBOUND:                -1.001
REMARK SMILES O=C([O-])CCCCCCCCC(=O)[O-]
REMARK SMILES IDX 7 1 6 2 5 3 4 4 2 5 1 6 3 7 8 8 9 9 10 10 11 11 12 12 13 13
REMARK SMILES IDX 14 14
REMARK H PARENT
REMARK Flexibility Score: inf
ROOT
ATOM      1  C   UNL     1     -13.216 -27.872 -34.673  1.00  0.00     0.000 C 
ENDROOT
BRANCH   1   2
ATOM      2  C   UNL     1     -11.687 -27.697 -34.753  1.00  0.00     0.000 C 
BRANCH   2   3
ATOM      3  C   UNL     1     -11.211 -26.299 -35.187  1.00  0.00     0.006 C 
BRANCH   3   4
ATOM      4  C   UNL     1     -12.128 -25.174 -34.692  1.00  0.00     0.053 C 
BRANCH   4   5
ATOM      5  C   UNL     1     -12.687 -24.408 -35.849  1.00  0.00     0.041 C 
ATOM      6  O   UNL     1     -13.341 -25.001 -36.746  1.00  0.00    -0.550 OA
ATOM      7  O   UNL     1     -12.525 -23.029 -35.912  1.00  0.00    -0.550 OA
ENDBRANCH   4   5
ENDBRANCH   3   4
ENDBRANCH   2   3
ENDBRANCH   1   2
BRANCH   1   8
ATOM      8  C   UNL     1     -13.751 -27.820 -33.232  1.00  0.00     0.000 C 
BRANCH   8   9
ATOM      9  C   UNL     1     -12.813 -28.510 -32.230  1.00  0.00     0.000 C 
BRANCH   9  10
ATOM     10  C   UNL     1     -12.653 -27.715 -30.921  1.00  0.00     0.006 C 
BRANCH  10  11
ATOM     11  C   UNL     1     -12.329 -26.237 -31.178  1.00  0.00     0.053 C 
BRANCH  11  12
ATOM     12  C   UNL     1     -10.853 -25.998 -31.262  1.00  0.00     0.041 C 
ATOM     13  O   UNL     1     -10.413 -24.875 -31.622  1.00  0.00    -0.550 OA
ATOM     14  O   UNL     1      -9.964 -27.005 -30.908  1.00  0.00    -0.550 OA
ENDBRANCH  11  12
ENDBRANCH  10  11
ENDBRANCH   9  10
ENDBRANCH   8   9
ENDBRANCH   1   8
TORSDOF 9
ENDMDL
MODEL 4
REMARK VINA RESULT:    -4.413      1.592      4.134
REMARK INTER + INTRA:          -7.737
REMARK INTER:                  -6.772
REMARK INTRA:                  -0.965
REMARK UNBOUND:                -1.001
REMARK SMILES O=C([O-])CCCCCCCCC(=O)[O-]
REMARK SMILES IDX 7 1 6 2 5 3 4 4 2 5 1 6 3 7 8 8 9 9 10 10 11 11 12 12 13 13
REMARK SMILES IDX 14 14
REMARK H PARENT
REMARK Flexibility Score: inf
ROOT
ATOM      1  C   UNL     1     -12.959 -28.639 -31.407  1.00  0.00     0.000 C 
ENDROOT
BRANCH   1   2
ATOM      2  C   UNL     1     -13.027 -27.599 -30.273  1.00  0.00     0.000 C 
BRANCH   2   3
ATOM      3  C   UNL     1     -13.121 -26.133 -30.736  1.00  0.00     0.006 C 
BRANCH   3   4
ATOM      4  C   UNL     1     -11.921 -25.287 -30.292  1.00  0.00     0.053 C 
BRANCH   4   5
ATOM      5  C   UNL     1     -10.856 -25.301 -31.342  1.00  0.00     0.041 C 
ATOM      6  O   UNL     1     -10.718 -24.319 -32.119  1.00  0.00    -0.550 OA
ATOM      7  O   UNL     1      -9.983 -26.378 -31.434  1.00  0.00    -0.550 OA
ENDBRANCH   4   5
ENDBRANCH   3   4
ENDBRANCH   2   3
ENDBRANCH   1   2
BRANCH   1   8
ATOM      8  C   UNL     1     -13.143 -28.018 -32.802  1.00  0.00     0.000 C 
BRANCH   8   9
ATOM      9  C   UNL     1     -12.078 -28.492 -33.803  1.00  0.00     0.000 C 
BRANCH   9  10
ATOM     10  C   UNL     1     -11.586 -27.363 -34.726  1.00  0.00     0.006 C 
BRANCH  10  11
ATOM     11  C   UNL     1     -12.456 -26.104 -34.614  1.00  0.00     0.053 C 
BRANCH  11  12
ATOM     12  C   UNL     1     -13.402 -25.977 -35.769  1.00  0.00     0.041 C 
ATOM     13  O   UNL     1     -13.227 -25.081 -36.636  1.00  0.00    -0.550 OA
ATOM     14  O   UNL     1     -14.457 -26.871 -35.906  1.00  0.00    -0.550 OA
ENDBRANCH  11  12
ENDBRANCH  10  11
ENDBRANCH   9  10
ENDBRANCH   8   9
ENDBRANCH   1   8
TORSDOF 9
ENDMDL
MODEL 5
REMARK VINA RESULT:    -4.251      1.361      1.908
REMARK INTER + INTRA:          -7.488
REMARK INTER:                  -6.677
REMARK INTRA:                  -0.812
REMARK UNBOUND:                -1.001
REMARK SMILES O=C([O-])CCCCCCCCC(=O)[O-]
REMARK SMILES IDX 7 1 6 2 5 3 4 4 2 5 1 6 3 7 8 8 9 9 10 10 11 11 12 12 13 13
REMARK SMILES IDX 14 14
REMARK H PARENT
REMARK Flexibility Score: inf
ROOT
ATOM      1  C   UNL     1     -13.145 -28.097 -32.803  1.00  0.00     0.000 C 
ENDROOT
BRANCH   1   2
ATOM      2  C   UNL     1     -11.861 -28.272 -33.635  1.00  0.00     0.000 C 
BRANCH   2   3
ATOM      3  C   UNL     1     -11.931 -27.720 -35.071  1.00  0.00     0.006 C 
BRANCH   3   4
ATOM      4  C   UNL     1     -11.487 -26.256 -35.171  1.00  0.00     0.053 C 
BRANCH   4   5
ATOM      5  C   UNL     1     -12.587 -25.414 -35.736  1.00  0.00     0.041 C 
ATOM      6  O   UNL     1     -12.408 -24.183 -35.932  1.00  0.00    -0.550 OA
ATOM      7  O   UNL     1     -13.797 -25.998 -36.090  1.00  0.00    -0.550 OA
ENDBRANCH   4   5
ENDBRANCH   3   4
ENDBRANCH   2   3
ENDBRANCH   1   2
BRANCH   1   8
ATOM      8  C   UNL     1     -13.026 -28.682 -31.386  1.00  0.00     0.000 C 
BRANCH   8   9
ATOM      9  C   UNL     1     -12.580 -27.636 -30.353  1.00  0.00     0.000 C 
BRANCH   9  10
ATOM     10  C   UNL     1     -13.339 -26.303 -30.491  1.00  0.00     0.006 C 
BRANCH  10  11
ATOM     11  C   UNL     1     -12.404 -25.091 -30.384  1.00  0.00     0.053 C 
BRANCH  11  12
ATOM     12  C   UNL     1     -11.834 -24.710 -31.715  1.00  0.00     0.041 C 
ATOM     13  O   UNL     1     -12.528 -24.059 -32.539  1.00  0.00    -0.550 OA
ATOM     14  O   UNL     1     -10.523 -25.043 -32.032  1.00  0.00    -0.550 OA
ENDBRANCH  11  12
ENDBRANCH  10  11
ENDBRANCH   9  10
ENDBRANCH   8   9
ENDBRANCH   1   8
TORSDOF 9
ENDMDL
MODEL 6
REMARK VINA RESULT:    -4.217      3.251      4.942
REMARK INTER + INTRA:          -7.437
REMARK INTER:                  -7.056
REMARK INTRA:                  -0.381
REMARK UNBOUND:                -1.001
REMARK SMILES O=C([O-])CCCCCCCCC(=O)[O-]
REMARK SMILES IDX 7 1 6 2 5 3 4 4 2 5 1 6 3 7 8 8 9 9 10 10 11 11 12 12 13 13
REMARK SMILES IDX 14 14
REMARK H PARENT
REMARK Flexibility Score: inf
ROOT
ATOM      1  C   UNL     1     -13.088 -26.584 -35.605  1.00  0.00     0.000 C 
ENDROOT
BRANCH   1   2
ATOM      2  C   UNL     1     -13.220 -27.762 -34.621  1.00  0.00     0.000 C 
BRANCH   2   3
ATOM      3  C   UNL     1     -13.360 -27.365 -33.140  1.00  0.00     0.006 C 
BRANCH   3   4
ATOM      4  C   UNL     1     -12.714 -28.376 -32.186  1.00  0.00     0.053 C 
BRANCH   4   5
ATOM      5  C   UNL     1     -11.562 -27.751 -31.464  1.00  0.00     0.041 C 
ATOM      6  O   UNL     1     -11.045 -28.328 -30.472  1.00  0.00    -0.550 OA
ATOM      7  O   UNL     1     -11.028 -26.551 -31.918  1.00  0.00    -0.550 OA
ENDBRANCH   4   5
ENDBRANCH   3   4
ENDBRANCH   2   3
ENDBRANCH   1   2
BRANCH   1   8
ATOM      8  C   UNL     1     -12.511 -25.318 -34.950  1.00  0.00     0.000 C 
BRANCH   8   9
ATOM      9  C   UNL     1     -12.734 -24.060 -35.803  1.00  0.00     0.000 C 
BRANCH   9  10
ATOM     10  C   UNL     1     -12.794 -22.773 -34.961  1.00  0.00     0.006 C 
BRANCH  10  11
ATOM     11  C   UNL     1     -12.446 -21.526 -35.784  1.00  0.00     0.053 C 
BRANCH  11  12
ATOM     12  C   UNL     1     -13.413 -20.409 -35.537  1.00  0.00     0.041 C 
ATOM     13  O   UNL     1     -14.372 -20.567 -34.737  1.00  0.00    -0.550 OA
ATOM     14  O   UNL     1     -13.234 -19.182 -36.164  1.00  0.00    -0.550 OA
ENDBRANCH  11  12
ENDBRANCH  10  11
ENDBRANCH   9  10
ENDBRANCH   8   9
ENDBRANCH   1   8
TORSDOF 9
ENDMDL
MODEL 7
REMARK VINA RESULT:    -4.164      1.520      3.703
REMARK INTER + INTRA:          -7.356
REMARK INTER:                  -6.412
REMARK INTRA:                  -0.944
REMARK UNBOUND:                -1.001
REMARK SMILES O=C([O-])CCCCCCCCC(=O)[O-]
REMARK SMILES IDX 7 1 6 2 5 3 4 4 2 5 1 6 3 7 8 8 9 9 10 10 11 11 12 12 13 13
REMARK SMILES IDX 14 14
REMARK H PARENT
REMARK Flexibility Score: inf
ROOT
ATOM      1  C   UNL     1     -10.772 -26.293 -31.659  1.00  0.00     0.000 C 
ENDROOT
BRANCH   1   2
ATOM      2  C   UNL     1     -11.573 -25.081 -31.145  1.00  0.00     0.000 C 
BRANCH   2   3
ATOM      3  C   UNL     1     -12.282 -24.256 -32.234  1.00  0.00     0.006 C 
BRANCH   3   4
ATOM      4  C   UNL     1     -11.920 -24.705 -33.655  1.00  0.00     0.053 C 
BRANCH   4   5
ATOM      5  C   UNL     1     -12.599 -23.836 -34.666  1.00  0.00     0.041 C 
ATOM      6  O   UNL     1     -12.866 -22.637 -34.395  1.00  0.00    -0.550 OA
ATOM      7  O   UNL     1     -12.895 -24.339 -35.928  1.00  0.00    -0.550 OA
ENDBRANCH   4   5
ENDBRANCH   3   4
ENDBRANCH   2   3
ENDBRANCH   1   2
BRANCH   1   8
ATOM      8  C   UNL     1     -11.129 -27.600 -30.930  1.00  0.00     0.000 C 
BRANCH   8   9
ATOM      9  C   UNL     1     -12.455 -28.203 -31.417  1.00  0.00     0.000 C 
BRANCH   9  10
ATOM     10  C   UNL     1     -12.518 -28.340 -32.949  1.00  0.00     0.006 C 
BRANCH  10  11
ATOM     11  C   UNL     1     -13.788 -27.707 -33.534  1.00  0.00     0.053 C 
BRANCH  11  12
ATOM     12  C   UNL     1     -13.764 -27.697 -35.032  1.00  0.00     0.041 C 
ATOM     13  O   UNL     1     -12.671 -27.788 -35.649  1.00  0.00    -0.550 OA
ATOM     14  O   UNL     1     -14.954 -27.624 -35.746  1.00  0.00    -0.550 OA
ENDBRANCH  11  12
ENDBRANCH  10  11
ENDBRANCH   9  10
ENDBRANCH   8   9
ENDBRANCH   1   8
TORSDOF 9
ENDMDL
MODEL 8
REMARK VINA RESULT:    -4.160      3.125      5.077
REMARK INTER + INTRA:          -7.350
REMARK INTER:                  -6.887
REMARK INTRA:                  -0.463
REMARK UNBOUND:                -1.001
REMARK SMILES O=C([O-])CCCCCCCCC(=O)[O-]
REMARK SMILES IDX 7 1 6 2 5 3 4 4 2 5 1 6 3 7 8 8 9 9 10 10 11 11 12 12 13 13
REMARK SMILES IDX 14 14
REMARK H PARENT
REMARK Flexibility Score: inf
ROOT
ATOM      1  C   UNL     1     -12.490 -25.234 -35.485  1.00  0.00     0.000 C 
ENDROOT
BRANCH   1   2
ATOM      2  C   UNL     1     -12.706 -23.775 -35.931  1.00  0.00     0.000 C 
BRANCH   2   3
ATOM      3  C   UNL     1     -12.784 -22.747 -34.787  1.00  0.00     0.006 C 
BRANCH   3   4
ATOM      4  C   UNL     1     -12.310 -21.350 -35.205  1.00  0.00     0.053 C 
BRANCH   4   5
ATOM      5  C   UNL     1     -13.476 -20.423 -35.343  1.00  0.00     0.041 C 
ATOM      6  O   UNL     1     -14.502 -20.583 -34.631  1.00  0.00    -0.550 OA
ATOM      7  O   UNL     1     -13.411 -19.351 -36.224  1.00  0.00    -0.550 OA
ENDBRANCH   4   5
ENDBRANCH   3   4
ENDBRANCH   2   3
ENDBRANCH   1   2
BRANCH   1   8
ATOM      8  C   UNL     1     -13.618 -26.174 -35.944  1.00  0.00     0.000 C 
BRANCH   8   9
ATOM      9  C   UNL     1     -13.375 -27.632 -35.527  1.00  0.00     0.000 C 
BRANCH   9  10
ATOM     10  C   UNL     1     -12.071 -27.813 -34.728  1.00  0.00     0.006 C 
BRANCH  10  11
ATOM     11  C   UNL     1     -12.329 -28.347 -33.313  1.00  0.00     0.053 C 
BRANCH  11  12
ATOM     12  C   UNL     1     -12.214 -27.266 -32.282  1.00  0.00     0.041 C 
ATOM     13  O   UNL     1     -13.215 -26.560 -31.990  1.00  0.00    -0.550 OA
ATOM     14  O   UNL     1     -11.011 -27.062 -31.619  1.00  0.00    -0.550 OA
ENDBRANCH  11  12
ENDBRANCH  10  11
ENDBRANCH   9  10
ENDBRANCH   8   9
ENDBRANCH   1   8
TORSDOF 9
ENDMDL
MODEL 9
REMARK VINA RESULT:    -4.035      1.817      3.473
REMARK INTER + INTRA:          -7.159
REMARK INTER:                  -6.519
REMARK INTRA:                  -0.640
REMARK UNBOUND:                -1.001
REMARK SMILES O=C([O-])CCCCCCCCC(=O)[O-]
REMARK SMILES IDX 7 1 6 2 5 3 4 4 2 5 1 6 3 7 8 8 9 9 10 10 11 11 12 12 13 13
REMARK SMILES IDX 14 14
REMARK H PARENT
REMARK Flexibility Score: inf
ROOT
ATOM      1  C   UNL     1     -13.674 -27.496 -35.480  1.00  0.00     0.000 C 
ENDROOT
BRANCH   1   2
ATOM      2  C   UNL     1     -13.732 -26.028 -35.944  1.00  0.00     0.000 C 
BRANCH   2   3
ATOM      3  C   UNL     1     -12.435 -25.225 -35.734  1.00  0.00     0.006 C 
BRANCH   3   4
ATOM      4  C   UNL     1     -12.620 -23.720 -35.966  1.00  0.00     0.053 C 
BRANCH   4   5
ATOM      5  C   UNL     1     -12.826 -23.013 -34.664  1.00  0.00     0.041 C 
ATOM      6  O   UNL     1     -13.376 -21.881 -34.637  1.00  0.00    -0.550 OA
ATOM      7  O   UNL     1     -12.453 -23.626 -33.474  1.00  0.00    -0.550 OA
ENDBRANCH   4   5
ENDBRANCH   3   4
ENDBRANCH   2   3
ENDBRANCH   1   2
BRANCH   1   8
ATOM      8  C   UNL     1     -13.757 -27.645 -33.952  1.00  0.00     0.000 C 
BRANCH   8   9
ATOM      9  C   UNL     1     -12.464 -28.209 -33.344  1.00  0.00     0.000 C 
BRANCH   9  10
ATOM     10  C   UNL     1     -11.586 -27.120 -32.701  1.00  0.00     0.006 C 
BRANCH  10  11
ATOM     11  C   UNL     1     -11.554 -27.232 -31.171  1.00  0.00     0.053 C 
BRANCH  11  12
ATOM     12  C   UNL     1     -12.811 -26.705 -30.550  1.00  0.00     0.041 C 
ATOM     13  O   UNL     1     -13.553 -27.467 -29.876  1.00  0.00    -0.550 OA
ATOM     14  O   UNL     1     -13.145 -25.363 -30.685  1.00  0.00    -0.550 OA
ENDBRANCH  11  12
ENDBRANCH  10  11
ENDBRANCH   9  10
ENDBRANCH   8   9
ENDBRANCH   1   8
TORSDOF 9
ENDMDL
