MODEL 1
REMARK VINA RESULT:    -4.720      0.000      0.000
REMARK INTER + INTRA:         -13.353
REMARK INTER:                 -10.239
REMARK INTRA:                  -3.114
REMARK UNBOUND:                -3.114
REMARK SMILES CCCCCCCCCCCCCCCCCCCCCC(=O)[O-]
REMARK SMILES IDX 12 1 11 2 10 3 9 4 8 5 7 6 6 7 5 8 4 9 3 10 2 11 1 12 13 13
REMARK SMILES IDX 14 14 15 15 16 16 17 17 18 18 19 19 20 20 21 21 22 22 23 23
REMARK SMILES IDX 24 24
REMARK H PARENT
REMARK Flexibility Score: inf
ROOT
ATOM      1  C   UNL     1     -49.990  13.312 -28.831  1.00  0.00     0.000 C 
ENDROOT
BRANCH   1   2
ATOM      2  C   UNL     1     -50.899  14.472 -29.273  1.00  0.00     0.000 C 
BRANCH   2   3
ATOM      3  C   UNL     1     -50.330  15.245 -30.472  1.00  0.00     0.000 C 
BRANCH   3   4
ATOM      4  C   UNL     1     -51.393  15.440 -31.560  1.00  0.00    -0.000 C 
BRANCH   4   5
ATOM      5  C   UNL     1     -52.791  15.090 -31.026  1.00  0.00    -0.000 C 
BRANCH   5   6
ATOM      6  C   UNL     1     -53.795  16.240 -31.196  1.00  0.00    -0.000 C 
BRANCH   6   7
ATOM      7  C   UNL     1     -53.107  17.605 -31.351  1.00  0.00    -0.000 C 
BRANCH   7   8
ATOM      8  C   UNL     1     -53.832  18.730 -30.591  1.00  0.00    -0.000 C 
BRANCH   8   9
ATOM      9  C   UNL     1     -53.829  18.541 -29.058  1.00  0.00    -0.000 C 
BRANCH   9  10
ATOM     10  C   UNL     1     -52.445  18.135 -28.529  1.00  0.00    -0.000 C 
BRANCH  10  11
ATOM     11  C   UNL     1     -52.563  17.059 -27.443  1.00  0.00    -0.003 C 
ATOM     12  C   UNL     1     -53.876  16.291 -27.569  1.00  0.00     0.004 C 
ENDBRANCH  10  11
ENDBRANCH   9  10
ENDBRANCH   8   9
ENDBRANCH   7   8
ENDBRANCH   6   7
ENDBRANCH   5   6
ENDBRANCH   4   5
ENDBRANCH   3   4
ENDBRANCH   2   3
ENDBRANCH   1   2
BRANCH   1  13
ATOM     13  C   UNL     1     -49.966  12.159 -29.845  1.00  0.00     0.000 C 
BRANCH  13  14
ATOM     14  C   UNL     1     -51.373  11.592 -30.065  1.00  0.00     0.000 C 
BRANCH  14  15
ATOM     15  C   UNL     1     -51.649  11.369 -31.559  1.00  0.00     0.000 C 
BRANCH  15  16
ATOM     16  C   UNL     1     -52.227   9.976 -31.856  1.00  0.00     0.000 C 
BRANCH  16  17
ATOM     17  C   UNL     1     -51.287   9.119 -32.721  1.00  0.00     0.000 C 
BRANCH  17  18
ATOM     18  C   UNL     1     -49.833   9.618 -32.680  1.00  0.00     0.000 C 
BRANCH  18  19
ATOM     19  C   UNL     1     -48.816   8.474 -32.542  1.00  0.00     0.000 C 
BRANCH  19  20
ATOM     20  C   UNL     1     -49.046   7.692 -31.239  1.00  0.00     0.006 C 
BRANCH  20  21
ATOM     21  C   UNL     1     -48.762   8.541 -29.992  1.00  0.00     0.053 C 
BRANCH  21  22
ATOM     22  C   UNL     1     -47.329   8.441 -29.562  1.00  0.00     0.041 C 
ATOM     23  O   UNL     1     -46.845   7.330 -29.219  1.00  0.00    -0.550 OA
ATOM     24  O   UNL     1     -46.518   9.571 -29.576  1.00  0.00    -0.550 OA
ENDBRANCH  21  22
ENDBRANCH  20  21
ENDBRANCH  19  20
ENDBRANCH  18  19
ENDBRANCH  17  18
ENDBRANCH  16  17
ENDBRANCH  15  16
ENDBRANCH  14  15
ENDBRANCH  13  14
ENDBRANCH   1  13
TORSDOF 20
ENDMDL
MODEL 2
REMARK VINA RESULT:    -4.634      3.250      8.603
REMARK INTER + INTRA:         -13.166
REMARK INTER:                 -10.651
REMARK INTRA:                  -2.515
REMARK UNBOUND:                -3.114
REMARK SMILES CCCCCCCCCCCCCCCCCCCCCC(=O)[O-]
REMARK SMILES IDX 12 1 11 2 10 3 9 4 8 5 7 6 6 7 5 8 4 9 3 10 2 11 1 12 13 13
REMARK SMILES IDX 14 14 15 15 16 16 17 17 18 18 19 19 20 20 21 21 22 22 23 23
REMARK SMILES IDX 24 24
REMARK H PARENT
REMARK Flexibility Score: inf
ROOT
ATOM      1  C   UNL     1     -48.682  11.485 -28.864  1.00  0.00     0.000 C 
ENDROOT
BRANCH   1   2
ATOM      2  C   UNL     1     -48.904  10.073 -29.434  1.00  0.00     0.000 C 
BRANCH   2   3
ATOM      3  C   UNL     1     -47.601   9.270 -29.551  1.00  0.00     0.000 C 
BRANCH   3   4
ATOM      4  C   UNL     1     -47.388   8.768 -30.985  1.00  0.00    -0.000 C 
BRANCH   4   5
ATOM      5  C   UNL     1     -48.409   7.675 -31.338  1.00  0.00    -0.000 C 
BRANCH   5   6
ATOM      6  C   UNL     1     -48.702   7.601 -32.844  1.00  0.00    -0.000 C 
BRANCH   6   7
ATOM      7  C   UNL     1     -50.201   7.450 -33.145  1.00  0.00    -0.000 C 
BRANCH   7   8
ATOM      8  C   UNL     1     -51.086   7.706 -31.912  1.00  0.00    -0.000 C 
BRANCH   8   9
ATOM      9  C   UNL     1     -52.224   8.717 -32.169  1.00  0.00    -0.000 C 
BRANCH   9  10
ATOM     10  C   UNL     1     -51.697  10.055 -32.710  1.00  0.00    -0.000 C 
BRANCH  10  11
ATOM     11  C   UNL     1     -51.794  11.157 -31.648  1.00  0.00    -0.003 C 
ATOM     12  C   UNL     1     -52.834  10.810 -30.587  1.00  0.00     0.004 C 
ENDBRANCH  10  11
ENDBRANCH   9  10
ENDBRANCH   8   9
ENDBRANCH   7   8
ENDBRANCH   6   7
ENDBRANCH   5   6
ENDBRANCH   4   5
ENDBRANCH   3   4
ENDBRANCH   2   3
ENDBRANCH   1   2
BRANCH   1  13
ATOM     13  C   UNL     1     -49.990  12.277 -28.715  1.00  0.00     0.000 C 
BRANCH  13  14
ATOM     14  C   UNL     1     -49.930  13.590 -29.504  1.00  0.00     0.000 C 
BRANCH  14  15
ATOM     15  C   UNL     1     -50.944  14.606 -28.961  1.00  0.00     0.000 C 
BRANCH  15  16
ATOM     16  C   UNL     1     -52.393  14.098 -29.031  1.00  0.00     0.000 C 
BRANCH  16  17
ATOM     17  C   UNL     1     -53.356  14.943 -28.180  1.00  0.00     0.000 C 
BRANCH  17  18
ATOM     18  C   UNL     1     -52.668  16.167 -27.553  1.00  0.00     0.000 C 
BRANCH  18  19
ATOM     19  C   UNL     1     -53.602  17.383 -27.446  1.00  0.00     0.000 C 
BRANCH  19  20
ATOM     20  C   UNL     1     -53.417  18.322 -28.649  1.00  0.00     0.006 C 
BRANCH  20  21
ATOM     21  C   UNL     1     -52.071  18.107 -29.355  1.00  0.00     0.053 C 
BRANCH  21  22
ATOM     22  C   UNL     1     -52.229  18.012 -30.843  1.00  0.00     0.041 C 
ATOM     23  O   UNL     1     -52.407  19.053 -31.530  1.00  0.00    -0.550 OA
ATOM     24  O   UNL     1     -52.140  16.776 -31.474  1.00  0.00    -0.550 OA
ENDBRANCH  21  22
ENDBRANCH  20  21
ENDBRANCH  19  20
ENDBRANCH  18  19
ENDBRANCH  17  18
ENDBRANCH  16  17
ENDBRANCH  15  16
ENDBRANCH  14  15
ENDBRANCH  13  14
ENDBRANCH   1  13
TORSDOF 20
ENDMDL
MODEL 3
REMARK VINA RESULT:    -4.621      3.081      8.701
REMARK INTER + INTRA:         -13.138
REMARK INTER:                 -10.501
REMARK INTRA:                  -2.638
REMARK UNBOUND:                -3.114
REMARK SMILES CCCCCCCCCCCCCCCCCCCCCC(=O)[O-]
REMARK SMILES IDX 12 1 11 2 10 3 9 4 8 5 7 6 6 7 5 8 4 9 3 10 2 11 1 12 13 13
REMARK SMILES IDX 14 14 15 15 16 16 17 17 18 18 19 19 20 20 21 21 22 22 23 23
REMARK SMILES IDX 24 24
REMARK H PARENT
REMARK Flexibility Score: inf
ROOT
ATOM      1  C   UNL     1     -50.006  12.019 -30.333  1.00  0.00     0.000 C 
ENDROOT
BRANCH   1   2
ATOM      2  C   UNL     1     -51.251  11.119 -30.419  1.00  0.00     0.000 C 
BRANCH   2   3
ATOM      3  C   UNL     1     -52.119  11.426 -31.649  1.00  0.00     0.000 C 
BRANCH   3   4
ATOM      4  C   UNL     1     -51.928  10.364 -32.739  1.00  0.00    -0.000 C 
BRANCH   4   5
ATOM      5  C   UNL     1     -52.748   9.103 -32.422  1.00  0.00    -0.000 C 
BRANCH   5   6
ATOM      6  C   UNL     1     -52.939   8.196 -33.647  1.00  0.00    -0.000 C 
BRANCH   6   7
ATOM      7  C   UNL     1     -52.582   6.730 -33.356  1.00  0.00    -0.000 C 
BRANCH   7   8
ATOM      8  C   UNL     1     -51.192   6.338 -33.887  1.00  0.00    -0.000 C 
BRANCH   8   9
ATOM      9  C   UNL     1     -50.051   6.587 -32.877  1.00  0.00    -0.000 C 
BRANCH   9  10
ATOM     10  C   UNL     1     -49.007   7.578 -33.416  1.00  0.00    -0.000 C 
BRANCH  10  11
ATOM     11  C   UNL     1     -48.823   8.760 -32.457  1.00  0.00    -0.003 C 
ATOM     12  C   UNL     1     -48.823   8.296 -31.003  1.00  0.00     0.004 C 
ENDBRANCH  10  11
ENDBRANCH   9  10
ENDBRANCH   8   9
ENDBRANCH   7   8
ENDBRANCH   6   7
ENDBRANCH   5   6
ENDBRANCH   4   5
ENDBRANCH   3   4
ENDBRANCH   2   3
ENDBRANCH   1   2
BRANCH   1  13
ATOM     13  C   UNL     1     -49.993  12.894 -29.070  1.00  0.00     0.000 C 
BRANCH  13  14
ATOM     14  C   UNL     1     -50.519  14.302 -29.372  1.00  0.00     0.000 C 
BRANCH  14  15
ATOM     15  C   UNL     1     -49.966  14.821 -30.708  1.00  0.00     0.000 C 
BRANCH  15  16
ATOM     16  C   UNL     1     -51.053  15.437 -31.603  1.00  0.00     0.000 C 
BRANCH  16  17
ATOM     17  C   UNL     1     -52.471  15.196 -31.061  1.00  0.00     0.000 C 
BRANCH  17  18
ATOM     18  C   UNL     1     -53.303  16.488 -30.993  1.00  0.00     0.000 C 
BRANCH  18  19
ATOM     19  C   UNL     1     -52.431  17.751 -30.926  1.00  0.00     0.000 C 
BRANCH  19  20
ATOM     20  C   UNL     1     -51.802  17.908 -29.533  1.00  0.00     0.006 C 
BRANCH  20  21
ATOM     21  C   UNL     1     -52.857  18.103 -28.435  1.00  0.00     0.053 C 
BRANCH  21  22
ATOM     22  C   UNL     1     -52.712  17.095 -27.334  1.00  0.00     0.041 C 
ATOM     23  O   UNL     1     -52.253  17.441 -26.213  1.00  0.00    -0.550 OA
ATOM     24  O   UNL     1     -53.121  15.781 -27.536  1.00  0.00    -0.550 OA
ENDBRANCH  21  22
ENDBRANCH  20  21
ENDBRANCH  19  20
ENDBRANCH  18  19
ENDBRANCH  17  18
ENDBRANCH  16  17
ENDBRANCH  15  16
ENDBRANCH  14  15
ENDBRANCH  13  14
ENDBRANCH   1  13
TORSDOF 20
ENDMDL
MODEL 4
REMARK VINA RESULT:    -4.618      3.085      8.112
REMARK INTER + INTRA:         -13.131
REMARK INTER:                 -10.484
REMARK INTRA:                  -2.647
REMARK UNBOUND:                -3.114
REMARK SMILES CCCCCCCCCCCCCCCCCCCCCC(=O)[O-]
REMARK SMILES IDX 12 1 11 2 10 3 9 4 8 5 7 6 6 7 5 8 4 9 3 10 2 11 1 12 13 13
REMARK SMILES IDX 14 14 15 15 16 16 17 17 18 18 19 19 20 20 21 21 22 22 23 23
REMARK SMILES IDX 24 24
REMARK H PARENT
REMARK Flexibility Score: inf
ROOT
ATOM      1  C   UNL     1     -48.750  11.392 -28.651  1.00  0.00     0.000 C 
ENDROOT
BRANCH   1   2
ATOM      2  C   UNL     1     -48.761  10.003 -29.310  1.00  0.00     0.000 C 
BRANCH   2   3
ATOM      3  C   UNL     1     -47.349   9.484 -29.620  1.00  0.00     0.000 C 
BRANCH   3   4
ATOM      4  C   UNL     1     -47.388   8.363 -30.666  1.00  0.00    -0.000 C 
BRANCH   4   5
ATOM      5  C   UNL     1     -48.803   8.206 -31.245  1.00  0.00    -0.000 C 
BRANCH   5   6
ATOM      6  C   UNL     1     -48.831   8.307 -32.778  1.00  0.00    -0.000 C 
BRANCH   6   7
ATOM      7  C   UNL     1     -49.458   9.621 -33.269  1.00  0.00    -0.000 C 
BRANCH   7   8
ATOM      8  C   UNL     1     -50.293  10.326 -32.186  1.00  0.00    -0.000 C 
BRANCH   8   9
ATOM      9  C   UNL     1     -51.791  10.444 -32.539  1.00  0.00    -0.000 C 
BRANCH   9  10
ATOM     10  C   UNL     1     -52.620   9.304 -31.927  1.00  0.00    -0.000 C 
BRANCH  10  11
ATOM     11  C   UNL     1     -52.447   9.252 -30.404  1.00  0.00    -0.003 C 
ATOM     12  C   UNL     1     -52.117   7.839 -29.934  1.00  0.00     0.004 C 
ENDBRANCH  10  11
ENDBRANCH   9  10
ENDBRANCH   8   9
ENDBRANCH   7   8
ENDBRANCH   6   7
ENDBRANCH   5   6
ENDBRANCH   4   5
ENDBRANCH   3   4
ENDBRANCH   2   3
ENDBRANCH   1   2
BRANCH   1  13
ATOM     13  C   UNL     1     -49.990  12.227 -29.008  1.00  0.00     0.000 C 
BRANCH  13  14
ATOM     14  C   UNL     1     -49.595  13.502 -29.761  1.00  0.00     0.000 C 
BRANCH  14  15
ATOM     15  C   UNL     1     -50.709  14.556 -29.682  1.00  0.00     0.000 C 
BRANCH  15  16
ATOM     16  C   UNL     1     -52.039  14.064 -30.275  1.00  0.00     0.000 C 
BRANCH  16  17
ATOM     17  C   UNL     1     -52.779  15.161 -31.058  1.00  0.00     0.000 C 
BRANCH  17  18
ATOM     18  C   UNL     1     -51.862  16.340 -31.426  1.00  0.00     0.000 C 
BRANCH  18  19
ATOM     19  C   UNL     1     -52.404  17.690 -30.932  1.00  0.00     0.000 C 
BRANCH  19  20
ATOM     20  C   UNL     1     -51.906  17.993 -29.510  1.00  0.00     0.006 C 
BRANCH  20  21
ATOM     21  C   UNL     1     -53.049  18.015 -28.486  1.00  0.00     0.053 C 
BRANCH  21  22
ATOM     22  C   UNL     1     -52.811  17.053 -27.360  1.00  0.00     0.041 C 
ATOM     23  O   UNL     1     -52.236  17.437 -26.308  1.00  0.00    -0.550 OA
ATOM     24  O   UNL     1     -53.261  15.740 -27.461  1.00  0.00    -0.550 OA
ENDBRANCH  21  22
ENDBRANCH  20  21
ENDBRANCH  19  20
ENDBRANCH  18  19
ENDBRANCH  17  18
ENDBRANCH  16  17
ENDBRANCH  15  16
ENDBRANCH  14  15
ENDBRANCH  13  14
ENDBRANCH   1  13
TORSDOF 20
ENDMDL
MODEL 5
REMARK VINA RESULT:    -4.565      1.695      2.739
REMARK INTER + INTRA:         -13.017
REMARK INTER:                  -9.654
REMARK INTRA:                  -3.363
REMARK UNBOUND:                -3.114
REMARK SMILES CCCCCCCCCCCCCCCCCCCCCC(=O)[O-]
REMARK SMILES IDX 12 1 11 2 10 3 9 4 8 5 7 6 6 7 5 8 4 9 3 10 2 11 1 12 13 13
REMARK SMILES IDX 14 14 15 15 16 16 17 17 18 18 19 19 20 20 21 21 22 22 23 23
REMARK SMILES IDX 24 24
REMARK H PARENT
REMARK Flexibility Score: inf
ROOT
ATOM      1  C   UNL     1     -53.326  11.551 -30.673  1.00  0.00     0.000 C 
ENDROOT
BRANCH   1   2
ATOM      2  C   UNL     1     -52.901  12.971 -30.262  1.00  0.00     0.000 C 
BRANCH   2   3
ATOM      3  C   UNL     1     -52.164  13.002 -28.915  1.00  0.00     0.000 C 
BRANCH   3   4
ATOM      4  C   UNL     1     -50.978  13.974 -28.955  1.00  0.00    -0.000 C 
BRANCH   4   5
ATOM      5  C   UNL     1     -50.342  14.001 -30.354  1.00  0.00    -0.000 C 
BRANCH   5   6
ATOM      6  C   UNL     1     -50.071  15.427 -30.855  1.00  0.00    -0.000 C 
BRANCH   6   7
ATOM      7  C   UNL     1     -51.364  16.199 -31.162  1.00  0.00    -0.000 C 
BRANCH   7   8
ATOM      8  C   UNL     1     -51.515  17.473 -30.313  1.00  0.00    -0.000 C 
BRANCH   8   9
ATOM      9  C   UNL     1     -52.966  17.746 -29.862  1.00  0.00    -0.000 C 
BRANCH   9  10
ATOM     10  C   UNL     1     -53.609  16.514 -29.206  1.00  0.00    -0.000 C 
BRANCH  10  11
ATOM     11  C   UNL     1     -53.875  16.759 -27.716  1.00  0.00    -0.003 C 
ATOM     12  C   UNL     1     -52.570  16.878 -26.934  1.00  0.00     0.004 C 
ENDBRANCH  10  11
ENDBRANCH   9  10
ENDBRANCH   8   9
ENDBRANCH   7   8
ENDBRANCH   6   7
ENDBRANCH   5   6
ENDBRANCH   4   5
ENDBRANCH   3   4
ENDBRANCH   2   3
ENDBRANCH   1   2
BRANCH   1  13
ATOM     13  C   UNL     1     -53.895  10.740 -29.498  1.00  0.00     0.000 C 
BRANCH  13  14
ATOM     14  C   UNL     1     -54.050   9.263 -29.876  1.00  0.00     0.000 C 
BRANCH  14  15
ATOM     15  C   UNL     1     -53.670   9.027 -31.346  1.00  0.00     0.000 C 
BRANCH  15  16
ATOM     16  C   UNL     1     -52.760   7.803 -31.536  1.00  0.00     0.000 C 
BRANCH  16  17
ATOM     17  C   UNL     1     -51.769   7.980 -32.699  1.00  0.00     0.000 C 
BRANCH  17  18
ATOM     18  C   UNL     1     -51.365   9.449 -32.908  1.00  0.00     0.000 C 
BRANCH  18  19
ATOM     19  C   UNL     1     -49.933   9.744 -32.436  1.00  0.00     0.000 C 
BRANCH  19  20
ATOM     20  C   UNL     1     -49.942  10.621 -31.174  1.00  0.00     0.006 C 
BRANCH  20  21
ATOM     21  C   UNL     1     -49.667   9.811 -29.900  1.00  0.00     0.053 C 
BRANCH  21  22
ATOM     22  C   UNL     1     -48.516  10.369 -29.118  1.00  0.00     0.041 C 
ATOM     23  O   UNL     1     -48.678  11.379 -28.384  1.00  0.00    -0.550 OA
ATOM     24  O   UNL     1     -47.272   9.748 -29.172  1.00  0.00    -0.550 OA
ENDBRANCH  21  22
ENDBRANCH  20  21
ENDBRANCH  19  20
ENDBRANCH  18  19
ENDBRANCH  17  18
ENDBRANCH  16  17
ENDBRANCH  15  16
ENDBRANCH  14  15
ENDBRANCH  13  14
ENDBRANCH   1  13
TORSDOF 20
ENDMDL
MODEL 6
REMARK VINA RESULT:    -4.551      3.465      8.899
REMARK INTER + INTRA:         -12.986
REMARK INTER:                  -9.955
REMARK INTRA:                  -3.031
REMARK UNBOUND:                -3.114
REMARK SMILES CCCCCCCCCCCCCCCCCCCCCC(=O)[O-]
REMARK SMILES IDX 12 1 11 2 10 3 9 4 8 5 7 6 6 7 5 8 4 9 3 10 2 11 1 12 13 13
REMARK SMILES IDX 14 14 15 15 16 16 17 17 18 18 19 19 20 20 21 21 22 22 23 23
REMARK SMILES IDX 24 24
REMARK H PARENT
REMARK Flexibility Score: inf
ROOT
ATOM      1  C   UNL     1     -51.501  10.177 -32.572  1.00  0.00     0.000 C 
ENDROOT
BRANCH   1   2
ATOM      2  C   UNL     1     -52.577   9.674 -31.594  1.00  0.00     0.000 C 
BRANCH   2   3
ATOM      3  C   UNL     1     -53.099   8.275 -31.956  1.00  0.00     0.000 C 
BRANCH   3   4
ATOM      4  C   UNL     1     -53.130   8.073 -33.476  1.00  0.00    -0.000 C 
BRANCH   4   5
ATOM      5  C   UNL     1     -52.566   6.694 -33.854  1.00  0.00    -0.000 C 
BRANCH   5   6
ATOM      6  C   UNL     1     -51.339   6.304 -33.017  1.00  0.00    -0.000 C 
BRANCH   6   7
ATOM      7  C   UNL     1     -50.017   6.717 -33.682  1.00  0.00    -0.000 C 
BRANCH   7   8
ATOM      8  C   UNL     1     -48.967   7.208 -32.669  1.00  0.00    -0.000 C 
BRANCH   8   9
ATOM      9  C   UNL     1     -49.450   7.154 -31.204  1.00  0.00    -0.000 C 
BRANCH   9  10
ATOM     10  C   UNL     1     -48.302   7.386 -30.208  1.00  0.00    -0.000 C 
BRANCH  10  11
ATOM     11  C   UNL     1     -47.348   8.476 -30.712  1.00  0.00    -0.003 C 
ATOM     12  C   UNL     1     -46.755   9.270 -29.552  1.00  0.00     0.004 C 
ENDBRANCH  10  11
ENDBRANCH   9  10
ENDBRANCH   8   9
ENDBRANCH   7   8
ENDBRANCH   6   7
ENDBRANCH   5   6
ENDBRANCH   4   5
ENDBRANCH   3   4
ENDBRANCH   2   3
ENDBRANCH   1   2
BRANCH   1  13
ATOM     13  C   UNL     1     -50.229  10.658 -31.858  1.00  0.00     0.000 C 
BRANCH  13  14
ATOM     14  C   UNL     1     -50.425  10.671 -30.337  1.00  0.00     0.000 C 
BRANCH  14  15
ATOM     15  C   UNL     1     -49.686  11.855 -29.697  1.00  0.00     0.000 C 
BRANCH  15  16
ATOM     16  C   UNL     1     -50.577  12.668 -28.744  1.00  0.00     0.000 C 
BRANCH  16  17
ATOM     17  C   UNL     1     -52.056  12.658 -29.165  1.00  0.00     0.000 C 
BRANCH  17  18
ATOM     18  C   UNL     1     -52.601  14.071 -29.430  1.00  0.00     0.000 C 
BRANCH  18  19
ATOM     19  C   UNL     1     -53.853  14.389 -28.598  1.00  0.00     0.000 C 
BRANCH  19  20
ATOM     20  C   UNL     1     -53.962  15.898 -28.329  1.00  0.00     0.006 C 
BRANCH  20  21
ATOM     21  C   UNL     1     -52.588  16.566 -28.188  1.00  0.00     0.053 C 
BRANCH  21  22
ATOM     22  C   UNL     1     -52.480  17.808 -29.020  1.00  0.00     0.041 C 
ATOM     23  O   UNL     1     -53.320  18.737 -28.885  1.00  0.00    -0.550 OA
ATOM     24  O   UNL     1     -51.429  17.955 -29.919  1.00  0.00    -0.550 OA
ENDBRANCH  21  22
ENDBRANCH  20  21
ENDBRANCH  19  20
ENDBRANCH  18  19
ENDBRANCH  17  18
ENDBRANCH  16  17
ENDBRANCH  15  16
ENDBRANCH  14  15
ENDBRANCH  13  14
ENDBRANCH   1  13
TORSDOF 20
ENDMDL
MODEL 7
REMARK VINA RESULT:    -4.527      1.369      2.954
REMARK INTER + INTRA:         -12.935
REMARK INTER:                 -10.207
REMARK INTRA:                  -2.728
REMARK UNBOUND:                -3.114
REMARK SMILES CCCCCCCCCCCCCCCCCCCCCC(=O)[O-]
REMARK SMILES IDX 12 1 11 2 10 3 9 4 8 5 7 6 6 7 5 8 4 9 3 10 2 11 1 12 13 13
REMARK SMILES IDX 14 14 15 15 16 16 17 17 18 18 19 19 20 20 21 21 22 22 23 23
REMARK SMILES IDX 24 24
REMARK H PARENT
REMARK Flexibility Score: inf
ROOT
ATOM      1  C   UNL     1     -54.053  13.242 -28.994  1.00  0.00     0.000 C 
ENDROOT
BRANCH   1   2
ATOM      2  C   UNL     1     -54.111  14.777 -29.067  1.00  0.00     0.000 C 
BRANCH   2   3
ATOM      3  C   UNL     1     -53.853  15.445 -27.708  1.00  0.00     0.000 C 
BRANCH   3   4
ATOM      4  C   UNL     1     -52.609  16.341 -27.759  1.00  0.00    -0.000 C 
BRANCH   4   5
ATOM      5  C   UNL     1     -53.007  17.821 -27.879  1.00  0.00    -0.000 C 
BRANCH   5   6
ATOM      6  C   UNL     1     -53.072  18.302 -29.336  1.00  0.00    -0.000 C 
BRANCH   6   7
ATOM      7  C   UNL     1     -51.847  17.866 -30.155  1.00  0.00    -0.000 C 
BRANCH   7   8
ATOM      8  C   UNL     1     -52.226  17.123 -31.447  1.00  0.00    -0.000 C 
BRANCH   8   9
ATOM      9  C   UNL     1     -51.578  15.727 -31.570  1.00  0.00    -0.000 C 
BRANCH   9  10
ATOM     10  C   UNL     1     -50.361  15.572 -30.643  1.00  0.00    -0.000 C 
BRANCH  10  11
ATOM     11  C   UNL     1     -50.077  14.093 -30.350  1.00  0.00    -0.003 C 
ATOM     12  C   UNL     1     -50.329  13.764 -28.881  1.00  0.00     0.004 C 
ENDBRANCH  10  11
ENDBRANCH   9  10
ENDBRANCH   8   9
ENDBRANCH   7   8
ENDBRANCH   6   7
ENDBRANCH   5   6
ENDBRANCH   4   5
ENDBRANCH   3   4
ENDBRANCH   2   3
ENDBRANCH   1   2
BRANCH   1  13
ATOM     13  C   UNL     1     -53.647  12.600 -30.330  1.00  0.00     0.000 C 
BRANCH  13  14
ATOM     14  C   UNL     1     -53.234  11.137 -30.132  1.00  0.00     0.000 C 
BRANCH  14  15
ATOM     15  C   UNL     1     -51.840  10.874 -30.721  1.00  0.00     0.000 C 
BRANCH  15  16
ATOM     16  C   UNL     1     -51.871  10.626 -32.238  1.00  0.00     0.000 C 
BRANCH  16  17
ATOM     17  C   UNL     1     -51.616   9.153 -32.600  1.00  0.00     0.000 C 
BRANCH  17  18
ATOM     18  C   UNL     1     -50.172   8.716 -32.304  1.00  0.00     0.000 C 
BRANCH  18  19
ATOM     19  C   UNL     1     -49.962   7.204 -32.475  1.00  0.00     0.000 C 
BRANCH  19  20
ATOM     20  C   UNL     1     -48.535   6.800 -32.073  1.00  0.00     0.006 C 
BRANCH  20  21
ATOM     21  C   UNL     1     -48.358   6.725 -30.550  1.00  0.00     0.053 C 
BRANCH  21  22
ATOM     22  C   UNL     1     -47.350   7.718 -30.054  1.00  0.00     0.041 C 
ATOM     23  O   UNL     1     -46.752   7.524 -28.963  1.00  0.00    -0.550 OA
ATOM     24  O   UNL     1     -47.044   8.839 -30.819  1.00  0.00    -0.550 OA
ENDBRANCH  21  22
ENDBRANCH  20  21
ENDBRANCH  19  20
ENDBRANCH  18  19
ENDBRANCH  17  18
ENDBRANCH  16  17
ENDBRANCH  15  16
ENDBRANCH  14  15
ENDBRANCH  13  14
ENDBRANCH   1  13
TORSDOF 20
ENDMDL
MODEL 8
REMARK VINA RESULT:    -4.516      1.358      2.656
REMARK INTER + INTRA:         -12.911
REMARK INTER:                 -10.531
REMARK INTRA:                  -2.380
REMARK UNBOUND:                -3.114
REMARK SMILES CCCCCCCCCCCCCCCCCCCCCC(=O)[O-]
REMARK SMILES IDX 12 1 11 2 10 3 9 4 8 5 7 6 6 7 5 8 4 9 3 10 2 11 1 12 13 13
REMARK SMILES IDX 14 14 15 15 16 16 17 17 18 18 19 19 20 20 21 21 22 22 23 23
REMARK SMILES IDX 24 24
REMARK H PARENT
REMARK Flexibility Score: inf
ROOT
ATOM      1  C   UNL     1     -50.361  11.175 -30.755  1.00  0.00     0.000 C 
ENDROOT
BRANCH   1   2
ATOM      2  C   UNL     1     -49.610  11.733 -29.533  1.00  0.00     0.000 C 
BRANCH   2   3
ATOM      3  C   UNL     1     -50.378  12.863 -28.832  1.00  0.00     0.000 C 
BRANCH   3   4
ATOM      4  C   UNL     1     -50.249  14.182 -29.605  1.00  0.00    -0.000 C 
BRANCH   4   5
ATOM      5  C   UNL     1     -51.609  14.892 -29.703  1.00  0.00    -0.000 C 
BRANCH   5   6
ATOM      6  C   UNL     1     -52.686  14.235 -28.828  1.00  0.00    -0.000 C 
BRANCH   6   7
ATOM      7  C   UNL     1     -53.470  15.258 -27.990  1.00  0.00    -0.000 C 
BRANCH   7   8
ATOM      8  C   UNL     1     -52.558  16.290 -27.304  1.00  0.00    -0.000 C 
BRANCH   8   9
ATOM      9  C   UNL     1     -52.958  17.754 -27.588  1.00  0.00    -0.000 C 
BRANCH   9  10
ATOM     10  C   UNL     1     -54.014  17.858 -28.700  1.00  0.00    -0.000 C 
BRANCH  10  11
ATOM     11  C   UNL     1     -53.603  18.892 -29.756  1.00  0.00    -0.003 C 
ATOM     12  C   UNL     1     -52.522  18.337 -30.679  1.00  0.00     0.004 C 
ENDBRANCH  10  11
ENDBRANCH   9  10
ENDBRANCH   8   9
ENDBRANCH   7   8
ENDBRANCH   6   7
ENDBRANCH   5   6
ENDBRANCH   4   5
ENDBRANCH   3   4
ENDBRANCH   2   3
ENDBRANCH   1   2
BRANCH   1  13
ATOM     13  C   UNL     1     -51.677  10.480 -30.374  1.00  0.00     0.000 C 
BRANCH  13  14
ATOM     14  C   UNL     1     -51.579   8.965 -30.584  1.00  0.00     0.000 C 
BRANCH  14  15
ATOM     15  C   UNL     1     -52.558   8.495 -31.671  1.00  0.00     0.000 C 
BRANCH  15  16
ATOM     16  C   UNL     1     -52.266   7.067 -32.159  1.00  0.00     0.000 C 
BRANCH  16  17
ATOM     17  C   UNL     1     -51.603   7.042 -33.546  1.00  0.00     0.000 C 
BRANCH  17  18
ATOM     18  C   UNL     1     -50.287   6.247 -33.555  1.00  0.00     0.000 C 
BRANCH  18  19
ATOM     19  C   UNL     1     -49.050   7.145 -33.393  1.00  0.00     0.000 C 
BRANCH  19  20
ATOM     20  C   UNL     1     -48.551   7.133 -31.940  1.00  0.00     0.006 C 
BRANCH  20  21
ATOM     21  C   UNL     1     -47.954   8.482 -31.518  1.00  0.00     0.053 C 
BRANCH  21  22
ATOM     22  C   UNL     1     -47.256   8.396 -30.193  1.00  0.00     0.041 C 
ATOM     23  O   UNL     1     -47.220   7.304 -29.565  1.00  0.00    -0.550 OA
ATOM     24  O   UNL     1     -46.613   9.513 -29.671  1.00  0.00    -0.550 OA
ENDBRANCH  21  22
ENDBRANCH  20  21
ENDBRANCH  19  20
ENDBRANCH  18  19
ENDBRANCH  17  18
ENDBRANCH  16  17
ENDBRANCH  15  16
ENDBRANCH  14  15
ENDBRANCH  13  14
ENDBRANCH   1  13
TORSDOF 20
ENDMDL
MODEL 9
REMARK VINA RESULT:    -4.491      1.172      2.280
REMARK INTER + INTRA:         -12.855
REMARK INTER:                 -10.432
REMARK INTRA:                  -2.423
REMARK UNBOUND:                -3.114
REMARK SMILES CCCCCCCCCCCCCCCCCCCCCC(=O)[O-]
REMARK SMILES IDX 12 1 11 2 10 3 9 4 8 5 7 6 6 7 5 8 4 9 3 10 2 11 1 12 13 13
REMARK SMILES IDX 14 14 15 15 16 16 17 17 18 18 19 19 20 20 21 21 22 22 23 23
REMARK SMILES IDX 24 24
REMARK H PARENT
REMARK Flexibility Score: inf
ROOT
ATOM      1  C   UNL     1     -50.513  10.976 -30.823  1.00  0.00     0.000 C 
ENDROOT
BRANCH   1   2
ATOM      2  C   UNL     1     -49.764  11.792 -29.755  1.00  0.00     0.000 C 
BRANCH   2   3
ATOM      3  C   UNL     1     -50.708  12.633 -28.883  1.00  0.00     0.000 C 
BRANCH   3   4
ATOM      4  C   UNL     1     -50.415  14.131 -29.036  1.00  0.00    -0.000 C 
BRANCH   4   5
ATOM      5  C   UNL     1     -49.724  14.417 -30.379  1.00  0.00    -0.000 C 
BRANCH   5   6
ATOM      6  C   UNL     1     -50.527  15.379 -31.267  1.00  0.00    -0.000 C 
BRANCH   6   7
ATOM      7  C   UNL     1     -51.947  15.626 -30.733  1.00  0.00    -0.000 C 
BRANCH   7   8
ATOM      8  C   UNL     1     -52.633  16.833 -31.397  1.00  0.00    -0.000 C 
BRANCH   8   9
ATOM      9  C   UNL     1     -52.622  18.107 -30.526  1.00  0.00    -0.000 C 
BRANCH   9  10
ATOM     10  C   UNL     1     -51.988  17.858 -29.148  1.00  0.00    -0.000 C 
BRANCH  10  11
ATOM     11  C   UNL     1     -53.061  17.776 -28.054  1.00  0.00    -0.003 C 
ATOM     12  C   UNL     1     -52.687  16.747 -26.992  1.00  0.00     0.004 C 
ENDBRANCH  10  11
ENDBRANCH   9  10
ENDBRANCH   8   9
ENDBRANCH   7   8
ENDBRANCH   6   7
ENDBRANCH   5   6
ENDBRANCH   4   5
ENDBRANCH   3   4
ENDBRANCH   2   3
ENDBRANCH   1   2
BRANCH   1  13
ATOM     13  C   UNL     1     -51.992  11.375 -30.944  1.00  0.00     0.000 C 
BRANCH  13  14
ATOM     14  C   UNL     1     -52.906  10.263 -30.417  1.00  0.00     0.000 C 
BRANCH  14  15
ATOM     15  C   UNL     1     -52.178   8.911 -30.407  1.00  0.00     0.000 C 
BRANCH  15  16
ATOM     16  C   UNL     1     -52.683   7.954 -31.499  1.00  0.00     0.000 C 
BRANCH  16  17
ATOM     17  C   UNL     1     -51.561   7.080 -32.084  1.00  0.00     0.000 C 
BRANCH  17  18
ATOM     18  C   UNL     1     -50.561   7.893 -32.923  1.00  0.00     0.000 C 
BRANCH  18  19
ATOM     19  C   UNL     1     -49.233   7.153 -33.145  1.00  0.00     0.000 C 
BRANCH  19  20
ATOM     20  C   UNL     1     -48.409   7.106 -31.849  1.00  0.00     0.006 C 
BRANCH  20  21
ATOM     21  C   UNL     1     -47.981   8.504 -31.380  1.00  0.00     0.053 C 
BRANCH  21  22
ATOM     22  C   UNL     1     -47.234   8.454 -30.080  1.00  0.00     0.041 C 
ATOM     23  O   UNL     1     -46.544   9.440 -29.707  1.00  0.00    -0.550 OA
ATOM     24  O   UNL     1     -47.333   7.333 -29.263  1.00  0.00    -0.550 OA
ENDBRANCH  21  22
ENDBRANCH  20  21
ENDBRANCH  19  20
ENDBRANCH  18  19
ENDBRANCH  17  18
ENDBRANCH  16  17
ENDBRANCH  15  16
ENDBRANCH  14  15
ENDBRANCH  13  14
ENDBRANCH   1  13
TORSDOF 20
ENDMDL
