MODEL 1
REMARK VINA RESULT:    -6.733      0.000      0.000
REMARK INTER + INTRA:          -7.393
REMARK INTER:                  -7.126
REMARK INTRA:                  -0.266
REMARK UNBOUND:                -0.266
REMARK SMILES O=c1cc(-c2ccccc2)oc2ccccc12
REMARK SMILES IDX 4 1 3 2 2 3 1 4 17 5 16 6 15 7 14 8 13 9 12 10 11 11 5 12
REMARK SMILES IDX 8 13 7 14 9 15 6 16 10 17
REMARK H PARENT
REMARK Flexibility Score: inf
ROOT
ATOM      1  C   UNL     1      19.683  23.701  30.668  1.00  0.00     0.138 A 
ATOM      2  C   UNL     1      18.974  23.808  29.452  1.00  0.00     0.100 A 
ATOM      3  C   UNL     1      17.703  23.242  29.345  1.00  0.00     0.193 A 
ATOM      4  O   UNL     1      17.069  23.337  28.259  1.00  0.00    -0.289 OA
ATOM      5  C   UNL     1      17.149  22.575  30.446  1.00  0.00     0.065 A 
ATOM      6  C   UNL     1      15.873  21.983  30.406  1.00  0.00     0.016 A 
ATOM      7  C   UNL     1      15.368  21.330  31.534  1.00  0.00     0.001 A 
ATOM      8  C   UNL     1      16.126  21.262  32.706  1.00  0.00     0.004 A 
ATOM      9  C   UNL     1      17.394  21.849  32.756  1.00  0.00     0.048 A 
ATOM     10  C   UNL     1      17.910  22.504  31.632  1.00  0.00     0.138 A 
ATOM     11  O   UNL     1      19.117  23.058  31.689  1.00  0.00    -0.456 OA
ENDROOT
BRANCH   1  12
ATOM     12  C   UNL     1      21.049  24.279  30.867  1.00  0.00     0.017 A 
ATOM     13  C   UNL     1      23.624  25.334  31.335  1.00  0.00     0.000 A 
ATOM     14  C   UNL     1      22.956  24.648  32.348  1.00  0.00     0.001 A 
ATOM     15  C   UNL     1      23.018  25.498  30.090  1.00  0.00     0.001 A 
ATOM     16  C   UNL     1      21.680  24.124  32.119  1.00  0.00     0.012 A 
ATOM     17  C   UNL     1      21.742  24.977  29.853  1.00  0.00     0.012 A 
ENDBRANCH   1  12
TORSDOF 1
ENDMDL
MODEL 2
REMARK VINA RESULT:    -6.590      1.121      2.391
REMARK INTER + INTRA:          -7.241
REMARK INTER:                  -6.975
REMARK INTRA:                  -0.266
REMARK UNBOUND:                -0.266
REMARK SMILES O=c1cc(-c2ccccc2)oc2ccccc12
REMARK SMILES IDX 4 1 3 2 2 3 1 4 17 5 16 6 15 7 14 8 13 9 12 10 11 11 5 12
REMARK SMILES IDX 8 13 7 14 9 15 6 16 10 17
REMARK H PARENT
REMARK Flexibility Score: inf
ROOT
ATOM      1  C   UNL     1      19.696  23.688  30.837  1.00  0.00     0.138 A 
ATOM      2  C   UNL     1      19.086  23.136  31.984  1.00  0.00     0.100 A 
ATOM      3  C   UNL     1      17.810  22.580  31.885  1.00  0.00     0.193 A 
ATOM      4  O   UNL     1      17.265  22.087  32.909  1.00  0.00    -0.289 OA
ATOM      5  C   UNL     1      17.152  22.577  30.646  1.00  0.00     0.065 A 
ATOM      6  C   UNL     1      15.867  22.032  30.477  1.00  0.00     0.016 A 
ATOM      7  C   UNL     1      15.256  22.055  29.220  1.00  0.00     0.001 A 
ATOM      8  C   UNL     1      15.920  22.619  28.126  1.00  0.00     0.004 A 
ATOM      9  C   UNL     1      17.198  23.161  28.285  1.00  0.00     0.048 A 
ATOM     10  C   UNL     1      17.818  23.144  29.539  1.00  0.00     0.138 A 
ATOM     11  O   UNL     1      19.033  23.663  29.680  1.00  0.00    -0.456 OA
ENDROOT
BRANCH   1  12
ATOM     12  C   UNL     1      21.059  24.304  30.857  1.00  0.00     0.017 A 
ATOM     13  C   UNL     1      23.641  25.437  30.989  1.00  0.00     0.000 A 
ATOM     14  C   UNL     1      23.103  24.795  32.102  1.00  0.00     0.001 A 
ATOM     15  C   UNL     1      22.901  25.519  29.810  1.00  0.00     0.001 A 
ATOM     16  C   UNL     1      21.824  24.232  32.041  1.00  0.00     0.012 A 
ATOM     17  C   UNL     1      21.621  24.960  29.738  1.00  0.00     0.012 A 
ENDBRANCH   1  12
TORSDOF 1
ENDMDL
MODEL 3
REMARK VINA RESULT:    -6.537      1.531      5.846
REMARK INTER + INTRA:          -7.186
REMARK INTER:                  -6.920
REMARK INTRA:                  -0.266
REMARK UNBOUND:                -0.266
REMARK SMILES O=c1cc(-c2ccccc2)oc2ccccc12
REMARK SMILES IDX 4 1 3 2 2 3 1 4 17 5 16 6 15 7 14 8 13 9 12 10 11 11 5 12
REMARK SMILES IDX 8 13 7 14 9 15 6 16 10 17
REMARK H PARENT
REMARK Flexibility Score: inf
ROOT
ATOM      1  C   UNL     1      19.257  23.846  29.774  1.00  0.00     0.138 A 
ATOM      2  C   UNL     1      19.864  24.570  28.727  1.00  0.00     0.100 A 
ATOM      3  C   UNL     1      21.127  25.132  28.921  1.00  0.00     0.193 A 
ATOM      4  O   UNL     1      21.670  25.780  27.985  1.00  0.00    -0.289 OA
ATOM      5  C   UNL     1      21.774  24.968  30.154  1.00  0.00     0.065 A 
ATOM      6  C   UNL     1      23.046  25.508  30.416  1.00  0.00     0.016 A 
ATOM      7  C   UNL     1      23.646  25.315  31.663  1.00  0.00     0.001 A 
ATOM      8  C   UNL     1      22.985  24.586  32.656  1.00  0.00     0.004 A 
ATOM      9  C   UNL     1      21.721  24.045  32.405  1.00  0.00     0.048 A 
ATOM     10  C   UNL     1      21.111  24.233  31.159  1.00  0.00     0.138 A 
ATOM     11  O   UNL     1      19.909  23.715  30.930  1.00  0.00    -0.456 OA
ENDROOT
BRANCH   1  12
ATOM     12  C   UNL     1      17.907  23.212  29.650  1.00  0.00     0.017 A 
ATOM     13  C   UNL     1      15.367  21.990  29.510  1.00  0.00     0.000 A 
ATOM     14  C   UNL     1      16.087  21.968  30.703  1.00  0.00     0.001 A 
ATOM     15  C   UNL     1      15.903  22.616  28.386  1.00  0.00     0.001 A 
ATOM     16  C   UNL     1      17.346  22.572  30.775  1.00  0.00     0.012 A 
ATOM     17  C   UNL     1      17.162  23.224  28.449  1.00  0.00     0.012 A 
ENDBRANCH   1  12
TORSDOF 1
ENDMDL
MODEL 4
REMARK VINA RESULT:    -6.519      1.501      6.288
REMARK INTER + INTRA:          -7.166
REMARK INTER:                  -6.901
REMARK INTRA:                  -0.266
REMARK UNBOUND:                -0.266
REMARK SMILES O=c1cc(-c2ccccc2)oc2ccccc12
REMARK SMILES IDX 4 1 3 2 2 3 1 4 17 5 16 6 15 7 14 8 13 9 12 10 11 11 5 12
REMARK SMILES IDX 8 13 7 14 9 15 6 16 10 17
REMARK H PARENT
REMARK Flexibility Score: inf
ROOT
ATOM      1  C   UNL     1      19.133  23.629  30.215  1.00  0.00     0.138 A 
ATOM      2  C   UNL     1      19.591  23.458  31.539  1.00  0.00     0.100 A 
ATOM      3  C   UNL     1      20.839  23.962  31.905  1.00  0.00     0.193 A 
ATOM      4  O   UNL     1      21.249  23.810  33.089  1.00  0.00    -0.289 OA
ATOM      5  C   UNL     1      21.621  24.632  30.953  1.00  0.00     0.065 A 
ATOM      6  C   UNL     1      22.887  25.164  31.256  1.00  0.00     0.016 A 
ATOM      7  C   UNL     1      23.625  25.822  30.268  1.00  0.00     0.001 A 
ATOM      8  C   UNL     1      23.109  25.955  28.976  1.00  0.00     0.004 A 
ATOM      9  C   UNL     1      21.851  25.430  28.666  1.00  0.00     0.048 A 
ATOM     10  C   UNL     1      21.104  24.768  29.647  1.00  0.00     0.138 A 
ATOM     11  O   UNL     1      19.909  24.272  29.343  1.00  0.00    -0.456 OA
ENDROOT
BRANCH   1  12
ATOM     12  C   UNL     1      17.808  23.120  29.740  1.00  0.00     0.017 A 
ATOM     13  C   UNL     1      15.293  22.126  28.935  1.00  0.00     0.000 A 
ATOM     14  C   UNL     1      15.712  21.976  30.256  1.00  0.00     0.001 A 
ATOM     15  C   UNL     1      16.118  22.767  28.012  1.00  0.00     0.001 A 
ATOM     16  C   UNL     1      16.958  22.467  30.658  1.00  0.00     0.012 A 
ATOM     17  C   UNL     1      17.366  23.261  28.405  1.00  0.00     0.012 A 
ENDBRANCH   1  12
TORSDOF 1
ENDMDL
MODEL 5
REMARK VINA RESULT:    -6.427      1.153      1.618
REMARK INTER + INTRA:          -7.069
REMARK INTER:                  -6.803
REMARK INTRA:                  -0.266
REMARK UNBOUND:                -0.266
REMARK SMILES O=c1cc(-c2ccccc2)oc2ccccc12
REMARK SMILES IDX 4 1 3 2 2 3 1 4 17 5 16 6 15 7 14 8 13 9 12 10 11 11 5 12
REMARK SMILES IDX 8 13 7 14 9 15 6 16 10 17
REMARK H PARENT
REMARK Flexibility Score: inf
ROOT
ATOM      1  C   UNL     1      18.308  23.223  29.970  1.00  0.00     0.138 A 
ATOM      2  C   UNL     1      17.611  23.324  28.747  1.00  0.00     0.100 A 
ATOM      3  C   UNL     1      16.348  22.742  28.625  1.00  0.00     0.193 A 
ATOM      4  O   UNL     1      15.724  22.832  27.533  1.00  0.00    -0.289 OA
ATOM      5  C   UNL     1      15.791  22.066  29.720  1.00  0.00     0.065 A 
ATOM      6  C   UNL     1      14.523  21.458  29.664  1.00  0.00     0.016 A 
ATOM      7  C   UNL     1      14.014  20.795  30.785  1.00  0.00     0.001 A 
ATOM      8  C   UNL     1      14.762  20.735  31.965  1.00  0.00     0.004 A 
ATOM      9  C   UNL     1      16.021  21.337  32.030  1.00  0.00     0.048 A 
ATOM     10  C   UNL     1      16.541  22.001  30.913  1.00  0.00     0.138 A 
ATOM     11  O   UNL     1      17.740  22.570  30.984  1.00  0.00    -0.456 OA
ENDROOT
BRANCH   1  12
ATOM     12  C   UNL     1      19.665  23.817  30.185  1.00  0.00     0.017 A 
ATOM     13  C   UNL     1      22.219  24.908  30.684  1.00  0.00     0.000 A 
ATOM     14  C   UNL     1      21.518  24.274  31.709  1.00  0.00     0.001 A 
ATOM     15  C   UNL     1      21.656  25.002  29.412  1.00  0.00     0.001 A 
ATOM     16  C   UNL     1      20.253  23.733  31.465  1.00  0.00     0.012 A 
ATOM     17  C   UNL     1      20.391  24.463  29.159  1.00  0.00     0.012 A 
ENDBRANCH   1  12
TORSDOF 1
ENDMDL
MODEL 6
REMARK VINA RESULT:    -6.378     12.732     14.555
REMARK INTER + INTRA:          -7.017
REMARK INTER:                  -6.775
REMARK INTRA:                  -0.242
REMARK UNBOUND:                -0.266
REMARK SMILES O=c1cc(-c2ccccc2)oc2ccccc12
REMARK SMILES IDX 4 1 3 2 2 3 1 4 17 5 16 6 15 7 14 8 13 9 12 10 11 11 5 12
REMARK SMILES IDX 8 13 7 14 9 15 6 16 10 17
REMARK H PARENT
REMARK Flexibility Score: inf
ROOT
ATOM      1  C   UNL     1      17.970  10.748  26.824  1.00  0.00     0.138 A 
ATOM      2  C   UNL     1      18.565   9.579  27.345  1.00  0.00     0.100 A 
ATOM      3  C   UNL     1      19.209   8.692  26.482  1.00  0.00     0.193 A 
ATOM      4  O   UNL     1      19.741   7.647  26.948  1.00  0.00    -0.289 OA
ATOM      5  C   UNL     1      19.256   8.974  25.110  1.00  0.00     0.065 A 
ATOM      6  C   UNL     1      19.889   8.122  24.187  1.00  0.00     0.016 A 
ATOM      7  C   UNL     1      19.907   8.451  22.828  1.00  0.00     0.001 A 
ATOM      8  C   UNL     1      19.297   9.627  22.382  1.00  0.00     0.004 A 
ATOM      9  C   UNL     1      18.667  10.480  23.292  1.00  0.00     0.048 A 
ATOM     10  C   UNL     1      18.642  10.160  24.654  1.00  0.00     0.138 A 
ATOM     11  O   UNL     1      18.040  10.977  25.512  1.00  0.00    -0.456 OA
ENDROOT
BRANCH   1  12
ATOM     12  C   UNL     1      17.261  11.751  27.678  1.00  0.00     0.017 A 
ATOM     13  C   UNL     1      15.976  13.714  29.247  1.00  0.00     0.000 A 
ATOM     14  C   UNL     1      16.948  14.087  28.321  1.00  0.00     0.001 A 
ATOM     15  C   UNL     1      15.639  12.369  29.397  1.00  0.00     0.001 A 
ATOM     16  C   UNL     1      17.587  13.117  27.542  1.00  0.00     0.012 A 
ATOM     17  C   UNL     1      16.272  11.392  28.622  1.00  0.00     0.012 A 
ENDBRANCH   1  12
TORSDOF 1
ENDMDL
MODEL 7
REMARK VINA RESULT:    -6.219     12.606     15.301
REMARK INTER + INTRA:          -6.848
REMARK INTER:                  -6.595
REMARK INTRA:                  -0.254
REMARK UNBOUND:                -0.266
REMARK SMILES O=c1cc(-c2ccccc2)oc2ccccc12
REMARK SMILES IDX 4 1 3 2 2 3 1 4 17 5 16 6 15 7 14 8 13 9 12 10 11 11 5 12
REMARK SMILES IDX 8 13 7 14 9 15 6 16 10 17
REMARK H PARENT
REMARK Flexibility Score: inf
ROOT
ATOM      1  C   UNL     1       8.968  14.106  35.354  1.00  0.00     0.138 A 
ATOM      2  C   UNL     1      10.019  13.229  35.696  1.00  0.00     0.100 A 
ATOM      3  C   UNL     1      11.072  13.692  36.486  1.00  0.00     0.193 A 
ATOM      4  O   UNL     1      12.012  12.908  36.792  1.00  0.00    -0.289 OA
ATOM      5  C   UNL     1      11.071  15.022  36.929  1.00  0.00     0.065 A 
ATOM      6  C   UNL     1      12.100  15.552  37.727  1.00  0.00     0.016 A 
ATOM      7  C   UNL     1      12.050  16.886  38.141  1.00  0.00     0.001 A 
ATOM      8  C   UNL     1      10.977  17.699  37.764  1.00  0.00     0.004 A 
ATOM      9  C   UNL     1       9.949  17.181  36.972  1.00  0.00     0.048 A 
ATOM     10  C   UNL     1       9.990  15.847  36.551  1.00  0.00     0.138 A 
ATOM     11  O   UNL     1       9.008  15.363  35.797  1.00  0.00    -0.456 OA
ENDROOT
BRANCH   1  12
ATOM     12  C   UNL     1       7.803  13.692  34.512  1.00  0.00     0.017 A 
ATOM     13  C   UNL     1       5.613  12.818  32.961  1.00  0.00     0.000 A 
ATOM     14  C   UNL     1       6.254  11.932  33.825  1.00  0.00     0.001 A 
ATOM     15  C   UNL     1       6.055  14.137  32.864  1.00  0.00     0.001 A 
ATOM     16  C   UNL     1       7.340  12.362  34.594  1.00  0.00     0.012 A 
ATOM     17  C   UNL     1       7.140  14.575  33.630  1.00  0.00     0.012 A 
ENDBRANCH   1  12
TORSDOF 1
ENDMDL
MODEL 8
REMARK VINA RESULT:    -6.208     12.930     14.586
REMARK INTER + INTRA:          -6.837
REMARK INTER:                  -6.592
REMARK INTRA:                  -0.244
REMARK UNBOUND:                -0.266
REMARK SMILES O=c1cc(-c2ccccc2)oc2ccccc12
REMARK SMILES IDX 4 1 3 2 2 3 1 4 17 5 16 6 15 7 14 8 13 9 12 10 11 11 5 12
REMARK SMILES IDX 8 13 7 14 9 15 6 16 10 17
REMARK H PARENT
REMARK Flexibility Score: inf
ROOT
ATOM      1  C   UNL     1      18.015  10.573  27.130  1.00  0.00     0.138 A 
ATOM      2  C   UNL     1      18.289  10.612  25.746  1.00  0.00     0.100 A 
ATOM      3  C   UNL     1      19.006   9.570  25.157  1.00  0.00     0.193 A 
ATOM      4  O   UNL     1      19.251   9.605  23.920  1.00  0.00    -0.289 OA
ATOM      5  C   UNL     1      19.445   8.499  25.949  1.00  0.00     0.065 A 
ATOM      6  C   UNL     1      20.172   7.418  25.419  1.00  0.00     0.016 A 
ATOM      7  C   UNL     1      20.586   6.376  26.253  1.00  0.00     0.001 A 
ATOM      8  C   UNL     1      20.278   6.403  27.616  1.00  0.00     0.004 A 
ATOM      9  C   UNL     1      19.555   7.473  28.152  1.00  0.00     0.048 A 
ATOM     10  C   UNL     1      19.137   8.522  27.326  1.00  0.00     0.138 A 
ATOM     11  O   UNL     1      18.451   9.535  27.844  1.00  0.00    -0.456 OA
ENDROOT
BRANCH   1  12
ATOM     12  C   UNL     1      17.253  11.648  27.840  1.00  0.00     0.017 A 
ATOM     13  C   UNL     1      15.871  13.742  29.131  1.00  0.00     0.000 A 
ATOM     14  C   UNL     1      16.887  14.032  28.222  1.00  0.00     0.001 A 
ATOM     15  C   UNL     1      15.539  12.415  29.402  1.00  0.00     0.001 A 
ATOM     16  C   UNL     1      17.573  12.997  27.581  1.00  0.00     0.012 A 
ATOM     17  C   UNL     1      16.220  11.373  28.765  1.00  0.00     0.012 A 
ENDBRANCH   1  12
TORSDOF 1
ENDMDL
MODEL 9
REMARK VINA RESULT:    -6.143      2.020      3.402
REMARK INTER + INTRA:          -6.768
REMARK INTER:                  -6.504
REMARK INTRA:                  -0.264
REMARK UNBOUND:                -0.266
REMARK SMILES O=c1cc(-c2ccccc2)oc2ccccc12
REMARK SMILES IDX 4 1 3 2 2 3 1 4 17 5 16 6 15 7 14 8 13 9 12 10 11 11 5 12
REMARK SMILES IDX 8 13 7 14 9 15 6 16 10 17
REMARK H PARENT
REMARK Flexibility Score: inf
ROOT
ATOM      1  C   UNL     1      17.596  22.894  30.176  1.00  0.00     0.138 A 
ATOM      2  C   UNL     1      17.067  22.080  31.199  1.00  0.00     0.100 A 
ATOM      3  C   UNL     1      15.787  21.542  31.057  1.00  0.00     0.193 A 
ATOM      4  O   UNL     1      15.313  20.813  31.972  1.00  0.00    -0.289 OA
ATOM      5  C   UNL     1      15.046  21.817  29.899  1.00  0.00     0.065 A 
ATOM      6  C   UNL     1      13.752  21.307  29.693  1.00  0.00     0.016 A 
ATOM      7  C   UNL     1      13.056  21.613  28.520  1.00  0.00     0.001 A 
ATOM      8  C   UNL     1      13.644  22.428  27.547  1.00  0.00     0.004 A 
ATOM      9  C   UNL     1      14.930  22.939  27.743  1.00  0.00     0.048 A 
ATOM     10  C   UNL     1      15.634  22.639  28.915  1.00  0.00     0.138 A 
ATOM     11  O   UNL     1      16.856  23.130  29.092  1.00  0.00    -0.456 OA
ENDROOT
BRANCH   1  12
ATOM     12  C   UNL     1      18.958  23.511  30.248  1.00  0.00     0.017 A 
ATOM     13  C   UNL     1      21.529  24.651  30.482  1.00  0.00     0.000 A 
ATOM     14  C   UNL     1      20.913  24.084  31.596  1.00  0.00     0.001 A 
ATOM     15  C   UNL     1      20.873  24.654  29.252  1.00  0.00     0.001 A 
ATOM     16  C   UNL     1      19.639  23.518  31.484  1.00  0.00     0.012 A 
ATOM     17  C   UNL     1      19.598  24.091  29.130  1.00  0.00     0.012 A 
ENDBRANCH   1  12
TORSDOF 1
ENDMDL
