MODEL 1
REMARK VINA RESULT:    -6.155      0.000      0.000
REMARK INTER + INTRA:          -6.155
REMARK INTER:                  -6.155
REMARK INTRA:                   0.000
REMARK UNBOUND:                 0.000
REMARK SMILES CC1(C)O[C@]2(C)CC[C@H]1CC2
REMARK SMILES IDX 1 1 2 2 9 3 10 4 11 5 5 6 4 7 7 8 8 9 6 10 3 11
REMARK H PARENT
REMARK Flexibility Score: inf
ROOT
ATOM      1  C   UNL     1      11.347 -11.759 -29.443  1.00  0.00     0.042 C 
ATOM      2  C   UNL     1      11.613 -12.330 -28.032  1.00  0.00     0.066 C 
ATOM      3  C   UNL     1      11.247 -11.269 -26.923  1.00  0.00     0.021 C 
ATOM      4  C   UNL     1      11.582 -11.875 -25.538  1.00  0.00     0.009 C 
ATOM      5  C   UNL     1      13.038 -12.400 -25.551  1.00  0.00     0.035 C 
ATOM      6  C   UNL     1      13.708 -12.064 -26.915  1.00  0.00     0.066 C 
ATOM      7  O   UNL     1      12.992 -12.721 -27.963  1.00  0.00    -0.369 OA
ATOM      8  C   UNL     1      13.649 -10.525 -27.141  1.00  0.00     0.035 C 
ATOM      9  C   UNL     1      12.178 -10.045 -27.091  1.00  0.00     0.009 C 
ATOM     10  C   UNL     1      15.160 -12.550 -26.928  1.00  0.00     0.042 C 
ATOM     11  C   UNL     1      10.747 -13.599 -27.881  1.00  0.00     0.042 C 
ENDROOT
TORSDOF 0
ENDMDL
MODEL 2
REMARK VINA RESULT:    -5.883      1.439      2.928
REMARK INTER + INTRA:          -5.883
REMARK INTER:                  -5.883
REMARK INTRA:                   0.000
REMARK UNBOUND:                 0.000
REMARK SMILES CC1(C)O[C@]2(C)CC[C@H]1CC2
REMARK SMILES IDX 1 1 2 2 9 3 10 4 11 5 5 6 4 7 7 8 8 9 6 10 3 11
REMARK H PARENT
REMARK Flexibility Score: inf
ROOT
ATOM      1  C   UNL     1      10.656 -12.502 -28.771  1.00  0.00     0.042 C 
ATOM      2  C   UNL     1      11.762 -11.793 -27.959  1.00  0.00     0.066 C 
ATOM      3  C   UNL     1      13.001 -12.747 -27.751  1.00  0.00     0.021 C 
ATOM      4  C   UNL     1      14.052 -12.004 -26.890  1.00  0.00     0.009 C 
ATOM      5  C   UNL     1      13.368 -11.458 -25.613  1.00  0.00     0.035 C 
ATOM      6  C   UNL     1      11.880 -11.914 -25.576  1.00  0.00     0.066 C 
ATOM      7  O   UNL     1      11.196 -11.374 -26.708  1.00  0.00    -0.369 OA
ATOM      8  C   UNL     1      11.826 -13.467 -25.638  1.00  0.00     0.035 C 
ATOM      9  C   UNL     1      12.546 -13.966 -26.914  1.00  0.00     0.009 C 
ATOM     10  C   UNL     1      11.201 -11.407 -24.300  1.00  0.00     0.042 C 
ATOM     11  C   UNL     1      12.171 -10.530 -28.747  1.00  0.00     0.042 C 
ENDROOT
TORSDOF 0
ENDMDL
MODEL 3
REMARK VINA RESULT:    -5.873      1.248      2.939
REMARK INTER + INTRA:          -5.873
REMARK INTER:                  -5.873
REMARK INTRA:                   0.000
REMARK UNBOUND:                 0.000
REMARK SMILES CC1(C)O[C@]2(C)CC[C@H]1CC2
REMARK SMILES IDX 1 1 2 2 9 3 10 4 11 5 5 6 4 7 7 8 8 9 6 10 3 11
REMARK H PARENT
REMARK Flexibility Score: inf
ROOT
ATOM      1  C   UNL     1      11.031 -10.603 -25.108  1.00  0.00     0.042 C 
ATOM      2  C   UNL     1      11.666 -11.779 -25.883  1.00  0.00     0.066 C 
ATOM      3  C   UNL     1      13.190 -11.495 -26.177  1.00  0.00     0.021 C 
ATOM      4  C   UNL     1      13.759 -12.678 -26.998  1.00  0.00     0.009 C 
ATOM      5  C   UNL     1      12.846 -12.933 -28.221  1.00  0.00     0.035 C 
ATOM      6  C   UNL     1      11.717 -11.863 -28.270  1.00  0.00     0.066 C 
ATOM      7  O   UNL     1      10.917 -11.972 -27.092  1.00  0.00    -0.369 OA
ATOM      8  C   UNL     1      12.364 -10.448 -28.320  1.00  0.00     0.035 C 
ATOM      9  C   UNL     1      13.288 -10.252 -27.094  1.00  0.00     0.009 C 
ATOM     10  C   UNL     1      10.826 -12.085 -29.496  1.00  0.00     0.042 C 
ATOM     11  C   UNL     1      11.505 -13.043 -25.012  1.00  0.00     0.042 C 
ENDROOT
TORSDOF 0
ENDMDL
MODEL 4
REMARK VINA RESULT:    -5.804      0.898      3.310
REMARK INTER + INTRA:          -5.804
REMARK INTER:                  -5.804
REMARK INTRA:                   0.000
REMARK UNBOUND:                 0.000
REMARK SMILES CC1(C)O[C@]2(C)CC[C@H]1CC2
REMARK SMILES IDX 1 1 2 2 9 3 10 4 11 5 5 6 4 7 7 8 8 9 6 10 3 11
REMARK H PARENT
REMARK Flexibility Score: inf
ROOT
ATOM      1  C   UNL     1      14.339 -13.772 -26.734  1.00  0.00     0.042 C 
ATOM      2  C   UNL     1      13.553 -12.443 -26.709  1.00  0.00     0.066 C 
ATOM      3  C   UNL     1      12.439 -12.474 -25.593  1.00  0.00     0.021 C 
ATOM      4  C   UNL     1      11.653 -11.142 -25.648  1.00  0.00     0.009 C 
ATOM      5  C   UNL     1      11.181 -10.890 -27.100  1.00  0.00     0.035 C 
ATOM      6  C   UNL     1      11.572 -12.098 -28.000  1.00  0.00     0.066 C 
ATOM      7  O   UNL     1      12.995 -12.230 -28.014  1.00  0.00    -0.369 OA
ATOM      8  C   UNL     1      10.945 -13.393 -27.407  1.00  0.00     0.035 C 
ATOM      9  C   UNL     1      11.422 -13.586 -25.947  1.00  0.00     0.009 C 
ATOM     10  C   UNL     1      11.082 -11.875 -29.433  1.00  0.00     0.042 C 
ATOM     11  C   UNL     1      14.570 -11.314 -26.433  1.00  0.00     0.042 C 
ENDROOT
TORSDOF 0
ENDMDL
MODEL 5
REMARK VINA RESULT:    -5.788      1.307      2.945
REMARK INTER + INTRA:          -5.788
REMARK INTER:                  -5.788
REMARK INTRA:                   0.000
REMARK UNBOUND:                 0.000
REMARK SMILES CC1(C)O[C@]2(C)CC[C@H]1CC2
REMARK SMILES IDX 1 1 2 2 9 3 10 4 11 5 5 6 4 7 7 8 8 9 6 10 3 11
REMARK H PARENT
REMARK Flexibility Score: inf
ROOT
ATOM      1  C   UNL     1      14.820 -12.053 -26.815  1.00  0.00     0.042 C 
ATOM      2  C   UNL     1      13.374 -12.595 -26.783  1.00  0.00     0.066 C 
ATOM      3  C   UNL     1      12.614 -12.235 -28.118  1.00  0.00     0.021 C 
ATOM      4  C   UNL     1      11.160 -12.755 -28.010  1.00  0.00     0.009 C 
ATOM      5  C   UNL     1      10.535 -12.244 -26.689  1.00  0.00     0.035 C 
ATOM      6  C   UNL     1      11.539 -11.307 -25.958  1.00  0.00     0.066 C 
ATOM      7  O   UNL     1      12.717 -12.046 -25.631  1.00  0.00    -0.369 OA
ATOM      8  C   UNL     1      11.918 -10.133 -26.907  1.00  0.00     0.035 C 
ATOM      9  C   UNL     1      12.511 -10.694 -28.222  1.00  0.00     0.009 C 
ATOM     10  C   UNL     1      10.919 -10.768 -24.665  1.00  0.00     0.042 C 
ATOM     11  C   UNL     1      13.461 -14.125 -26.601  1.00  0.00     0.042 C 
ENDROOT
TORSDOF 0
ENDMDL
MODEL 6
REMARK VINA RESULT:    -5.732      0.897      1.967
REMARK INTER + INTRA:          -5.732
REMARK INTER:                  -5.732
REMARK INTRA:                   0.000
REMARK UNBOUND:                 0.000
REMARK SMILES CC1(C)O[C@]2(C)CC[C@H]1CC2
REMARK SMILES IDX 1 1 2 2 9 3 10 4 11 5 5 6 4 7 7 8 8 9 6 10 3 11
REMARK H PARENT
REMARK Flexibility Score: inf
ROOT
ATOM      1  C   UNL     1      12.138  -9.731 -27.711  1.00  0.00     0.042 C 
ATOM      2  C   UNL     1      12.026 -11.250 -27.970  1.00  0.00     0.066 C 
ATOM      3  C   UNL     1      11.036 -11.920 -26.941  1.00  0.00     0.021 C 
ATOM      4  C   UNL     1      11.003 -13.443 -27.214  1.00  0.00     0.009 C 
ATOM      5  C   UNL     1      12.453 -13.985 -27.243  1.00  0.00     0.035 C 
ATOM      6  C   UNL     1      13.451 -12.842 -26.900  1.00  0.00     0.066 C 
ATOM      7  O   UNL     1      13.343 -11.814 -27.887  1.00  0.00    -0.369 OA
ATOM      8  C   UNL     1      13.085 -12.253 -25.507  1.00  0.00     0.035 C 
ATOM      9  C   UNL     1      11.621 -11.752 -25.518  1.00  0.00     0.009 C 
ATOM     10  C   UNL     1      14.887 -13.373 -26.894  1.00  0.00     0.042 C 
ATOM     11  C   UNL     1      11.517 -11.433 -29.416  1.00  0.00     0.042 C 
ENDROOT
TORSDOF 0
ENDMDL
MODEL 7
REMARK VINA RESULT:    -5.686      1.132      2.655
REMARK INTER + INTRA:          -5.686
REMARK INTER:                  -5.686
REMARK INTRA:                   0.000
REMARK UNBOUND:                 0.000
REMARK SMILES CC1(C)O[C@]2(C)CC[C@H]1CC2
REMARK SMILES IDX 1 1 2 2 9 3 10 4 11 5 5 6 4 7 7 8 8 9 6 10 3 11
REMARK H PARENT
REMARK Flexibility Score: inf
ROOT
ATOM      1  C   UNL     1      11.006 -13.582 -25.217  1.00  0.00     0.042 C 
ATOM      2  C   UNL     1      11.642 -12.208 -25.527  1.00  0.00     0.066 C 
ATOM      3  C   UNL     1      11.094 -11.636 -26.891  1.00  0.00     0.021 C 
ATOM      4  C   UNL     1      11.801 -10.288 -27.175  1.00  0.00     0.009 C 
ATOM      5  C   UNL     1      13.333 -10.485 -27.064  1.00  0.00     0.035 C 
ATOM      6  C   UNL     1      13.654 -11.984 -26.795  1.00  0.00     0.066 C 
ATOM      7  O   UNL     1      13.067 -12.373 -25.552  1.00  0.00    -0.369 OA
ATOM      8  C   UNL     1      13.045 -12.845 -27.940  1.00  0.00     0.035 C 
ATOM      9  C   UNL     1      11.520 -12.592 -28.030  1.00  0.00     0.009 C 
ATOM     10  C   UNL     1      15.168 -12.197 -26.715  1.00  0.00     0.042 C 
ATOM     11  C   UNL     1      11.289 -11.265 -24.358  1.00  0.00     0.042 C 
ENDROOT
TORSDOF 0
ENDMDL
MODEL 8
REMARK VINA RESULT:    -5.306      1.359      3.159
REMARK INTER + INTRA:          -5.306
REMARK INTER:                  -5.306
REMARK INTRA:                   0.000
REMARK UNBOUND:                 0.000
REMARK SMILES CC1(C)O[C@]2(C)CC[C@H]1CC2
REMARK SMILES IDX 1 1 2 2 9 3 10 4 11 5 5 6 4 7 7 8 8 9 6 10 3 11
REMARK H PARENT
REMARK Flexibility Score: inf
ROOT
ATOM      1  C   UNL     1      13.271  -9.876 -27.738  1.00  0.00     0.042 C 
ATOM      2  C   UNL     1      13.428 -11.200 -26.957  1.00  0.00     0.066 C 
ATOM      3  C   UNL     1      12.886 -12.415 -27.805  1.00  0.00     0.021 C 
ATOM      4  C   UNL     1      13.020 -13.703 -26.955  1.00  0.00     0.009 C 
ATOM      5  C   UNL     1      12.369 -13.469 -25.571  1.00  0.00     0.035 C 
ATOM      6  C   UNL     1      11.718 -12.056 -25.526  1.00  0.00     0.066 C 
ATOM      7  O   UNL     1      12.732 -11.067 -25.709  1.00  0.00    -0.369 OA
ATOM      8  C   UNL     1      10.678 -11.942 -26.678  1.00  0.00     0.035 C 
ATOM      9  C   UNL     1      11.369 -12.211 -28.036  1.00  0.00     0.009 C 
ATOM     10  C   UNL     1      11.041 -11.824 -24.171  1.00  0.00     0.042 C 
ATOM     11  C   UNL     1      14.931 -11.376 -26.651  1.00  0.00     0.042 C 
ENDROOT
TORSDOF 0
ENDMDL
MODEL 9
REMARK VINA RESULT:    -5.187      1.299      2.935
REMARK INTER + INTRA:          -5.187
REMARK INTER:                  -5.187
REMARK INTRA:                   0.000
REMARK UNBOUND:                 0.000
REMARK SMILES CC1(C)O[C@]2(C)CC[C@H]1CC2
REMARK SMILES IDX 1 1 2 2 9 3 10 4 11 5 5 6 4 7 7 8 8 9 6 10 3 11
REMARK H PARENT
REMARK Flexibility Score: inf
ROOT
ATOM      1  C   UNL     1      12.522  -9.748 -27.466  1.00  0.00     0.042 C 
ATOM      2  C   UNL     1      11.817 -10.859 -26.656  1.00  0.00     0.066 C 
ATOM      3  C   UNL     1      12.873 -11.734 -25.874  1.00  0.00     0.021 C 
ATOM      4  C   UNL     1      12.117 -12.858 -25.125  1.00  0.00     0.009 C 
ATOM      5  C   UNL     1      11.194 -13.601 -26.121  1.00  0.00     0.035 C 
ATOM      6  C   UNL     1      11.399 -13.033 -27.555  1.00  0.00     0.066 C 
ATOM      7  O   UNL     1      11.040 -11.650 -27.567  1.00  0.00    -0.369 OA
ATOM      8  C   UNL     1      12.899 -13.175 -27.945  1.00  0.00     0.035 C 
ATOM      9  C   UNL     1      13.782 -12.442 -26.906  1.00  0.00     0.009 C 
ATOM     10  C   UNL     1      10.515 -13.782 -28.556  1.00  0.00     0.042 C 
ATOM     11  C   UNL     1      10.848 -10.167 -25.675  1.00  0.00     0.042 C 
ENDROOT
TORSDOF 0
ENDMDL
