MODEL 1
REMARK VINA RESULT:    -5.600      0.000      0.000
REMARK INTER + INTRA:          -6.272
REMARK INTER:                  -6.909
REMARK INTRA:                   0.637
REMARK UNBOUND:                 0.637
REMARK SMILES C=C1[C@@H]2CC[C@H]3[C@@H]2C(C)(C)CCC[C@@]13C
REMARK SMILES IDX 14 1 6 2 7 3 3 4 2 5 1 6 4 7 5 8 15 9 8 10 9 11 10 12 11 13
REMARK SMILES IDX 13 15 12 16
REMARK H PARENT
REMARK Flexibility Score: 80.00
ROOT
ATOM      1  C   UNL     1     111.291 110.462 110.129  1.00  0.00    -0.008 C 
ATOM      2  C   UNL     1     112.223 110.808 111.357  1.00  0.00     0.003 C 
ATOM      3  C   UNL     1     111.505 111.970 112.075  1.00  0.00     0.006 C 
ATOM      4  C   UNL     1     111.373 112.807 110.803  1.00  0.00     0.019 C 
ATOM      5  C   UNL     1     110.736 111.836 109.850  1.00  0.00    -0.068 C 
ATOM      6  C   UNL     1     109.889 112.165 108.867  1.00  0.00     0.009 C 
ATOM      7  C   UNL     1     112.857 112.930 110.379  1.00  0.00     0.008 C 
ATOM      8  C   UNL     1     113.469 111.590 110.856  1.00  0.00     0.005 C 
ATOM      9  C   UNL     1     112.066 109.923 108.896  1.00  0.00     0.016 C 
ENDROOT
BRANCH   3  10
ATOM     10  C   UNL     1     110.221 111.677 112.965  1.00  0.00    -0.032 C 
ATOM     11  C   UNL     1     109.125 112.752 112.753  1.00  0.00     0.011 C 
ATOM     12  C   UNL     1     110.642 111.781 114.457  1.00  0.00     0.011 C 
BRANCH  10  13
ATOM     13  C   UNL     1     109.624 110.249 112.806  1.00  0.00     0.007 CG0
ATOM     14  G   UNL     1     109.089 109.902 111.419  1.00  0.00     0.000 G0
ENDBRANCH  10  13
ENDBRANCH   3  10
BRANCH   1  15
ATOM     15  C   UNL     1     110.198 109.417 110.482  1.00  0.00     0.011 C 
BRANCH  15  16
ATOM     16  C   UNL     1     109.097 109.895 111.423  1.00  0.00     0.001 CG0
ATOM     17  G   UNL     1     109.631 110.262 112.805  1.00  0.00     0.000 G0
ENDBRANCH  15  16
ENDBRANCH   1  15
TORSDOF 0
ENDMDL
MODEL 2
REMARK VINA RESULT:    -5.592      3.725      5.964
REMARK INTER + INTRA:          -6.263
REMARK INTER:                  -6.890
REMARK INTRA:                   0.627
REMARK UNBOUND:                 0.637
REMARK SMILES C=C1[C@@H]2CC[C@H]3[C@@H]2C(C)(C)CCC[C@@]13C
REMARK SMILES IDX 14 1 6 2 7 3 3 4 2 5 1 6 4 7 5 8 15 9 8 10 9 11 10 12 11 13
REMARK SMILES IDX 13 15 12 16
REMARK H PARENT
REMARK Flexibility Score: 80.00
ROOT
ATOM      1  C   UNL     1     111.003 111.730 114.929  1.00  0.00    -0.008 C 
ATOM      2  C   UNL     1     110.060 111.491 116.173  1.00  0.00     0.003 C 
ATOM      3  C   UNL     1     110.692 110.297 116.918  1.00  0.00     0.006 C 
ATOM      4  C   UNL     1     110.745 109.417 115.669  1.00  0.00     0.019 C 
ATOM      5  C   UNL     1     111.447 110.309 114.684  1.00  0.00    -0.068 C 
ATOM      6  C   UNL     1     112.255 109.887 113.704  1.00  0.00     0.009 C 
ATOM      7  C   UNL     1     109.252 109.400 115.261  1.00  0.00     0.008 C 
ATOM      8  C   UNL     1     108.751 110.796 115.704  1.00  0.00     0.005 C 
ATOM      9  C   UNL     1     110.261 112.293 113.686  1.00  0.00     0.016 C 
ENDROOT
BRANCH   3  10
ATOM     10  C   UNL     1     112.004 110.513 117.789  1.00  0.00    -0.032 C 
ATOM     11  C   UNL     1     113.008 109.347 117.602  1.00  0.00     0.011 C 
ATOM     12  C   UNL     1     111.590 110.488 119.287  1.00  0.00     0.011 C 
BRANCH  10  13
ATOM     13  C   UNL     1     112.712 111.882 117.582  1.00  0.00     0.007 CG0
ATOM     14  G   UNL     1     113.254 112.146 116.180  1.00  0.00     0.000 G0
ENDBRANCH  10  13
ENDBRANCH   3  10
BRANCH   1  15
ATOM     15  C   UNL     1     112.178 112.694 115.243  1.00  0.00     0.011 C 
BRANCH  15  16
ATOM     16  C   UNL     1     113.252 112.155 116.184  1.00  0.00     0.001 CG0
ATOM     17  G   UNL     1     112.713 111.878 117.584  1.00  0.00     0.000 G0
ENDBRANCH  15  16
ENDBRANCH   1  15
TORSDOF 0
ENDMDL
MODEL 3
REMARK VINA RESULT:    -5.568      3.415      4.806
REMARK INTER + INTRA:          -6.233
REMARK INTER:                  -6.866
REMARK INTRA:                   0.633
REMARK UNBOUND:                 0.637
REMARK SMILES C=C1[C@@H]2CC[C@H]3[C@@H]2C(C)(C)CCC[C@@]13C
REMARK SMILES IDX 14 1 6 2 7 3 3 4 2 5 1 6 4 7 5 8 15 9 8 10 9 11 10 12 11 13
REMARK SMILES IDX 13 15 12 16
REMARK H PARENT
REMARK Flexibility Score: 80.00
ROOT
ATOM      1  C   UNL     1     111.116 110.569 114.881  1.00  0.00    -0.008 C 
ATOM      2  C   UNL     1     112.077 110.765 116.119  1.00  0.00     0.003 C 
ATOM      3  C   UNL     1     111.450 111.927 116.919  1.00  0.00     0.006 C 
ATOM      4  C   UNL     1     111.374 112.853 115.705  1.00  0.00     0.019 C 
ATOM      5  C   UNL     1     110.662 111.995 114.697  1.00  0.00    -0.068 C 
ATOM      6  C   UNL     1     109.838 112.449 113.745  1.00  0.00     0.009 C 
ATOM      7  C   UNL     1     112.860 112.895 115.276  1.00  0.00     0.008 C 
ATOM      8  C   UNL     1     113.375 111.485 115.659  1.00  0.00     0.005 C 
ATOM      9  C   UNL     1     111.844 110.057 113.608  1.00  0.00     0.016 C 
ENDROOT
BRANCH   3  10
ATOM     10  C   UNL     1     110.151 111.671 117.799  1.00  0.00    -0.032 C 
ATOM     11  C   UNL     1     109.135 112.833 117.666  1.00  0.00     0.011 C 
ATOM     12  C   UNL     1     110.586 111.649 119.291  1.00  0.00     0.011 C 
BRANCH  10  13
ATOM     13  C   UNL     1     109.452 110.303 117.556  1.00  0.00     0.007 CG0
ATOM     14  G   UNL     1     108.889 110.084 116.154  1.00  0.00     0.000 G0
ENDBRANCH  10  13
ENDBRANCH   3  10
BRANCH   1  15
ATOM     15  C   UNL     1     109.951 109.586 115.175  1.00  0.00     0.011 C 
BRANCH  15  16
ATOM     16  C   UNL     1     108.891 110.082 116.154  1.00  0.00     0.001 CG0
ATOM     17  G   UNL     1     109.452 110.309 117.555  1.00  0.00     0.000 G0
ENDBRANCH  15  16
ENDBRANCH   1  15
TORSDOF 0
ENDMDL
MODEL 4
REMARK VINA RESULT:    -5.566      3.511      4.936
REMARK INTER + INTRA:          -6.230
REMARK INTER:                  -6.857
REMARK INTRA:                   0.626
REMARK UNBOUND:                 0.637
REMARK SMILES C=C1[C@@H]2CC[C@H]3[C@@H]2C(C)(C)CCC[C@@]13C
REMARK SMILES IDX 14 1 6 2 7 3 3 4 2 5 1 6 4 7 5 8 15 9 8 10 9 11 10 12 11 13
REMARK SMILES IDX 13 15 12 16
REMARK H PARENT
REMARK Flexibility Score: 80.00
ROOT
ATOM      1  C   UNL     1     111.270 110.502 105.206  1.00  0.00    -0.008 C 
ATOM      2  C   UNL     1     112.230 110.923 106.388  1.00  0.00     0.003 C 
ATOM      3  C   UNL     1     111.499 112.088 107.088  1.00  0.00     0.006 C 
ATOM      4  C   UNL     1     111.298 112.872 105.791  1.00  0.00     0.019 C 
ATOM      5  C   UNL     1     110.661 111.846 104.897  1.00  0.00    -0.068 C 
ATOM      6  C   UNL     1     109.772 112.112 103.932  1.00  0.00     0.009 C 
ATOM      7  C   UNL     1     112.762 113.025 105.312  1.00  0.00     0.008 C 
ATOM      8  C   UNL     1     113.433 111.724 105.817  1.00  0.00     0.005 C 
ATOM      9  C   UNL     1     112.020 109.941 103.968  1.00  0.00     0.016 C 
ENDROOT
BRANCH   3  10
ATOM     10  C   UNL     1     110.255 111.789 108.031  1.00  0.00    -0.032 C 
ATOM     11  C   UNL     1     109.122 112.826 107.824  1.00  0.00     0.011 C 
ATOM     12  C   UNL     1     110.724 111.953 109.503  1.00  0.00     0.011 C 
BRANCH  10  13
ATOM     13  C   UNL     1     109.693 110.342 107.938  1.00  0.00     0.007 CG0
ATOM     14  G   UNL     1     109.134 109.930 106.579  1.00  0.00     0.000 G0
ENDBRANCH  10  13
ENDBRANCH   3  10
BRANCH   1  15
ATOM     15  C   UNL     1     110.223 109.438 105.634  1.00  0.00     0.011 C 
BRANCH  15  16
ATOM     16  C   UNL     1     109.131 109.920 106.585  1.00  0.00     0.001 CG0
ATOM     17  G   UNL     1     109.686 110.349 107.940  1.00  0.00     0.000 G0
ENDBRANCH  15  16
ENDBRANCH   1  15
TORSDOF 0
ENDMDL
MODEL 5
REMARK VINA RESULT:    -5.459      1.879      4.660
REMARK INTER + INTRA:          -6.098
REMARK INTER:                  -6.735
REMARK INTRA:                   0.637
REMARK UNBOUND:                 0.637
REMARK SMILES C=C1[C@@H]2CC[C@H]3[C@@H]2C(C)(C)CCC[C@@]13C
REMARK SMILES IDX 14 1 6 2 7 3 3 4 2 5 1 6 4 7 5 8 15 9 8 10 9 11 10 12 11 13
REMARK SMILES IDX 13 15 12 16
REMARK H PARENT
REMARK Flexibility Score: 80.00
ROOT
ATOM      1  C   UNL     1     110.347 111.948 115.159  1.00  0.00    -0.008 C 
ATOM      2  C   UNL     1     111.770 112.569 114.868  1.00  0.00     0.003 C 
ATOM      3  C   UNL     1     112.484 111.516 113.994  1.00  0.00     0.006 C 
ATOM      4  C   UNL     1     112.203 110.372 114.968  1.00  0.00     0.019 C 
ATOM      5  C   UNL     1     110.718 110.487 115.169  1.00  0.00    -0.068 C 
ATOM      6  C   UNL     1     109.892 109.460 115.407  1.00  0.00     0.009 C 
ATOM      7  C   UNL     1     112.864 110.916 116.257  1.00  0.00     0.008 C 
ATOM      8  C   UNL     1     112.658 112.447 116.137  1.00  0.00     0.005 C 
ATOM      9  C   UNL     1     109.754 112.373 116.530  1.00  0.00     0.016 C 
ENDROOT
BRANCH   3  10
ATOM     10  C   UNL     1     112.093 111.363 112.461  1.00  0.00    -0.032 C 
ATOM     11  C   UNL     1     112.017 109.873 112.040  1.00  0.00     0.011 C 
ATOM     12  C   UNL     1     113.234 111.992 111.614  1.00  0.00     0.011 C 
BRANCH  10  13
ATOM     13  C   UNL     1     110.801 112.118 112.034  1.00  0.00     0.007 CG0
ATOM     14  G   UNL     1     109.509 111.657 112.703  1.00  0.00     0.000 G0
ENDBRANCH  10  13
ENDBRANCH   3  10
BRANCH   1  15
ATOM     15  C   UNL     1     109.301 112.309 114.070  1.00  0.00     0.011 C 
BRANCH  15  16
ATOM     16  C   UNL     1     109.512 111.665 112.702  1.00  0.00     0.001 CG0
ATOM     17  G   UNL     1     110.809 112.119 112.038  1.00  0.00     0.000 G0
ENDBRANCH  15  16
ENDBRANCH   1  15
TORSDOF 0
ENDMDL
MODEL 6
REMARK VINA RESULT:    -5.440      2.042      4.752
REMARK INTER + INTRA:          -6.075
REMARK INTER:                  -6.702
REMARK INTRA:                   0.627
REMARK UNBOUND:                 0.637
REMARK SMILES C=C1[C@@H]2CC[C@H]3[C@@H]2C(C)(C)CCC[C@@]13C
REMARK SMILES IDX 14 1 6 2 7 3 3 4 2 5 1 6 4 7 5 8 15 9 8 10 9 11 10 12 11 13
REMARK SMILES IDX 13 15 12 16
REMARK H PARENT
REMARK Flexibility Score: 80.00
ROOT
ATOM      1  C   UNL     1     111.950 110.409 115.259  1.00  0.00    -0.008 C 
ATOM      2  C   UNL     1     110.501 109.857 114.955  1.00  0.00     0.003 C 
ATOM      3  C   UNL     1     109.861 110.924 114.043  1.00  0.00     0.006 C 
ATOM      4  C   UNL     1     110.185 112.076 114.994  1.00  0.00     0.019 C 
ATOM      5  C   UNL     1     111.658 111.888 115.227  1.00  0.00    -0.068 C 
ATOM      6  C   UNL     1     112.532 112.875 115.455  1.00  0.00     0.009 C 
ATOM      7  C   UNL     1     109.472 111.600 116.283  1.00  0.00     0.008 C 
ATOM      8  C   UNL     1     109.598 110.058 116.204  1.00  0.00     0.005 C 
ATOM      9  C   UNL     1     112.494 109.988 116.651  1.00  0.00     0.016 C 
ENDROOT
BRANCH   3  10
ATOM     10  C   UNL     1     110.287 111.018 112.514  1.00  0.00    -0.032 C 
ATOM     11  C   UNL     1     110.445 112.490 112.057  1.00  0.00     0.011 C 
ATOM     12  C   UNL     1     109.132 110.424 111.661  1.00  0.00     0.011 C 
BRANCH  10  13
ATOM     13  C   UNL     1     111.547 110.189 112.132  1.00  0.00     0.007 CG0
ATOM     14  G   UNL     1     112.848 110.602 112.815  1.00  0.00     0.000 G0
ENDBRANCH  10  13
ENDBRANCH   3  10
BRANCH   1  15
ATOM     15  C   UNL     1     112.994 109.966 114.199  1.00  0.00     0.011 C 
BRANCH  15  16
ATOM     16  C   UNL     1     112.847 110.590 112.815  1.00  0.00     0.001 CG0
ATOM     17  G   UNL     1     111.550 110.179 112.125  1.00  0.00     0.000 G0
ENDBRANCH  15  16
ENDBRANCH   1  15
TORSDOF 0
ENDMDL
MODEL 7
REMARK VINA RESULT:    -5.435      2.169      4.483
REMARK INTER + INTRA:          -6.068
REMARK INTER:                  -6.690
REMARK INTRA:                   0.622
REMARK UNBOUND:                 0.637
REMARK SMILES C=C1[C@@H]2CC[C@H]3[C@@H]2C(C)(C)CCC[C@@]13C
REMARK SMILES IDX 14 1 6 2 7 3 3 4 2 5 1 6 4 7 5 8 15 9 8 10 9 11 10 12 11 13
REMARK SMILES IDX 13 15 12 16
REMARK H PARENT
REMARK Flexibility Score: 80.00
ROOT
ATOM      1  C   UNL     1     110.397 111.972 110.116  1.00  0.00    -0.008 C 
ATOM      2  C   UNL     1     111.846 112.529 109.823  1.00  0.00     0.003 C 
ATOM      3  C   UNL     1     112.501 111.458 108.925  1.00  0.00     0.006 C 
ATOM      4  C   UNL     1     112.172 110.311 109.881  1.00  0.00     0.019 C 
ATOM      5  C   UNL     1     110.696 110.494 110.097  1.00  0.00    -0.068 C 
ATOM      6  C   UNL     1     109.823 109.505 110.325  1.00  0.00     0.009 C 
ATOM      7  C   UNL     1     112.870 110.800 111.173  1.00  0.00     0.008 C 
ATOM      8  C   UNL     1     112.737 112.340 111.082  1.00  0.00     0.005 C 
ATOM      9  C   UNL     1     109.837 112.401 111.499  1.00  0.00     0.016 C 
ENDROOT
BRANCH   3  10
ATOM     10  C   UNL     1     112.090 111.351 107.393  1.00  0.00    -0.032 C 
ATOM     11  C   UNL     1     111.950 109.875 106.943  1.00  0.00     0.011 C 
ATOM     12  C   UNL     1     113.248 111.951 106.547  1.00  0.00     0.011 C 
BRANCH  10  13
ATOM     13  C   UNL     1     110.826 112.166 106.994  1.00  0.00     0.007 CG0
ATOM     14  G   UNL     1     109.526 111.755 107.679  1.00  0.00     0.000 G0
ENDBRANCH  10  13
ENDBRANCH   3  10
BRANCH   1  15
ATOM     15  C   UNL     1     109.361 112.403 109.043  1.00  0.00     0.011 C 
BRANCH  15  16
ATOM     16  C   UNL     1     109.518 111.760 107.668  1.00  0.00     0.001 CG0
ATOM     17  G   UNL     1     110.820 112.164 106.981  1.00  0.00     0.000 G0
ENDBRANCH  15  16
ENDBRANCH   1  15
TORSDOF 0
ENDMDL
MODEL 8
REMARK VINA RESULT:    -5.422      1.252      1.965
REMARK INTER + INTRA:          -6.053
REMARK INTER:                  -6.679
REMARK INTRA:                   0.626
REMARK UNBOUND:                 0.637
REMARK SMILES C=C1[C@@H]2CC[C@H]3[C@@H]2C(C)(C)CCC[C@@]13C
REMARK SMILES IDX 14 1 6 2 7 3 3 4 2 5 1 6 4 7 5 8 15 9 8 10 9 11 10 12 11 13
REMARK SMILES IDX 13 15 12 16
REMARK H PARENT
REMARK Flexibility Score: 80.00
ROOT
ATOM      1  C   UNL     1     110.230 110.467 110.129  1.00  0.00    -0.008 C 
ATOM      2  C   UNL     1     111.608 109.712 110.292  1.00  0.00     0.003 C 
ATOM      3  C   UNL     1     112.446 110.625 111.212  1.00  0.00     0.006 C 
ATOM      4  C   UNL     1     112.217 111.869 110.354  1.00  0.00     0.019 C 
ATOM      5  C   UNL     1     110.720 111.890 110.222  1.00  0.00    -0.068 C 
ATOM      6  C   UNL     1     109.973 112.996 110.114  1.00  0.00     0.009 C 
ATOM      7  C   UNL     1     112.772 111.389 108.991  1.00  0.00     0.008 C 
ATOM      8  C   UNL     1     112.445 109.875 108.993  1.00  0.00     0.005 C 
ATOM      9  C   UNL     1     109.542 110.213 108.760  1.00  0.00     0.016 C 
ENDROOT
BRANCH   3  10
ATOM     10  C   UNL     1     112.138 110.673 112.771  1.00  0.00    -0.032 C 
ATOM     11  C   UNL     1     112.216 112.120 113.321  1.00  0.00     0.011 C 
ATOM     12  C   UNL     1     113.254 109.875 113.501  1.00  0.00     0.011 C 
BRANCH  10  13
ATOM     13  C   UNL     1     110.804 109.998 113.199  1.00  0.00     0.007 CG0
ATOM     14  G   UNL     1     109.532 110.616 112.626  1.00  0.00     0.000 G0
ENDBRANCH  10  13
ENDBRANCH   3  10
BRANCH   1  15
ATOM     15  C   UNL     1     109.208 110.096 111.237  1.00  0.00     0.011 C 
BRANCH  15  16
ATOM     16  C   UNL     1     109.526 110.610 112.638  1.00  0.00     0.001 CG0
ATOM     17  G   UNL     1     110.806 110.002 113.205  1.00  0.00     0.000 G0
ENDBRANCH  15  16
ENDBRANCH   1  15
TORSDOF 0
ENDMDL
MODEL 9
REMARK VINA RESULT:    -5.418      2.298      4.422
REMARK INTER + INTRA:          -6.048
REMARK INTER:                  -6.674
REMARK INTRA:                   0.626
REMARK UNBOUND:                 0.637
REMARK SMILES C=C1[C@@H]2CC[C@H]3[C@@H]2C(C)(C)CCC[C@@]13C
REMARK SMILES IDX 14 1 6 2 7 3 3 4 2 5 1 6 4 7 5 8 15 9 8 10 9 11 10 12 11 13
REMARK SMILES IDX 13 15 12 16
REMARK H PARENT
REMARK Flexibility Score: 80.00
ROOT
ATOM      1  C   UNL     1     111.929 110.315 110.377  1.00  0.00    -0.008 C 
ATOM      2  C   UNL     1     110.469 109.788 110.084  1.00  0.00     0.003 C 
ATOM      3  C   UNL     1     109.866 110.829 109.117  1.00  0.00     0.006 C 
ATOM      4  C   UNL     1     110.213 112.014 110.019  1.00  0.00     0.019 C 
ATOM      5  C   UNL     1     111.677 111.798 110.275  1.00  0.00    -0.068 C 
ATOM      6  C   UNL     1     112.577 112.771 110.468  1.00  0.00     0.009 C 
ATOM      7  C   UNL     1     109.475 111.617 111.320  1.00  0.00     0.008 C 
ATOM      8  C   UNL     1     109.560 110.071 111.313  1.00  0.00     0.005 C 
ATOM      9  C   UNL     1     112.449 109.944 111.793  1.00  0.00     0.016 C 
ENDROOT
BRANCH   3  10
ATOM     10  C   UNL     1     110.310 110.841 107.591  1.00  0.00    -0.032 C 
ATOM     11  C   UNL     1     110.509 112.286 107.068  1.00  0.00     0.011 C 
ATOM     12  C   UNL     1     109.148 110.237 106.754  1.00  0.00     0.011 C 
BRANCH  10  13
ATOM     13  C   UNL     1     111.552 109.965 107.261  1.00  0.00     0.007 CG0
ATOM     14  G   UNL     1     112.854 110.373 107.943  1.00  0.00     0.000 G0
ENDBRANCH  10  13
ENDBRANCH   3  10
BRANCH   1  15
ATOM     15  C   UNL     1     112.972 109.796 109.350  1.00  0.00     0.011 C 
BRANCH  15  16
ATOM     16  C   UNL     1     112.856 110.363 107.938  1.00  0.00     0.001 CG0
ATOM     17  G   UNL     1     111.550 109.966 107.256  1.00  0.00     0.000 G0
ENDBRANCH  15  16
ENDBRANCH   1  15
TORSDOF 0
ENDMDL
