MODEL 1
REMARK VINA RESULT:    -4.043      0.000      0.000
REMARK INTER + INTRA:          -5.486
REMARK INTER:                  -5.225
REMARK INTRA:                  -0.261
REMARK UNBOUND:                -0.261
REMARK SMILES CCCCCCC(=O)[O-]
REMARK SMILES IDX 5 1 6 2 7 3 8 4 9 5 4 6 3 7 2 8 1 9
REMARK H PARENT
REMARK Flexibility Score: inf
ROOT
ATOM      1  C   UNL     1      17.138   3.115  41.438  1.00  0.00     0.006 C 
ENDROOT
BRANCH   1   2
ATOM      2  C   UNL     1      16.401   4.142  40.573  1.00  0.00     0.053 C 
BRANCH   2   3
ATOM      3  C   UNL     1      16.721   5.532  41.023  1.00  0.00     0.041 C 
ATOM      4  O   UNL     1      16.187   6.521  40.455  1.00  0.00    -0.550 OA
ATOM      5  O   UNL     1      17.571   5.735  42.103  1.00  0.00    -0.550 OA
ENDBRANCH   2   3
ENDBRANCH   1   2
BRANCH   1   6
ATOM      6  C   UNL     1      17.768   2.018  40.573  1.00  0.00     0.000 C 
BRANCH   6   7
ATOM      7  C   UNL     1      19.222   2.359  40.222  1.00  0.00    -0.000 C 
BRANCH   7   8
ATOM      8  C   UNL     1      19.890   3.151  41.352  1.00  0.00    -0.003 C 
ATOM      9  C   UNL     1      21.305   2.646  41.616  1.00  0.00     0.004 C 
ENDBRANCH   7   8
ENDBRANCH   6   7
ENDBRANCH   1   6
TORSDOF 5
ENDMDL
MODEL 2
REMARK VINA RESULT:    -3.960      3.486      5.008
REMARK INTER + INTRA:          -5.379
REMARK INTER:                  -5.247
REMARK INTRA:                  -0.132
REMARK UNBOUND:                -0.261
REMARK SMILES CCCCCCC(=O)[O-]
REMARK SMILES IDX 5 1 6 2 7 3 8 4 9 5 4 6 3 7 2 8 1 9
REMARK H PARENT
REMARK Flexibility Score: inf
ROOT
ATOM      1  C   UNL     1      15.841   1.537  40.793  1.00  0.00     0.006 C 
ENDROOT
BRANCH   1   2
ATOM      2  C   UNL     1      17.351   1.697  40.588  1.00  0.00     0.053 C 
BRANCH   2   3
ATOM      3  C   UNL     1      17.899   2.732  41.519  1.00  0.00     0.041 C 
ATOM      4  O   UNL     1      19.144   2.862  41.660  1.00  0.00    -0.550 OA
ATOM      5  O   UNL     1      17.037   3.586  42.194  1.00  0.00    -0.550 OA
ENDBRANCH   2   3
ENDBRANCH   1   2
BRANCH   1   6
ATOM      6  C   UNL     1      15.460   0.060  40.943  1.00  0.00     0.000 C 
BRANCH   6   7
ATOM      7  C   UNL     1      14.097  -0.226  40.302  1.00  0.00    -0.000 C 
BRANCH   7   8
ATOM      8  C   UNL     1      13.933  -1.720  40.000  1.00  0.00    -0.003 C 
ATOM      9  C   UNL     1      14.567  -2.576  41.092  1.00  0.00     0.004 C 
ENDBRANCH   7   8
ENDBRANCH   6   7
ENDBRANCH   1   6
TORSDOF 5
ENDMDL
MODEL 3
REMARK VINA RESULT:    -3.844      4.053      4.569
REMARK INTER + INTRA:          -5.229
REMARK INTER:                  -5.116
REMARK INTRA:                  -0.112
REMARK UNBOUND:                -0.261
REMARK SMILES CCCCCCC(=O)[O-]
REMARK SMILES IDX 5 1 6 2 7 3 8 4 9 5 4 6 3 7 2 8 1 9
REMARK H PARENT
REMARK Flexibility Score: inf
ROOT
ATOM      1  C   UNL     1      15.815   1.563  40.604  1.00  0.00     0.006 C 
ENDROOT
BRANCH   1   2
ATOM      2  C   UNL     1      15.605   0.071  40.876  1.00  0.00     0.053 C 
BRANCH   2   3
ATOM      3  C   UNL     1      14.233  -0.351  40.454  1.00  0.00     0.041 C 
ATOM      4  O   UNL     1      14.071  -1.410  39.793  1.00  0.00    -0.550 OA
ATOM      5  O   UNL     1      13.128   0.400  40.834  1.00  0.00    -0.550 OA
ENDBRANCH   2   3
ENDBRANCH   1   2
BRANCH   1   6
ATOM      6  C   UNL     1      17.049   2.089  41.345  1.00  0.00     0.000 C 
BRANCH   6   7
ATOM      7  C   UNL     1      17.868   3.031  40.453  1.00  0.00    -0.000 C 
BRANCH   7   8
ATOM      8  C   UNL     1      19.272   2.469  40.202  1.00  0.00    -0.003 C 
ATOM      9  C   UNL     1      20.262   2.970  41.249  1.00  0.00     0.004 C 
ENDBRANCH   7   8
ENDBRANCH   6   7
ENDBRANCH   1   6
TORSDOF 5
ENDMDL
MODEL 4
REMARK VINA RESULT:    -3.826      2.355      4.207
REMARK INTER + INTRA:          -5.206
REMARK INTER:                  -4.946
REMARK INTRA:                  -0.259
REMARK UNBOUND:                -0.261
REMARK SMILES CCCCCCC(=O)[O-]
REMARK SMILES IDX 5 1 6 2 7 3 8 4 9 5 4 6 3 7 2 8 1 9
REMARK H PARENT
REMARK Flexibility Score: inf
ROOT
ATOM      1  C   UNL     1      18.301   2.776  41.303  1.00  0.00     0.006 C 
ENDROOT
BRANCH   1   2
ATOM      2  C   UNL     1      19.657   2.552  40.626  1.00  0.00     0.053 C 
BRANCH   2   3
ATOM      3  C   UNL     1      20.762   3.102  41.471  1.00  0.00     0.041 C 
ATOM      4  O   UNL     1      21.741   2.375  41.786  1.00  0.00    -0.550 OA
ATOM      5  O   UNL     1      20.735   4.432  41.871  1.00  0.00    -0.550 OA
ENDBRANCH   2   3
ENDBRANCH   1   2
BRANCH   1   6
ATOM      6  C   UNL     1      17.246   3.224  40.286  1.00  0.00     0.000 C 
BRANCH   6   7
ATOM      7  C   UNL     1      16.410   4.387  40.834  1.00  0.00    -0.000 C 
BRANCH   7   8
ATOM      8  C   UNL     1      17.198   5.188  41.877  1.00  0.00    -0.003 C 
ATOM      9  C   UNL     1      16.348   5.473  43.111  1.00  0.00     0.004 C 
ENDBRANCH   7   8
ENDBRANCH   6   7
ENDBRANCH   1   6
TORSDOF 5
ENDMDL
MODEL 5
REMARK VINA RESULT:    -3.793      1.272      1.712
REMARK INTER + INTRA:          -5.162
REMARK INTER:                  -4.914
REMARK INTRA:                  -0.248
REMARK UNBOUND:                -0.261
REMARK SMILES CCCCCCC(=O)[O-]
REMARK SMILES IDX 5 1 6 2 7 3 8 4 9 5 4 6 3 7 2 8 1 9
REMARK H PARENT
REMARK Flexibility Score: inf
ROOT
ATOM      1  C   UNL     1      16.388   4.430  41.472  1.00  0.00     0.006 C 
ENDROOT
BRANCH   1   2
ATOM      2  C   UNL     1      17.106   5.783  41.506  1.00  0.00     0.053 C 
BRANCH   2   3
ATOM      3  C   UNL     1      16.365   6.790  40.684  1.00  0.00     0.041 C 
ATOM      4  O   UNL     1      15.105   6.802  40.682  1.00  0.00    -0.550 OA
ATOM      5  O   UNL     1      17.064   7.746  39.959  1.00  0.00    -0.550 OA
ENDBRANCH   2   3
ENDBRANCH   1   2
BRANCH   1   6
ATOM      6  C   UNL     1      16.982   3.519  40.391  1.00  0.00     0.000 C 
BRANCH   6   7
ATOM      7  C   UNL     1      17.943   2.492  41.002  1.00  0.00    -0.000 C 
BRANCH   7   8
ATOM      8  C   UNL     1      19.330   2.583  40.354  1.00  0.00    -0.003 C 
ATOM      9  C   UNL     1      20.361   3.131  41.335  1.00  0.00     0.004 C 
ENDBRANCH   7   8
ENDBRANCH   6   7
ENDBRANCH   1   6
TORSDOF 5
ENDMDL
MODEL 6
REMARK VINA RESULT:    -3.767      7.168      7.913
REMARK INTER + INTRA:          -5.129
REMARK INTER:                  -4.860
REMARK INTRA:                  -0.269
REMARK UNBOUND:                -0.261
REMARK SMILES CCCCCCC(=O)[O-]
REMARK SMILES IDX 5 1 6 2 7 3 8 4 9 5 4 6 3 7 2 8 1 9
REMARK H PARENT
REMARK Flexibility Score: inf
ROOT
ATOM      1  C   UNL     1      12.369   0.107  40.204  1.00  0.00     0.006 C 
ENDROOT
BRANCH   1   2
ATOM      2  C   UNL     1      11.892  -0.197  41.628  1.00  0.00     0.053 C 
BRANCH   2   3
ATOM      3  C   UNL     1      10.403  -0.338  41.663  1.00  0.00     0.041 C 
ATOM      4  O   UNL     1       9.827  -0.714  42.717  1.00  0.00    -0.550 OA
ATOM      5  O   UNL     1       9.648  -0.008  40.545  1.00  0.00    -0.550 OA
ENDBRANCH   2   3
ENDBRANCH   1   2
BRANCH   1   6
ATOM      6  C   UNL     1      13.538  -0.803  39.809  1.00  0.00     0.000 C 
BRANCH   6   7
ATOM      7  C   UNL     1      14.379  -1.183  41.034  1.00  0.00    -0.000 C 
BRANCH   7   8
ATOM      8  C   UNL     1      14.645  -2.693  41.072  1.00  0.00    -0.003 C 
ATOM      9  C   UNL     1      13.899  -3.413  39.954  1.00  0.00     0.004 C 
ENDBRANCH   7   8
ENDBRANCH   6   7
ENDBRANCH   1   6
TORSDOF 5
ENDMDL
MODEL 7
REMARK VINA RESULT:    -3.720      7.739      9.044
REMARK INTER + INTRA:          -5.069
REMARK INTER:                  -4.704
REMARK INTRA:                  -0.364
REMARK UNBOUND:                -0.261
REMARK SMILES CCCCCCC(=O)[O-]
REMARK SMILES IDX 5 1 6 2 7 3 8 4 9 5 4 6 3 7 2 8 1 9
REMARK H PARENT
REMARK Flexibility Score: inf
ROOT
ATOM      1  C   UNL     1      13.979  -1.302  40.375  1.00  0.00     0.006 C 
ENDROOT
BRANCH   1   2
ATOM      2  C   UNL     1      14.389  -2.737  40.719  1.00  0.00     0.053 C 
BRANCH   2   3
ATOM      3  C   UNL     1      13.706  -3.710  39.810  1.00  0.00     0.041 C 
ATOM      4  O   UNL     1      12.466  -3.624  39.607  1.00  0.00    -0.550 OA
ATOM      5  O   UNL     1      14.447  -4.680  39.148  1.00  0.00    -0.550 OA
ENDBRANCH   2   3
ENDBRANCH   1   2
BRANCH   1   6
ATOM      6  C   UNL     1      13.403  -0.585  41.601  1.00  0.00     0.000 C 
BRANCH   6   7
ATOM      7  C   UNL     1      11.891  -0.373  41.457  1.00  0.00    -0.000 C 
BRANCH   7   8
ATOM      8  C   UNL     1      11.495  -0.215  39.985  1.00  0.00    -0.003 C 
ATOM      9  C   UNL     1      10.164  -0.902  39.695  1.00  0.00     0.004 C 
ENDBRANCH   7   8
ENDBRANCH   6   7
ENDBRANCH   1   6
TORSDOF 5
ENDMDL
MODEL 8
REMARK VINA RESULT:    -3.680      4.567      5.598
REMARK INTER + INTRA:          -5.016
REMARK INTER:                  -4.886
REMARK INTRA:                  -0.130
REMARK UNBOUND:                -0.261
REMARK SMILES CCCCCCC(=O)[O-]
REMARK SMILES IDX 5 1 6 2 7 3 8 4 9 5 4 6 3 7 2 8 1 9
REMARK H PARENT
REMARK Flexibility Score: inf
ROOT
ATOM      1  C   UNL     1      15.296   0.975  40.664  1.00  0.00     0.006 C 
ENDROOT
BRANCH   1   2
ATOM      2  C   UNL     1      15.140  -0.516  40.979  1.00  0.00     0.053 C 
BRANCH   2   3
ATOM      3  C   UNL     1      14.039  -1.112  40.160  1.00  0.00     0.041 C 
ATOM      4  O   UNL     1      14.077  -2.329  39.837  1.00  0.00    -0.550 OA
ATOM      5  O   UNL     1      12.946  -0.336  39.795  1.00  0.00    -0.550 OA
ENDBRANCH   2   3
ENDBRANCH   1   2
BRANCH   1   6
ATOM      6  C   UNL     1      16.771   1.390  40.686  1.00  0.00     0.000 C 
BRANCH   6   7
ATOM      7  C   UNL     1      16.963   2.704  41.452  1.00  0.00    -0.000 C 
BRANCH   7   8
ATOM      8  C   UNL     1      17.022   3.899  40.493  1.00  0.00    -0.003 C 
ATOM      9  C   UNL     1      16.058   5.000  40.924  1.00  0.00     0.004 C 
ENDBRANCH   7   8
ENDBRANCH   6   7
ENDBRANCH   1   6
TORSDOF 5
ENDMDL
MODEL 9
REMARK VINA RESULT:    -3.596      3.906      5.407
REMARK INTER + INTRA:          -4.908
REMARK INTER:                  -4.739
REMARK INTRA:                  -0.169
REMARK UNBOUND:                -0.261
REMARK SMILES CCCCCCC(=O)[O-]
REMARK SMILES IDX 5 1 6 2 7 3 8 4 9 5 4 6 3 7 2 8 1 9
REMARK H PARENT
REMARK Flexibility Score: inf
ROOT
ATOM      1  C   UNL     1      15.235   0.903  40.907  1.00  0.00     0.006 C 
ENDROOT
BRANCH   1   2
ATOM      2  C   UNL     1      16.665   1.332  40.564  1.00  0.00     0.053 C 
BRANCH   2   3
ATOM      3  C   UNL     1      16.917   2.733  41.022  1.00  0.00     0.041 C 
ATOM      4  O   UNL     1      16.781   3.696  40.221  1.00  0.00    -0.550 OA
ATOM      5  O   UNL     1      17.253   2.982  42.346  1.00  0.00    -0.550 OA
ENDBRANCH   2   3
ENDBRANCH   1   2
BRANCH   1   6
ATOM      6  C   UNL     1      15.124  -0.623  40.997  1.00  0.00     0.000 C 
BRANCH   6   7
ATOM      7  C   UNL     1      13.693  -1.053  41.342  1.00  0.00    -0.000 C 
BRANCH   7   8
ATOM      8  C   UNL     1      12.667  -0.085  40.741  1.00  0.00    -0.003 C 
ATOM      9  C   UNL     1      11.524   0.182  41.715  1.00  0.00     0.004 C 
ENDBRANCH   7   8
ENDBRANCH   6   7
ENDBRANCH   1   6
TORSDOF 5
ENDMDL
