MODEL 1
REMARK VINA RESULT:    -3.559      0.000      0.000
REMARK INTER + INTRA:          -6.633
REMARK INTER:                  -6.056
REMARK INTRA:                  -0.577
REMARK UNBOUND:                -0.577
REMARK SMILES CCCCCCCCCCCCCC(=O)[O-]
REMARK SMILES IDX 8 1 9 2 10 3 11 4 12 5 13 6 14 7 15 8 16 9 7 10 6 11 5 12
REMARK SMILES IDX 4 13 3 14 2 15 1 16
REMARK H PARENT
REMARK Flexibility Score: inf
ROOT
ATOM      1  C   UNL     1       9.671  -5.627   4.103  1.00  0.00     0.000 C 
ENDROOT
BRANCH   1   2
ATOM      2  C   UNL     1      10.875  -5.323   3.196  1.00  0.00     0.000 C 
BRANCH   2   3
ATOM      3  C   UNL     1      12.059  -6.268   3.454  1.00  0.00     0.000 C 
BRANCH   3   4
ATOM      4  C   UNL     1      12.618  -6.145   4.883  1.00  0.00     0.000 C 
BRANCH   4   5
ATOM      5  C   UNL     1      13.858  -5.241   4.954  1.00  0.00     0.006 C 
BRANCH   5   6
ATOM      6  C   UNL     1      14.946  -5.652   3.953  1.00  0.00     0.053 C 
BRANCH   6   7
ATOM      7  C   UNL     1      16.240  -5.896   4.661  1.00  0.00     0.041 C 
ATOM      8  O   UNL     1      17.191  -6.467   4.064  1.00  0.00    -0.550 OA
ATOM      9  O   UNL     1      16.415  -5.450   5.964  1.00  0.00    -0.550 OA
ENDBRANCH   6   7
ENDBRANCH   5   6
ENDBRANCH   4   5
ENDBRANCH   3   4
ENDBRANCH   2   3
ENDBRANCH   1   2
BRANCH   1  10
ATOM     10  C   UNL     1       8.324  -5.245   3.462  1.00  0.00     0.000 C 
BRANCH  10  11
ATOM     11  C   UNL     1       7.241  -6.345   3.495  1.00  0.00    -0.000 C 
BRANCH  11  12
ATOM     12  C   UNL     1       5.794  -5.836   3.615  1.00  0.00    -0.000 C 
BRANCH  12  13
ATOM     13  C   UNL     1       5.223  -5.979   5.037  1.00  0.00    -0.000 C 
BRANCH  13  14
ATOM     14  C   UNL     1       6.011  -6.998   5.888  1.00  0.00    -0.000 C 
BRANCH  14  15
ATOM     15  C   UNL     1       5.358  -8.389   5.954  1.00  0.00    -0.003 C 
ATOM     16  C   UNL     1       4.852  -8.752   7.347  1.00  0.00     0.004 C 
ENDBRANCH  14  15
ENDBRANCH  13  14
ENDBRANCH  12  13
ENDBRANCH  11  12
ENDBRANCH  10  11
ENDBRANCH   1  10
TORSDOF 12
ENDMDL
MODEL 2
REMARK VINA RESULT:    -3.481      4.273      9.010
REMARK INTER + INTRA:          -6.500
REMARK INTER:                  -6.166
REMARK INTRA:                  -0.334
REMARK UNBOUND:                -0.577
REMARK SMILES CCCCCCCCCCCCCC(=O)[O-]
REMARK SMILES IDX 8 1 9 2 10 3 11 4 12 5 13 6 14 7 15 8 16 9 7 10 6 11 5 12
REMARK SMILES IDX 4 13 3 14 2 15 1 16
REMARK H PARENT
REMARK Flexibility Score: inf
ROOT
ATOM      1  C   UNL     1      11.590  -5.968   4.282  1.00  0.00     0.000 C 
ENDROOT
BRANCH   1   2
ATOM      2  C   UNL     1      10.351  -5.465   3.522  1.00  0.00     0.000 C 
BRANCH   2   3
ATOM      3  C   UNL     1       9.054  -5.648   4.326  1.00  0.00     0.000 C 
BRANCH   3   4
ATOM      4  C   UNL     1       7.962  -6.389   3.534  1.00  0.00     0.000 C 
BRANCH   4   5
ATOM      5  C   UNL     1       6.628  -6.456   4.292  1.00  0.00     0.006 C 
BRANCH   5   6
ATOM      6  C   UNL     1       6.570  -7.627   5.283  1.00  0.00     0.053 C 
BRANCH   6   7
ATOM      7  C   UNL     1       5.721  -7.270   6.462  1.00  0.00     0.041 C 
ATOM      8  O   UNL     1       5.548  -6.063   6.776  1.00  0.00    -0.550 OA
ATOM      9  O   UNL     1       5.082  -8.269   7.185  1.00  0.00    -0.550 OA
ENDBRANCH   6   7
ENDBRANCH   5   6
ENDBRANCH   4   5
ENDBRANCH   3   4
ENDBRANCH   2   3
ENDBRANCH   1   2
BRANCH   1  10
ATOM     10  C   UNL     1      12.907  -5.395   3.729  1.00  0.00     0.000 C 
BRANCH  10  11
ATOM     11  C   UNL     1      14.162  -6.256   3.985  1.00  0.00    -0.000 C 
BRANCH  11  12
ATOM     12  C   UNL     1      15.505  -5.522   3.827  1.00  0.00    -0.000 C 
BRANCH  12  13
ATOM     13  C   UNL     1      16.564  -5.985   4.844  1.00  0.00    -0.000 C 
BRANCH  13  14
ATOM     14  C   UNL     1      17.255  -7.298   4.419  1.00  0.00    -0.000 C 
BRANCH  14  15
ATOM     15  C   UNL     1      17.677  -8.188   5.600  1.00  0.00    -0.003 C 
ATOM     16  C   UNL     1      17.362  -9.665   5.383  1.00  0.00     0.004 C 
ENDBRANCH  14  15
ENDBRANCH  13  14
ENDBRANCH  12  13
ENDBRANCH  11  12
ENDBRANCH  10  11
ENDBRANCH   1  10
TORSDOF 12
ENDMDL
MODEL 3
REMARK VINA RESULT:    -3.468      4.687      8.933
REMARK INTER + INTRA:          -6.477
REMARK INTER:                  -6.082
REMARK INTRA:                  -0.395
REMARK UNBOUND:                -0.577
REMARK SMILES CCCCCCCCCCCCCC(=O)[O-]
REMARK SMILES IDX 8 1 9 2 10 3 11 4 12 5 13 6 14 7 15 8 16 9 7 10 6 11 5 12
REMARK SMILES IDX 4 13 3 14 2 15 1 16
REMARK H PARENT
REMARK Flexibility Score: inf
ROOT
ATOM      1  C   UNL     1       9.353  -5.585   4.046  1.00  0.00     0.000 C 
ENDROOT
BRANCH   1   2
ATOM      2  C   UNL     1       8.045  -5.174   3.349  1.00  0.00     0.000 C 
BRANCH   2   3
ATOM      3  C   UNL     1       7.036  -6.330   3.266  1.00  0.00     0.000 C 
BRANCH   3   4
ATOM      4  C   UNL     1       6.080  -6.373   4.472  1.00  0.00     0.000 C 
BRANCH   4   5
ATOM      5  C   UNL     1       6.420  -7.506   5.453  1.00  0.00     0.006 C 
BRANCH   5   6
ATOM      6  C   UNL     1       5.570  -7.455   6.730  1.00  0.00     0.053 C 
BRANCH   6   7
ATOM      7  C   UNL     1       4.658  -8.638   6.796  1.00  0.00     0.041 C 
ATOM      8  O   UNL     1       4.503  -9.258   7.881  1.00  0.00    -0.550 OA
ATOM      9  O   UNL     1       3.942  -9.028   5.672  1.00  0.00    -0.550 OA
ENDBRANCH   6   7
ENDBRANCH   5   6
ENDBRANCH   4   5
ENDBRANCH   3   4
ENDBRANCH   2   3
ENDBRANCH   1   2
BRANCH   1  10
ATOM     10  C   UNL     1      10.580  -5.496   3.122  1.00  0.00     0.000 C 
BRANCH  10  11
ATOM     11  C   UNL     1      11.895  -6.046   3.714  1.00  0.00    -0.000 C 
BRANCH  11  12
ATOM     12  C   UNL     1      13.160  -5.245   3.358  1.00  0.00    -0.000 C 
BRANCH  12  13
ATOM     13  C   UNL     1      14.220  -5.271   4.474  1.00  0.00    -0.000 C 
BRANCH  13  14
ATOM     14  C   UNL     1      15.640  -5.538   3.933  1.00  0.00    -0.000 C 
BRANCH  14  15
ATOM     15  C   UNL     1      16.619  -6.068   4.994  1.00  0.00    -0.003 C 
ATOM     16  C   UNL     1      16.479  -5.371   6.345  1.00  0.00     0.004 C 
ENDBRANCH  14  15
ENDBRANCH  13  14
ENDBRANCH  12  13
ENDBRANCH  11  12
ENDBRANCH  10  11
ENDBRANCH   1  10
TORSDOF 12
ENDMDL
MODEL 4
REMARK VINA RESULT:    -3.404      1.211      1.935
REMARK INTER + INTRA:          -6.368
REMARK INTER:                  -5.747
REMARK INTRA:                  -0.621
REMARK UNBOUND:                -0.577
REMARK SMILES CCCCCCCCCCCCCC(=O)[O-]
REMARK SMILES IDX 8 1 9 2 10 3 11 4 12 5 13 6 14 7 15 8 16 9 7 10 6 11 5 12
REMARK SMILES IDX 4 13 3 14 2 15 1 16
REMARK H PARENT
REMARK Flexibility Score: inf
ROOT
ATOM      1  C   UNL     1       9.157  -5.494   4.323  1.00  0.00     0.000 C 
ENDROOT
BRANCH   1   2
ATOM      2  C   UNL     1      10.368  -5.833   3.437  1.00  0.00     0.000 C 
BRANCH   2   3
ATOM      3  C   UNL     1      11.647  -6.066   4.255  1.00  0.00     0.000 C 
BRANCH   3   4
ATOM      4  C   UNL     1      12.852  -5.276   3.713  1.00  0.00     0.000 C 
BRANCH   4   5
ATOM      5  C   UNL     1      14.050  -5.295   4.675  1.00  0.00     0.006 C 
BRANCH   5   6
ATOM      6  C   UNL     1      15.265  -6.025   4.089  1.00  0.00     0.053 C 
BRANCH   6   7
ATOM      7  C   UNL     1      16.525  -5.536   4.730  1.00  0.00     0.041 C 
ATOM      8  O   UNL     1      17.405  -4.958   4.038  1.00  0.00    -0.550 OA
ATOM      9  O   UNL     1      16.708  -5.676   6.099  1.00  0.00    -0.550 OA
ENDBRANCH   6   7
ENDBRANCH   5   6
ENDBRANCH   4   5
ENDBRANCH   3   4
ENDBRANCH   2   3
ENDBRANCH   1   2
BRANCH   1  10
ATOM     10  C   UNL     1       7.813  -5.652   3.589  1.00  0.00     0.000 C 
BRANCH  10  11
ATOM     11  C   UNL     1       7.194  -7.065   3.641  1.00  0.00    -0.000 C 
BRANCH  11  12
ATOM     12  C   UNL     1       6.764  -7.540   5.040  1.00  0.00    -0.000 C 
BRANCH  12  13
ATOM     13  C   UNL     1       5.733  -6.607   5.700  1.00  0.00    -0.000 C 
BRANCH  13  14
ATOM     14  C   UNL     1       4.365  -6.641   4.987  1.00  0.00    -0.000 C 
BRANCH  14  15
ATOM     15  C   UNL     1       4.037  -5.356   4.210  1.00  0.00    -0.003 C 
ATOM     16  C   UNL     1       3.903  -4.127   5.106  1.00  0.00     0.004 C 
ENDBRANCH  14  15
ENDBRANCH  13  14
ENDBRANCH  12  13
ENDBRANCH  11  12
ENDBRANCH  10  11
ENDBRANCH   1  10
TORSDOF 12
ENDMDL
MODEL 5
REMARK VINA RESULT:    -3.393      1.332      2.581
REMARK INTER + INTRA:          -6.349
REMARK INTER:                  -5.869
REMARK INTRA:                  -0.480
REMARK UNBOUND:                -0.577
REMARK SMILES CCCCCCCCCCCCCC(=O)[O-]
REMARK SMILES IDX 8 1 9 2 10 3 11 4 12 5 13 6 14 7 15 8 16 9 7 10 6 11 5 12
REMARK SMILES IDX 4 13 3 14 2 15 1 16
REMARK H PARENT
REMARK Flexibility Score: inf
ROOT
ATOM      1  C   UNL     1      11.863  -6.424   3.589  1.00  0.00     0.000 C 
ENDROOT
BRANCH   1   2
ATOM      2  C   UNL     1      12.791  -6.050   4.757  1.00  0.00     0.000 C 
BRANCH   2   3
ATOM      3  C   UNL     1      13.869  -5.033   4.349  1.00  0.00     0.000 C 
BRANCH   3   4
ATOM      4  C   UNL     1      15.040  -5.680   3.588  1.00  0.00     0.000 C 
BRANCH   4   5
ATOM      5  C   UNL     1      16.307  -5.800   4.448  1.00  0.00     0.006 C 
BRANCH   5   6
ATOM      6  C   UNL     1      17.317  -6.802   3.874  1.00  0.00     0.053 C 
BRANCH   6   7
ATOM      7  C   UNL     1      17.374  -8.031   4.725  1.00  0.00     0.041 C 
ATOM      8  O   UNL     1      17.747  -7.954   5.925  1.00  0.00    -0.550 OA
ATOM      9  O   UNL     1      16.970  -9.255   4.206  1.00  0.00    -0.550 OA
ENDBRANCH   6   7
ENDBRANCH   5   6
ENDBRANCH   4   5
ENDBRANCH   3   4
ENDBRANCH   2   3
ENDBRANCH   1   2
BRANCH   1  10
ATOM     10  C   UNL     1      11.166  -5.203   2.962  1.00  0.00     0.000 C 
BRANCH  10  11
ATOM     11  C   UNL     1       9.623  -5.253   2.961  1.00  0.00    -0.000 C 
BRANCH  11  12
ATOM     12  C   UNL     1       8.980  -5.658   4.299  1.00  0.00    -0.000 C 
BRANCH  12  13
ATOM     13  C   UNL     1       7.475  -5.960   4.174  1.00  0.00    -0.000 C 
BRANCH  13  14
ATOM     14  C   UNL     1       7.028  -7.120   5.088  1.00  0.00    -0.000 C 
BRANCH  14  15
ATOM     15  C   UNL     1       5.847  -6.767   6.007  1.00  0.00    -0.003 C 
ATOM     16  C   UNL     1       5.272  -7.976   6.740  1.00  0.00     0.004 C 
ENDBRANCH  14  15
ENDBRANCH  13  14
ENDBRANCH  12  13
ENDBRANCH  11  12
ENDBRANCH  10  11
ENDBRANCH   1  10
TORSDOF 12
ENDMDL
MODEL 6
REMARK VINA RESULT:    -3.014      1.932      3.498
REMARK INTER + INTRA:          -5.705
REMARK INTER:                  -5.016
REMARK INTRA:                  -0.689
REMARK UNBOUND:                -0.577
REMARK SMILES CCCCCCCCCCCCCC(=O)[O-]
REMARK SMILES IDX 8 1 9 2 10 3 11 4 12 5 13 6 14 7 15 8 16 9 7 10 6 11 5 12
REMARK SMILES IDX 4 13 3 14 2 15 1 16
REMARK H PARENT
REMARK Flexibility Score: inf
ROOT
ATOM      1  C   UNL     1      13.102  -5.466   3.692  1.00  0.00     0.000 C 
ENDROOT
BRANCH   1   2
ATOM      2  C   UNL     1      14.230  -5.275   4.719  1.00  0.00     0.000 C 
BRANCH   2   3
ATOM      3  C   UNL     1      15.626  -5.425   4.094  1.00  0.00     0.000 C 
BRANCH   3   4
ATOM      4  C   UNL     1      16.596  -6.220   4.986  1.00  0.00     0.000 C 
BRANCH   4   5
ATOM      5  C   UNL     1      17.169  -7.457   4.277  1.00  0.00     0.006 C 
BRANCH   5   6
ATOM      6  C   UNL     1      16.283  -7.937   3.120  1.00  0.00     0.053 C 
BRANCH   6   7
ATOM      7  C   UNL     1      15.353  -9.011   3.587  1.00  0.00     0.041 C 
ATOM      8  O   UNL     1      14.122  -8.938   3.334  1.00  0.00    -0.550 OA
ATOM      9  O   UNL     1      15.853 -10.118   4.261  1.00  0.00    -0.550 OA
ENDBRANCH   6   7
ENDBRANCH   5   6
ENDBRANCH   4   5
ENDBRANCH   3   4
ENDBRANCH   2   3
ENDBRANCH   1   2
BRANCH   1  10
ATOM     10  C   UNL     1      11.904  -6.252   4.255  1.00  0.00     0.000 C 
BRANCH  10  11
ATOM     11  C   UNL     1      10.562  -6.020   3.529  1.00  0.00    -0.000 C 
BRANCH  11  12
ATOM     12  C   UNL     1       9.403  -5.551   4.426  1.00  0.00    -0.000 C 
BRANCH  12  13
ATOM     13  C   UNL     1       8.046  -5.547   3.700  1.00  0.00    -0.000 C 
BRANCH  13  14
ATOM     14  C   UNL     1       7.282  -6.877   3.870  1.00  0.00    -0.000 C 
BRANCH  14  15
ATOM     15  C   UNL     1       6.287  -6.877   5.043  1.00  0.00    -0.003 C 
ATOM     16  C   UNL     1       6.380  -8.128   5.912  1.00  0.00     0.004 C 
ENDBRANCH  14  15
ENDBRANCH  13  14
ENDBRANCH  12  13
ENDBRANCH  11  12
ENDBRANCH  10  11
ENDBRANCH   1  10
TORSDOF 12
ENDMDL
MODEL 7
REMARK VINA RESULT:    -2.946      4.698      8.909
REMARK INTER + INTRA:          -5.590
REMARK INTER:                  -5.057
REMARK INTRA:                  -0.533
REMARK UNBOUND:                -0.577
REMARK SMILES CCCCCCCCCCCCCC(=O)[O-]
REMARK SMILES IDX 8 1 9 2 10 3 11 4 12 5 13 6 14 7 15 8 16 9 7 10 6 11 5 12
REMARK SMILES IDX 4 13 3 14 2 15 1 16
REMARK H PARENT
REMARK Flexibility Score: inf
ROOT
ATOM      1  C   UNL     1       8.479  -4.957   3.371  1.00  0.00     0.000 C 
ENDROOT
BRANCH   1   2
ATOM      2  C   UNL     1       8.261  -5.902   4.565  1.00  0.00     0.000 C 
BRANCH   2   3
ATOM      3  C   UNL     1       7.103  -6.885   4.332  1.00  0.00     0.000 C 
BRANCH   3   4
ATOM      4  C   UNL     1       6.421  -7.321   5.641  1.00  0.00     0.000 C 
BRANCH   4   5
ATOM      5  C   UNL     1       5.065  -6.631   5.856  1.00  0.00     0.006 C 
BRANCH   5   6
ATOM      6  C   UNL     1       4.483  -6.056   4.558  1.00  0.00     0.053 C 
BRANCH   6   7
ATOM      7  C   UNL     1       4.010  -4.654   4.775  1.00  0.00     0.041 C 
ATOM      8  O   UNL     1       4.137  -4.110   5.903  1.00  0.00    -0.550 OA
ATOM      9  O   UNL     1       3.470  -3.931   3.719  1.00  0.00    -0.550 OA
ENDBRANCH   6   7
ENDBRANCH   5   6
ENDBRANCH   4   5
ENDBRANCH   3   4
ENDBRANCH   2   3
ENDBRANCH   1   2
BRANCH   1  10
ATOM     10  C   UNL     1       9.936  -4.941   2.875  1.00  0.00     0.000 C 
BRANCH  10  11
ATOM     11  C   UNL     1      10.957  -5.630   3.805  1.00  0.00    -0.000 C 
BRANCH  11  12
ATOM     12  C   UNL     1      12.294  -6.009   3.144  1.00  0.00    -0.000 C 
BRANCH  12  13
ATOM     13  C   UNL     1      13.507  -5.347   3.822  1.00  0.00    -0.000 C 
BRANCH  13  14
ATOM     14  C   UNL     1      14.845  -5.985   3.391  1.00  0.00    -0.000 C 
BRANCH  14  15
ATOM     15  C   UNL     1      16.084  -5.271   3.956  1.00  0.00    -0.003 C 
ATOM     16  C   UNL     1      16.683  -5.974   5.171  1.00  0.00     0.004 C 
ENDBRANCH  14  15
ENDBRANCH  13  14
ENDBRANCH  12  13
ENDBRANCH  11  12
ENDBRANCH  10  11
ENDBRANCH   1  10
TORSDOF 12
ENDMDL
MODEL 8
REMARK VINA RESULT:    -2.804      4.549      8.601
REMARK INTER + INTRA:          -5.349
REMARK INTER:                  -4.605
REMARK INTRA:                  -0.744
REMARK UNBOUND:                -0.577
REMARK SMILES CCCCCCCCCCCCCC(=O)[O-]
REMARK SMILES IDX 8 1 9 2 10 3 11 4 12 5 13 6 14 7 15 8 16 9 7 10 6 11 5 12
REMARK SMILES IDX 4 13 3 14 2 15 1 16
REMARK H PARENT
REMARK Flexibility Score: inf
ROOT
ATOM      1  C   UNL     1      12.262  -6.040   4.385  1.00  0.00     0.000 C 
ENDROOT
BRANCH   1   2
ATOM      2  C   UNL     1      11.451  -5.467   3.211  1.00  0.00     0.000 C 
BRANCH   2   3
ATOM      3  C   UNL     1      10.048  -6.085   3.108  1.00  0.00     0.000 C 
BRANCH   3   4
ATOM      4  C   UNL     1       9.001  -5.326   3.945  1.00  0.00     0.000 C 
BRANCH   4   5
ATOM      5  C   UNL     1       7.987  -6.267   4.613  1.00  0.00     0.006 C 
BRANCH   5   6
ATOM      6  C   UNL     1       6.557  -6.052   4.101  1.00  0.00     0.053 C 
BRANCH   6   7
ATOM      7  C   UNL     1       5.565  -6.557   5.100  1.00  0.00     0.041 C 
ATOM      8  O   UNL     1       4.502  -7.111   4.713  1.00  0.00    -0.550 OA
ATOM      9  O   UNL     1       5.835  -6.459   6.459  1.00  0.00    -0.550 OA
ENDBRANCH   6   7
ENDBRANCH   5   6
ENDBRANCH   4   5
ENDBRANCH   3   4
ENDBRANCH   2   3
ENDBRANCH   1   2
BRANCH   1  10
ATOM     10  C   UNL     1      13.713  -6.382   4.003  1.00  0.00     0.000 C 
BRANCH  10  11
ATOM     11  C   UNL     1      13.879  -7.575   3.038  1.00  0.00    -0.000 C 
BRANCH  11  12
ATOM     12  C   UNL     1      13.433  -8.937   3.598  1.00  0.00    -0.000 C 
BRANCH  12  13
ATOM     13  C   UNL     1      14.596  -9.935   3.742  1.00  0.00    -0.000 C 
BRANCH  13  14
ATOM     14  C   UNL     1      15.972  -9.275   3.516  1.00  0.00    -0.000 C 
BRANCH  14  15
ATOM     15  C   UNL     1      16.895  -9.325   4.745  1.00  0.00    -0.003 C 
ATOM     16  C   UNL     1      17.533  -7.978   5.075  1.00  0.00     0.004 C 
ENDBRANCH  14  15
ENDBRANCH  13  14
ENDBRANCH  12  13
ENDBRANCH  11  12
ENDBRANCH  10  11
ENDBRANCH   1  10
TORSDOF 12
ENDMDL
MODEL 9
REMARK VINA RESULT:    -2.773      5.196      8.251
REMARK INTER + INTRA:          -5.295
REMARK INTER:                  -4.558
REMARK INTRA:                  -0.736
REMARK UNBOUND:                -0.577
REMARK SMILES CCCCCCCCCCCCCC(=O)[O-]
REMARK SMILES IDX 8 1 9 2 10 3 11 4 12 5 13 6 14 7 15 8 16 9 7 10 6 11 5 12
REMARK SMILES IDX 4 13 3 14 2 15 1 16
REMARK H PARENT
REMARK Flexibility Score: inf
ROOT
ATOM      1  C   UNL     1       4.495  -4.493   5.413  1.00  0.00     0.000 C 
ENDROOT
BRANCH   1   2
ATOM      2  C   UNL     1       4.553  -6.028   5.495  1.00  0.00     0.000 C 
BRANCH   2   3
ATOM      3  C   UNL     1       5.646  -6.523   6.455  1.00  0.00     0.000 C 
BRANCH   3   4
ATOM      4  C   UNL     1       6.086  -7.969   6.161  1.00  0.00     0.000 C 
BRANCH   4   5
ATOM      5  C   UNL     1       5.176  -9.010   6.831  1.00  0.00     0.006 C 
BRANCH   5   6
ATOM      6  C   UNL     1       3.767  -9.039   6.225  1.00  0.00     0.053 C 
BRANCH   6   7
ATOM      7  C   UNL     1       3.784  -9.731   4.899  1.00  0.00     0.041 C 
ATOM      8  O   UNL     1       4.878 -10.059   4.370  1.00  0.00    -0.550 OA
ATOM      9  O   UNL     1       2.590 -10.056   4.270  1.00  0.00    -0.550 OA
ENDBRANCH   6   7
ENDBRANCH   5   6
ENDBRANCH   4   5
ENDBRANCH   3   4
ENDBRANCH   2   3
ENDBRANCH   1   2
BRANCH   1  10
ATOM     10  C   UNL     1       3.981  -3.983   4.054  1.00  0.00     0.000 C 
BRANCH  10  11
ATOM     11  C   UNL     1       4.972  -4.123   2.879  1.00  0.00    -0.000 C 
BRANCH  11  12
ATOM     12  C   UNL     1       6.167  -3.154   2.911  1.00  0.00    -0.000 C 
BRANCH  12  13
ATOM     13  C   UNL     1       7.526  -3.876   2.877  1.00  0.00    -0.000 C 
BRANCH  13  14
ATOM     14  C   UNL     1       7.387  -5.403   3.054  1.00  0.00    -0.000 C 
BRANCH  14  15
ATOM     15  C   UNL     1       8.381  -6.004   4.062  1.00  0.00    -0.003 C 
ATOM     16  C   UNL     1       9.811  -5.507   3.868  1.00  0.00     0.004 C 
ENDBRANCH  14  15
ENDBRANCH  13  14
ENDBRANCH  12  13
ENDBRANCH  11  12
ENDBRANCH  10  11
ENDBRANCH   1  10
TORSDOF 12
ENDMDL
