MODEL 1
REMARK VINA RESULT:    -3.748      0.000      0.000
REMARK INTER + INTRA:          -6.265
REMARK INTER:                  -5.720
REMARK INTRA:                  -0.545
REMARK UNBOUND:                -0.545
REMARK SMILES CC1=CCC[C@@H](C)C(=O)C[C@@H](C(C)C)C(=O)C1
REMARK SMILES IDX 8 1 9 2 6 3 7 4 5 5 4 6 3 7 2 8 1 9 10 11 11 12 15 13 16 14
REMARK SMILES IDX 17 15 12 17 13 18 14 19
REMARK H PARENT
REMARK Flexibility Score: 70.00
ROOT
ATOM      1  C   UNL     1       9.037 118.946  19.212  1.00  0.00     0.136 C 
ATOM      2  O   UNL     1       9.019 120.166  19.166  1.00  0.00    -0.299 OA
ENDROOT
BRANCH   1   3
ATOM      3  C   UNL     1       7.746 118.197  19.569  1.00  0.00     0.053 C 
ATOM      4  C   UNL     1       6.559 118.724  18.756  1.00  0.00     0.016 C 
BRANCH   3   5
ATOM      5  C   UNL     1       7.581 118.407  21.060  1.00  0.00     0.015 C 
BRANCH   5   6
ATOM      6  C   UNL     1       7.861 117.438  22.171  1.00  0.00     0.028 C 
BRANCH   6   7
ATOM      7  C   UNL     1       8.998 118.009  23.029  1.00  0.00    -0.028 C 
ATOM      8  C   UNL     1      10.319 117.610  23.145  1.00  0.00    -0.070 CG0
ATOM      9  C   UNL     1      11.137 118.365  24.168  1.00  0.00     0.039 C 
ATOM     10  G   UNL     1      11.062 116.498  22.347  1.00  0.00     0.000 G0
ENDBRANCH   6   7
ENDBRANCH   5   6
ENDBRANCH   3   5
ENDBRANCH   1   3
BRANCH   1  11
ATOM     11  C   UNL     1      10.352 118.210  18.892  1.00  0.00     0.087 C 
BRANCH  11  12
ATOM     12  C   UNL     1      10.581 116.860  19.672  1.00  0.00     0.066 C 
BRANCH  12  13
ATOM     13  C   UNL     1      11.503 116.868  20.923  1.00  0.00     0.140 C 
ATOM     14  O   UNL     1      12.637 117.302  20.777  1.00  0.00    -0.299 OA
BRANCH  13  15
ATOM     15  C   UNL     1      11.084 116.484  22.349  1.00  0.00     0.106 CG0
ATOM     16  G   UNL     1      10.320 117.600  23.120  1.00  0.00     0.000 G0
ENDBRANCH  13  15
ENDBRANCH  12  13
BRANCH  12  17
ATOM     17  C   UNL     1      10.927 115.694  18.693  1.00  0.00    -0.006 C 
ATOM     18  C   UNL     1      12.051 116.026  17.697  1.00  0.00     0.008 C 
ATOM     19  C   UNL     1      11.250 114.390  19.442  1.00  0.00     0.008 C 
ENDBRANCH  12  17
ENDBRANCH  11  12
ENDBRANCH   1  11
TORSDOF 1
ENDMDL
MODEL 2
REMARK VINA RESULT:    -3.739      1.297      1.826
REMARK INTER + INTRA:          -6.251
REMARK INTER:                  -5.892
REMARK INTRA:                  -0.359
REMARK UNBOUND:                -0.545
REMARK SMILES CC1=CCC[C@@H](C)C(=O)C[C@@H](C(C)C)C(=O)C1
REMARK SMILES IDX 8 1 9 2 6 3 7 4 5 5 4 6 3 7 2 8 1 9 10 11 11 12 15 13 16 14
REMARK SMILES IDX 17 15 12 17 13 18 14 19
REMARK H PARENT
REMARK Flexibility Score: 70.00
ROOT
ATOM      1  C   UNL     1       8.950 119.231  19.270  1.00  0.00     0.136 C 
ATOM      2  O   UNL     1       8.785 120.413  19.010  1.00  0.00    -0.299 OA
ENDROOT
BRANCH   1   3
ATOM      3  C   UNL     1       7.733 118.376  19.644  1.00  0.00     0.053 C 
ATOM      4  C   UNL     1       6.427 119.055  19.216  1.00  0.00     0.016 C 
BRANCH   3   5
ATOM      5  C   UNL     1       7.839 118.192  21.144  1.00  0.00     0.015 C 
BRANCH   5   6
ATOM      6  C   UNL     1       9.013 118.479  22.033  1.00  0.00     0.028 C 
BRANCH   6   7
ATOM      7  C   UNL     1       9.445 117.164  22.695  1.00  0.00    -0.028 C 
ATOM      8  C   UNL     1      10.440 116.268  22.340  1.00  0.00    -0.070 CG0
ATOM      9  C   UNL     1      10.521 115.020  23.189  1.00  0.00     0.039 C 
ATOM     10  G   UNL     1      11.484 116.394  21.192  1.00  0.00     0.000 G0
ENDBRANCH   6   7
ENDBRANCH   5   6
ENDBRANCH   3   5
ENDBRANCH   1   3
BRANCH   1  11
ATOM     11  C   UNL     1      10.373 118.646  19.193  1.00  0.00     0.087 C 
BRANCH  11  12
ATOM     12  C   UNL     1      10.462 117.135  18.759  1.00  0.00     0.066 C 
BRANCH  12  13
ATOM     13  C   UNL     1      10.968 116.090  19.792  1.00  0.00     0.140 C 
ATOM     14  O   UNL     1      11.041 114.927  19.420  1.00  0.00    -0.299 OA
BRANCH  13  15
ATOM     15  C   UNL     1      11.490 116.403  21.203  1.00  0.00     0.106 CG0
ATOM     16  G   UNL     1      10.424 116.269  22.329  1.00  0.00     0.000 G0
ENDBRANCH  13  15
ENDBRANCH  12  13
BRANCH  12  17
ATOM     17  C   UNL     1      11.172 116.984  17.376  1.00  0.00    -0.006 C 
ATOM     18  C   UNL     1      10.530 117.812  16.250  1.00  0.00     0.008 C 
ATOM     19  C   UNL     1      12.676 117.286  17.465  1.00  0.00     0.008 C 
ENDBRANCH  12  17
ENDBRANCH  11  12
ENDBRANCH   1  11
TORSDOF 1
ENDMDL
MODEL 3
REMARK VINA RESULT:    -3.662     10.135     11.620
REMARK INTER + INTRA:          -6.134
REMARK INTER:                  -5.476
REMARK INTRA:                  -0.658
REMARK UNBOUND:                -0.545
REMARK SMILES CC1=CCC[C@@H](C)C(=O)C[C@@H](C(C)C)C(=O)C1
REMARK SMILES IDX 8 1 9 2 6 3 7 4 5 5 4 6 3 7 2 8 1 9 10 11 11 12 15 13 16 14
REMARK SMILES IDX 17 15 12 17 13 18 14 19
REMARK H PARENT
REMARK Flexibility Score: 70.00
ROOT
ATOM      1  C   UNL     1      19.372 123.752  15.450  1.00  0.00     0.136 C 
ATOM      2  O   UNL     1      20.438 123.480  15.981  1.00  0.00    -0.299 OA
ENDROOT
BRANCH   1   3
ATOM      3  C   UNL     1      19.241 125.075  14.683  1.00  0.00     0.053 C 
ATOM      4  C   UNL     1      20.473 125.330  13.808  1.00  0.00     0.016 C 
BRANCH   3   5
ATOM      5  C   UNL     1      19.052 126.124  15.759  1.00  0.00     0.015 C 
BRANCH   5   6
ATOM      6  C   UNL     1      17.770 126.725  16.254  1.00  0.00     0.028 C 
BRANCH   6   7
ATOM      7  C   UNL     1      17.585 126.315  17.721  1.00  0.00    -0.028 C 
ATOM      8  C   UNL     1      16.622 125.514  18.312  1.00  0.00    -0.070 CG0
ATOM      9  C   UNL     1      16.708 125.400  19.817  1.00  0.00     0.039 C 
ATOM     10  G   UNL     1      15.482 124.711  17.620  1.00  0.00     0.000 G0
ENDBRANCH   6   7
ENDBRANCH   5   6
ENDBRANCH   3   5
ENDBRANCH   1   3
BRANCH   1  11
ATOM     11  C   UNL     1      18.210 122.747  15.559  1.00  0.00     0.087 C 
BRANCH  11  12
ATOM     12  C   UNL     1      16.766 123.377  15.568  1.00  0.00     0.066 C 
BRANCH  12  13
ATOM     13  C   UNL     1      15.976 123.413  16.906  1.00  0.00     0.140 C 
ATOM     14  O   UNL     1      15.805 122.347  17.481  1.00  0.00    -0.299 OA
BRANCH  13  15
ATOM     15  C   UNL     1      15.487 124.678  17.626  1.00  0.00     0.106 CG0
ATOM     16  G   UNL     1      16.615 125.510  18.305  1.00  0.00     0.000 G0
ENDBRANCH  13  15
ENDBRANCH  12  13
BRANCH  12  17
ATOM     17  C   UNL     1      15.903 122.828  14.389  1.00  0.00    -0.006 C 
ATOM     18  C   UNL     1      14.631 123.647  14.111  1.00  0.00     0.008 C 
ATOM     19  C   UNL     1      16.724 122.670  13.099  1.00  0.00     0.008 C 
ENDBRANCH  12  17
ENDBRANCH  11  12
ENDBRANCH   1  11
TORSDOF 1
ENDMDL
MODEL 4
REMARK VINA RESULT:    -3.654      2.208      4.417
REMARK INTER + INTRA:          -6.121
REMARK INTER:                  -5.555
REMARK INTRA:                  -0.566
REMARK UNBOUND:                -0.545
REMARK SMILES CC1=CCC[C@@H](C)C(=O)C[C@@H](C(C)C)C(=O)C1
REMARK SMILES IDX 8 1 9 2 6 3 7 4 5 5 4 6 3 7 2 8 1 9 10 11 11 12 15 13 16 14
REMARK SMILES IDX 17 15 12 17 13 18 14 19
REMARK H PARENT
REMARK Flexibility Score: 70.00
ROOT
ATOM      1  C   UNL     1       9.018 117.109  22.188  1.00  0.00     0.136 C 
ATOM      2  O   UNL     1       7.947 117.690  22.258  1.00  0.00    -0.299 OA
ENDROOT
BRANCH   1   3
ATOM      3  C   UNL     1       9.355 116.042  23.239  1.00  0.00     0.053 C 
ATOM      4  C   UNL     1       9.213 116.602  24.658  1.00  0.00     0.016 C 
BRANCH   3   5
ATOM      5  C   UNL     1      10.770 115.614  22.911  1.00  0.00     0.015 C 
BRANCH   5   6
ATOM      6  C   UNL     1      11.227 114.344  22.257  1.00  0.00     0.028 C 
BRANCH   6   7
ATOM      7  C   UNL     1      12.388 114.683  21.312  1.00  0.00    -0.028 C 
ATOM      8  C   UNL     1      12.401 114.858  19.938  1.00  0.00    -0.070 CG0
ATOM      9  C   UNL     1      13.764 115.102  19.329  1.00  0.00     0.039 C 
ATOM     10  G   UNL     1      11.194 114.849  18.955  1.00  0.00     0.000 G0
ENDBRANCH   6   7
ENDBRANCH   5   6
ENDBRANCH   3   5
ENDBRANCH   1   3
BRANCH   1  11
ATOM     11  C   UNL     1       9.979 117.460  21.036  1.00  0.00     0.087 C 
BRANCH  11  12
ATOM     12  C   UNL     1       9.538 116.960  19.609  1.00  0.00     0.066 C 
BRANCH  12  13
ATOM     13  C   UNL     1      10.590 116.260  18.705  1.00  0.00     0.140 C 
ATOM     14  O   UNL     1      11.034 116.904  17.764  1.00  0.00    -0.299 OA
BRANCH  13  15
ATOM     15  C   UNL     1      11.205 114.874  18.951  1.00  0.00     0.106 CG0
ATOM     16  G   UNL     1      12.409 114.869  19.939  1.00  0.00     0.000 G0
ENDBRANCH  13  15
ENDBRANCH  12  13
BRANCH  12  17
ATOM     17  C   UNL     1       8.747 118.066  18.842  1.00  0.00    -0.006 C 
ATOM     18  C   UNL     1       7.223 117.859  18.839  1.00  0.00     0.008 C 
ATOM     19  C   UNL     1       9.089 119.476  19.351  1.00  0.00     0.008 C 
ENDBRANCH  12  17
ENDBRANCH  11  12
ENDBRANCH   1  11
TORSDOF 1
ENDMDL
MODEL 5
REMARK VINA RESULT:    -3.645      5.972      8.425
REMARK INTER + INTRA:          -6.109
REMARK INTER:                  -5.516
REMARK INTRA:                  -0.593
REMARK UNBOUND:                -0.545
REMARK SMILES CC1=CCC[C@@H](C)C(=O)C[C@@H](C(C)C)C(=O)C1
REMARK SMILES IDX 8 1 9 2 6 3 7 4 5 5 4 6 3 7 2 8 1 9 10 11 11 12 15 13 16 14
REMARK SMILES IDX 17 15 12 17 13 18 14 19
REMARK H PARENT
REMARK Flexibility Score: 70.00
ROOT
ATOM      1  C   UNL     1      12.867 111.409  20.991  1.00  0.00     0.136 C 
ATOM      2  O   UNL     1      13.617 111.752  21.892  1.00  0.00    -0.299 OA
ENDROOT
BRANCH   1   3
ATOM      3  C   UNL     1      12.346 109.965  20.968  1.00  0.00     0.053 C 
ATOM      4  C   UNL     1      11.593 109.630  22.260  1.00  0.00     0.016 C 
BRANCH   3   5
ATOM      5  C   UNL     1      13.582 109.114  20.766  1.00  0.00     0.015 C 
BRANCH   5   6
ATOM      6  C   UNL     1      14.450 109.013  19.546  1.00  0.00     0.028 C 
BRANCH   6   7
ATOM      7  C   UNL     1      15.769 109.742  19.835  1.00  0.00    -0.028 C 
ATOM      8  C   UNL     1      16.358 110.816  19.187  1.00  0.00    -0.070 CG0
ATOM      9  C   UNL     1      17.720 111.217  19.706  1.00  0.00     0.039 C 
ATOM     10  G   UNL     1      15.788 111.660  18.010  1.00  0.00     0.000 G0
ENDBRANCH   6   7
ENDBRANCH   5   6
ENDBRANCH   3   5
ENDBRANCH   1   3
BRANCH   1  11
ATOM     11  C   UNL     1      12.463 112.445  19.926  1.00  0.00     0.087 C 
BRANCH  11  12
ATOM     12  C   UNL     1      13.161 112.283  18.523  1.00  0.00     0.066 C 
BRANCH  12  13
ATOM     13  C   UNL     1      14.670 112.634  18.395  1.00  0.00     0.140 C 
ATOM     14  O   UNL     1      15.009 113.763  18.720  1.00  0.00    -0.299 OA
BRANCH  13  15
ATOM     15  C   UNL     1      15.789 111.657  18.004  1.00  0.00     0.106 CG0
ATOM     16  G   UNL     1      16.362 110.826  19.189  1.00  0.00     0.000 G0
ENDBRANCH  13  15
ENDBRANCH  12  13
BRANCH  12  17
ATOM     17  C   UNL     1      12.308 112.933  17.388  1.00  0.00    -0.006 C 
ATOM     18  C   UNL     1      11.262 111.989  16.772  1.00  0.00     0.008 C 
ATOM     19  C   UNL     1      11.639 114.239  17.847  1.00  0.00     0.008 C 
ENDBRANCH  12  17
ENDBRANCH  11  12
ENDBRANCH   1  11
TORSDOF 1
ENDMDL
MODEL 6
REMARK VINA RESULT:    -3.617      2.046      4.158
REMARK INTER + INTRA:          -6.065
REMARK INTER:                  -5.513
REMARK INTRA:                  -0.552
REMARK UNBOUND:                -0.545
REMARK SMILES CC1=CCC[C@@H](C)C(=O)C[C@@H](C(C)C)C(=O)C1
REMARK SMILES IDX 8 1 9 2 6 3 7 4 5 5 4 6 3 7 2 8 1 9 10 11 11 12 15 13 16 14
REMARK SMILES IDX 17 15 12 17 13 18 14 19
REMARK H PARENT
REMARK Flexibility Score: 70.00
ROOT
ATOM      1  C   UNL     1      11.211 116.228  21.280  1.00  0.00     0.136 C 
ATOM      2  O   UNL     1      12.426 116.212  21.396  1.00  0.00    -0.299 OA
ENDROOT
BRANCH   1   3
ATOM      3  C   UNL     1      10.345 116.301  22.544  1.00  0.00     0.053 C 
ATOM      4  C   UNL     1      10.176 114.916  23.179  1.00  0.00     0.016 C 
BRANCH   3   5
ATOM      5  C   UNL     1       9.035 116.901  22.078  1.00  0.00     0.015 C 
BRANCH   5   6
ATOM      6  C   UNL     1       8.648 118.349  22.015  1.00  0.00     0.028 C 
BRANCH   6   7
ATOM      7  C   UNL     1       7.571 118.510  20.933  1.00  0.00    -0.028 C 
ATOM      8  C   UNL     1       7.675 118.964  19.628  1.00  0.00    -0.070 CG0
ATOM      9  C   UNL     1       6.370 119.068  18.873  1.00  0.00     0.039 C 
ATOM     10  G   UNL     1       8.962 119.364  18.848  1.00  0.00     0.000 G0
ENDBRANCH   6   7
ENDBRANCH   5   6
ENDBRANCH   3   5
ENDBRANCH   1   3
BRANCH   1  11
ATOM     11  C   UNL     1      10.600 116.191  19.866  1.00  0.00     0.087 C 
BRANCH  11  12
ATOM     12  C   UNL     1      10.930 117.431  18.952  1.00  0.00     0.066 C 
BRANCH  12  13
ATOM     13  C   UNL     1       9.759 118.173  18.250  1.00  0.00     0.140 C 
ATOM     14  O   UNL     1       9.373 117.721  17.181  1.00  0.00    -0.299 OA
BRANCH  13  15
ATOM     15  C   UNL     1       8.970 119.356  18.830  1.00  0.00     0.106 CG0
ATOM     16  G   UNL     1       7.686 118.953  19.613  1.00  0.00     0.000 G0
ENDBRANCH  13  15
ENDBRANCH  12  13
BRANCH  12  17
ATOM     17  C   UNL     1      12.098 117.111  17.967  1.00  0.00    -0.006 C 
ATOM     18  C   UNL     1      13.360 117.962  18.195  1.00  0.00     0.008 C 
ATOM     19  C   UNL     1      12.459 115.617  17.966  1.00  0.00     0.008 C 
ENDBRANCH  12  17
ENDBRANCH  11  12
ENDBRANCH   1  11
TORSDOF 1
ENDMDL
MODEL 7
REMARK VINA RESULT:    -3.487      2.170      3.215
REMARK INTER + INTRA:          -5.866
REMARK INTER:                  -5.345
REMARK INTRA:                  -0.521
REMARK UNBOUND:                -0.545
REMARK SMILES CC1=CCC[C@@H](C)C(=O)C[C@@H](C(C)C)C(=O)C1
REMARK SMILES IDX 8 1 9 2 6 3 7 4 5 5 4 6 3 7 2 8 1 9 10 11 11 12 15 13 16 14
REMARK SMILES IDX 17 15 12 17 13 18 14 19
REMARK H PARENT
REMARK Flexibility Score: 70.00
ROOT
ATOM      1  C   UNL     1      12.076 116.776  18.146  1.00  0.00     0.136 C 
ATOM      2  O   UNL     1      12.741 117.750  18.465  1.00  0.00    -0.299 OA
ENDROOT
BRANCH   1   3
ATOM      3  C   UNL     1      10.567 116.947  17.928  1.00  0.00     0.053 C 
ATOM      4  C   UNL     1      10.281 117.810  16.694  1.00  0.00     0.016 C 
BRANCH   3   5
ATOM      5  C   UNL     1      10.061 117.566  19.214  1.00  0.00     0.015 C 
BRANCH   5   6
ATOM      6  C   UNL     1       9.519 116.873  20.428  1.00  0.00     0.028 C 
BRANCH   6   7
ATOM      7  C   UNL     1      10.584 116.938  21.531  1.00  0.00    -0.028 C 
ATOM      8  C   UNL     1      11.416 115.950  22.031  1.00  0.00    -0.070 CG0
ATOM      9  C   UNL     1      12.290 116.365  23.193  1.00  0.00     0.039 C 
ATOM     10  G   UNL     1      11.571 114.481  21.537  1.00  0.00     0.000 G0
ENDBRANCH   6   7
ENDBRANCH   5   6
ENDBRANCH   3   5
ENDBRANCH   1   3
BRANCH   1  11
ATOM     11  C   UNL     1      12.786 115.422  17.959  1.00  0.00     0.087 C 
BRANCH  11  12
ATOM     12  C   UNL     1      12.261 114.250  18.871  1.00  0.00     0.066 C 
BRANCH  12  13
ATOM     13  C   UNL     1      12.588 114.282  20.390  1.00  0.00     0.140 C 
ATOM     14  O   UNL     1      13.770 114.239  20.707  1.00  0.00    -0.299 OA
BRANCH  13  15
ATOM     15  C   UNL     1      11.571 114.476  21.524  1.00  0.00     0.106 CG0
ATOM     16  G   UNL     1      11.439 115.943  22.029  1.00  0.00     0.000 G0
ENDBRANCH  13  15
ENDBRANCH  12  13
BRANCH  12  17
ATOM     17  C   UNL     1      12.565 112.857  18.234  1.00  0.00    -0.006 C 
ATOM     18  C   UNL     1      11.590 112.454  17.115  1.00  0.00     0.008 C 
ATOM     19  C   UNL     1      14.016 112.758  17.734  1.00  0.00     0.008 C 
ENDBRANCH  12  17
ENDBRANCH  11  12
ENDBRANCH   1  11
TORSDOF 1
ENDMDL
MODEL 8
REMARK VINA RESULT:    -3.426     10.189     11.598
REMARK INTER + INTRA:          -5.773
REMARK INTER:                  -5.218
REMARK INTRA:                  -0.555
REMARK UNBOUND:                -0.545
REMARK SMILES CC1=CCC[C@@H](C)C(=O)C[C@@H](C(C)C)C(=O)C1
REMARK SMILES IDX 8 1 9 2 6 3 7 4 5 5 4 6 3 7 2 8 1 9 10 11 11 12 15 13 16 14
REMARK SMILES IDX 17 15 12 17 13 18 14 19
REMARK H PARENT
REMARK Flexibility Score: 70.00
ROOT
ATOM      1  C   UNL     1      16.514 124.942  17.663  1.00  0.00     0.136 C 
ATOM      2  O   UNL     1      16.428 124.222  18.646  1.00  0.00    -0.299 OA
ENDROOT
BRANCH   1   3
ATOM      3  C   UNL     1      17.269 126.272  17.781  1.00  0.00     0.053 C 
ATOM      4  C   UNL     1      16.411 127.334  18.478  1.00  0.00     0.016 C 
BRANCH   3   5
ATOM      5  C   UNL     1      17.623 126.641  16.356  1.00  0.00     0.015 C 
BRANCH   5   6
ATOM      6  C   UNL     1      18.926 126.438  15.641  1.00  0.00     0.028 C 
BRANCH   6   7
ATOM      7  C   UNL     1      19.776 125.460  16.464  1.00  0.00    -0.028 C 
ATOM      8  C   UNL     1      19.799 124.075  16.462  1.00  0.00    -0.070 CG0
ATOM      9  C   UNL     1      20.717 123.441  17.482  1.00  0.00     0.039 C 
ATOM     10  G   UNL     1      19.013 123.100  15.536  1.00  0.00     0.000 G0
ENDBRANCH   6   7
ENDBRANCH   5   6
ENDBRANCH   3   5
ENDBRANCH   1   3
BRANCH   1  11
ATOM     11  C   UNL     1      15.875 124.474  16.342  1.00  0.00     0.087 C 
BRANCH  11  12
ATOM     12  C   UNL     1      16.277 123.026  15.869  1.00  0.00     0.066 C 
BRANCH  12  13
ATOM     13  C   UNL     1      17.718 122.521  16.156  1.00  0.00     0.140 C 
ATOM     14  O   UNL     1      17.830 121.531  16.867  1.00  0.00    -0.299 OA
BRANCH  13  15
ATOM     15  C   UNL     1      19.007 123.083  15.539  1.00  0.00     0.106 CG0
ATOM     16  G   UNL     1      19.784 124.072  16.458  1.00  0.00     0.000 G0
ENDBRANCH  13  15
ENDBRANCH  12  13
BRANCH  12  17
ATOM     17  C   UNL     1      15.851 122.777  14.388  1.00  0.00    -0.006 C 
ATOM     18  C   UNL     1      15.625 121.295  14.043  1.00  0.00     0.008 C 
ATOM     19  C   UNL     1      14.618 123.607  13.995  1.00  0.00     0.008 C 
ENDBRANCH  12  17
ENDBRANCH  11  12
ENDBRANCH   1  11
TORSDOF 1
ENDMDL
MODEL 9
REMARK VINA RESULT:    -3.356      9.939     11.382
REMARK INTER + INTRA:          -5.666
REMARK INTER:                  -4.999
REMARK INTRA:                  -0.667
REMARK UNBOUND:                -0.545
REMARK SMILES CC1=CCC[C@@H](C)C(=O)C[C@@H](C(C)C)C(=O)C1
REMARK SMILES IDX 8 1 9 2 6 3 7 4 5 5 4 6 3 7 2 8 1 9 10 11 11 12 15 13 16 14
REMARK SMILES IDX 17 15 12 17 13 18 14 19
REMARK H PARENT
REMARK Flexibility Score: 70.00
ROOT
ATOM      1  C   UNL     1      17.347 122.594  13.600  1.00  0.00     0.136 C 
ATOM      2  O   UNL     1      18.165 121.788  13.184  1.00  0.00    -0.299 OA
ENDROOT
BRANCH   1   3
ATOM      3  C   UNL     1      15.877 122.168  13.715  1.00  0.00     0.053 C 
ATOM      4  C   UNL     1      15.004 123.326  14.207  1.00  0.00     0.016 C 
BRANCH   3   5
ATOM      5  C   UNL     1      15.893 120.992  14.669  1.00  0.00     0.015 C 
BRANCH   5   6
ATOM      6  C   UNL     1      15.601 120.985  16.140  1.00  0.00     0.028 C 
BRANCH   6   7
ATOM      7  C   UNL     1      16.932 120.849  16.891  1.00  0.00    -0.028 C 
ATOM      8  C   UNL     1      17.817 121.822  17.327  1.00  0.00    -0.070 CG0
ATOM      9  C   UNL     1      19.086 121.304  17.965  1.00  0.00     0.039 C 
ATOM     10  G   UNL     1      17.659 123.369  17.255  1.00  0.00     0.000 G0
ENDBRANCH   6   7
ENDBRANCH   5   6
ENDBRANCH   3   5
ENDBRANCH   1   3
BRANCH   1  11
ATOM     11  C   UNL     1      17.830 123.998  14.009  1.00  0.00     0.087 C 
BRANCH  11  12
ATOM     12  C   UNL     1      19.056 124.033  14.998  1.00  0.00     0.066 C 
BRANCH  12  13
ATOM     13  C   UNL     1      18.780 124.107  16.525  1.00  0.00     0.140 C 
ATOM     14  O   UNL     1      19.462 124.886  17.178  1.00  0.00    -0.299 OA
BRANCH  13  15
ATOM     15  C   UNL     1      17.656 123.374  17.272  1.00  0.00     0.106 CG0
ATOM     16  G   UNL     1      17.816 121.826  17.319  1.00  0.00     0.000 G0
ENDBRANCH  13  15
ENDBRANCH  12  13
BRANCH  12  17
ATOM     17  C   UNL     1      20.122 125.078  14.541  1.00  0.00    -0.006 C 
ATOM     18  C   UNL     1      21.337 124.463  13.829  1.00  0.00     0.008 C 
ATOM     19  C   UNL     1      19.505 126.189  13.675  1.00  0.00     0.008 C 
ENDBRANCH  12  17
ENDBRANCH  11  12
ENDBRANCH   1  11
TORSDOF 1
ENDMDL
