MODEL 1
REMARK VINA RESULT:    -3.647      0.000      0.000
REMARK INTER + INTRA:          -6.257
REMARK INTER:                  -5.566
REMARK INTRA:                  -0.691
REMARK UNBOUND:                -0.691
REMARK SMILES O=C([O-])CCCCCCCCC(=O)[O-]
REMARK SMILES IDX 7 1 6 2 5 3 4 4 2 5 1 6 3 7 8 8 9 9 10 10 11 11 12 12 13 13
REMARK SMILES IDX 14 14
REMARK H PARENT
REMARK Flexibility Score: inf
ROOT
ATOM      1  C   UNL     1      59.818  23.295  22.886  1.00  0.00     0.000 C 
ENDROOT
BRANCH   1   2
ATOM      2  C   UNL     1      61.289  22.858  22.803  1.00  0.00     0.000 C 
BRANCH   2   3
ATOM      3  C   UNL     1      61.493  21.630  21.904  1.00  0.00     0.006 C 
BRANCH   3   4
ATOM      4  C   UNL     1      60.982  21.899  20.485  1.00  0.00     0.053 C 
BRANCH   4   5
ATOM      5  C   UNL     1      62.127  22.074  19.539  1.00  0.00     0.041 C 
ATOM      6  O   UNL     1      63.301  21.813  19.911  1.00  0.00    -0.550 OA
ATOM      7  O   UNL     1      61.904  22.574  18.262  1.00  0.00    -0.550 OA
ENDBRANCH   4   5
ENDBRANCH   3   4
ENDBRANCH   2   3
ENDBRANCH   1   2
BRANCH   1   8
ATOM      8  C   UNL     1      59.298  23.355  24.330  1.00  0.00     0.000 C 
BRANCH   8   9
ATOM      9  C   UNL     1      58.226  22.282  24.573  1.00  0.00     0.000 C 
BRANCH   9  10
ATOM     10  C   UNL     1      58.070  21.305  23.394  1.00  0.00     0.006 C 
BRANCH  10  11
ATOM     11  C   UNL     1      56.612  20.906  23.101  1.00  0.00     0.053 C 
BRANCH  11  12
ATOM     12  C   UNL     1      55.705  22.090  22.960  1.00  0.00     0.041 C 
ATOM     13  O   UNL     1      54.725  22.237  23.738  1.00  0.00    -0.550 OA
ATOM     14  O   UNL     1      55.963  23.053  21.991  1.00  0.00    -0.550 OA
ENDBRANCH  11  12
ENDBRANCH  10  11
ENDBRANCH   9  10
ENDBRANCH   8   9
ENDBRANCH   1   8
TORSDOF 9
ENDMDL
MODEL 2
REMARK VINA RESULT:    -3.572      1.749      6.301
REMARK INTER + INTRA:          -6.142
REMARK INTER:                  -5.527
REMARK INTRA:                  -0.615
REMARK UNBOUND:                -0.691
REMARK SMILES O=C([O-])CCCCCCCCC(=O)[O-]
REMARK SMILES IDX 7 1 6 2 5 3 4 4 2 5 1 6 3 7 8 8 9 9 10 10 11 11 12 12 13 13
REMARK SMILES IDX 14 14
REMARK H PARENT
REMARK Flexibility Score: inf
ROOT
ATOM      1  C   UNL     1      59.514  22.416  21.590  1.00  0.00     0.000 C 
ENDROOT
BRANCH   1   2
ATOM      2  C   UNL     1      59.735  22.707  23.083  1.00  0.00     0.000 C 
BRANCH   2   3
ATOM      3  C   UNL     1      58.457  22.534  23.916  1.00  0.00     0.006 C 
BRANCH   3   4
ATOM      4  C   UNL     1      57.649  21.324  23.436  1.00  0.00     0.053 C 
BRANCH   4   5
ATOM      5  C   UNL     1      56.258  21.734  23.071  1.00  0.00     0.041 C 
ATOM      6  O   UNL     1      55.272  21.075  23.493  1.00  0.00    -0.550 OA
ATOM      7  O   UNL     1      56.052  22.814  22.222  1.00  0.00    -0.550 OA
ENDBRANCH   4   5
ENDBRANCH   3   4
ENDBRANCH   2   3
ENDBRANCH   1   2
BRANCH   1   8
ATOM      8  C   UNL     1      60.536  21.419  21.022  1.00  0.00     0.000 C 
BRANCH   8   9
ATOM      9  C   UNL     1      61.501  22.116  20.052  1.00  0.00     0.000 C 
BRANCH   9  10
ATOM     10  C   UNL     1      62.948  21.604  20.168  1.00  0.00     0.006 C 
BRANCH  10  11
ATOM     11  C   UNL     1      63.930  22.633  20.755  1.00  0.00     0.053 C 
BRANCH  11  12
ATOM     12  C   UNL     1      63.489  23.160  22.087  1.00  0.00     0.041 C 
ATOM     13  O   UNL     1      63.254  24.388  22.239  1.00  0.00    -0.550 OA
ATOM     14  O   UNL     1      63.303  22.288  23.153  1.00  0.00    -0.550 OA
ENDBRANCH  11  12
ENDBRANCH  10  11
ENDBRANCH   9  10
ENDBRANCH   8   9
ENDBRANCH   1   8
TORSDOF 9
ENDMDL
MODEL 3
REMARK VINA RESULT:    -3.520      0.828      5.931
REMARK INTER + INTRA:          -6.063
REMARK INTER:                  -5.397
REMARK INTRA:                  -0.666
REMARK UNBOUND:                -0.691
REMARK SMILES O=C([O-])CCCCCCCCC(=O)[O-]
REMARK SMILES IDX 7 1 6 2 5 3 4 4 2 5 1 6 3 7 8 8 9 9 10 10 11 11 12 12 13 13
REMARK SMILES IDX 14 14
REMARK H PARENT
REMARK Flexibility Score: inf
ROOT
ATOM      1  C   UNL     1      59.101  23.536  24.259  1.00  0.00     0.000 C 
ENDROOT
BRANCH   1   2
ATOM      2  C   UNL     1      59.037  22.025  23.986  1.00  0.00     0.000 C 
BRANCH   2   3
ATOM      3  C   UNL     1      58.214  21.682  22.736  1.00  0.00     0.006 C 
BRANCH   3   4
ATOM      4  C   UNL     1      56.962  20.882  23.107  1.00  0.00     0.053 C 
BRANCH   4   5
ATOM      5  C   UNL     1      55.761  21.772  23.136  1.00  0.00     0.041 C 
ATOM      6  O   UNL     1      54.649  21.323  23.521  1.00  0.00    -0.550 OA
ATOM      7  O   UNL     1      55.856  23.084  22.691  1.00  0.00    -0.550 OA
ENDBRANCH   4   5
ENDBRANCH   3   4
ENDBRANCH   2   3
ENDBRANCH   1   2
BRANCH   1   8
ATOM      8  C   UNL     1      60.338  24.200  23.637  1.00  0.00     0.000 C 
BRANCH   8   9
ATOM      9  C   UNL     1      61.468  23.179  23.440  1.00  0.00     0.000 C 
BRANCH   9  10
ATOM     10  C   UNL     1      62.133  23.272  22.055  1.00  0.00     0.006 C 
BRANCH  10  11
ATOM     11  C   UNL     1      61.239  22.792  20.898  1.00  0.00     0.053 C 
BRANCH  11  12
ATOM     12  C   UNL     1      62.020  22.161  19.785  1.00  0.00     0.041 C 
ATOM     13  O   UNL     1      61.562  22.150  18.613  1.00  0.00    -0.550 OA
ATOM     14  O   UNL     1      63.273  21.616  20.038  1.00  0.00    -0.550 OA
ENDBRANCH  11  12
ENDBRANCH  10  11
ENDBRANCH   9  10
ENDBRANCH   8   9
ENDBRANCH   1   8
TORSDOF 9
ENDMDL
MODEL 4
REMARK VINA RESULT:    -3.501      1.951      2.961
REMARK INTER + INTRA:          -6.034
REMARK INTER:                  -5.493
REMARK INTRA:                  -0.540
REMARK UNBOUND:                -0.691
REMARK SMILES O=C([O-])CCCCCCCCC(=O)[O-]
REMARK SMILES IDX 7 1 6 2 5 3 4 4 2 5 1 6 3 7 8 8 9 9 10 10 11 11 12 12 13 13
REMARK SMILES IDX 14 14
REMARK H PARENT
REMARK Flexibility Score: inf
ROOT
ATOM      1  C   UNL     1      60.746  22.057  20.090  1.00  0.00     0.000 C 
ENDROOT
BRANCH   1   2
ATOM      2  C   UNL     1      62.164  21.897  19.519  1.00  0.00     0.000 C 
BRANCH   2   3
ATOM      3  C   UNL     1      63.198  21.527  20.593  1.00  0.00     0.006 C 
BRANCH   3   4
ATOM      4  C   UNL     1      64.125  22.709  20.891  1.00  0.00     0.053 C 
BRANCH   4   5
ATOM      5  C   UNL     1      63.621  23.487  22.065  1.00  0.00     0.041 C 
ATOM      6  O   UNL     1      63.761  24.738  22.103  1.00  0.00    -0.550 OA
ATOM      7  O   UNL     1      63.039  22.826  23.140  1.00  0.00    -0.550 OA
ENDBRANCH   4   5
ENDBRANCH   3   4
ENDBRANCH   2   3
ENDBRANCH   1   2
BRANCH   1   8
ATOM      8  C   UNL     1      60.509  21.193  21.338  1.00  0.00     0.000 C 
BRANCH   8   9
ATOM      9  C   UNL     1      59.616  21.925  22.350  1.00  0.00     0.000 C 
BRANCH   9  10
ATOM     10  C   UNL     1      58.405  21.091  22.803  1.00  0.00     0.006 C 
BRANCH  10  11
ATOM     11  C   UNL     1      57.421  21.857  23.706  1.00  0.00     0.053 C 
BRANCH  11  12
ATOM     12  C   UNL     1      56.070  22.024  23.080  1.00  0.00     0.041 C 
ATOM     13  O   UNL     1      55.897  22.861  22.156  1.00  0.00    -0.550 OA
ATOM     14  O   UNL     1      55.008  21.228  23.493  1.00  0.00    -0.550 OA
ENDBRANCH  11  12
ENDBRANCH  10  11
ENDBRANCH   9  10
ENDBRANCH   8   9
ENDBRANCH   1   8
TORSDOF 9
ENDMDL
MODEL 5
REMARK VINA RESULT:    -3.491      2.224      5.947
REMARK INTER + INTRA:          -6.018
REMARK INTER:                  -5.033
REMARK INTRA:                  -0.985
REMARK UNBOUND:                -0.691
REMARK SMILES O=C([O-])CCCCCCCCC(=O)[O-]
REMARK SMILES IDX 7 1 6 2 5 3 4 4 2 5 1 6 3 7 8 8 9 9 10 10 11 11 12 12 13 13
REMARK SMILES IDX 14 14
REMARK H PARENT
REMARK Flexibility Score: inf
ROOT
ATOM      1  C   UNL     1      60.571  21.976  20.406  1.00  0.00     0.000 C 
ENDROOT
BRANCH   1   2
ATOM      2  C   UNL     1      60.725  20.904  21.498  1.00  0.00     0.000 C 
BRANCH   2   3
ATOM      3  C   UNL     1      59.852  21.183  22.730  1.00  0.00     0.006 C 
BRANCH   3   4
ATOM      4  C   UNL     1      59.050  22.476  22.551  1.00  0.00     0.053 C 
BRANCH   4   5
ATOM      5  C   UNL     1      57.700  22.346  23.183  1.00  0.00     0.041 C 
ATOM      6  O   UNL     1      57.426  22.989  24.230  1.00  0.00    -0.550 OA
ATOM      7  O   UNL     1      56.760  21.478  22.643  1.00  0.00    -0.550 OA
ENDBRANCH   4   5
ENDBRANCH   3   4
ENDBRANCH   2   3
ENDBRANCH   1   2
BRANCH   1   8
ATOM      8  C   UNL     1      61.811  22.088  19.507  1.00  0.00     0.000 C 
BRANCH   8   9
ATOM      9  C   UNL     1      63.053  21.522  20.210  1.00  0.00     0.000 C 
BRANCH   9  10
ATOM     10  C   UNL     1      63.982  22.613  20.771  1.00  0.00     0.006 C 
BRANCH  10  11
ATOM     11  C   UNL     1      64.021  22.672  22.309  1.00  0.00     0.053 C 
BRANCH  11  12
ATOM     12  C   UNL     1      62.908  23.493  22.885  1.00  0.00     0.041 C 
ATOM     13  O   UNL     1      62.472  23.250  24.041  1.00  0.00    -0.550 OA
ATOM     14  O   UNL     1      62.375  24.551  22.159  1.00  0.00    -0.550 OA
ENDBRANCH  11  12
ENDBRANCH  10  11
ENDBRANCH   9  10
ENDBRANCH   8   9
ENDBRANCH   1   8
TORSDOF 9
ENDMDL
MODEL 6
REMARK VINA RESULT:    -3.430      2.932      5.521
REMARK INTER + INTRA:          -5.926
REMARK INTER:                  -4.881
REMARK INTRA:                  -1.045
REMARK UNBOUND:                -0.691
REMARK SMILES O=C([O-])CCCCCCCCC(=O)[O-]
REMARK SMILES IDX 7 1 6 2 5 3 4 4 2 5 1 6 3 7 8 8 9 9 10 10 11 11 12 12 13 13
REMARK SMILES IDX 14 14
REMARK H PARENT
REMARK Flexibility Score: inf
ROOT
ATOM      1  C   UNL     1      60.350  21.730  20.881  1.00  0.00     0.000 C 
ENDROOT
BRANCH   1   2
ATOM      2  C   UNL     1      60.505  20.943  22.192  1.00  0.00     0.000 C 
BRANCH   2   3
ATOM      3  C   UNL     1      59.269  21.050  23.097  1.00  0.00     0.006 C 
BRANCH   3   4
ATOM      4  C   UNL     1      58.271  22.071  22.542  1.00  0.00     0.053 C 
BRANCH   4   5
ATOM      5  C   UNL     1      57.262  22.437  23.584  1.00  0.00     0.041 C 
ATOM      6  O   UNL     1      57.604  23.117  24.587  1.00  0.00    -0.550 OA
ATOM      7  O   UNL     1      55.953  21.985  23.473  1.00  0.00    -0.550 OA
ENDBRANCH   4   5
ENDBRANCH   3   4
ENDBRANCH   2   3
ENDBRANCH   1   2
BRANCH   1   8
ATOM      8  C   UNL     1      61.478  22.750  20.665  1.00  0.00     0.000 C 
BRANCH   8   9
ATOM      9  C   UNL     1      62.199  23.059  21.985  1.00  0.00     0.000 C 
BRANCH   9  10
ATOM     10  C   UNL     1      61.950  24.491  22.490  1.00  0.00     0.006 C 
BRANCH  10  11
ATOM     11  C   UNL     1      60.812  24.601  23.522  1.00  0.00     0.053 C 
BRANCH  11  12
ATOM     12  C   UNL     1      61.251  24.242  24.909  1.00  0.00     0.041 C 
ATOM     13  O   UNL     1      61.999  25.016  25.560  1.00  0.00    -0.550 OA
ATOM     14  O   UNL     1      60.803  23.065  25.497  1.00  0.00    -0.550 OA
ENDBRANCH  11  12
ENDBRANCH  10  11
ENDBRANCH   9  10
ENDBRANCH   8   9
ENDBRANCH   1   8
TORSDOF 9
ENDMDL
MODEL 7
REMARK VINA RESULT:    -3.417      2.451      3.229
REMARK INTER + INTRA:          -5.906
REMARK INTER:                  -5.224
REMARK INTRA:                  -0.681
REMARK UNBOUND:                -0.691
REMARK SMILES O=C([O-])CCCCCCCCC(=O)[O-]
REMARK SMILES IDX 7 1 6 2 5 3 4 4 2 5 1 6 3 7 8 8 9 9 10 10 11 11 12 12 13 13
REMARK SMILES IDX 14 14
REMARK H PARENT
REMARK Flexibility Score: inf
ROOT
ATOM      1  C   UNL     1      60.701  21.551  20.785  1.00  0.00     0.000 C 
ENDROOT
BRANCH   1   2
ATOM      2  C   UNL     1      61.700  22.694  20.542  1.00  0.00     0.000 C 
BRANCH   2   3
ATOM      3  C   UNL     1      62.525  23.036  21.791  1.00  0.00     0.006 C 
BRANCH   3   4
ATOM      4  C   UNL     1      62.107  24.391  22.370  1.00  0.00     0.053 C 
BRANCH   4   5
ATOM      5  C   UNL     1      61.258  24.201  23.587  1.00  0.00     0.041 C 
ATOM      6  O   UNL     1      60.314  24.998  23.831  1.00  0.00    -0.550 OA
ATOM      7  O   UNL     1      61.540  23.174  24.479  1.00  0.00    -0.550 OA
ENDBRANCH   4   5
ENDBRANCH   3   4
ENDBRANCH   2   3
ENDBRANCH   1   2
BRANCH   1   8
ATOM      8  C   UNL     1      59.451  22.009  21.551  1.00  0.00     0.000 C 
BRANCH   8   9
ATOM      9  C   UNL     1      58.905  20.878  22.434  1.00  0.00     0.000 C 
BRANCH   9  10
ATOM     10  C   UNL     1      58.534  21.344  23.854  1.00  0.00     0.006 C 
BRANCH  10  11
ATOM     11  C   UNL     1      57.489  22.474  23.888  1.00  0.00     0.053 C 
BRANCH  11  12
ATOM     12  C   UNL     1      56.243  22.134  23.129  1.00  0.00     0.041 C 
ATOM     13  O   UNL     1      55.532  21.155  23.479  1.00  0.00    -0.550 OA
ATOM     14  O   UNL     1      55.847  22.921  22.054  1.00  0.00    -0.550 OA
ENDBRANCH  11  12
ENDBRANCH  10  11
ENDBRANCH   9  10
ENDBRANCH   8   9
ENDBRANCH   1   8
TORSDOF 9
ENDMDL
MODEL 8
REMARK VINA RESULT:    -3.225      2.018      5.428
REMARK INTER + INTRA:          -5.613
REMARK INTER:                  -4.641
REMARK INTRA:                  -0.971
REMARK UNBOUND:                -0.691
REMARK SMILES O=C([O-])CCCCCCCCC(=O)[O-]
REMARK SMILES IDX 7 1 6 2 5 3 4 4 2 5 1 6 3 7 8 8 9 9 10 10 11 11 12 12 13 13
REMARK SMILES IDX 14 14
REMARK H PARENT
REMARK Flexibility Score: inf
ROOT
ATOM      1  C   UNL     1      59.878  23.661  25.630  1.00  0.00     0.000 C 
ENDROOT
BRANCH   1   2
ATOM      2  C   UNL     1      59.747  22.133  25.525  1.00  0.00     0.000 C 
BRANCH   2   3
ATOM      3  C   UNL     1      58.808  21.695  24.392  1.00  0.00     0.006 C 
BRANCH   3   4
ATOM      4  C   UNL     1      57.768  22.779  24.092  1.00  0.00     0.053 C 
BRANCH   4   5
ATOM      5  C   UNL     1      56.700  22.247  23.191  1.00  0.00     0.041 C 
ATOM      6  O   UNL     1      55.948  23.038  22.563  1.00  0.00    -0.550 OA
ATOM      7  O   UNL     1      56.502  20.876  23.082  1.00  0.00    -0.550 OA
ENDBRANCH   4   5
ENDBRANCH   3   4
ENDBRANCH   2   3
ENDBRANCH   1   2
BRANCH   1   8
ATOM      8  C   UNL     1      61.316  24.115  25.925  1.00  0.00     0.000 C 
BRANCH   8   9
ATOM      9  C   UNL     1      61.871  24.963  24.772  1.00  0.00     0.000 C 
BRANCH   9  10
ATOM     10  C   UNL     1      61.002  24.904  23.504  1.00  0.00     0.006 C 
BRANCH  10  11
ATOM     11  C   UNL     1      61.715  24.290  22.285  1.00  0.00     0.053 C 
BRANCH  11  12
ATOM     12  C   UNL     1      61.410  22.834  22.109  1.00  0.00     0.041 C 
ATOM     13  O   UNL     1      62.022  21.969  22.790  1.00  0.00    -0.550 OA
ATOM     14  O   UNL     1      60.422  22.433  21.217  1.00  0.00    -0.550 OA
ENDBRANCH  11  12
ENDBRANCH  10  11
ENDBRANCH   9  10
ENDBRANCH   8   9
ENDBRANCH   1   8
TORSDOF 9
ENDMDL
MODEL 9
REMARK VINA RESULT:    -2.982      2.901      3.751
REMARK INTER + INTRA:          -5.243
REMARK INTER:                  -4.504
REMARK INTRA:                  -0.738
REMARK UNBOUND:                -0.691
REMARK SMILES O=C([O-])CCCCCCCCC(=O)[O-]
REMARK SMILES IDX 7 1 6 2 5 3 4 4 2 5 1 6 3 7 8 8 9 9 10 10 11 11 12 12 13 13
REMARK SMILES IDX 14 14
REMARK H PARENT
REMARK Flexibility Score: inf
ROOT
ATOM      1  C   UNL     1      60.051  21.322  21.543  1.00  0.00     0.000 C 
ENDROOT
BRANCH   1   2
ATOM      2  C   UNL     1      60.786  21.938  20.342  1.00  0.00     0.000 C 
BRANCH   2   3
ATOM      3  C   UNL     1      62.250  22.280  20.655  1.00  0.00     0.006 C 
BRANCH   3   4
ATOM      4  C   UNL     1      62.340  23.399  21.697  1.00  0.00     0.053 C 
BRANCH   4   5
ATOM      5  C   UNL     1      63.094  22.934  22.902  1.00  0.00     0.041 C 
ATOM      6  O   UNL     1      63.474  23.763  23.770  1.00  0.00    -0.550 OA
ATOM      7  O   UNL     1      63.420  21.591  23.042  1.00  0.00    -0.550 OA
ENDBRANCH   4   5
ENDBRANCH   3   4
ENDBRANCH   2   3
ENDBRANCH   1   2
BRANCH   1   8
ATOM      8  C   UNL     1      58.866  22.179  22.016  1.00  0.00     0.000 C 
BRANCH   8   9
ATOM      9  C   UNL     1      58.372  21.719  23.394  1.00  0.00     0.000 C 
BRANCH   9  10
ATOM     10  C   UNL     1      57.690  22.840  24.198  1.00  0.00     0.006 C 
BRANCH  10  11
ATOM     11  C   UNL     1      58.464  23.266  25.459  1.00  0.00     0.053 C 
BRANCH  11  12
ATOM     12  C   UNL     1      59.882  23.650  25.165  1.00  0.00     0.041 C 
ATOM     13  O   UNL     1      60.833  23.055  25.737  1.00  0.00    -0.550 OA
ATOM     14  O   UNL     1      60.155  24.643  24.232  1.00  0.00    -0.550 OA
ENDBRANCH  11  12
ENDBRANCH  10  11
ENDBRANCH   9  10
ENDBRANCH   8   9
ENDBRANCH   1   8
TORSDOF 9
ENDMDL
