MODEL 1
REMARK VINA RESULT:    -5.425      0.000      0.000
REMARK INTER + INTRA:          -5.901
REMARK INTER:                  -5.901
REMARK INTRA:                   0.000
REMARK UNBOUND:                 0.000
REMARK SMILES Cc1cc(O)c2c(c1)C(=O)c1cc(O)cc(O)c1C2=O
REMARK SMILES IDX 1 1 2 2 8 3 7 4 6 5 4 6 3 7 19 8 20 9 18 10 11 11 9 12 10 13
REMARK SMILES IDX 12 14 13 15 15 16 16 17 5 18 17 20 14 22
REMARK H PARENT 5 19 17 21 14 23
REMARK Flexibility Score: inf
ROOT
ATOM      1  C   UNL     1      67.227  52.097  33.314  1.00  0.00     0.044 C 
ATOM      2  C   UNL     1      66.694  51.538  34.601  1.00  0.00    -0.047 A 
ATOM      3  C   UNL     1      67.559  51.283  35.670  1.00  0.00     0.016 A 
ATOM      4  C   UNL     1      67.066  50.786  36.888  1.00  0.00     0.038 A 
ATOM      5  C   UNL     1      65.683  50.541  37.039  1.00  0.00     0.076 A 
ATOM      6  C   UNL     1      64.801  50.881  35.982  1.00  0.00     0.127 A 
ATOM      7  C   UNL     1      65.318  51.355  34.771  1.00  0.00     0.050 A 
ATOM      8  C   UNL     1      65.219  49.878  38.285  1.00  0.00     0.201 C 
ATOM      9  O   UNL     1      64.195  49.144  38.260  1.00  0.00    -0.288 OA
ATOM     10  C   UNL     1      66.063  49.929  39.507  1.00  0.00     0.076 A 
ATOM     11  C   UNL     1      67.446  50.177  39.352  1.00  0.00     0.041 A 
ATOM     12  C   UNL     1      67.989  50.526  38.019  1.00  0.00     0.194 C 
ATOM     13  O   UNL     1      69.237  50.624  37.851  1.00  0.00    -0.289 OA
ATOM     14  C   UNL     1      68.298  50.098  40.467  1.00  0.00     0.059 A 
ATOM     15  C   UNL     1      67.788  49.789  41.730  1.00  0.00     0.120 A 
ATOM     16  C   UNL     1      66.419  49.584  41.893  1.00  0.00     0.093 A 
ATOM     17  C   UNL     1      65.546  49.678  40.804  1.00  0.00     0.131 A 
ENDROOT
BRANCH   6  18
ATOM     18  O   UNL     1      63.411  50.800  36.101  1.00  0.00    -0.507 OA
ATOM     19  H   UNL     1      62.772  51.402  35.601  1.00  0.00     0.293 HD
ENDBRANCH   6  18
BRANCH  17  20
ATOM     20  O   UNL     1      64.179  49.550  41.062  1.00  0.00    -0.507 OA
ATOM     21  H   UNL     1      63.780  49.583  41.990  1.00  0.00     0.293 HD
ENDBRANCH  17  20
BRANCH  15  22
ATOM     22  O   UNL     1      68.632  49.698  42.835  1.00  0.00    -0.508 OA
ATOM     23  H   UNL     1      68.462  49.030  43.578  1.00  0.00     0.293 HD
ENDBRANCH  15  22
TORSDOF 3
ENDMDL
MODEL 2
REMARK VINA RESULT:    -5.230      1.247      5.491
REMARK INTER + INTRA:          -5.689
REMARK INTER:                  -5.689
REMARK INTRA:                   0.000
REMARK UNBOUND:                 0.000
REMARK SMILES Cc1cc(O)c2c(c1)C(=O)c1cc(O)cc(O)c1C2=O
REMARK SMILES IDX 1 1 2 2 8 3 7 4 6 5 4 6 3 7 19 8 20 9 18 10 11 11 9 12 10 13
REMARK SMILES IDX 12 14 13 15 15 16 16 17 5 18 17 20 14 22
REMARK H PARENT 5 19 17 21 14 23
REMARK Flexibility Score: inf
ROOT
ATOM      1  C   UNL     1      69.231  48.894  42.330  1.00  0.00     0.044 C 
ATOM      2  C   UNL     1      68.176  49.339  41.361  1.00  0.00    -0.047 A 
ATOM      3  C   UNL     1      68.535  49.781  40.083  1.00  0.00     0.016 A 
ATOM      4  C   UNL     1      67.553  50.172  39.158  1.00  0.00     0.038 A 
ATOM      5  C   UNL     1      66.188  50.121  39.518  1.00  0.00     0.076 A 
ATOM      6  C   UNL     1      65.826  49.591  40.783  1.00  0.00     0.127 A 
ATOM      7  C   UNL     1      66.823  49.227  41.695  1.00  0.00     0.050 A 
ATOM      8  C   UNL     1      65.189  50.680  38.571  1.00  0.00     0.201 C 
ATOM      9  O   UNL     1      64.120  51.180  39.011  1.00  0.00    -0.288 OA
ATOM     10  C   UNL     1      65.534  50.820  37.132  1.00  0.00     0.076 A 
ATOM     11  C   UNL     1      66.901  50.869  36.775  1.00  0.00     0.041 A 
ATOM     12  C   UNL     1      67.941  50.633  37.803  1.00  0.00     0.194 C 
ATOM     13  O   UNL     1      69.160  50.799  37.519  1.00  0.00    -0.289 OA
ATOM     14  C   UNL     1      67.266  51.138  35.445  1.00  0.00     0.059 A 
ATOM     15  C   UNL     1      66.289  51.342  34.468  1.00  0.00     0.120 A 
ATOM     16  C   UNL     1      64.940  51.254  34.809  1.00  0.00     0.093 A 
ATOM     17  C   UNL     1      64.549  50.967  36.121  1.00  0.00     0.131 A 
ENDROOT
BRANCH   6  18
ATOM     18  O   UNL     1      64.498  49.378  41.161  1.00  0.00    -0.507 OA
ATOM     19  H   UNL     1      64.229  48.944  42.034  1.00  0.00     0.293 HD
ENDBRANCH   6  18
BRANCH  17  20
ATOM     20  O   UNL     1      63.184  50.806  36.366  1.00  0.00    -0.507 OA
ATOM     21  H   UNL     1      62.815  50.285  37.150  1.00  0.00     0.293 HD
ENDBRANCH  17  20
BRANCH  15  22
ATOM     22  O   UNL     1      66.648  51.620  33.151  1.00  0.00    -0.508 OA
ATOM     23  H   UNL     1      67.260  52.393  32.921  1.00  0.00     0.293 HD
ENDBRANCH  15  22
TORSDOF 3
ENDMDL
MODEL 3
REMARK VINA RESULT:    -4.942      2.570      5.101
REMARK INTER + INTRA:          -5.376
REMARK INTER:                  -5.376
REMARK INTRA:                   0.000
REMARK UNBOUND:                 0.000
REMARK SMILES Cc1cc(O)c2c(c1)C(=O)c1cc(O)cc(O)c1C2=O
REMARK SMILES IDX 1 1 2 2 8 3 7 4 6 5 4 6 3 7 19 8 20 9 18 10 11 11 9 12 10 13
REMARK SMILES IDX 12 14 13 15 15 16 16 17 5 18 17 20 14 22
REMARK H PARENT 5 19 17 21 14 23
REMARK Flexibility Score: inf
ROOT
ATOM      1  C   UNL     1      72.860  48.194  37.029  1.00  0.00     0.044 C 
ATOM      2  C   UNL     1      71.466  48.354  37.561  1.00  0.00    -0.047 A 
ATOM      3  C   UNL     1      70.548  49.173  36.895  1.00  0.00     0.016 A 
ATOM      4  C   UNL     1      69.232  49.307  37.370  1.00  0.00     0.038 A 
ATOM      5  C   UNL     1      68.828  48.610  38.530  1.00  0.00     0.076 A 
ATOM      6  C   UNL     1      69.738  47.716  39.151  1.00  0.00     0.127 A 
ATOM      7  C   UNL     1      71.049  47.615  38.673  1.00  0.00     0.050 A 
ATOM      8  C   UNL     1      67.479  48.891  39.085  1.00  0.00     0.201 C 
ATOM      9  O   UNL     1      67.278  48.787  40.324  1.00  0.00    -0.288 OA
ATOM     10  C   UNL     1      66.428  49.472  38.211  1.00  0.00     0.076 A 
ATOM     11  C   UNL     1      66.835  50.167  37.049  1.00  0.00     0.041 A 
ATOM     12  C   UNL     1      68.263  50.171  36.654  1.00  0.00     0.194 C 
ATOM     13  O   UNL     1      68.649  50.891  35.692  1.00  0.00    -0.289 OA
ATOM     14  C   UNL     1      65.882  50.846  36.272  1.00  0.00     0.059 A 
ATOM     15  C   UNL     1      64.531  50.829  36.630  1.00  0.00     0.120 A 
ATOM     16  C   UNL     1      64.121  50.111  37.752  1.00  0.00     0.093 A 
ATOM     17  C   UNL     1      65.046  49.409  38.531  1.00  0.00     0.131 A 
ENDROOT
BRANCH   6  18
ATOM     18  O   UNL     1      69.376  46.888  40.217  1.00  0.00    -0.507 OA
ATOM     19  H   UNL     1      68.937  47.226  41.062  1.00  0.00     0.293 HD
ENDBRANCH   6  18
BRANCH  17  20
ATOM     20  O   UNL     1      64.549  48.640  39.585  1.00  0.00    -0.507 OA
ATOM     21  H   UNL     1      63.679  48.840  40.061  1.00  0.00     0.293 HD
ENDBRANCH  17  20
BRANCH  15  22
ATOM     22  O   UNL     1      63.585  51.511  35.868  1.00  0.00    -0.508 OA
ATOM     23  H   UNL     1      63.437  51.295  34.890  1.00  0.00     0.293 HD
ENDBRANCH  15  22
TORSDOF 3
ENDMDL
MODEL 4
REMARK VINA RESULT:    -4.903      7.131      9.652
REMARK INTER + INTRA:          -5.333
REMARK INTER:                  -5.333
REMARK INTRA:                   0.000
REMARK UNBOUND:                 0.000
REMARK SMILES Cc1cc(O)c2c(c1)C(=O)c1cc(O)cc(O)c1C2=O
REMARK SMILES IDX 1 1 2 2 8 3 7 4 6 5 4 6 3 7 19 8 20 9 18 10 11 11 9 12 10 13
REMARK SMILES IDX 12 14 13 15 15 16 16 17 5 18 17 20 14 22
REMARK H PARENT 5 19 17 21 14 23
REMARK Flexibility Score: inf
ROOT
ATOM      1  C   UNL     1      60.741  46.614  27.376  1.00  0.00     0.044 C 
ATOM      2  C   UNL     1      61.161  47.470  28.535  1.00  0.00    -0.047 A 
ATOM      3  C   UNL     1      60.373  48.556  28.930  1.00  0.00     0.016 A 
ATOM      4  C   UNL     1      60.743  49.346  30.032  1.00  0.00     0.038 A 
ATOM      5  C   UNL     1      61.922  49.045  30.749  1.00  0.00     0.076 A 
ATOM      6  C   UNL     1      62.671  47.893  30.396  1.00  0.00     0.127 A 
ATOM      7  C   UNL     1      62.294  47.133  29.283  1.00  0.00     0.050 A 
ATOM      8  C   UNL     1      62.358  49.987  31.812  1.00  0.00     0.201 C 
ATOM      9  O   UNL     1      63.585  50.116  32.069  1.00  0.00    -0.288 OA
ATOM     10  C   UNL     1      61.371  50.908  32.433  1.00  0.00     0.076 A 
ATOM     11  C   UNL     1      60.192  51.205  31.713  1.00  0.00     0.041 A 
ATOM     12  C   UNL     1      59.897  50.490  30.449  1.00  0.00     0.194 C 
ATOM     13  O   UNL     1      58.913  50.840  29.740  1.00  0.00    -0.289 OA
ATOM     14  C   UNL     1      59.300  52.175  32.203  1.00  0.00     0.059 A 
ATOM     15  C   UNL     1      59.563  52.838  33.405  1.00  0.00     0.120 A 
ATOM     16  C   UNL     1      60.705  52.517  34.137  1.00  0.00     0.093 A 
ATOM     17  C   UNL     1      61.598  51.541  33.682  1.00  0.00     0.131 A 
ENDROOT
BRANCH   6  18
ATOM     18  O   UNL     1      63.768  47.448  31.138  1.00  0.00    -0.507 OA
ATOM     19  H   UNL     1      63.761  47.358  32.145  1.00  0.00     0.293 HD
ENDBRANCH   6  18
BRANCH  17  20
ATOM     20  O   UNL     1      62.670  51.211  34.514  1.00  0.00    -0.507 OA
ATOM     21  H   UNL     1      63.633  51.196  34.205  1.00  0.00     0.293 HD
ENDBRANCH  17  20
BRANCH  15  22
ATOM     22  O   UNL     1      58.688  53.808  33.888  1.00  0.00    -0.508 OA
ATOM     23  H   UNL     1      58.109  54.357  33.263  1.00  0.00     0.293 HD
ENDBRANCH  15  22
TORSDOF 3
ENDMDL
MODEL 5
REMARK VINA RESULT:    -4.845      1.668      2.438
REMARK INTER + INTRA:          -5.270
REMARK INTER:                  -5.270
REMARK INTRA:                   0.000
REMARK UNBOUND:                 0.000
REMARK SMILES Cc1cc(O)c2c(c1)C(=O)c1cc(O)cc(O)c1C2=O
REMARK SMILES IDX 1 1 2 2 8 3 7 4 6 5 4 6 3 7 19 8 20 9 18 10 11 11 9 12 10 13
REMARK SMILES IDX 12 14 13 15 15 16 16 17 5 18 17 20 14 22
REMARK H PARENT 5 19 17 21 14 23
REMARK Flexibility Score: inf
ROOT
ATOM      1  C   UNL     1      64.924  51.655  31.193  1.00  0.00     0.044 C 
ATOM      2  C   UNL     1      64.854  51.439  32.676  1.00  0.00    -0.047 A 
ATOM      3  C   UNL     1      66.027  51.369  33.434  1.00  0.00     0.016 A 
ATOM      4  C   UNL     1      65.971  51.195  34.827  1.00  0.00     0.038 A 
ATOM      5  C   UNL     1      64.719  51.091  35.473  1.00  0.00     0.076 A 
ATOM      6  C   UNL     1      63.533  51.248  34.711  1.00  0.00     0.127 A 
ATOM      7  C   UNL     1      63.614  51.399  33.322  1.00  0.00     0.050 A 
ATOM      8  C   UNL     1      64.700  50.761  36.921  1.00  0.00     0.201 C 
ATOM      9  O   UNL     1      63.731  50.116  37.404  1.00  0.00    -0.288 OA
ATOM     10  C   UNL     1      65.902  51.024  37.754  1.00  0.00     0.076 A 
ATOM     11  C   UNL     1      67.153  51.130  37.105  1.00  0.00     0.041 A 
ATOM     12  C   UNL     1      67.219  51.130  35.624  1.00  0.00     0.194 C 
ATOM     13  O   UNL     1      68.339  51.097  35.042  1.00  0.00    -0.289 OA
ATOM     14  C   UNL     1      68.328  51.241  37.867  1.00  0.00     0.059 A 
ATOM     15  C   UNL     1      68.269  51.263  39.263  1.00  0.00     0.120 A 
ATOM     16  C   UNL     1      67.034  51.199  39.905  1.00  0.00     0.093 A 
ATOM     17  C   UNL     1      65.848  51.109  39.170  1.00  0.00     0.131 A 
ENDROOT
BRANCH   6  18
ATOM     18  O   UNL     1      62.262  51.296  35.291  1.00  0.00    -0.507 OA
ATOM     19  H   UNL     1      61.406  51.168  34.769  1.00  0.00     0.293 HD
ENDBRANCH   6  18
BRANCH  17  20
ATOM     20  O   UNL     1      64.646  51.141  39.880  1.00  0.00    -0.507 OA
ATOM     21  H   UNL     1      63.878  50.505  39.707  1.00  0.00     0.293 HD
ENDBRANCH  17  20
BRANCH  15  22
ATOM     22  O   UNL     1      69.434  51.361  40.022  1.00  0.00    -0.508 OA
ATOM     23  H   UNL     1      70.235  51.889  39.697  1.00  0.00     0.293 HD
ENDBRANCH  15  22
TORSDOF 3
ENDMDL
MODEL 6
REMARK VINA RESULT:    -4.820      1.456      3.769
REMARK INTER + INTRA:          -5.242
REMARK INTER:                  -5.242
REMARK INTRA:                   0.000
REMARK UNBOUND:                 0.000
REMARK SMILES Cc1cc(O)c2c(c1)C(=O)c1cc(O)cc(O)c1C2=O
REMARK SMILES IDX 1 1 2 2 8 3 7 4 6 5 4 6 3 7 19 8 20 9 18 10 11 11 9 12 10 13
REMARK SMILES IDX 12 14 13 15 15 16 16 17 5 18 17 20 14 22
REMARK H PARENT 5 19 17 21 14 23
REMARK Flexibility Score: inf
ROOT
ATOM      1  C   UNL     1      65.154  51.610  31.237  1.00  0.00     0.044 C 
ATOM      2  C   UNL     1      65.775  51.502  32.598  1.00  0.00    -0.047 A 
ATOM      3  C   UNL     1      64.974  51.276  33.722  1.00  0.00     0.016 A 
ATOM      4  C   UNL     1      65.550  51.144  34.997  1.00  0.00     0.038 A 
ATOM      5  C   UNL     1      66.951  51.241  35.150  1.00  0.00     0.076 A 
ATOM      6  C   UNL     1      67.764  51.385  33.996  1.00  0.00     0.127 A 
ATOM      7  C   UNL     1      67.166  51.534  32.739  1.00  0.00     0.050 A 
ATOM      8  C   UNL     1      67.509  51.245  36.526  1.00  0.00     0.201 C 
ATOM      9  O   UNL     1      68.577  51.870  36.767  1.00  0.00    -0.288 OA
ATOM     10  C   UNL     1      66.716  50.676  37.647  1.00  0.00     0.076 A 
ATOM     11  C   UNL     1      65.315  50.579  37.490  1.00  0.00     0.041 A 
ATOM     12  C   UNL     1      64.694  50.897  36.183  1.00  0.00     0.194 C 
ATOM     13  O   UNL     1      63.437  50.934  36.073  1.00  0.00    -0.289 OA
ATOM     14  C   UNL     1      64.517  50.176  38.574  1.00  0.00     0.059 A 
ATOM     15  C   UNL     1      65.100  49.855  39.803  1.00  0.00     0.120 A 
ATOM     16  C   UNL     1      66.485  49.911  39.949  1.00  0.00     0.093 A 
ATOM     17  C   UNL     1      67.303  50.289  38.880  1.00  0.00     0.131 A 
ENDROOT
BRANCH   6  18
ATOM     18  O   UNL     1      69.159  51.350  34.046  1.00  0.00    -0.507 OA
ATOM     19  H   UNL     1      69.683  51.185  34.894  1.00  0.00     0.293 HD
ENDBRANCH   6  18
BRANCH  17  20
ATOM     20  O   UNL     1      68.685  50.234  39.075  1.00  0.00    -0.507 OA
ATOM     21  H   UNL     1      69.276  49.512  38.685  1.00  0.00     0.293 HD
ENDBRANCH  17  20
BRANCH  15  22
ATOM     22  O   UNL     1      64.311  49.466  40.884  1.00  0.00    -0.508 OA
ATOM     23  H   UNL     1      63.780  48.604  40.869  1.00  0.00     0.293 HD
ENDBRANCH  15  22
TORSDOF 3
ENDMDL
MODEL 7
REMARK VINA RESULT:    -4.669      1.855      2.412
REMARK INTER + INTRA:          -5.079
REMARK INTER:                  -5.079
REMARK INTRA:                   0.000
REMARK UNBOUND:                 0.000
REMARK SMILES Cc1cc(O)c2c(c1)C(=O)c1cc(O)cc(O)c1C2=O
REMARK SMILES IDX 1 1 2 2 8 3 7 4 6 5 4 6 3 7 19 8 20 9 18 10 11 11 9 12 10 13
REMARK SMILES IDX 12 14 13 15 15 16 16 17 5 18 17 20 14 22
REMARK H PARENT 5 19 17 21 14 23
REMARK Flexibility Score: inf
ROOT
ATOM      1  C   UNL     1      65.630  52.162  34.678  1.00  0.00     0.044 C 
ATOM      2  C   UNL     1      65.769  51.555  36.043  1.00  0.00    -0.047 A 
ATOM      3  C   UNL     1      66.824  50.679  36.320  1.00  0.00     0.016 A 
ATOM      4  C   UNL     1      66.979  50.128  37.604  1.00  0.00     0.038 A 
ATOM      5  C   UNL     1      66.063  50.460  38.627  1.00  0.00     0.076 A 
ATOM      6  C   UNL     1      65.048  51.415  38.363  1.00  0.00     0.127 A 
ATOM      7  C   UNL     1      64.900  51.933  37.071  1.00  0.00     0.050 A 
ATOM      8  C   UNL     1      66.172  49.747  39.925  1.00  0.00     0.201 C 
ATOM      9  O   UNL     1      65.139  49.552  40.621  1.00  0.00    -0.288 OA
ATOM     10  C   UNL     1      67.454  49.103  40.309  1.00  0.00     0.076 A 
ATOM     11  C   UNL     1      68.369  48.774  39.283  1.00  0.00     0.041 A 
ATOM     12  C   UNL     1      68.104  49.206  37.891  1.00  0.00     0.194 C 
ATOM     13  O   UNL     1      68.850  48.809  36.954  1.00  0.00    -0.289 OA
ATOM     14  C   UNL     1      69.529  48.042  39.590  1.00  0.00     0.059 A 
ATOM     15  C   UNL     1      69.793  47.650  40.905  1.00  0.00     0.120 A 
ATOM     16  C   UNL     1      68.913  48.007  41.925  1.00  0.00     0.093 A 
ATOM     17  C   UNL     1      67.763  48.753  41.650  1.00  0.00     0.131 A 
ENDROOT
BRANCH   6  18
ATOM     18  O   UNL     1      64.190  51.900  39.353  1.00  0.00    -0.507 OA
ATOM     19  H   UNL     1      63.193  52.000  39.227  1.00  0.00     0.293 HD
ENDBRANCH   6  18
BRANCH  17  20
ATOM     20  O   UNL     1      66.978  49.150  42.735  1.00  0.00    -0.507 OA
ATOM     21  H   UNL     1      67.333  49.242  43.677  1.00  0.00     0.293 HD
ENDBRANCH  17  20
BRANCH  15  22
ATOM     22  O   UNL     1      70.937  46.914  41.210  1.00  0.00    -0.508 OA
ATOM     23  H   UNL     1      70.926  46.187  41.915  1.00  0.00     0.293 HD
ENDBRANCH  15  22
TORSDOF 3
ENDMDL
MODEL 8
REMARK VINA RESULT:    -4.664      5.002      7.956
REMARK INTER + INTRA:          -5.073
REMARK INTER:                  -5.073
REMARK INTRA:                   0.000
REMARK UNBOUND:                 0.000
REMARK SMILES Cc1cc(O)c2c(c1)C(=O)c1cc(O)cc(O)c1C2=O
REMARK SMILES IDX 1 1 2 2 8 3 7 4 6 5 4 6 3 7 19 8 20 9 18 10 11 11 9 12 10 13
REMARK SMILES IDX 12 14 13 15 15 16 16 17 5 18 17 20 14 22
REMARK H PARENT 5 19 17 21 14 23
REMARK Flexibility Score: inf
ROOT
ATOM      1  C   UNL     1      66.385  53.421  35.841  1.00  0.00     0.044 C 
ATOM      2  C   UNL     1      65.433  52.594  35.027  1.00  0.00    -0.047 A 
ATOM      3  C   UNL     1      65.871  51.958  33.862  1.00  0.00     0.016 A 
ATOM      4  C   UNL     1      64.995  51.158  33.109  1.00  0.00     0.038 A 
ATOM      5  C   UNL     1      63.657  50.993  33.531  1.00  0.00     0.076 A 
ATOM      6  C   UNL     1      63.242  51.570  34.758  1.00  0.00     0.127 A 
ATOM      7  C   UNL     1      64.127  52.379  35.479  1.00  0.00     0.050 A 
ATOM      8  C   UNL     1      62.723  50.264  32.634  1.00  0.00     0.201 C 
ATOM      9  O   UNL     1      61.497  50.556  32.636  1.00  0.00    -0.288 OA
ATOM     10  C   UNL     1      63.259  49.331  31.609  1.00  0.00     0.076 A 
ATOM     11  C   UNL     1      64.599  49.499  31.191  1.00  0.00     0.041 A 
ATOM     12  C   UNL     1      65.470  50.482  31.878  1.00  0.00     0.194 C 
ATOM     13  O   UNL     1      66.624  50.725  31.429  1.00  0.00    -0.289 OA
ATOM     14  C   UNL     1      65.101  48.728  30.129  1.00  0.00     0.059 A 
ATOM     15  C   UNL     1      64.290  47.786  29.491  1.00  0.00     0.120 A 
ATOM     16  C   UNL     1      62.981  47.590  29.928  1.00  0.00     0.093 A 
ATOM     17  C   UNL     1      62.464  48.329  30.997  1.00  0.00     0.131 A 
ENDROOT
BRANCH   6  18
ATOM     18  O   UNL     1      61.981  51.340  35.314  1.00  0.00    -0.507 OA
ATOM     19  H   UNL     1      61.335  52.079  35.556  1.00  0.00     0.293 HD
ENDBRANCH   6  18
BRANCH  17  20
ATOM     20  O   UNL     1      61.176  48.013  31.435  1.00  0.00    -0.507 OA
ATOM     21  H   UNL     1      60.335  48.373  31.004  1.00  0.00     0.293 HD
ENDBRANCH  17  20
BRANCH  15  22
ATOM     22  O   UNL     1      64.780  47.028  28.430  1.00  0.00    -0.508 OA
ATOM     23  H   UNL     1      65.692  47.209  28.027  1.00  0.00     0.293 HD
ENDBRANCH  15  22
TORSDOF 3
ENDMDL
MODEL 9
REMARK VINA RESULT:    -4.597      6.207      9.965
REMARK INTER + INTRA:          -5.000
REMARK INTER:                  -5.000
REMARK INTRA:                   0.000
REMARK UNBOUND:                 0.000
REMARK SMILES Cc1cc(O)c2c(c1)C(=O)c1cc(O)cc(O)c1C2=O
REMARK SMILES IDX 1 1 2 2 8 3 7 4 6 5 4 6 3 7 19 8 20 9 18 10 11 11 9 12 10 13
REMARK SMILES IDX 12 14 13 15 15 16 16 17 5 18 17 20 14 22
REMARK H PARENT 5 19 17 21 14 23
REMARK Flexibility Score: inf
ROOT
ATOM      1  C   UNL     1      64.173  51.613  35.473  1.00  0.00     0.044 C 
ATOM      2  C   UNL     1      63.145  51.381  34.405  1.00  0.00    -0.047 A 
ATOM      3  C   UNL     1      63.399  50.477  33.368  1.00  0.00     0.016 A 
ATOM      4  C   UNL     1      62.431  50.231  32.379  1.00  0.00     0.038 A 
ATOM      5  C   UNL     1      61.189  50.902  32.429  1.00  0.00     0.076 A 
ATOM      6  C   UNL     1      60.906  51.752  33.528  1.00  0.00     0.127 A 
ATOM      7  C   UNL     1      61.893  51.997  34.490  1.00  0.00     0.050 A 
ATOM      8  C   UNL     1      60.252  50.730  31.289  1.00  0.00     0.201 C 
ATOM      9  O   UNL     1      59.461  51.662  30.982  1.00  0.00    -0.288 OA
ATOM     10  C   UNL     1      60.378  49.546  30.401  1.00  0.00     0.076 A 
ATOM     11  C   UNL     1      61.621  48.875  30.356  1.00  0.00     0.041 A 
ATOM     12  C   UNL     1      62.705  49.266  31.288  1.00  0.00     0.194 C 
ATOM     13  O   UNL     1      63.855  48.758  31.167  1.00  0.00    -0.289 OA
ATOM     14  C   UNL     1      61.822  47.838  29.430  1.00  0.00     0.059 A 
ATOM     15  C   UNL     1      60.796  47.452  28.563  1.00  0.00     0.120 A 
ATOM     16  C   UNL     1      59.556  48.084  28.633  1.00  0.00     0.093 A 
ATOM     17  C   UNL     1      59.324  49.106  29.559  1.00  0.00     0.131 A 
ENDROOT
BRANCH   6  18
ATOM     18  O   UNL     1      59.655  52.343  33.724  1.00  0.00    -0.507 OA
ATOM     19  H   UNL     1      59.530  53.317  33.963  1.00  0.00     0.293 HD
ENDBRANCH   6  18
BRANCH  17  20
ATOM     20  O   UNL     1      58.030  49.628  29.631  1.00  0.00    -0.507 OA
ATOM     21  H   UNL     1      57.816  50.608  29.509  1.00  0.00     0.293 HD
ENDBRANCH  17  20
BRANCH  15  22
ATOM     22  O   UNL     1      60.996  46.431  27.635  1.00  0.00    -0.508 OA
ATOM     23  H   UNL     1      60.293  46.200  26.943  1.00  0.00     0.293 HD
ENDBRANCH  15  22
TORSDOF 3
ENDMDL
