MODEL 1
REMARK VINA RESULT:    -3.766      0.000      0.000
REMARK INTER + INTRA:          -5.258
REMARK INTER:                  -5.747
REMARK INTRA:                   0.489
REMARK UNBOUND:                 0.489
REMARK SMILES CC1=CCC[C@H](C)C(=O)C[C@H](C(C)C)C(=O)C1
REMARK SMILES IDX 8 1 9 2 6 3 7 4 5 5 4 6 3 7 2 8 1 9 10 11 11 12 15 13 16 14
REMARK SMILES IDX 17 15 12 17 13 18 14 19
REMARK H PARENT
REMARK Flexibility Score: 70.00
ROOT
ATOM      1  C   UNL     1     -10.242  73.553  24.220  1.00  0.00     0.136 C 
ATOM      2  O   UNL     1     -11.242  74.023  24.746  1.00  0.00    -0.299 OA
ENDROOT
BRANCH   1   3
ATOM      3  C   UNL     1      -8.978  73.332  25.061  1.00  0.00     0.053 C 
ATOM      4  C   UNL     1      -9.330  73.217  26.557  1.00  0.00     0.016 C 
BRANCH   3   5
ATOM      5  C   UNL     1      -8.159  72.078  24.632  1.00  0.00     0.015 C 
BRANCH   5   6
ATOM      6  C   UNL     1      -6.677  72.315  24.264  1.00  0.00     0.028 C 
BRANCH   6   7
ATOM      7  C   UNL     1      -6.408  72.151  22.786  1.00  0.00    -0.028 C 
ATOM      8  C   UNL     1      -6.738  73.054  21.832  1.00  0.00    -0.070 CG0
ATOM      9  C   UNL     1      -6.327  72.765  20.411  1.00  0.00     0.039 C 
ATOM     10  G   UNL     1      -7.517  74.327  22.129  1.00  0.00     0.000 G0
ENDBRANCH   6   7
ENDBRANCH   5   6
ENDBRANCH   3   5
ENDBRANCH   1   3
BRANCH   1  11
ATOM     11  C   UNL     1     -10.318  73.223  22.745  1.00  0.00     0.087 C 
BRANCH  11  12
ATOM     12  C   UNL     1     -10.183  74.468  21.817  1.00  0.00     0.066 C 
BRANCH  12  13
ATOM     13  C   UNL     1      -8.760  74.572  21.280  1.00  0.00     0.140 C 
ATOM     14  O   UNL     1      -8.593  74.806  20.092  1.00  0.00    -0.299 OA
BRANCH  13  15
ATOM     15  C   UNL     1      -7.520  74.348  22.126  1.00  0.00     0.106 CG0
ATOM     16  G   UNL     1      -6.745  73.072  21.833  1.00  0.00     0.000 G0
ENDBRANCH  13  15
ENDBRANCH  12  13
BRANCH  12  17
ATOM     17  C   UNL     1     -11.270  74.511  20.697  1.00  0.00    -0.006 C 
ATOM     18  C   UNL     1     -12.511  73.703  21.107  1.00  0.00     0.008 C 
ATOM     19  C   UNL     1     -11.694  75.928  20.268  1.00  0.00     0.008 C 
ENDBRANCH  12  17
ENDBRANCH  11  12
ENDBRANCH   1  11
TORSDOF 1
ENDMDL
MODEL 2
REMARK VINA RESULT:    -3.757      2.387      4.615
REMARK INTER + INTRA:          -5.245
REMARK INTER:                  -5.162
REMARK INTRA:                  -0.083
REMARK UNBOUND:                 0.489
REMARK SMILES CC1=CCC[C@H](C)C(=O)C[C@H](C(C)C)C(=O)C1
REMARK SMILES IDX 8 1 9 2 6 3 7 4 5 5 4 6 3 7 2 8 1 9 10 11 11 12 15 13 16 14
REMARK SMILES IDX 17 15 12 17 13 18 14 19
REMARK H PARENT
REMARK Flexibility Score: 70.00
ROOT
ATOM      1  C   UNL     1      -8.226  72.642  24.328  1.00  0.00     0.136 C 
ATOM      2  O   UNL     1      -8.703  72.992  25.397  1.00  0.00    -0.299 OA
ENDROOT
BRANCH   1   3
ATOM      3  C   UNL     1      -9.041  72.817  23.040  1.00  0.00     0.053 C 
ATOM      4  C   UNL     1     -10.529  73.058  23.364  1.00  0.00     0.016 C 
BRANCH   3   5
ATOM      5  C   UNL     1      -8.525  73.970  22.128  1.00  0.00     0.015 C 
BRANCH   5   6
ATOM      6  C   UNL     1      -8.020  73.566  20.725  1.00  0.00     0.028 C 
BRANCH   6   7
ATOM      7  C   UNL     1      -6.723  74.245  20.352  1.00  0.00    -0.028 C 
ATOM      8  C   UNL     1      -5.505  73.653  20.359  1.00  0.00    -0.070 CG0
ATOM      9  C   UNL     1      -4.322  74.458  19.884  1.00  0.00     0.039 C 
ATOM     10  G   UNL     1      -5.280  72.227  20.840  1.00  0.00     0.000 G0
ENDBRANCH   6   7
ENDBRANCH   5   6
ENDBRANCH   3   5
ENDBRANCH   1   3
BRANCH   1  11
ATOM     11  C   UNL     1      -6.837  72.040  24.347  1.00  0.00     0.087 C 
BRANCH  11  12
ATOM     12  C   UNL     1      -6.466  71.279  23.039  1.00  0.00     0.066 C 
BRANCH  12  13
ATOM     13  C   UNL     1      -5.324  71.991  22.322  1.00  0.00     0.140 C 
ATOM     14  O   UNL     1      -4.408  72.453  22.985  1.00  0.00    -0.299 OA
BRANCH  13  15
ATOM     15  C   UNL     1      -5.278  72.213  20.821  1.00  0.00     0.106 CG0
ATOM     16  G   UNL     1      -5.518  73.642  20.359  1.00  0.00     0.000 G0
ENDBRANCH  13  15
ENDBRANCH  12  13
BRANCH  12  17
ATOM     17  C   UNL     1      -6.194  69.761  23.277  1.00  0.00    -0.006 C 
ATOM     18  C   UNL     1      -5.582  69.525  24.667  1.00  0.00     0.008 C 
ATOM     19  C   UNL     1      -7.423  68.851  23.093  1.00  0.00     0.008 C 
ENDBRANCH  12  17
ENDBRANCH  11  12
ENDBRANCH   1  11
TORSDOF 1
ENDMDL
MODEL 3
REMARK VINA RESULT:    -3.739      1.581      4.111
REMARK INTER + INTRA:          -5.218
REMARK INTER:                  -6.944
REMARK INTRA:                   1.726
REMARK UNBOUND:                 0.489
REMARK SMILES CC1=CCC[C@H](C)C(=O)C[C@H](C(C)C)C(=O)C1
REMARK SMILES IDX 8 1 9 2 6 3 7 4 5 5 4 6 3 7 2 8 1 9 10 11 11 12 15 13 16 14
REMARK SMILES IDX 17 15 12 17 13 18 14 19
REMARK H PARENT
REMARK Flexibility Score: 70.00
ROOT
ATOM      1  C   UNL     1     -10.604  73.878  22.441  1.00  0.00     0.136 C 
ATOM      2  O   UNL     1     -11.541  73.138  22.704  1.00  0.00    -0.299 OA
ENDROOT
BRANCH   1   3
ATOM      3  C   UNL     1     -10.275  74.194  20.976  1.00  0.00     0.053 C 
ATOM      4  C   UNL     1     -10.999  75.475  20.517  1.00  0.00     0.016 C 
BRANCH   3   5
ATOM      5  C   UNL     1      -8.749  74.343  20.699  1.00  0.00     0.015 C 
BRANCH   5   6
ATOM      6  C   UNL     1      -7.846  74.594  21.927  1.00  0.00     0.028 C 
BRANCH   6   7
ATOM      7  C   UNL     1      -6.717  73.595  22.036  1.00  0.00    -0.028 C 
ATOM      8  C   UNL     1      -6.815  72.371  22.607  1.00  0.00    -0.070 CG0
ATOM      9  C   UNL     1      -5.607  71.470  22.563  1.00  0.00     0.039 C 
ATOM     10  G   UNL     1      -8.075  71.879  23.302  1.00  0.00     0.000 G0
ENDBRANCH   6   7
ENDBRANCH   5   6
ENDBRANCH   3   5
ENDBRANCH   1   3
BRANCH   1  11
ATOM     11  C   UNL     1      -9.810  74.438  23.602  1.00  0.00     0.087 C 
BRANCH  11  12
ATOM     12  C   UNL     1      -9.662  73.448  24.795  1.00  0.00     0.066 C 
BRANCH  12  13
ATOM     13  C   UNL     1      -8.426  72.577  24.607  1.00  0.00     0.140 C 
ATOM     14  O   UNL     1      -7.636  72.464  25.533  1.00  0.00    -0.299 OA
BRANCH  13  15
ATOM     15  C   UNL     1      -8.078  71.874  23.308  1.00  0.00     0.106 CG0
ATOM     16  G   UNL     1      -6.815  72.360  22.613  1.00  0.00     0.000 G0
ENDBRANCH  13  15
ENDBRANCH  12  13
BRANCH  12  17
ATOM     17  C   UNL     1      -9.710  74.159  26.184  1.00  0.00    -0.006 C 
ATOM     18  C   UNL     1     -10.788  75.255  26.201  1.00  0.00     0.008 C 
ATOM     19  C   UNL     1      -9.914  73.214  27.383  1.00  0.00     0.008 C 
ENDBRANCH  12  17
ENDBRANCH  11  12
ENDBRANCH   1  11
TORSDOF 1
ENDMDL
MODEL 4
REMARK VINA RESULT:    -3.707      5.387      7.976
REMARK INTER + INTRA:          -5.169
REMARK INTER:                  -5.065
REMARK INTRA:                  -0.104
REMARK UNBOUND:                 0.489
REMARK SMILES CC1=CCC[C@H](C)C(=O)C[C@H](C(C)C)C(=O)C1
REMARK SMILES IDX 8 1 9 2 6 3 7 4 5 5 4 6 3 7 2 8 1 9 10 11 11 12 15 13 16 14
REMARK SMILES IDX 17 15 12 17 13 18 14 19
REMARK H PARENT
REMARK Flexibility Score: 70.00
ROOT
ATOM      1  C   UNL     1      -4.955  71.253  24.643  1.00  0.00     0.136 C 
ATOM      2  O   UNL     1      -4.598  72.375  24.312  1.00  0.00    -0.299 OA
ENDROOT
BRANCH   1   3
ATOM      3  C   UNL     1      -6.415  70.831  24.438  1.00  0.00     0.053 C 
ATOM      4  C   UNL     1      -7.320  72.065  24.251  1.00  0.00     0.016 C 
BRANCH   3   5
ATOM      5  C   UNL     1      -6.620  69.862  23.236  1.00  0.00     0.015 C 
BRANCH   5   6
ATOM      6  C   UNL     1      -7.468  68.599  23.504  1.00  0.00     0.028 C 
BRANCH   6   7
ATOM      7  C   UNL     1      -6.772  67.326  23.078  1.00  0.00    -0.028 C 
ATOM      8  C   UNL     1      -5.982  66.569  23.875  1.00  0.00    -0.070 CG0
ATOM      9  C   UNL     1      -5.426  65.287  23.308  1.00  0.00     0.039 C 
ATOM     10  G   UNL     1      -5.618  66.963  25.298  1.00  0.00     0.000 G0
ENDBRANCH   6   7
ENDBRANCH   5   6
ENDBRANCH   3   5
ENDBRANCH   1   3
BRANCH   1  11
ATOM     11  C   UNL     1      -3.912  70.341  25.252  1.00  0.00     0.087 C 
BRANCH  11  12
ATOM     12  C   UNL     1      -4.509  69.233  26.172  1.00  0.00     0.066 C 
BRANCH  12  13
ATOM     13  C   UNL     1      -4.428  67.876  25.481  1.00  0.00     0.140 C 
ATOM     14  O   UNL     1      -3.367  67.528  24.985  1.00  0.00    -0.299 OA
BRANCH  13  15
ATOM     15  C   UNL     1      -5.611  66.940  25.320  1.00  0.00     0.106 CG0
ATOM     16  G   UNL     1      -5.977  66.582  23.887  1.00  0.00     0.000 G0
ENDBRANCH  13  15
ENDBRANCH  12  13
BRANCH  12  17
ATOM     17  C   UNL     1      -3.889  69.234  27.604  1.00  0.00    -0.006 C 
ATOM     18  C   UNL     1      -2.576  70.033  27.632  1.00  0.00     0.008 C 
ATOM     19  C   UNL     1      -4.829  69.747  28.711  1.00  0.00     0.008 C 
ENDBRANCH  12  17
ENDBRANCH  11  12
ENDBRANCH   1  11
TORSDOF 1
ENDMDL
MODEL 5
REMARK VINA RESULT:    -3.679     12.270     14.261
REMARK INTER + INTRA:          -5.126
REMARK INTER:                  -4.991
REMARK INTRA:                  -0.135
REMARK UNBOUND:                 0.489
REMARK SMILES CC1=CCC[C@H](C)C(=O)C[C@H](C(C)C)C(=O)C1
REMARK SMILES IDX 8 1 9 2 6 3 7 4 5 5 4 6 3 7 2 8 1 9 10 11 11 12 15 13 16 14
REMARK SMILES IDX 17 15 12 17 13 18 14 19
REMARK H PARENT
REMARK Flexibility Score: 70.00
ROOT
ATOM      1  C   UNL     1      -7.944  68.135  35.618  1.00  0.00     0.136 C 
ATOM      2  O   UNL     1      -9.006  67.671  36.010  1.00  0.00    -0.299 OA
ENDROOT
BRANCH   1   3
ATOM      3  C   UNL     1      -7.670  69.636  35.773  1.00  0.00     0.053 C 
ATOM      4  C   UNL     1      -8.972  70.402  36.078  1.00  0.00     0.016 C 
BRANCH   3   5
ATOM      5  C   UNL     1      -6.616  69.965  36.873  1.00  0.00     0.015 C 
BRANCH   5   6
ATOM      6  C   UNL     1      -5.297  70.611  36.394  1.00  0.00     0.028 C 
BRANCH   6   7
ATOM      7  C   UNL     1      -4.074  69.853  36.855  1.00  0.00    -0.028 C 
ATOM      8  C   UNL     1      -3.287  69.090  36.059  1.00  0.00    -0.070 CG0
ATOM      9  C   UNL     1      -2.059  68.463  36.669  1.00  0.00     0.039 C 
ATOM     10  G   UNL     1      -3.599  68.825  34.594  1.00  0.00     0.000 G0
ENDBRANCH   6   7
ENDBRANCH   5   6
ENDBRANCH   3   5
ENDBRANCH   1   3
BRANCH   1  11
ATOM     11  C   UNL     1      -6.956  67.179  34.985  1.00  0.00     0.087 C 
BRANCH  11  12
ATOM     12  C   UNL     1      -6.025  67.848  33.930  1.00  0.00     0.066 C 
BRANCH  12  13
ATOM     13  C   UNL     1      -4.564  67.659  34.323  1.00  0.00     0.140 C 
ATOM     14  O   UNL     1      -4.138  66.524  34.485  1.00  0.00    -0.299 OA
BRANCH  13  15
ATOM     15  C   UNL     1      -3.604  68.805  34.583  1.00  0.00     0.106 CG0
ATOM     16  G   UNL     1      -3.295  69.086  36.045  1.00  0.00     0.000 G0
ENDBRANCH  13  15
ENDBRANCH  12  13
BRANCH  12  17
ATOM     17  C   UNL     1      -6.335  67.391  32.470  1.00  0.00    -0.006 C 
ATOM     18  C   UNL     1      -5.227  67.848  31.507  1.00  0.00     0.008 C 
ATOM     19  C   UNL     1      -6.570  65.878  32.306  1.00  0.00     0.008 C 
ENDBRANCH  12  17
ENDBRANCH  11  12
ENDBRANCH   1  11
TORSDOF 1
ENDMDL
MODEL 6
REMARK VINA RESULT:    -3.656      5.472      7.520
REMARK INTER + INTRA:          -5.090
REMARK INTER:                  -4.864
REMARK INTRA:                  -0.226
REMARK UNBOUND:                 0.489
REMARK SMILES CC1=CCC[C@H](C)C(=O)C[C@H](C(C)C)C(=O)C1
REMARK SMILES IDX 8 1 9 2 6 3 7 4 5 5 4 6 3 7 2 8 1 9 10 11 11 12 15 13 16 14
REMARK SMILES IDX 17 15 12 17 13 18 14 19
REMARK H PARENT
REMARK Flexibility Score: 70.00
ROOT
ATOM      1  C   UNL     1      -6.180  68.588  23.345  1.00  0.00     0.136 C 
ATOM      2  O   UNL     1      -6.737  68.791  22.275  1.00  0.00    -0.299 OA
ENDROOT
BRANCH   1   3
ATOM      3  C   UNL     1      -6.604  67.391  24.204  1.00  0.00     0.053 C 
ATOM      4  C   UNL     1      -7.386  66.363  23.363  1.00  0.00     0.016 C 
BRANCH   3   5
ATOM      5  C   UNL     1      -5.411  66.674  24.905  1.00  0.00     0.015 C 
BRANCH   5   6
ATOM      6  C   UNL     1      -5.367  66.754  26.447  1.00  0.00     0.028 C 
BRANCH   6   7
ATOM      7  C   UNL     1      -3.971  66.983  26.981  1.00  0.00    -0.028 C 
ATOM      8  C   UNL     1      -3.496  68.168  27.431  1.00  0.00    -0.070 CG0
ATOM      9  C   UNL     1      -2.101  68.201  28.001  1.00  0.00     0.039 C 
ATOM     10  G   UNL     1      -4.297  69.460  27.370  1.00  0.00     0.000 G0
ENDBRANCH   6   7
ENDBRANCH   5   6
ENDBRANCH   3   5
ENDBRANCH   1   3
BRANCH   1  11
ATOM     11  C   UNL     1      -5.093  69.556  23.761  1.00  0.00     0.087 C 
BRANCH  11  12
ATOM     12  C   UNL     1      -5.407  70.321  25.081  1.00  0.00     0.066 C 
BRANCH  12  13
ATOM     13  C   UNL     1      -4.227  70.222  26.041  1.00  0.00     0.140 C 
ATOM     14  O   UNL     1      -3.161  70.726  25.719  1.00  0.00    -0.299 OA
BRANCH  13  15
ATOM     15  C   UNL     1      -4.274  69.481  27.364  1.00  0.00     0.106 CG0
ATOM     16  G   UNL     1      -3.499  68.173  27.415  1.00  0.00     0.000 G0
ENDBRANCH  13  15
ENDBRANCH  12  13
BRANCH  12  17
ATOM     17  C   UNL     1      -5.881  71.788  24.835  1.00  0.00    -0.006 C 
ATOM     18  C   UNL     1      -5.278  72.347  23.536  1.00  0.00     0.008 C 
ATOM     19  C   UNL     1      -7.409  71.975  24.817  1.00  0.00     0.008 C 
ENDBRANCH  12  17
ENDBRANCH  11  12
ENDBRANCH   1  11
TORSDOF 1
ENDMDL
MODEL 7
REMARK VINA RESULT:    -3.484      5.721      7.993
REMARK INTER + INTRA:          -4.828
REMARK INTER:                  -4.588
REMARK INTRA:                  -0.240
REMARK UNBOUND:                 0.489
REMARK SMILES CC1=CCC[C@H](C)C(=O)C[C@H](C(C)C)C(=O)C1
REMARK SMILES IDX 8 1 9 2 6 3 7 4 5 5 4 6 3 7 2 8 1 9 10 11 11 12 15 13 16 14
REMARK SMILES IDX 17 15 12 17 13 18 14 19
REMARK H PARENT
REMARK Flexibility Score: 70.00
ROOT
ATOM      1  C   UNL     1      -6.488  69.860  23.647  1.00  0.00     0.136 C 
ATOM      2  O   UNL     1      -7.218  70.429  22.847  1.00  0.00    -0.299 OA
ENDROOT
BRANCH   1   3
ATOM      3  C   UNL     1      -5.260  70.592  24.204  1.00  0.00     0.053 C 
ATOM      4  C   UNL     1      -5.272  72.075  23.787  1.00  0.00     0.016 C 
BRANCH   3   5
ATOM      5  C   UNL     1      -5.132  70.500  25.754  1.00  0.00     0.015 C 
BRANCH   5   6
ATOM      6  C   UNL     1      -3.950  69.667  26.300  1.00  0.00     0.028 C 
BRANCH   6   7
ATOM      7  C   UNL     1      -4.342  68.791  27.468  1.00  0.00    -0.028 C 
ATOM      8  C   UNL     1      -4.475  67.444  27.418  1.00  0.00    -0.070 CG0
ATOM      9  C   UNL     1      -4.800  66.717  28.698  1.00  0.00     0.039 C 
ATOM     10  G   UNL     1      -4.332  66.644  26.132  1.00  0.00     0.000 G0
ENDBRANCH   6   7
ENDBRANCH   5   6
ENDBRANCH   3   5
ENDBRANCH   1   3
BRANCH   1  11
ATOM     11  C   UNL     1      -6.847  68.442  24.035  1.00  0.00     0.087 C 
BRANCH  11  12
ATOM     12  C   UNL     1      -5.656  67.443  23.931  1.00  0.00     0.066 C 
BRANCH  12  13
ATOM     13  C   UNL     1      -5.548  66.618  25.208  1.00  0.00     0.140 C 
ATOM     14  O   UNL     1      -6.505  65.942  25.557  1.00  0.00    -0.299 OA
BRANCH  13  15
ATOM     15  C   UNL     1      -4.333  66.625  26.117  1.00  0.00     0.106 CG0
ATOM     16  G   UNL     1      -4.474  67.431  27.399  1.00  0.00     0.000 G0
ENDBRANCH  13  15
ENDBRANCH  12  13
BRANCH  12  17
ATOM     17  C   UNL     1      -5.705  66.572  22.636  1.00  0.00    -0.006 C 
ATOM     18  C   UNL     1      -7.117  66.575  22.028  1.00  0.00     0.008 C 
ATOM     19  C   UNL     1      -4.678  66.966  21.559  1.00  0.00     0.008 C 
ENDBRANCH  12  17
ENDBRANCH  11  12
ENDBRANCH   1  11
TORSDOF 1
ENDMDL
MODEL 8
REMARK VINA RESULT:    -3.409      2.082      4.480
REMARK INTER + INTRA:          -4.714
REMARK INTER:                  -4.895
REMARK INTRA:                   0.182
REMARK UNBOUND:                 0.489
REMARK SMILES CC1=CCC[C@H](C)C(=O)C[C@H](C(C)C)C(=O)C1
REMARK SMILES IDX 8 1 9 2 6 3 7 4 5 5 4 6 3 7 2 8 1 9 10 11 11 12 15 13 16 14
REMARK SMILES IDX 17 15 12 17 13 18 14 19
REMARK H PARENT
REMARK Flexibility Score: 70.00
ROOT
ATOM      1  C   UNL     1      -7.016  73.614  20.686  1.00  0.00     0.136 C 
ATOM      2  O   UNL     1      -7.907  73.867  19.888  1.00  0.00    -0.299 OA
ENDROOT
BRANCH   1   3
ATOM      3  C   UNL     1      -5.663  73.104  20.174  1.00  0.00     0.053 C 
ATOM      4  C   UNL     1      -4.541  74.111  20.493  1.00  0.00     0.016 C 
BRANCH   3   5
ATOM      5  C   UNL     1      -5.270  71.707  20.740  1.00  0.00     0.015 C 
BRANCH   5   6
ATOM      6  C   UNL     1      -4.087  71.673  21.734  1.00  0.00     0.028 C 
BRANCH   6   7
ATOM      7  C   UNL     1      -4.284  70.666  22.844  1.00  0.00    -0.028 C 
ATOM      8  C   UNL     1      -5.175  70.791  23.856  1.00  0.00    -0.070 CG0
ATOM      9  C   UNL     1      -5.293  69.654  24.839  1.00  0.00     0.039 C 
ATOM     10  G   UNL     1      -6.039  72.027  24.053  1.00  0.00     0.000 G0
ENDBRANCH   6   7
ENDBRANCH   5   6
ENDBRANCH   3   5
ENDBRANCH   1   3
BRANCH   1  11
ATOM     11  C   UNL     1      -7.315  73.818  22.156  1.00  0.00     0.087 C 
BRANCH  11  12
ATOM     12  C   UNL     1      -8.267  72.741  22.757  1.00  0.00     0.066 C 
BRANCH  12  13
ATOM     13  C   UNL     1      -7.513  71.873  23.758  1.00  0.00     0.140 C 
ATOM     14  O   UNL     1      -8.131  71.027  24.388  1.00  0.00    -0.299 OA
BRANCH  13  15
ATOM     15  C   UNL     1      -6.036  72.030  24.068  1.00  0.00     0.106 CG0
ATOM     16  G   UNL     1      -5.179  70.795  23.833  1.00  0.00     0.000 G0
ENDBRANCH  13  15
ENDBRANCH  12  13
BRANCH  12  17
ATOM     17  C   UNL     1      -9.584  73.348  23.334  1.00  0.00    -0.006 C 
ATOM     18  C   UNL     1      -9.304  74.136  24.623  1.00  0.00     0.008 C 
ATOM     19  C   UNL     1     -10.370  74.232  22.348  1.00  0.00     0.008 C 
ENDBRANCH  12  17
ENDBRANCH  11  12
ENDBRANCH   1  11
TORSDOF 1
ENDMDL
MODEL 9
REMARK VINA RESULT:    -3.262     14.055     15.535
REMARK INTER + INTRA:          -4.489
REMARK INTER:                  -4.301
REMARK INTRA:                  -0.188
REMARK UNBOUND:                 0.489
REMARK SMILES CC1=CCC[C@H](C)C(=O)C[C@H](C(C)C)C(=O)C1
REMARK SMILES IDX 8 1 9 2 6 3 7 4 5 5 4 6 3 7 2 8 1 9 10 11 11 12 15 13 16 14
REMARK SMILES IDX 17 15 12 17 13 18 14 19
REMARK H PARENT
REMARK Flexibility Score: 70.00
ROOT
ATOM      1  C   UNL     1      -6.834  67.566  34.615  1.00  0.00     0.136 C 
ATOM      2  O   UNL     1      -6.256  67.634  33.539  1.00  0.00    -0.299 OA
ENDROOT
BRANCH   1   3
ATOM      3  C   UNL     1      -6.858  66.236  35.378  1.00  0.00     0.053 C 
ATOM      4  C   UNL     1      -7.750  65.207  34.657  1.00  0.00     0.016 C 
BRANCH   3   5
ATOM      5  C   UNL     1      -5.444  65.618  35.597  1.00  0.00     0.015 C 
BRANCH   5   6
ATOM      6  C   UNL     1      -4.784  65.874  36.971  1.00  0.00     0.028 C 
BRANCH   6   7
ATOM      7  C   UNL     1      -3.737  66.963  36.923  1.00  0.00    -0.028 C 
ATOM      8  C   UNL     1      -3.885  68.206  37.440  1.00  0.00    -0.070 CG0
ATOM      9  C   UNL     1      -2.708  69.146  37.371  1.00  0.00     0.039 C 
ATOM     10  G   UNL     1      -5.183  68.696  38.064  1.00  0.00     0.000 G0
ENDBRANCH   6   7
ENDBRANCH   5   6
ENDBRANCH   3   5
ENDBRANCH   1   3
BRANCH   1  11
ATOM     11  C   UNL     1      -7.506  68.822  35.127  1.00  0.00     0.087 C 
BRANCH  11  12
ATOM     12  C   UNL     1      -7.469  68.963  36.678  1.00  0.00     0.066 C 
BRANCH  12  13
ATOM     13  C   UNL     1      -6.103  69.470  37.128  1.00  0.00     0.140 C 
ATOM     14  O   UNL     1      -5.692  70.532  36.684  1.00  0.00    -0.299 OA
BRANCH  13  15
ATOM     15  C   UNL     1      -5.185  68.706  38.062  1.00  0.00     0.106 CG0
ATOM     16  G   UNL     1      -3.881  68.216  37.449  1.00  0.00     0.000 G0
ENDBRANCH  13  15
ENDBRANCH  12  13
BRANCH  12  17
ATOM     17  C   UNL     1      -8.656  69.808  37.239  1.00  0.00    -0.006 C 
ATOM     18  C   UNL     1      -9.261  70.698  36.142  1.00  0.00     0.008 C 
ATOM     19  C   UNL     1      -9.771  68.983  37.908  1.00  0.00     0.008 C 
ENDBRANCH  12  17
ENDBRANCH  11  12
ENDBRANCH   1  11
TORSDOF 1
ENDMDL
