MODEL 1
REMARK VINA RESULT:    -6.207      0.000      0.000
REMARK INTER + INTRA:          -6.207
REMARK INTER:                  -6.207
REMARK INTRA:                   0.000
REMARK UNBOUND:                 0.000
REMARK SMILES C=C1CCCC(C)(C)[C@]12CC=C(C)CC2
REMARK SMILES IDX 13 1 12 2 11 3 10 4 9 5 15 6 14 7 2 8 1 9 3 10 4 11 5 12
REMARK SMILES IDX 6 13 7 14 8 15
REMARK H PARENT
REMARK Flexibility Score: inf
ROOT
ATOM      1  C   UNL     1      11.056  34.530  18.241  1.00  0.00     0.039 C 
ATOM      2  C   UNL     1      10.197  33.864  19.279  1.00  0.00    -0.077 C 
ATOM      3  C   UNL     1      10.589  32.713  19.843  1.00  0.00    -0.027 C 
ATOM      4  C   UNL     1       9.718  32.060  20.886  1.00  0.00     0.039 C 
ATOM      5  C   UNL     1       9.151  33.076  21.963  1.00  0.00    -0.000 C 
ATOM      6  C   UNL     1       8.959  34.512  21.320  1.00  0.00     0.017 C 
ATOM      7  C   UNL     1       8.933  34.509  19.785  1.00  0.00     0.031 C 
ATOM      8  C   UNL     1      10.152  33.256  23.136  1.00  0.00    -0.070 C 
ATOM      9  C   UNL     1      11.479  33.039  23.016  1.00  0.00     0.008 C 
ATOM     10  C   UNL     1       9.677  33.972  24.384  1.00  0.00     0.031 C 
ATOM     11  C   UNL     1       8.383  33.368  24.911  1.00  0.00     0.005 C 
ATOM     12  C   UNL     1       7.318  33.312  23.816  1.00  0.00     0.008 C 
ATOM     13  C   UNL     1       7.773  32.504  22.560  1.00  0.00    -0.026 C 
ATOM     14  C   UNL     1       7.927  31.011  22.975  1.00  0.00     0.012 C 
ATOM     15  C   UNL     1       6.601  32.574  21.541  1.00  0.00     0.012 C 
ENDROOT
TORSDOF 0
ENDMDL
MODEL 2
REMARK VINA RESULT:    -6.204      3.014      5.820
REMARK INTER + INTRA:          -6.204
REMARK INTER:                  -6.204
REMARK INTRA:                   0.000
REMARK UNBOUND:                 0.000
REMARK SMILES C=C1CCCC(C)(C)[C@]12CC=C(C)CC2
REMARK SMILES IDX 13 1 12 2 11 3 10 4 9 5 15 6 14 7 2 8 1 9 3 10 4 11 5 12
REMARK SMILES IDX 6 13 7 14 8 15
REMARK H PARENT
REMARK Flexibility Score: inf
ROOT
ATOM      1  C   UNL     1       9.483  34.275  22.645  1.00  0.00     0.039 C 
ATOM      2  C   UNL     1      10.553  33.452  21.983  1.00  0.00    -0.077 C 
ATOM      3  C   UNL     1      10.456  33.137  20.684  1.00  0.00    -0.027 C 
ATOM      4  C   UNL     1      11.539  32.314  20.034  1.00  0.00     0.039 C 
ATOM      5  C   UNL     1      13.004  32.786  20.414  1.00  0.00    -0.000 C 
ATOM      6  C   UNL     1      13.023  33.412  21.870  1.00  0.00     0.017 C 
ATOM      7  C   UNL     1      11.801  33.044  22.723  1.00  0.00     0.031 C 
ATOM      8  C   UNL     1      13.494  33.904  19.454  1.00  0.00    -0.070 C 
ATOM      9  C   UNL     1      12.655  34.718  18.778  1.00  0.00     0.008 C 
ATOM     10  C   UNL     1      14.958  34.291  19.487  1.00  0.00     0.031 C 
ATOM     11  C   UNL     1      15.857  33.071  19.341  1.00  0.00     0.005 C 
ATOM     12  C   UNL     1      15.502  32.002  20.375  1.00  0.00     0.008 C 
ATOM     13  C   UNL     1      14.013  31.541  20.291  1.00  0.00    -0.026 C 
ATOM     14  C   UNL     1      13.812  30.798  18.937  1.00  0.00     0.012 C 
ATOM     15  C   UNL     1      13.811  30.489  21.419  1.00  0.00     0.012 C 
ENDROOT
TORSDOF 0
ENDMDL
MODEL 3
REMARK VINA RESULT:    -6.160      1.375      4.367
REMARK INTER + INTRA:          -6.160
REMARK INTER:                  -6.160
REMARK INTRA:                   0.000
REMARK UNBOUND:                 0.000
REMARK SMILES C=C1CCCC(C)(C)[C@]12CC=C(C)CC2
REMARK SMILES IDX 13 1 12 2 11 3 10 4 9 5 15 6 14 7 2 8 1 9 3 10 4 11 5 12
REMARK SMILES IDX 6 13 7 14 8 15
REMARK H PARENT
REMARK Flexibility Score: inf
ROOT
ATOM      1  C   UNL     1       9.672  32.769  26.471  1.00  0.00     0.039 C 
ATOM      2  C   UNL     1       9.291  33.051  25.044  1.00  0.00    -0.077 C 
ATOM      3  C   UNL     1       9.821  34.098  24.398  1.00  0.00    -0.027 C 
ATOM      4  C   UNL     1       9.431  34.365  22.966  1.00  0.00     0.039 C 
ATOM      5  C   UNL     1       9.420  33.063  22.061  1.00  0.00    -0.000 C 
ATOM      6  C   UNL     1       9.053  31.789  22.930  1.00  0.00     0.017 C 
ATOM      7  C   UNL     1       8.388  32.122  24.274  1.00  0.00     0.031 C 
ATOM      8  C   UNL     1      10.827  32.790  21.464  1.00  0.00    -0.070 C 
ATOM      9  C   UNL     1      11.970  33.232  22.031  1.00  0.00     0.008 C 
ATOM     10  C   UNL     1      10.954  31.754  20.366  1.00  0.00     0.031 C 
ATOM     11  C   UNL     1       9.969  32.020  19.236  1.00  0.00     0.005 C 
ATOM     12  C   UNL     1       8.542  32.146  19.772  1.00  0.00     0.008 C 
ATOM     13  C   UNL     1       8.389  33.269  20.846  1.00  0.00    -0.026 C 
ATOM     14  C   UNL     1       8.623  34.641  20.148  1.00  0.00     0.012 C 
ATOM     15  C   UNL     1       6.904  33.241  21.306  1.00  0.00     0.012 C 
ENDROOT
TORSDOF 0
ENDMDL
MODEL 4
REMARK VINA RESULT:    -6.088      1.571      2.159
REMARK INTER + INTRA:          -6.088
REMARK INTER:                  -6.088
REMARK INTRA:                   0.000
REMARK UNBOUND:                 0.000
REMARK SMILES C=C1CCCC(C)(C)[C@]12CC=C(C)CC2
REMARK SMILES IDX 13 1 12 2 11 3 10 4 9 5 15 6 14 7 2 8 1 9 3 10 4 11 5 12
REMARK SMILES IDX 6 13 7 14 8 15
REMARK H PARENT
REMARK Flexibility Score: inf
ROOT
ATOM      1  C   UNL     1      14.074  33.376  21.078  1.00  0.00     0.039 C 
ATOM      2  C   UNL     1      12.658  32.899  21.236  1.00  0.00    -0.077 C 
ATOM      3  C   UNL     1      12.387  31.826  21.993  1.00  0.00    -0.027 C 
ATOM      4  C   UNL     1      10.960  31.362  22.144  1.00  0.00     0.039 C 
ATOM      5  C   UNL     1       9.937  32.543  22.414  1.00  0.00    -0.000 C 
ATOM      6  C   UNL     1      10.440  33.878  21.724  1.00  0.00     0.017 C 
ATOM      7  C   UNL     1      11.502  33.657  20.637  1.00  0.00     0.031 C 
ATOM      8  C   UNL     1       9.833  32.851  23.932  1.00  0.00    -0.070 C 
ATOM      9  C   UNL     1      10.817  32.569  24.813  1.00  0.00     0.008 C 
ATOM     10  C   UNL     1       8.715  33.756  24.408  1.00  0.00     0.031 C 
ATOM     11  C   UNL     1       7.363  33.282  23.895  1.00  0.00     0.005 C 
ATOM     12  C   UNL     1       7.382  33.111  22.376  1.00  0.00     0.008 C 
ATOM     13  C   UNL     1       8.480  32.115  21.887  1.00  0.00    -0.026 C 
ATOM     14  C   UNL     1       8.104  30.692  22.394  1.00  0.00     0.012 C 
ATOM     15  C   UNL     1       8.388  32.082  20.335  1.00  0.00     0.012 C 
ENDROOT
TORSDOF 0
ENDMDL
MODEL 5
REMARK VINA RESULT:    -6.000      1.428      3.147
REMARK INTER + INTRA:          -6.000
REMARK INTER:                  -6.000
REMARK INTRA:                   0.000
REMARK UNBOUND:                 0.000
REMARK SMILES C=C1CCCC(C)(C)[C@]12CC=C(C)CC2
REMARK SMILES IDX 13 1 12 2 11 3 10 4 9 5 15 6 14 7 2 8 1 9 3 10 4 11 5 12
REMARK SMILES IDX 6 13 7 14 8 15
REMARK H PARENT
REMARK Flexibility Score: inf
ROOT
ATOM      1  C   UNL     1      13.665  33.469  20.758  1.00  0.00     0.039 C 
ATOM      2  C   UNL     1      12.246  33.443  21.253  1.00  0.00    -0.077 C 
ATOM      3  C   UNL     1      11.231  33.662  20.406  1.00  0.00    -0.027 C 
ATOM      4  C   UNL     1       9.813  33.631  20.917  1.00  0.00     0.039 C 
ATOM      5  C   UNL     1       9.517  32.407  21.882  1.00  0.00    -0.000 C 
ATOM      6  C   UNL     1      10.828  31.997  22.672  1.00  0.00     0.017 C 
ATOM      7  C   UNL     1      11.917  33.080  22.678  1.00  0.00     0.031 C 
ATOM      8  C   UNL     1       9.088  31.154  21.072  1.00  0.00    -0.070 C 
ATOM      9  C   UNL     1       9.431  30.954  19.781  1.00  0.00     0.008 C 
ATOM     10  C   UNL     1       8.507  29.974  21.825  1.00  0.00     0.031 C 
ATOM     11  C   UNL     1       7.364  30.406  22.733  1.00  0.00     0.005 C 
ATOM     12  C   UNL     1       7.796  31.545  23.655  1.00  0.00     0.008 C 
ATOM     13  C   UNL     1       8.319  32.795  22.880  1.00  0.00    -0.026 C 
ATOM     14  C   UNL     1       7.124  33.414  22.097  1.00  0.00     0.012 C 
ATOM     15  C   UNL     1       8.745  33.836  23.955  1.00  0.00     0.012 C 
ENDROOT
TORSDOF 0
ENDMDL
MODEL 6
REMARK VINA RESULT:    -5.962      3.880      6.299
REMARK INTER + INTRA:          -5.962
REMARK INTER:                  -5.962
REMARK INTRA:                   0.000
REMARK UNBOUND:                 0.000
REMARK SMILES C=C1CCCC(C)(C)[C@]12CC=C(C)CC2
REMARK SMILES IDX 13 1 12 2 11 3 10 4 9 5 15 6 14 7 2 8 1 9 3 10 4 11 5 12
REMARK SMILES IDX 6 13 7 14 8 15
REMARK H PARENT
REMARK Flexibility Score: inf
ROOT
ATOM      1  C   UNL     1      11.091  33.497  23.309  1.00  0.00     0.039 C 
ATOM      2  C   UNL     1      11.868  32.837  22.205  1.00  0.00    -0.077 C 
ATOM      3  C   UNL     1      13.198  32.989  22.131  1.00  0.00    -0.027 C 
ATOM      4  C   UNL     1      13.963  32.318  21.019  1.00  0.00     0.039 C 
ATOM      5  C   UNL     1      13.531  30.812  20.773  1.00  0.00    -0.000 C 
ATOM      6  C   UNL     1      12.001  30.610  21.138  1.00  0.00     0.017 C 
ATOM      7  C   UNL     1      11.200  31.918  21.215  1.00  0.00     0.031 C 
ATOM      8  C   UNL     1      14.328  29.848  21.693  1.00  0.00    -0.070 C 
ATOM      9  C   UNL     1      14.877  30.231  22.865  1.00  0.00     0.008 C 
ATOM     10  C   UNL     1      14.250  28.361  21.416  1.00  0.00     0.031 C 
ATOM     11  C   UNL     1      14.571  28.051  19.960  1.00  0.00     0.005 C 
ATOM     12  C   UNL     1      13.695  28.877  19.018  1.00  0.00     0.008 C 
ATOM     13  C   UNL     1      13.833  30.415  19.245  1.00  0.00    -0.026 C 
ATOM     14  C   UNL     1      15.276  30.836  18.839  1.00  0.00     0.012 C 
ATOM     15  C   UNL     1      12.861  31.099  18.242  1.00  0.00     0.012 C 
ENDROOT
TORSDOF 0
ENDMDL
MODEL 7
REMARK VINA RESULT:    -5.936      1.209      4.414
REMARK INTER + INTRA:          -5.936
REMARK INTER:                  -5.936
REMARK INTRA:                   0.000
REMARK UNBOUND:                 0.000
REMARK SMILES C=C1CCCC(C)(C)[C@]12CC=C(C)CC2
REMARK SMILES IDX 13 1 12 2 11 3 10 4 9 5 15 6 14 7 2 8 1 9 3 10 4 11 5 12
REMARK SMILES IDX 6 13 7 14 8 15
REMARK H PARENT
REMARK Flexibility Score: inf
ROOT
ATOM      1  C   UNL     1       7.006  30.491  24.996  1.00  0.00     0.039 C 
ATOM      2  C   UNL     1       7.436  31.267  23.783  1.00  0.00    -0.077 C 
ATOM      3  C   UNL     1       7.443  32.607  23.805  1.00  0.00    -0.027 C 
ATOM      4  C   UNL     1       7.881  33.370  22.581  1.00  0.00     0.039 C 
ATOM      5  C   UNL     1       9.195  32.789  21.910  1.00  0.00    -0.000 C 
ATOM      6  C   UNL     1       9.290  31.224  22.146  1.00  0.00     0.017 C 
ATOM      7  C   UNL     1       7.960  30.573  22.552  1.00  0.00     0.031 C 
ATOM      8  C   UNL     1      10.466  33.403  22.557  1.00  0.00    -0.070 C 
ATOM      9  C   UNL     1      10.489  33.906  23.809  1.00  0.00     0.008 C 
ATOM     10  C   UNL     1      11.801  33.178  21.876  1.00  0.00     0.031 C 
ATOM     11  C   UNL     1      11.744  33.565  20.405  1.00  0.00     0.005 C 
ATOM     12  C   UNL     1      10.589  32.859  19.696  1.00  0.00     0.008 C 
ATOM     13  C   UNL     1       9.200  33.154  20.345  1.00  0.00    -0.026 C 
ATOM     14  C   UNL     1       8.874  34.661  20.128  1.00  0.00     0.012 C 
ATOM     15  C   UNL     1       8.151  32.341  19.535  1.00  0.00     0.012 C 
ENDROOT
TORSDOF 0
ENDMDL
MODEL 8
REMARK VINA RESULT:    -5.910      3.267      6.162
REMARK INTER + INTRA:          -5.910
REMARK INTER:                  -5.910
REMARK INTRA:                   0.000
REMARK UNBOUND:                 0.000
REMARK SMILES C=C1CCCC(C)(C)[C@]12CC=C(C)CC2
REMARK SMILES IDX 13 1 12 2 11 3 10 4 9 5 15 6 14 7 2 8 1 9 3 10 4 11 5 12
REMARK SMILES IDX 6 13 7 14 8 15
REMARK H PARENT
REMARK Flexibility Score: inf
ROOT
ATOM      1  C   UNL     1       9.613  32.731  22.788  1.00  0.00     0.039 C 
ATOM      2  C   UNL     1      10.868  33.023  22.015  1.00  0.00    -0.077 C 
ATOM      3  C   UNL     1      12.037  33.172  22.654  1.00  0.00    -0.027 C 
ATOM      4  C   UNL     1      13.288  33.461  21.864  1.00  0.00     0.039 C 
ATOM      5  C   UNL     1      13.440  32.557  20.569  1.00  0.00    -0.000 C 
ATOM      6  C   UNL     1      12.014  32.170  19.995  1.00  0.00     0.017 C 
ATOM      7  C   UNL     1      10.873  33.060  20.508  1.00  0.00     0.031 C 
ATOM      8  C   UNL     1      14.150  31.219  20.908  1.00  0.00    -0.070 C 
ATOM      9  C   UNL     1      14.145  30.670  22.141  1.00  0.00     0.008 C 
ATOM     10  C   UNL     1      14.625  30.346  19.763  1.00  0.00     0.031 C 
ATOM     11  C   UNL     1      15.478  31.137  18.781  1.00  0.00     0.005 C 
ATOM     12  C   UNL     1      14.746  32.393  18.307  1.00  0.00     0.008 C 
ATOM     13  C   UNL     1      14.327  33.336  19.479  1.00  0.00    -0.026 C 
ATOM     14  C   UNL     1      15.622  33.909  20.126  1.00  0.00     0.012 C 
ATOM     15  C   UNL     1      13.573  34.533  18.834  1.00  0.00     0.012 C 
ENDROOT
TORSDOF 0
ENDMDL
MODEL 9
REMARK VINA RESULT:    -5.809      1.104      4.725
REMARK INTER + INTRA:          -5.809
REMARK INTER:                  -5.809
REMARK INTRA:                   0.000
REMARK UNBOUND:                 0.000
REMARK SMILES C=C1CCCC(C)(C)[C@]12CC=C(C)CC2
REMARK SMILES IDX 13 1 12 2 11 3 10 4 9 5 15 6 14 7 2 8 1 9 3 10 4 11 5 12
REMARK SMILES IDX 6 13 7 14 8 15
REMARK H PARENT
REMARK Flexibility Score: inf
ROOT
ATOM      1  C   UNL     1       7.368  33.124  25.309  1.00  0.00     0.039 C 
ATOM      2  C   UNL     1       8.334  32.881  24.184  1.00  0.00    -0.077 C 
ATOM      3  C   UNL     1       8.078  31.938  23.266  1.00  0.00    -0.027 C 
ATOM      4  C   UNL     1       9.056  31.708  22.141  1.00  0.00     0.039 C 
ATOM      5  C   UNL     1       9.577  33.049  21.473  1.00  0.00    -0.000 C 
ATOM      6  C   UNL     1       9.603  34.222  22.539  1.00  0.00     0.017 C 
ATOM      7  C   UNL     1       9.556  33.743  23.996  1.00  0.00     0.031 C 
ATOM      8  C   UNL     1       8.621  33.512  20.341  1.00  0.00    -0.070 C 
ATOM      9  C   UNL     1       7.316  33.172  20.289  1.00  0.00     0.008 C 
ATOM     10  C   UNL     1       9.087  34.615  19.412  1.00  0.00     0.031 C 
ATOM     11  C   UNL     1      10.455  34.302  18.823  1.00  0.00     0.005 C 
ATOM     12  C   UNL     1      11.467  33.986  19.924  1.00  0.00     0.008 C 
ATOM     13  C   UNL     1      11.029  32.795  20.834  1.00  0.00    -0.026 C 
ATOM     14  C   UNL     1      11.035  31.499  19.971  1.00  0.00     0.012 C 
ATOM     15  C   UNL     1      12.139  32.629  21.910  1.00  0.00     0.012 C 
ENDROOT
TORSDOF 0
ENDMDL
