MODEL 1
REMARK VINA RESULT:    -4.954      0.000      0.000
REMARK INTER + INTRA:          -6.285
REMARK INTER:                  -5.968
REMARK INTRA:                  -0.317
REMARK UNBOUND:                -0.317
REMARK SMILES O=c1c(O)c(-c2ccc(O)c(O)c2)oc2cc(O)cc(O)c12
REMARK SMILES IDX 5 1 3 2 2 3 1 4 22 5 20 6 19 7 17 8 16 9 15 10 14 11 6 12
REMARK SMILES IDX 7 13 8 14 9 15 13 16 11 17 10 18 12 20 4 22 21 24 18 26
REMARK H PARENT 10 19 12 21 4 23 21 25 18 27
REMARK Flexibility Score: inf
ROOT
ATOM      1  C   UNL     1       8.203  34.299   0.663  1.00  0.00     0.180 A 
ATOM      2  C   UNL     1       9.341  34.598  -0.106  1.00  0.00     0.208 A 
ATOM      3  C   UNL     1       9.666  35.942  -0.346  1.00  0.00     0.238 A 
ATOM      4  O   UNL     1      10.716  36.205  -0.990  1.00  0.00    -0.285 OA
ATOM      5  C   UNL     1       8.841  36.970   0.170  1.00  0.00     0.111 A 
ATOM      6  C   UNL     1       9.052  38.365  -0.046  1.00  0.00     0.134 A 
ATOM      7  C   UNL     1       8.248  39.297   0.621  1.00  0.00     0.093 A 
ATOM      8  C   UNL     1       7.199  38.883   1.445  1.00  0.00     0.123 A 
ATOM      9  C   UNL     1       6.947  37.525   1.615  1.00  0.00     0.094 A 
ATOM     10  C   UNL     1       7.754  36.571   0.991  1.00  0.00     0.146 A 
ATOM     11  O   UNL     1       7.486  35.285   1.189  1.00  0.00    -0.452 OA
ENDROOT
BRANCH   1  12
ATOM     12  C   UNL     1       7.781  32.906   0.939  1.00  0.00     0.025 A 
ATOM     13  C   UNL     1       7.046  32.164  -0.002  1.00  0.00     0.016 A 
ATOM     14  C   UNL     1       6.639  30.859   0.289  1.00  0.00     0.051 A 
ATOM     15  C   UNL     1       6.947  30.282   1.528  1.00  0.00     0.157 A 
ATOM     16  C   UNL     1       8.069  32.331   2.188  1.00  0.00     0.062 A 
ATOM     17  C   UNL     1       7.663  31.024   2.482  1.00  0.00     0.158 A 
BRANCH  15  18
ATOM     18  O   UNL     1       6.541  28.980   1.816  1.00  0.00    -0.504 OA
ATOM     19  H   UNL     1       6.001  28.764   2.646  1.00  0.00     0.293 HD
ENDBRANCH  15  18
BRANCH  17  20
ATOM     20  O   UNL     1       7.980  30.482   3.727  1.00  0.00    -0.504 OA
ATOM     21  H   UNL     1       7.267  30.174   4.377  1.00  0.00     0.293 HD
ENDBRANCH  17  20
ENDBRANCH   1  12
BRANCH   2  22
ATOM     22  O   UNL     1      10.153  33.568  -0.588  1.00  0.00    -0.502 OA
ATOM     23  H   UNL     1      11.142  33.509  -0.371  1.00  0.00     0.293 HD
ENDBRANCH   2  22
BRANCH   6  24
ATOM     24  O   UNL     1      10.013  38.882  -0.921  1.00  0.00    -0.507 OA
ATOM     25  H   UNL     1       9.831  39.174  -1.869  1.00  0.00     0.293 HD
ENDBRANCH   6  24
BRANCH   8  26
ATOM     26  O   UNL     1       6.394  39.818   2.093  1.00  0.00    -0.508 OA
ATOM     27  H   UNL     1       5.535  40.158   1.675  1.00  0.00     0.293 HD
ENDBRANCH   8  26
TORSDOF 6
ENDMDL
MODEL 2
REMARK VINA RESULT:    -4.943      1.049      1.667
REMARK INTER + INTRA:          -6.271
REMARK INTER:                  -5.992
REMARK INTRA:                  -0.280
REMARK UNBOUND:                -0.317
REMARK SMILES O=c1c(O)c(-c2ccc(O)c(O)c2)oc2cc(O)cc(O)c12
REMARK SMILES IDX 5 1 3 2 2 3 1 4 22 5 20 6 19 7 17 8 16 9 15 10 14 11 6 12
REMARK SMILES IDX 7 13 8 14 9 15 13 16 11 17 10 18 12 20 4 22 21 24 18 26
REMARK H PARENT 10 19 12 21 4 23 21 25 18 27
REMARK Flexibility Score: inf
ROOT
ATOM      1  C   UNL     1       8.243  33.830   1.073  1.00  0.00     0.180 A 
ATOM      2  C   UNL     1       9.590  34.052   0.736  1.00  0.00     0.208 A 
ATOM      3  C   UNL     1      10.031  35.368   0.527  1.00  0.00     0.238 A 
ATOM      4  O   UNL     1      11.250  35.565   0.278  1.00  0.00    -0.285 OA
ATOM      5  C   UNL     1       9.118  36.444   0.640  1.00  0.00     0.111 A 
ATOM      6  C   UNL     1       9.446  37.814   0.409  1.00  0.00     0.134 A 
ATOM      7  C   UNL     1       8.496  38.807   0.678  1.00  0.00     0.093 A 
ATOM      8  C   UNL     1       7.208  38.474   1.106  1.00  0.00     0.123 A 
ATOM      9  C   UNL     1       6.860  37.137   1.276  1.00  0.00     0.094 A 
ATOM     10  C   UNL     1       7.797  36.126   1.051  1.00  0.00     0.146 A 
ATOM     11  O   UNL     1       7.427  34.864   1.236  1.00  0.00    -0.452 OA
ENDROOT
BRANCH   1  12
ATOM     12  C   UNL     1       7.697  32.469   1.285  1.00  0.00     0.025 A 
ATOM     13  C   UNL     1       7.940  31.761   2.476  1.00  0.00     0.016 A 
ATOM     14  C   UNL     1       7.435  30.470   2.645  1.00  0.00     0.051 A 
ATOM     15  C   UNL     1       6.692  29.862   1.625  1.00  0.00     0.157 A 
ATOM     16  C   UNL     1       6.970  31.848   0.258  1.00  0.00     0.062 A 
ATOM     17  C   UNL     1       6.462  30.554   0.424  1.00  0.00     0.158 A 
BRANCH  15  18
ATOM     18  O   UNL     1       6.187  28.574   1.797  1.00  0.00    -0.504 OA
ATOM     19  H   UNL     1       5.652  28.112   1.070  1.00  0.00     0.293 HD
ENDBRANCH  15  18
BRANCH  17  20
ATOM     20  O   UNL     1       5.732  29.975  -0.613  1.00  0.00    -0.504 OA
ATOM     21  H   UNL     1       6.083  29.937  -1.562  1.00  0.00     0.293 HD
ENDBRANCH  17  20
ENDBRANCH   1  12
BRANCH   2  22
ATOM     22  O   UNL     1      10.479  32.977   0.651  1.00  0.00    -0.502 OA
ATOM     23  H   UNL     1      11.224  32.941  -0.035  1.00  0.00     0.293 HD
ENDBRANCH   2  22
BRANCH   6  24
ATOM     24  O   UNL     1      10.673  38.246  -0.105  1.00  0.00    -0.507 OA
ATOM     25  H   UNL     1      11.566  38.101   0.340  1.00  0.00     0.293 HD
ENDBRANCH   6  24
BRANCH   8  26
ATOM     26  O   UNL     1       6.264  39.467   1.355  1.00  0.00    -0.508 OA
ATOM     27  H   UNL     1       6.519  40.343   1.798  1.00  0.00     0.293 HD
ENDBRANCH   8  26
TORSDOF 6
ENDMDL
MODEL 3
REMARK VINA RESULT:    -4.938      6.045      9.438
REMARK INTER + INTRA:          -6.266
REMARK INTER:                  -6.061
REMARK INTRA:                  -0.205
REMARK UNBOUND:                -0.317
REMARK SMILES O=c1c(O)c(-c2ccc(O)c(O)c2)oc2cc(O)cc(O)c12
REMARK SMILES IDX 5 1 3 2 2 3 1 4 22 5 20 6 19 7 17 8 16 9 15 10 14 11 6 12
REMARK SMILES IDX 7 13 8 14 9 15 13 16 11 17 10 18 12 20 4 22 21 24 18 26
REMARK H PARENT 10 19 12 21 4 23 21 25 18 27
REMARK Flexibility Score: inf
ROOT
ATOM      1  C   UNL     1       9.900  25.761   2.783  1.00  0.00     0.180 A 
ATOM      2  C   UNL     1       9.619  25.484   1.433  1.00  0.00     0.208 A 
ATOM      3  C   UNL     1       8.882  26.416   0.687  1.00  0.00     0.238 A 
ATOM      4  O   UNL     1       8.680  26.189  -0.536  1.00  0.00    -0.285 OA
ATOM      5  C   UNL     1       8.419  27.604   1.302  1.00  0.00     0.111 A 
ATOM      6  C   UNL     1       7.628  28.599   0.652  1.00  0.00     0.134 A 
ATOM      7  C   UNL     1       7.337  29.795   1.319  1.00  0.00     0.093 A 
ATOM      8  C   UNL     1       7.754  30.005   2.636  1.00  0.00     0.123 A 
ATOM      9  C   UNL     1       8.474  29.015   3.299  1.00  0.00     0.094 A 
ATOM     10  C   UNL     1       8.810  27.826   2.648  1.00  0.00     0.146 A 
ATOM     11  O   UNL     1       9.509  26.914   3.313  1.00  0.00    -0.452 OA
ENDROOT
BRANCH   1  12
ATOM     12  C   UNL     1      10.651  24.816   3.642  1.00  0.00     0.025 A 
ATOM     13  C   UNL     1      10.028  24.143   4.707  1.00  0.00     0.016 A 
ATOM     14  C   UNL     1      10.762  23.274   5.520  1.00  0.00     0.051 A 
ATOM     15  C   UNL     1      12.129  23.076   5.288  1.00  0.00     0.157 A 
ATOM     16  C   UNL     1      12.026  24.630   3.427  1.00  0.00     0.062 A 
ATOM     17  C   UNL     1      12.764  23.760   4.239  1.00  0.00     0.158 A 
BRANCH  15  18
ATOM     18  O   UNL     1      12.858  22.207   6.099  1.00  0.00    -0.504 OA
ATOM     19  H   UNL     1      12.774  22.228   7.109  1.00  0.00     0.293 HD
ENDBRANCH  15  18
BRANCH  17  20
ATOM     20  O   UNL     1      14.125  23.590   3.986  1.00  0.00    -0.504 OA
ATOM     21  H   UNL     1      14.470  22.882   3.350  1.00  0.00     0.293 HD
ENDBRANCH  17  20
ENDBRANCH   1  12
BRANCH   2  22
ATOM     22  O   UNL     1      10.105  24.316   0.840  1.00  0.00    -0.502 OA
ATOM     23  H   UNL     1      11.014  24.269   0.394  1.00  0.00     0.293 HD
ENDBRANCH   2  22
BRANCH   6  24
ATOM     24  O   UNL     1       7.085  28.450  -0.628  1.00  0.00    -0.507 OA
ATOM     25  H   UNL     1       7.598  28.569  -1.488  1.00  0.00     0.293 HD
ENDBRANCH   6  24
BRANCH   8  26
ATOM     26  O   UNL     1       7.446  31.191   3.298  1.00  0.00    -0.508 OA
ATOM     27  H   UNL     1       7.010  31.970   2.817  1.00  0.00     0.293 HD
ENDBRANCH   8  26
TORSDOF 6
ENDMDL
MODEL 4
REMARK VINA RESULT:    -4.734      5.847     11.035
REMARK INTER + INTRA:          -6.020
REMARK INTER:                  -5.801
REMARK INTRA:                  -0.218
REMARK UNBOUND:                -0.317
REMARK SMILES O=c1c(O)c(-c2ccc(O)c(O)c2)oc2cc(O)cc(O)c12
REMARK SMILES IDX 5 1 3 2 2 3 1 4 22 5 20 6 19 7 17 8 16 9 15 10 14 11 6 12
REMARK SMILES IDX 7 13 8 14 9 15 13 16 11 17 10 18 12 20 4 22 21 24 18 26
REMARK H PARENT 10 19 12 21 4 23 21 25 18 27
REMARK Flexibility Score: inf
ROOT
ATOM      1  C   UNL     1       9.246  26.579   2.412  1.00  0.00     0.180 A 
ATOM      2  C   UNL     1       9.340  25.869   1.203  1.00  0.00     0.208 A 
ATOM      3  C   UNL     1       9.849  24.560   1.220  1.00  0.00     0.238 A 
ATOM      4  O   UNL     1       9.880  23.909   0.142  1.00  0.00    -0.285 OA
ATOM      5  C   UNL     1      10.276  23.986   2.441  1.00  0.00     0.111 A 
ATOM      6  C   UNL     1      10.846  22.684   2.569  1.00  0.00     0.134 A 
ATOM      7  C   UNL     1      11.110  22.167   3.844  1.00  0.00     0.093 A 
ATOM      8  C   UNL     1      10.885  22.932   4.991  1.00  0.00     0.123 A 
ATOM      9  C   UNL     1      10.385  24.226   4.873  1.00  0.00     0.094 A 
ATOM     10  C   UNL     1      10.078  24.755   3.617  1.00  0.00     0.146 A 
ATOM     11  O   UNL     1       9.592  25.989   3.550  1.00  0.00    -0.452 OA
ENDROOT
BRANCH   1  12
ATOM     12  C   UNL     1       8.742  27.970   2.472  1.00  0.00     0.025 A 
ATOM     13  C   UNL     1       7.386  28.267   2.245  1.00  0.00     0.016 A 
ATOM     14  C   UNL     1       6.937  29.590   2.283  1.00  0.00     0.051 A 
ATOM     15  C   UNL     1       7.835  30.635   2.536  1.00  0.00     0.157 A 
ATOM     16  C   UNL     1       9.642  29.023   2.704  1.00  0.00     0.062 A 
ATOM     17  C   UNL     1       9.194  30.349   2.744  1.00  0.00     0.158 A 
BRANCH  15  18
ATOM     18  O   UNL     1       7.383  31.954   2.576  1.00  0.00    -0.504 OA
ATOM     19  H   UNL     1       7.707  32.645   1.908  1.00  0.00     0.293 HD
ENDBRANCH  15  18
BRANCH  17  20
ATOM     20  O   UNL     1      10.115  31.367   2.991  1.00  0.00    -0.504 OA
ATOM     21  H   UNL     1      10.238  32.147   2.357  1.00  0.00     0.293 HD
ENDBRANCH  17  20
ENDBRANCH   1  12
BRANCH   2  22
ATOM     22  O   UNL     1       8.893  26.447   0.012  1.00  0.00    -0.502 OA
ATOM     23  H   UNL     1       7.980  26.247  -0.381  1.00  0.00     0.293 HD
ENDBRANCH   2  22
BRANCH   6  24
ATOM     24  O   UNL     1      11.195  21.875   1.483  1.00  0.00    -0.507 OA
ATOM     25  H   UNL     1      11.064  20.876   1.444  1.00  0.00     0.293 HD
ENDBRANCH   6  24
BRANCH   8  26
ATOM     26  O   UNL     1      11.166  22.417   6.254  1.00  0.00    -0.508 OA
ATOM     27  H   UNL     1      11.653  22.964   6.955  1.00  0.00     0.293 HD
ENDBRANCH   8  26
TORSDOF 6
ENDMDL
MODEL 5
REMARK VINA RESULT:    -4.474      8.701     12.007
REMARK INTER + INTRA:          -5.707
REMARK INTER:                  -5.377
REMARK INTRA:                  -0.330
REMARK UNBOUND:                -0.317
REMARK SMILES O=c1c(O)c(-c2ccc(O)c(O)c2)oc2cc(O)cc(O)c12
REMARK SMILES IDX 5 1 3 2 2 3 1 4 22 5 20 6 19 7 17 8 16 9 15 10 14 11 6 12
REMARK SMILES IDX 7 13 8 14 9 15 13 16 11 17 10 18 12 20 4 22 21 24 18 26
REMARK H PARENT 10 19 12 21 4 23 21 25 18 27
REMARK Flexibility Score: inf
ROOT
ATOM      1  C   UNL     1      -1.201  27.364   1.279  1.00  0.00     0.180 A 
ATOM      2  C   UNL     1      -1.779  28.516   0.718  1.00  0.00     0.208 A 
ATOM      3  C   UNL     1      -0.939  29.541   0.253  1.00  0.00     0.238 A 
ATOM      4  O   UNL     1      -1.460  30.546  -0.298  1.00  0.00    -0.285 OA
ATOM      5  C   UNL     1       0.466  29.410   0.371  1.00  0.00     0.111 A 
ATOM      6  C   UNL     1       1.410  30.402  -0.028  1.00  0.00     0.134 A 
ATOM      7  C   UNL     1       2.779  30.112   0.014  1.00  0.00     0.093 A 
ATOM      8  C   UNL     1       3.239  28.886   0.503  1.00  0.00     0.123 A 
ATOM      9  C   UNL     1       2.328  27.934   0.952  1.00  0.00     0.094 A 
ATOM     10  C   UNL     1       0.955  28.181   0.888  1.00  0.00     0.146 A 
ATOM     11  O   UNL     1       0.120  27.241   1.316  1.00  0.00    -0.452 OA
ENDROOT
BRANCH   1  12
ATOM     12  C   UNL     1      -2.021  26.252   1.813  1.00  0.00     0.025 A 
ATOM     13  C   UNL     1      -2.418  26.218   3.161  1.00  0.00     0.016 A 
ATOM     14  C   UNL     1      -3.171  25.146   3.649  1.00  0.00     0.051 A 
ATOM     15  C   UNL     1      -3.526  24.088   2.802  1.00  0.00     0.157 A 
ATOM     16  C   UNL     1      -2.361  25.179   0.973  1.00  0.00     0.062 A 
ATOM     17  C   UNL     1      -3.116  24.104   1.459  1.00  0.00     0.158 A 
BRANCH  15  18
ATOM     18  O   UNL     1      -4.279  23.021   3.291  1.00  0.00    -0.504 OA
ATOM     19  H   UNL     1      -5.180  23.166   3.733  1.00  0.00     0.293 HD
ENDBRANCH  15  18
BRANCH  17  20
ATOM     20  O   UNL     1      -3.447  23.063   0.592  1.00  0.00    -0.504 OA
ATOM     21  H   UNL     1      -3.707  22.145   0.929  1.00  0.00     0.293 HD
ENDBRANCH  17  20
ENDBRANCH   1  12
BRANCH   2  22
ATOM     22  O   UNL     1      -3.167  28.616   0.591  1.00  0.00    -0.502 OA
ATOM     23  H   UNL     1      -3.608  29.187  -0.121  1.00  0.00     0.293 HD
ENDBRANCH   2  22
BRANCH   6  24
ATOM     24  O   UNL     1       1.057  31.690  -0.445  1.00  0.00    -0.507 OA
ATOM     25  H   UNL     1       0.139  31.961  -0.762  1.00  0.00     0.293 HD
ENDBRANCH   6  24
BRANCH   8  26
ATOM     26  O   UNL     1       4.603  28.611   0.557  1.00  0.00    -0.508 OA
ATOM     27  H   UNL     1       4.955  27.661   0.535  1.00  0.00     0.293 HD
ENDBRANCH   8  26
TORSDOF 6
ENDMDL
MODEL 6
REMARK VINA RESULT:    -4.410     14.624     15.370
REMARK INTER + INTRA:          -5.630
REMARK INTER:                  -5.355
REMARK INTRA:                  -0.275
REMARK UNBOUND:                -0.317
REMARK SMILES O=c1c(O)c(-c2ccc(O)c(O)c2)oc2cc(O)cc(O)c12
REMARK SMILES IDX 5 1 3 2 2 3 1 4 22 5 20 6 19 7 17 8 16 9 15 10 14 11 6 12
REMARK SMILES IDX 7 13 8 14 9 15 13 16 11 17 10 18 12 20 4 22 21 24 18 26
REMARK H PARENT 10 19 12 21 4 23 21 25 18 27
REMARK Flexibility Score: inf
ROOT
ATOM      1  C   UNL     1      -3.631  27.247   5.911  1.00  0.00     0.180 A 
ATOM      2  C   UNL     1      -4.317  28.438   5.616  1.00  0.00     0.208 A 
ATOM      3  C   UNL     1      -4.249  29.506   6.525  1.00  0.00     0.238 A 
ATOM      4  O   UNL     1      -4.821  30.588   6.229  1.00  0.00    -0.285 OA
ATOM      5  C   UNL     1      -3.511  29.365   7.724  1.00  0.00     0.111 A 
ATOM      6  C   UNL     1      -3.408  30.367   8.735  1.00  0.00     0.134 A 
ATOM      7  C   UNL     1      -2.544  30.169   9.820  1.00  0.00     0.093 A 
ATOM      8  C   UNL     1      -1.830  28.976   9.962  1.00  0.00     0.123 A 
ATOM      9  C   UNL     1      -1.970  27.968   9.012  1.00  0.00     0.094 A 
ATOM     10  C   UNL     1      -2.797  28.151   7.901  1.00  0.00     0.146 A 
ATOM     11  O   UNL     1      -2.893  27.169   7.012  1.00  0.00    -0.452 OA
ENDROOT
BRANCH   1  12
ATOM     12  C   UNL     1      -3.674  26.069   5.015  1.00  0.00     0.025 A 
ATOM     13  C   UNL     1      -2.605  25.767   4.152  1.00  0.00     0.016 A 
ATOM     14  C   UNL     1      -2.677  24.663   3.298  1.00  0.00     0.051 A 
ATOM     15  C   UNL     1      -3.821  23.854   3.283  1.00  0.00     0.157 A 
ATOM     16  C   UNL     1      -4.826  25.268   4.981  1.00  0.00     0.062 A 
ATOM     17  C   UNL     1      -4.901  24.161   4.127  1.00  0.00     0.158 A 
BRANCH  15  18
ATOM     18  O   UNL     1      -3.890  22.753   2.431  1.00  0.00    -0.504 OA
ATOM     19  H   UNL     1      -4.524  21.982   2.611  1.00  0.00     0.293 HD
ENDBRANCH  15  18
BRANCH  17  20
ATOM     20  O   UNL     1      -6.056  23.379   4.132  1.00  0.00    -0.504 OA
ATOM     21  H   UNL     1      -6.952  23.741   3.826  1.00  0.00     0.293 HD
ENDBRANCH  17  20
ENDBRANCH   1  12
BRANCH   2  22
ATOM     22  O   UNL     1      -5.022  28.563   4.416  1.00  0.00    -0.502 OA
ATOM     23  H   UNL     1      -5.646  29.340   4.230  1.00  0.00     0.293 HD
ENDBRANCH   2  22
BRANCH   6  24
ATOM     24  O   UNL     1      -4.147  31.554   8.735  1.00  0.00    -0.507 OA
ATOM     25  H   UNL     1      -4.849  31.795   9.418  1.00  0.00     0.293 HD
ENDBRANCH   6  24
BRANCH   8  26
ATOM     26  O   UNL     1      -0.985  28.780  11.052  1.00  0.00    -0.508 OA
ATOM     27  H   UNL     1      -0.383  27.967  11.118  1.00  0.00     0.293 HD
ENDBRANCH   8  26
TORSDOF 6
ENDMDL
MODEL 7
REMARK VINA RESULT:    -4.409     13.989     17.720
REMARK INTER + INTRA:          -5.629
REMARK INTER:                  -5.306
REMARK INTRA:                  -0.323
REMARK UNBOUND:                -0.317
REMARK SMILES O=c1c(O)c(-c2ccc(O)c(O)c2)oc2cc(O)cc(O)c12
REMARK SMILES IDX 5 1 3 2 2 3 1 4 22 5 20 6 19 7 17 8 16 9 15 10 14 11 6 12
REMARK SMILES IDX 7 13 8 14 9 15 13 16 11 17 10 18 12 20 4 22 21 24 18 26
REMARK H PARENT 10 19 12 21 4 23 21 25 18 27
REMARK Flexibility Score: inf
ROOT
ATOM      1  C   UNL     1      -0.783  26.599  11.670  1.00  0.00     0.180 A 
ATOM      2  C   UNL     1      -1.797  25.688  12.013  1.00  0.00     0.208 A 
ATOM      3  C   UNL     1      -1.445  24.483  12.641  1.00  0.00     0.238 A 
ATOM      4  O   UNL     1      -2.362  23.695  12.995  1.00  0.00    -0.285 OA
ATOM      5  C   UNL     1      -0.084  24.195  12.902  1.00  0.00     0.111 A 
ATOM      6  C   UNL     1       0.391  22.987  13.495  1.00  0.00     0.134 A 
ATOM      7  C   UNL     1       1.746  22.865  13.826  1.00  0.00     0.093 A 
ATOM      8  C   UNL     1       2.654  23.882  13.525  1.00  0.00     0.123 A 
ATOM      9  C   UNL     1       2.212  25.040  12.891  1.00  0.00     0.094 A 
ATOM     10  C   UNL     1       0.860  25.206  12.581  1.00  0.00     0.146 A 
ATOM     11  O   UNL     1       0.478  26.330  11.988  1.00  0.00    -0.452 OA
ENDROOT
BRANCH   1  12
ATOM     12  C   UNL     1      -1.073  27.880  10.985  1.00  0.00     0.025 A 
ATOM     13  C   UNL     1      -1.005  27.992   9.585  1.00  0.00     0.016 A 
ATOM     14  C   UNL     1      -1.259  29.216   8.961  1.00  0.00     0.051 A 
ATOM     15  C   UNL     1      -1.571  30.348   9.725  1.00  0.00     0.157 A 
ATOM     16  C   UNL     1      -1.365  29.022  11.748  1.00  0.00     0.062 A 
ATOM     17  C   UNL     1      -1.621  30.250  11.126  1.00  0.00     0.158 A 
BRANCH  15  18
ATOM     18  O   UNL     1      -1.826  31.568   9.100  1.00  0.00    -0.504 OA
ATOM     19  H   UNL     1      -1.693  32.449   9.584  1.00  0.00     0.293 HD
ENDBRANCH  15  18
BRANCH  17  20
ATOM     20  O   UNL     1      -1.922  31.359  11.916  1.00  0.00    -0.504 OA
ATOM     21  H   UNL     1      -2.695  31.360  12.569  1.00  0.00     0.293 HD
ENDBRANCH  17  20
ENDBRANCH   1  12
BRANCH   2  22
ATOM     22  O   UNL     1      -3.136  26.002  11.767  1.00  0.00    -0.502 OA
ATOM     23  H   UNL     1      -3.493  26.949  11.829  1.00  0.00     0.293 HD
ENDBRANCH   2  22
BRANCH   6  24
ATOM     24  O   UNL     1      -0.418  21.875  13.753  1.00  0.00    -0.507 OA
ATOM     25  H   UNL     1      -1.210  21.872  14.377  1.00  0.00     0.293 HD
ENDBRANCH   6  24
BRANCH   8  26
ATOM     26  O   UNL     1       4.004  23.746  13.843  1.00  0.00    -0.508 OA
ATOM     27  H   UNL     1       4.695  24.414  13.521  1.00  0.00     0.293 HD
ENDBRANCH   8  26
TORSDOF 6
ENDMDL
MODEL 8
REMARK VINA RESULT:    -4.390      9.986     13.372
REMARK INTER + INTRA:          -5.605
REMARK INTER:                  -5.503
REMARK INTRA:                  -0.102
REMARK UNBOUND:                -0.317
REMARK SMILES O=c1c(O)c(-c2ccc(O)c(O)c2)oc2cc(O)cc(O)c12
REMARK SMILES IDX 5 1 3 2 2 3 1 4 22 5 20 6 19 7 17 8 16 9 15 10 14 11 6 12
REMARK SMILES IDX 7 13 8 14 9 15 13 16 11 17 10 18 12 20 4 22 21 24 18 26
REMARK H PARENT 10 19 12 21 4 23 21 25 18 27
REMARK Flexibility Score: inf
ROOT
ATOM      1  C   UNL     1      -1.446  26.330   1.945  1.00  0.00     0.180 A 
ATOM      2  C   UNL     1      -1.423  27.690   1.593  1.00  0.00     0.208 A 
ATOM      3  C   UNL     1      -0.378  28.166   0.784  1.00  0.00     0.238 A 
ATOM      4  O   UNL     1      -0.391  29.374   0.427  1.00  0.00    -0.285 OA
ATOM      5  C   UNL     1       0.638  27.280   0.352  1.00  0.00     0.111 A 
ATOM      6  C   UNL     1       1.766  27.662  -0.435  1.00  0.00     0.134 A 
ATOM      7  C   UNL     1       2.639  26.678  -0.915  1.00  0.00     0.093 A 
ATOM      8  C   UNL     1       2.461  25.333  -0.579  1.00  0.00     0.123 A 
ATOM      9  C   UNL     1       1.399  24.958   0.238  1.00  0.00     0.094 A 
ATOM     10  C   UNL     1       0.491  25.913   0.702  1.00  0.00     0.146 A 
ATOM     11  O   UNL     1      -0.515  25.511   1.470  1.00  0.00    -0.452 OA
ENDROOT
BRANCH   1  12
ATOM     12  C   UNL     1      -2.501  25.759   2.814  1.00  0.00     0.025 A 
ATOM     13  C   UNL     1      -2.754  26.278   4.096  1.00  0.00     0.016 A 
ATOM     14  C   UNL     1      -3.738  25.708   4.908  1.00  0.00     0.051 A 
ATOM     15  C   UNL     1      -4.474  24.605   4.458  1.00  0.00     0.157 A 
ATOM     16  C   UNL     1      -3.227  24.639   2.376  1.00  0.00     0.062 A 
ATOM     17  C   UNL     1      -4.214  24.066   3.187  1.00  0.00     0.158 A 
BRANCH  15  18
ATOM     18  O   UNL     1      -5.457  24.039   5.270  1.00  0.00    -0.504 OA
ATOM     19  H   UNL     1      -6.436  24.279   5.162  1.00  0.00     0.293 HD
ENDBRANCH  15  18
BRANCH  17  20
ATOM     20  O   UNL     1      -4.924  22.964   2.712  1.00  0.00    -0.504 OA
ATOM     21  H   UNL     1      -5.821  23.060   2.252  1.00  0.00     0.293 HD
ENDBRANCH  17  20
ENDBRANCH   1  12
BRANCH   2  22
ATOM     22  O   UNL     1      -2.448  28.542   2.012  1.00  0.00    -0.502 OA
ATOM     23  H   UNL     1      -3.170  28.875   1.383  1.00  0.00     0.293 HD
ENDBRANCH   2  22
BRANCH   6  24
ATOM     24  O   UNL     1       2.084  28.987  -0.750  1.00  0.00    -0.507 OA
ATOM     25  H   UNL     1       2.199  29.727  -0.074  1.00  0.00     0.293 HD
ENDBRANCH   6  24
BRANCH   8  26
ATOM     26  O   UNL     1       3.344  24.363  -1.047  1.00  0.00    -0.508 OA
ATOM     27  H   UNL     1       3.952  23.850  -0.418  1.00  0.00     0.293 HD
ENDBRANCH   8  26
TORSDOF 6
ENDMDL
MODEL 9
REMARK VINA RESULT:    -4.259      4.916      7.024
REMARK INTER + INTRA:          -5.447
REMARK INTER:                  -5.270
REMARK INTRA:                  -0.176
REMARK UNBOUND:                -0.317
REMARK SMILES O=c1c(O)c(-c2ccc(O)c(O)c2)oc2cc(O)cc(O)c12
REMARK SMILES IDX 5 1 3 2 2 3 1 4 22 5 20 6 19 7 17 8 16 9 15 10 14 11 6 12
REMARK SMILES IDX 7 13 8 14 9 15 13 16 11 17 10 18 12 20 4 22 21 24 18 26
REMARK H PARENT 10 19 12 21 4 23 21 25 18 27
REMARK Flexibility Score: inf
ROOT
ATOM      1  C   UNL     1       8.308  28.338   1.854  1.00  0.00     0.180 A 
ATOM      2  C   UNL     1       9.065  29.507   1.660  1.00  0.00     0.208 A 
ATOM      3  C   UNL     1       8.514  30.556   0.907  1.00  0.00     0.238 A 
ATOM      4  O   UNL     1       9.174  31.622   0.781  1.00  0.00    -0.285 OA
ATOM      5  C   UNL     1       7.223  30.418   0.343  1.00  0.00     0.111 A 
ATOM      6  C   UNL     1       6.585  31.400  -0.472  1.00  0.00     0.134 A 
ATOM      7  C   UNL     1       5.254  31.212  -0.867  1.00  0.00     0.093 A 
ATOM      8  C   UNL     1       4.562  30.046  -0.531  1.00  0.00     0.123 A 
ATOM      9  C   UNL     1       5.196  29.055   0.213  1.00  0.00     0.094 A 
ATOM     10  C   UNL     1       6.511  29.230   0.652  1.00  0.00     0.146 A 
ATOM     11  O   UNL     1       7.074  28.265   1.369  1.00  0.00    -0.452 OA
ENDROOT
BRANCH   1  12
ATOM     12  C   UNL     1       8.829  27.180   2.616  1.00  0.00     0.025 A 
ATOM     13  C   UNL     1       9.957  26.464   2.178  1.00  0.00     0.016 A 
ATOM     14  C   UNL     1      10.417  25.359   2.899  1.00  0.00     0.051 A 
ATOM     15  C   UNL     1       9.751  24.946   4.060  1.00  0.00     0.157 A 
ATOM     16  C   UNL     1       8.152  26.749   3.768  1.00  0.00     0.062 A 
ATOM     17  C   UNL     1       8.610  25.643   4.494  1.00  0.00     0.158 A 
BRANCH  15  18
ATOM     18  O   UNL     1      10.212  23.845   4.780  1.00  0.00    -0.504 OA
ATOM     19  H   UNL     1       9.864  22.910   4.600  1.00  0.00     0.293 HD
ENDBRANCH  15  18
BRANCH  17  20
ATOM     20  O   UNL     1       7.921  25.253   5.641  1.00  0.00    -0.504 OA
ATOM     21  H   UNL     1       7.996  24.318   6.023  1.00  0.00     0.293 HD
ENDBRANCH  17  20
ENDBRANCH   1  12
BRANCH   2  22
ATOM     22  O   UNL     1      10.328  29.631   2.243  1.00  0.00    -0.502 OA
ATOM     23  H   UNL     1      10.494  29.443   3.226  1.00  0.00     0.293 HD
ENDBRANCH   2  22
BRANCH   6  24
ATOM     24  O   UNL     1       7.217  32.557  -0.939  1.00  0.00    -0.507 OA
ATOM     25  H   UNL     1       7.640  32.654  -1.850  1.00  0.00     0.293 HD
ENDBRANCH   6  24
BRANCH   8  26
ATOM     26  O   UNL     1       3.245  29.859  -0.942  1.00  0.00    -0.508 OA
ATOM     27  H   UNL     1       3.010  29.234  -1.706  1.00  0.00     0.293 HD
ENDBRANCH   8  26
TORSDOF 6
ENDMDL
