MODEL 1
REMARK VINA RESULT:    -4.343      0.000      0.000
REMARK INTER + INTRA:         -15.288
REMARK INTER:                 -10.944
REMARK INTRA:                  -4.344
REMARK UNBOUND:                -4.344
REMARK SMILES CCCCCCCCCCCCCCCCCCCCCCCCCCCC(=O)[O-]
REMARK SMILES IDX 15 1 16 2 17 3 18 4 19 5 20 6 21 7 22 8 23 9 24 10 25 11
REMARK SMILES IDX 26 12 27 13 28 14 29 15 30 16 14 17 13 18 12 19 11 20 10 21
REMARK SMILES IDX 9 22 8 23 7 24 6 25 5 26 4 27 3 28 2 29 1 30
REMARK H PARENT
REMARK Flexibility Score: inf
ROOT
ATOM      1  C   UNL     1      60.267  27.868  12.986  1.00  0.00     0.000 C 
ENDROOT
BRANCH   1   2
ATOM      2  C   UNL     1      61.209  28.781  13.787  1.00  0.00     0.000 C 
BRANCH   2   3
ATOM      3  C   UNL     1      62.678  28.667  13.327  1.00  0.00     0.000 C 
BRANCH   3   4
ATOM      4  C   UNL     1      63.657  29.535  14.136  1.00  0.00     0.000 C 
BRANCH   4   5
ATOM      5  C   UNL     1      62.953  30.461  15.142  1.00  0.00     0.000 C 
BRANCH   5   6
ATOM      6  C   UNL     1      63.499  31.896  15.110  1.00  0.00     0.000 C 
BRANCH   6   7
ATOM      7  C   UNL     1      64.886  32.010  15.767  1.00  0.00     0.000 C 
BRANCH   7   8
ATOM      8  C   UNL     1      64.953  33.121  16.829  1.00  0.00     0.000 C 
BRANCH   8   9
ATOM      9  C   UNL     1      64.723  34.546  16.289  1.00  0.00     0.000 C 
BRANCH   9  10
ATOM     10  C   UNL     1      64.846  35.647  17.365  1.00  0.00     0.000 C 
BRANCH  10  11
ATOM     11  C   UNL     1      65.987  35.364  18.352  1.00  0.00     0.000 C 
BRANCH  11  12
ATOM     12  C   UNL     1      65.520  35.500  19.805  1.00  0.00     0.006 C 
BRANCH  12  13
ATOM     13  C   UNL     1      65.301  34.120  20.432  1.00  0.00     0.053 C 
BRANCH  13  14
ATOM     14  C   UNL     1      63.854  33.903  20.739  1.00  0.00     0.041 C 
ATOM     15  O   UNL     1      62.987  34.051  19.840  1.00  0.00    -0.550 OA
ATOM     16  O   UNL     1      63.462  33.518  22.017  1.00  0.00    -0.550 OA
ENDBRANCH  13  14
ENDBRANCH  12  13
ENDBRANCH  11  12
ENDBRANCH  10  11
ENDBRANCH   9  10
ENDBRANCH   8   9
ENDBRANCH   7   8
ENDBRANCH   6   7
ENDBRANCH   5   6
ENDBRANCH   4   5
ENDBRANCH   3   4
ENDBRANCH   2   3
ENDBRANCH   1   2
BRANCH   1  17
ATOM     17  C   UNL     1      59.244  28.688  12.184  1.00  0.00     0.000 C 
BRANCH  17  18
ATOM     18  C   UNL     1      59.674  28.926  10.722  1.00  0.00     0.000 C 
BRANCH  18  19
ATOM     19  C   UNL     1      60.828  28.033  10.226  1.00  0.00     0.000 C 
BRANCH  19  20
ATOM     20  C   UNL     1      61.660  28.687   9.114  1.00  0.00     0.000 C 
BRANCH  20  21
ATOM     21  C   UNL     1      63.079  29.004   9.605  1.00  0.00     0.000 C 
BRANCH  21  22
ATOM     22  C   UNL     1      63.387  30.512   9.627  1.00  0.00    -0.000 C 
BRANCH  22  23
ATOM     23  C   UNL     1      64.124  30.980  10.898  1.00  0.00    -0.000 C 
BRANCH  23  24
ATOM     24  C   UNL     1      63.315  32.021  11.697  1.00  0.00    -0.000 C 
BRANCH  24  25
ATOM     25  C   UNL     1      61.828  31.629  11.834  1.00  0.00    -0.000 C 
BRANCH  25  26
ATOM     26  C   UNL     1      60.985  32.637  12.637  1.00  0.00    -0.000 C 
BRANCH  26  27
ATOM     27  C   UNL     1      59.886  31.968  13.478  1.00  0.00    -0.000 C 
BRANCH  27  28
ATOM     28  C   UNL     1      59.853  32.477  14.933  1.00  0.00    -0.000 C 
BRANCH  28  29
ATOM     29  C   UNL     1      60.682  33.750  15.191  1.00  0.00    -0.003 C 
ATOM     30  C   UNL     1      60.806  34.097  16.675  1.00  0.00     0.004 C 
ENDBRANCH  28  29
ENDBRANCH  27  28
ENDBRANCH  26  27
ENDBRANCH  25  26
ENDBRANCH  24  25
ENDBRANCH  23  24
ENDBRANCH  22  23
ENDBRANCH  21  22
ENDBRANCH  20  21
ENDBRANCH  19  20
ENDBRANCH  18  19
ENDBRANCH  17  18
ENDBRANCH   1  17
TORSDOF 26
ENDMDL
MODEL 2
REMARK VINA RESULT:    -4.129      6.338     10.933
REMARK INTER + INTRA:         -14.749
REMARK INTER:                 -11.665
REMARK INTRA:                  -3.084
REMARK UNBOUND:                -4.344
REMARK SMILES CCCCCCCCCCCCCCCCCCCCCCCCCCCC(=O)[O-]
REMARK SMILES IDX 15 1 16 2 17 3 18 4 19 5 20 6 21 7 22 8 23 9 24 10 25 11
REMARK SMILES IDX 26 12 27 13 28 14 29 15 30 16 14 17 13 18 12 19 11 20 10 21
REMARK SMILES IDX 9 22 8 23 7 24 6 25 5 26 4 27 3 28 2 29 1 30
REMARK H PARENT
REMARK Flexibility Score: inf
ROOT
ATOM      1  C   UNL     1      65.254  29.830  25.535  1.00  0.00     0.000 C 
ENDROOT
BRANCH   1   2
ATOM      2  C   UNL     1      64.654  29.617  26.935  1.00  0.00     0.000 C 
BRANCH   2   3
ATOM      3  C   UNL     1      63.295  30.327  27.110  1.00  0.00     0.000 C 
BRANCH   3   4
ATOM      4  C   UNL     1      62.875  30.524  28.578  1.00  0.00     0.000 C 
BRANCH   4   5
ATOM      5  C   UNL     1      61.870  29.466  29.063  1.00  0.00     0.000 C 
BRANCH   5   6
ATOM      6  C   UNL     1      61.177  28.731  27.906  1.00  0.00     0.000 C 
BRANCH   6   7
ATOM      7  C   UNL     1      61.426  27.212  27.944  1.00  0.00     0.000 C 
BRANCH   7   8
ATOM      8  C   UNL     1      62.392  26.739  26.846  1.00  0.00     0.000 C 
BRANCH   8   9
ATOM      9  C   UNL     1      62.051  27.235  25.427  1.00  0.00     0.000 C 
BRANCH   9  10
ATOM     10  C   UNL     1      63.071  26.799  24.352  1.00  0.00     0.000 C 
BRANCH  10  11
ATOM     11  C   UNL     1      64.283  26.082  24.964  1.00  0.00     0.000 C 
BRANCH  11  12
ATOM     12  C   UNL     1      65.430  25.958  23.955  1.00  0.00     0.006 C 
BRANCH  12  13
ATOM     13  C   UNL     1      65.402  27.121  22.961  1.00  0.00     0.053 C 
BRANCH  13  14
ATOM     14  C   UNL     1      66.248  26.815  21.766  1.00  0.00     0.041 C 
ATOM     15  O   UNL     1      66.858  27.740  21.169  1.00  0.00    -0.550 OA
ATOM     16  O   UNL     1      66.380  25.504  21.322  1.00  0.00    -0.550 OA
ENDBRANCH  13  14
ENDBRANCH  12  13
ENDBRANCH  11  12
ENDBRANCH  10  11
ENDBRANCH   9  10
ENDBRANCH   8   9
ENDBRANCH   7   8
ENDBRANCH   6   7
ENDBRANCH   5   6
ENDBRANCH   4   5
ENDBRANCH   3   4
ENDBRANCH   2   3
ENDBRANCH   1   2
BRANCH   1  17
ATOM     17  C   UNL     1      64.193  30.331  24.543  1.00  0.00     0.000 C 
BRANCH  17  18
ATOM     18  C   UNL     1      64.789  31.161  23.389  1.00  0.00     0.000 C 
BRANCH  18  19
ATOM     19  C   UNL     1      66.269  30.871  23.072  1.00  0.00     0.000 C 
BRANCH  19  20
ATOM     20  C   UNL     1      66.954  32.007  22.299  1.00  0.00     0.000 C 
BRANCH  20  21
ATOM     21  C   UNL     1      65.927  32.842  21.525  1.00  0.00     0.000 C 
BRANCH  21  22
ATOM     22  C   UNL     1      66.558  33.685  20.402  1.00  0.00    -0.000 C 
BRANCH  22  23
ATOM     23  C   UNL     1      65.820  33.579  19.052  1.00  0.00    -0.000 C 
BRANCH  23  24
ATOM     24  C   UNL     1      65.641  34.950  18.371  1.00  0.00    -0.000 C 
BRANCH  24  25
ATOM     25  C   UNL     1      64.327  35.039  17.566  1.00  0.00    -0.000 C 
BRANCH  25  26
ATOM     26  C   UNL     1      63.321  33.916  17.884  1.00  0.00    -0.000 C 
BRANCH  26  27
ATOM     27  C   UNL     1      61.961  34.114  17.195  1.00  0.00    -0.000 C 
BRANCH  27  28
ATOM     28  C   UNL     1      61.913  33.506  15.779  1.00  0.00    -0.000 C 
BRANCH  28  29
ATOM     29  C   UNL     1      60.496  33.333  15.199  1.00  0.00    -0.003 C 
ATOM     30  C   UNL     1      60.492  33.014  13.703  1.00  0.00     0.004 C 
ENDBRANCH  28  29
ENDBRANCH  27  28
ENDBRANCH  26  27
ENDBRANCH  25  26
ENDBRANCH  24  25
ENDBRANCH  23  24
ENDBRANCH  22  23
ENDBRANCH  21  22
ENDBRANCH  20  21
ENDBRANCH  19  20
ENDBRANCH  18  19
ENDBRANCH  17  18
ENDBRANCH   1  17
TORSDOF 26
ENDMDL
MODEL 3
REMARK VINA RESULT:    -4.094      6.259     11.783
REMARK INTER + INTRA:         -14.661
REMARK INTER:                 -11.785
REMARK INTRA:                  -2.876
REMARK UNBOUND:                -4.344
REMARK SMILES CCCCCCCCCCCCCCCCCCCCCCCCCCCC(=O)[O-]
REMARK SMILES IDX 15 1 16 2 17 3 18 4 19 5 20 6 21 7 22 8 23 9 24 10 25 11
REMARK SMILES IDX 26 12 27 13 28 14 29 15 30 16 14 17 13 18 12 19 11 20 10 21
REMARK SMILES IDX 9 22 8 23 7 24 6 25 5 26 4 27 3 28 2 29 1 30
REMARK H PARENT
REMARK Flexibility Score: inf
ROOT
ATOM      1  C   UNL     1      66.264  29.573  26.071  1.00  0.00     0.000 C 
ENDROOT
BRANCH   1   2
ATOM      2  C   UNL     1      66.570  29.456  24.569  1.00  0.00     0.000 C 
BRANCH   2   3
ATOM      3  C   UNL     1      65.793  30.489  23.725  1.00  0.00     0.000 C 
BRANCH   3   4
ATOM      4  C   UNL     1      66.422  30.775  22.350  1.00  0.00     0.000 C 
BRANCH   4   5
ATOM      5  C   UNL     1      66.799  32.253  22.156  1.00  0.00     0.000 C 
BRANCH   5   6
ATOM      6  C   UNL     1      66.503  32.759  20.736  1.00  0.00     0.000 C 
BRANCH   6   7
ATOM      7  C   UNL     1      65.678  34.058  20.737  1.00  0.00     0.000 C 
BRANCH   7   8
ATOM      8  C   UNL     1      64.302  33.891  20.070  1.00  0.00     0.000 C 
BRANCH   8   9
ATOM      9  C   UNL     1      64.313  33.993  18.532  1.00  0.00     0.000 C 
BRANCH   9  10
ATOM     10  C   UNL     1      62.920  34.241  17.914  1.00  0.00     0.000 C 
BRANCH  10  11
ATOM     11  C   UNL     1      62.837  33.750  16.461  1.00  0.00     0.000 C 
BRANCH  11  12
ATOM     12  C   UNL     1      61.390  33.723  15.959  1.00  0.00     0.006 C 
BRANCH  12  13
ATOM     13  C   UNL     1      61.300  32.998  14.613  1.00  0.00     0.053 C 
BRANCH  13  14
ATOM     14  C   UNL     1      60.423  31.792  14.721  1.00  0.00     0.041 C 
ATOM     15  O   UNL     1      60.839  30.757  15.303  1.00  0.00    -0.550 OA
ATOM     16  O   UNL     1      59.137  31.815  14.193  1.00  0.00    -0.550 OA
ENDBRANCH  13  14
ENDBRANCH  12  13
ENDBRANCH  11  12
ENDBRANCH  10  11
ENDBRANCH   9  10
ENDBRANCH   8   9
ENDBRANCH   7   8
ENDBRANCH   6   7
ENDBRANCH   5   6
ENDBRANCH   4   5
ENDBRANCH   3   4
ENDBRANCH   2   3
ENDBRANCH   1   2
BRANCH   1  17
ATOM     17  C   UNL     1      64.871  30.174  26.312  1.00  0.00     0.000 C 
BRANCH  17  18
ATOM     18  C   UNL     1      64.273  29.785  27.679  1.00  0.00     0.000 C 
BRANCH  18  19
ATOM     19  C   UNL     1      62.877  30.367  27.972  1.00  0.00     0.000 C 
BRANCH  19  20
ATOM     20  C   UNL     1      61.795  29.289  28.130  1.00  0.00     0.000 C 
BRANCH  20  21
ATOM     21  C   UNL     1      62.403  27.883  28.043  1.00  0.00     0.000 C 
BRANCH  21  22
ATOM     22  C   UNL     1      61.905  27.084  26.825  1.00  0.00    -0.000 C 
BRANCH  22  23
ATOM     23  C   UNL     1      60.775  27.782  26.041  1.00  0.00    -0.000 C 
BRANCH  23  24
ATOM     24  C   UNL     1      61.183  28.115  24.592  1.00  0.00    -0.000 C 
BRANCH  24  25
ATOM     25  C   UNL     1      62.712  28.256  24.431  1.00  0.00    -0.000 C 
BRANCH  25  26
ATOM     26  C   UNL     1      63.319  27.324  23.366  1.00  0.00    -0.000 C 
BRANCH  26  27
ATOM     27  C   UNL     1      64.208  26.224  23.967  1.00  0.00    -0.000 C 
BRANCH  27  28
ATOM     28  C   UNL     1      65.617  26.184  23.341  1.00  0.00    -0.000 C 
BRANCH  28  29
ATOM     29  C   UNL     1      65.724  26.843  21.952  1.00  0.00    -0.003 C 
ATOM     30  C   UNL     1      66.402  25.949  20.912  1.00  0.00     0.004 C 
ENDBRANCH  28  29
ENDBRANCH  27  28
ENDBRANCH  26  27
ENDBRANCH  25  26
ENDBRANCH  24  25
ENDBRANCH  23  24
ENDBRANCH  22  23
ENDBRANCH  21  22
ENDBRANCH  20  21
ENDBRANCH  19  20
ENDBRANCH  18  19
ENDBRANCH  17  18
ENDBRANCH   1  17
TORSDOF 26
ENDMDL
MODEL 4
REMARK VINA RESULT:    -4.092      5.535     11.133
REMARK INTER + INTRA:         -14.654
REMARK INTER:                 -11.577
REMARK INTRA:                  -3.077
REMARK UNBOUND:                -4.344
REMARK SMILES CCCCCCCCCCCCCCCCCCCCCCCCCCCC(=O)[O-]
REMARK SMILES IDX 15 1 16 2 17 3 18 4 19 5 20 6 21 7 22 8 23 9 24 10 25 11
REMARK SMILES IDX 26 12 27 13 28 14 29 15 30 16 14 17 13 18 12 19 11 20 10 21
REMARK SMILES IDX 9 22 8 23 7 24 6 25 5 26 4 27 3 28 2 29 1 30
REMARK H PARENT
REMARK Flexibility Score: inf
ROOT
ATOM      1  C   UNL     1      64.407  32.506  22.627  1.00  0.00     0.000 C 
ENDROOT
BRANCH   1   2
ATOM      2  C   UNL     1      63.796  33.484  21.610  1.00  0.00     0.000 C 
BRANCH   2   3
ATOM      3  C   UNL     1      64.765  33.826  20.459  1.00  0.00     0.000 C 
BRANCH   3   4
ATOM      4  C   UNL     1      64.066  34.192  19.139  1.00  0.00     0.000 C 
BRANCH   4   5
ATOM      5  C   UNL     1      62.573  33.820  19.123  1.00  0.00     0.000 C 
BRANCH   5   6
ATOM      6  C   UNL     1      61.938  33.974  17.733  1.00  0.00     0.000 C 
BRANCH   6   7
ATOM      7  C   UNL     1      62.941  33.703  16.597  1.00  0.00     0.000 C 
BRANCH   7   8
ATOM      8  C   UNL     1      62.299  32.995  15.393  1.00  0.00     0.000 C 
BRANCH   8   9
ATOM      9  C   UNL     1      60.764  33.110  15.317  1.00  0.00     0.000 C 
BRANCH   9  10
ATOM     10  C   UNL     1      60.090  31.959  14.539  1.00  0.00     0.000 C 
BRANCH  10  11
ATOM     11  C   UNL     1      60.197  32.149  13.020  1.00  0.00     0.000 C 
BRANCH  11  12
ATOM     12  C   UNL     1      60.953  30.991  12.361  1.00  0.00     0.006 C 
BRANCH  12  13
ATOM     13  C   UNL     1      60.571  29.659  13.011  1.00  0.00     0.053 C 
BRANCH  13  14
ATOM     14  C   UNL     1      59.553  28.940  12.183  1.00  0.00     0.041 C 
ATOM     15  O   UNL     1      58.791  28.092  12.714  1.00  0.00    -0.550 OA
ATOM     16  O   UNL     1      59.433  29.221  10.827  1.00  0.00    -0.550 OA
ENDBRANCH  13  14
ENDBRANCH  12  13
ENDBRANCH  11  12
ENDBRANCH  10  11
ENDBRANCH   9  10
ENDBRANCH   8   9
ENDBRANCH   7   8
ENDBRANCH   6   7
ENDBRANCH   5   6
ENDBRANCH   4   5
ENDBRANCH   3   4
ENDBRANCH   2   3
ENDBRANCH   1   2
BRANCH   1  17
ATOM     17  C   UNL     1      65.911  32.311  22.377  1.00  0.00     0.000 C 
BRANCH  17  18
ATOM     18  C   UNL     1      66.369  30.850  22.562  1.00  0.00     0.000 C 
BRANCH  18  19
ATOM     19  C   UNL     1      66.920  30.510  23.960  1.00  0.00     0.000 C 
BRANCH  19  20
ATOM     20  C   UNL     1      66.727  29.035  24.341  1.00  0.00     0.000 C 
BRANCH  20  21
ATOM     21  C   UNL     1      66.189  28.227  23.154  1.00  0.00     0.000 C 
BRANCH  21  22
ATOM     22  C   UNL     1      65.091  27.225  23.554  1.00  0.00    -0.000 C 
BRANCH  22  23
ATOM     23  C   UNL     1      65.218  26.703  24.999  1.00  0.00    -0.000 C 
BRANCH  23  24
ATOM     24  C   UNL     1      63.864  26.258  25.585  1.00  0.00    -0.000 C 
BRANCH  24  25
ATOM     25  C   UNL     1      62.667  26.789  24.767  1.00  0.00    -0.000 C 
BRANCH  25  26
ATOM     26  C   UNL     1      61.466  27.227  25.625  1.00  0.00    -0.000 C 
BRANCH  26  27
ATOM     27  C   UNL     1      61.454  28.737  25.917  1.00  0.00    -0.000 C 
BRANCH  27  28
ATOM     28  C   UNL     1      62.140  29.565  24.812  1.00  0.00    -0.000 C 
BRANCH  28  29
ATOM     29  C   UNL     1      63.392  30.339  25.269  1.00  0.00    -0.003 C 
ATOM     30  C   UNL     1      63.854  29.959  26.677  1.00  0.00     0.004 C 
ENDBRANCH  28  29
ENDBRANCH  27  28
ENDBRANCH  26  27
ENDBRANCH  25  26
ENDBRANCH  24  25
ENDBRANCH  23  24
ENDBRANCH  22  23
ENDBRANCH  21  22
ENDBRANCH  20  21
ENDBRANCH  19  20
ENDBRANCH  18  19
ENDBRANCH  17  18
ENDBRANCH   1  17
TORSDOF 26
ENDMDL
MODEL 5
REMARK VINA RESULT:    -4.051      6.703     11.688
REMARK INTER + INTRA:         -14.551
REMARK INTER:                 -11.126
REMARK INTRA:                  -3.425
REMARK UNBOUND:                -4.344
REMARK SMILES CCCCCCCCCCCCCCCCCCCCCCCCCCCC(=O)[O-]
REMARK SMILES IDX 15 1 16 2 17 3 18 4 19 5 20 6 21 7 22 8 23 9 24 10 25 11
REMARK SMILES IDX 26 12 27 13 28 14 29 15 30 16 14 17 13 18 12 19 11 20 10 21
REMARK SMILES IDX 9 22 8 23 7 24 6 25 5 26 4 27 3 28 2 29 1 30
REMARK H PARENT
REMARK Flexibility Score: inf
ROOT
ATOM      1  C   UNL     1      63.303  30.489  28.012  1.00  0.00     0.000 C 
ENDROOT
BRANCH   1   2
ATOM      2  C   UNL     1      64.470  30.447  27.011  1.00  0.00     0.000 C 
BRANCH   2   3
ATOM      3  C   UNL     1      64.834  29.009  26.586  1.00  0.00     0.000 C 
BRANCH   3   4
ATOM      4  C   UNL     1      66.075  28.918  25.681  1.00  0.00     0.000 C 
BRANCH   4   5
ATOM      5  C   UNL     1      66.355  30.219  24.910  1.00  0.00     0.000 C 
BRANCH   5   6
ATOM      6  C   UNL     1      65.733  30.221  23.506  1.00  0.00     0.000 C 
BRANCH   6   7
ATOM      7  C   UNL     1      66.751  30.591  22.413  1.00  0.00     0.000 C 
BRANCH   7   8
ATOM      8  C   UNL     1      67.080  32.093  22.388  1.00  0.00     0.000 C 
BRANCH   8   9
ATOM      9  C   UNL     1      66.203  32.931  21.437  1.00  0.00     0.000 C 
BRANCH   9  10
ATOM     10  C   UNL     1      66.925  33.367  20.144  1.00  0.00     0.000 C 
BRANCH  10  11
ATOM     11  C   UNL     1      66.038  33.196  18.903  1.00  0.00     0.000 C 
BRANCH  11  12
ATOM     12  C   UNL     1      66.232  34.347  17.911  1.00  0.00     0.006 C 
BRANCH  12  13
ATOM     13  C   UNL     1      65.043  35.310  17.964  1.00  0.00     0.053 C 
BRANCH  13  14
ATOM     14  C   UNL     1      63.808  34.655  17.432  1.00  0.00     0.041 C 
ATOM     15  O   UNL     1      62.682  34.946  17.909  1.00  0.00    -0.550 OA
ATOM     16  O   UNL     1      63.900  33.735  16.394  1.00  0.00    -0.550 OA
ENDBRANCH  13  14
ENDBRANCH  12  13
ENDBRANCH  11  12
ENDBRANCH  10  11
ENDBRANCH   9  10
ENDBRANCH   8   9
ENDBRANCH   7   8
ENDBRANCH   6   7
ENDBRANCH   5   6
ENDBRANCH   4   5
ENDBRANCH   3   4
ENDBRANCH   2   3
ENDBRANCH   1   2
BRANCH   1  17
ATOM     17  C   UNL     1      63.006  29.093  28.581  1.00  0.00     0.000 C 
BRANCH  17  18
ATOM     18  C   UNL     1      61.498  28.779  28.654  1.00  0.00     0.000 C 
BRANCH  18  19
ATOM     19  C   UNL     1      61.107  27.351  28.231  1.00  0.00     0.000 C 
BRANCH  19  20
ATOM     20  C   UNL     1      61.634  26.968  26.841  1.00  0.00     0.000 C 
BRANCH  20  21
ATOM     21  C   UNL     1      60.537  27.112  25.778  1.00  0.00     0.000 C 
BRANCH  21  22
ATOM     22  C   UNL     1      60.916  28.088  24.649  1.00  0.00    -0.000 C 
BRANCH  22  23
ATOM     23  C   UNL     1      62.428  28.373  24.551  1.00  0.00    -0.000 C 
BRANCH  23  24
ATOM     24  C   UNL     1      62.973  28.170  23.123  1.00  0.00    -0.000 C 
BRANCH  24  25
ATOM     25  C   UNL     1      63.047  26.679  22.730  1.00  0.00    -0.000 C 
BRANCH  25  26
ATOM     26  C   UNL     1      63.756  25.791  23.769  1.00  0.00    -0.000 C 
BRANCH  26  27
ATOM     27  C   UNL     1      65.273  26.032  23.831  1.00  0.00    -0.000 C 
BRANCH  27  28
ATOM     28  C   UNL     1      66.011  25.529  22.575  1.00  0.00    -0.000 C 
BRANCH  28  29
ATOM     29  C   UNL     1      66.621  26.640  21.697  1.00  0.00    -0.003 C 
ATOM     30  C   UNL     1      65.951  26.761  20.327  1.00  0.00     0.004 C 
ENDBRANCH  28  29
ENDBRANCH  27  28
ENDBRANCH  26  27
ENDBRANCH  25  26
ENDBRANCH  24  25
ENDBRANCH  23  24
ENDBRANCH  22  23
ENDBRANCH  21  22
ENDBRANCH  20  21
ENDBRANCH  19  20
ENDBRANCH  18  19
ENDBRANCH  17  18
ENDBRANCH   1  17
TORSDOF 26
ENDMDL
MODEL 6
REMARK VINA RESULT:    -4.044      5.527     11.328
REMARK INTER + INTRA:         -14.536
REMARK INTER:                 -11.637
REMARK INTRA:                  -2.899
REMARK UNBOUND:                -4.344
REMARK SMILES CCCCCCCCCCCCCCCCCCCCCCCCCCCC(=O)[O-]
REMARK SMILES IDX 15 1 16 2 17 3 18 4 19 5 20 6 21 7 22 8 23 9 24 10 25 11
REMARK SMILES IDX 26 12 27 13 28 14 29 15 30 16 14 17 13 18 12 19 11 20 10 21
REMARK SMILES IDX 9 22 8 23 7 24 6 25 5 26 4 27 3 28 2 29 1 30
REMARK H PARENT
REMARK Flexibility Score: inf
ROOT
ATOM      1  C   UNL     1      65.037  32.770  21.981  1.00  0.00     0.000 C 
ENDROOT
BRANCH   1   2
ATOM      2  C   UNL     1      64.601  33.874  21.004  1.00  0.00     0.000 C 
BRANCH   2   3
ATOM      3  C   UNL     1      65.600  34.066  19.843  1.00  0.00     0.000 C 
BRANCH   3   4
ATOM      4  C   UNL     1      64.946  34.498  18.519  1.00  0.00     0.000 C 
BRANCH   4   5
ATOM      5  C   UNL     1      63.568  33.854  18.288  1.00  0.00     0.000 C 
BRANCH   5   6
ATOM      6  C   UNL     1      63.176  33.810  16.804  1.00  0.00     0.000 C 
BRANCH   6   7
ATOM      7  C   UNL     1      61.733  33.319  16.593  1.00  0.00     0.000 C 
BRANCH   7   8
ATOM      8  C   UNL     1      61.547  32.570  15.263  1.00  0.00     0.000 C 
BRANCH   8   9
ATOM      9  C   UNL     1      60.338  33.031  14.425  1.00  0.00     0.000 C 
BRANCH   9  10
ATOM     10  C   UNL     1      60.338  32.488  12.980  1.00  0.00     0.000 C 
BRANCH  10  11
ATOM     11  C   UNL     1      61.643  31.755  12.639  1.00  0.00     0.000 C 
BRANCH  11  12
ATOM     12  C   UNL     1      61.369  30.379  12.022  1.00  0.00     0.006 C 
BRANCH  12  13
ATOM     13  C   UNL     1      60.581  29.499  12.995  1.00  0.00     0.053 C 
BRANCH  13  14
ATOM     14  C   UNL     1      59.560  28.686  12.263  1.00  0.00     0.041 C 
ATOM     15  O   UNL     1      58.845  27.860  12.886  1.00  0.00    -0.550 OA
ATOM     16  O   UNL     1      59.386  28.854  10.894  1.00  0.00    -0.550 OA
ENDBRANCH  13  14
ENDBRANCH  12  13
ENDBRANCH  11  12
ENDBRANCH  10  11
ENDBRANCH   9  10
ENDBRANCH   8   9
ENDBRANCH   7   8
ENDBRANCH   6   7
ENDBRANCH   5   6
ENDBRANCH   4   5
ENDBRANCH   3   4
ENDBRANCH   2   3
ENDBRANCH   1   2
BRANCH   1  17
ATOM     17  C   UNL     1      66.564  32.597  21.982  1.00  0.00     0.000 C 
BRANCH  17  18
ATOM     18  C   UNL     1      67.032  31.360  22.775  1.00  0.00     0.000 C 
BRANCH  18  19
ATOM     19  C   UNL     1      65.938  30.312  23.056  1.00  0.00     0.000 C 
BRANCH  19  20
ATOM     20  C   UNL     1      65.928  29.827  24.513  1.00  0.00     0.000 C 
BRANCH  20  21
ATOM     21  C   UNL     1      64.571  30.100  25.174  1.00  0.00     0.000 C 
BRANCH  21  22
ATOM     22  C   UNL     1      63.398  30.070  24.178  1.00  0.00    -0.000 C 
BRANCH  22  23
ATOM     23  C   UNL     1      62.214  29.194  24.634  1.00  0.00    -0.000 C 
BRANCH  23  24
ATOM     24  C   UNL     1      62.198  28.974  26.160  1.00  0.00    -0.000 C 
BRANCH  24  25
ATOM     25  C   UNL     1      62.332  27.483  26.539  1.00  0.00    -0.000 C 
BRANCH  25  26
ATOM     26  C   UNL     1      62.971  26.612  25.442  1.00  0.00    -0.000 C 
BRANCH  26  27
ATOM     27  C   UNL     1      64.471  26.363  25.669  1.00  0.00    -0.000 C 
BRANCH  27  28
ATOM     28  C   UNL     1      65.221  26.004  24.371  1.00  0.00    -0.000 C 
BRANCH  28  29
ATOM     29  C   UNL     1      64.352  26.015  23.099  1.00  0.00    -0.003 C 
ATOM     30  C   UNL     1      64.887  26.950  22.012  1.00  0.00     0.004 C 
ENDBRANCH  28  29
ENDBRANCH  27  28
ENDBRANCH  26  27
ENDBRANCH  25  26
ENDBRANCH  24  25
ENDBRANCH  23  24
ENDBRANCH  22  23
ENDBRANCH  21  22
ENDBRANCH  20  21
ENDBRANCH  19  20
ENDBRANCH  18  19
ENDBRANCH  17  18
ENDBRANCH   1  17
TORSDOF 26
ENDMDL
MODEL 7
REMARK VINA RESULT:    -4.034      6.088     11.510
REMARK INTER + INTRA:         -14.510
REMARK INTER:                 -12.140
REMARK INTRA:                  -2.370
REMARK UNBOUND:                -4.344
REMARK SMILES CCCCCCCCCCCCCCCCCCCCCCCCCCCC(=O)[O-]
REMARK SMILES IDX 15 1 16 2 17 3 18 4 19 5 20 6 21 7 22 8 23 9 24 10 25 11
REMARK SMILES IDX 26 12 27 13 28 14 29 15 30 16 14 17 13 18 12 19 11 20 10 21
REMARK SMILES IDX 9 22 8 23 7 24 6 25 5 26 4 27 3 28 2 29 1 30
REMARK H PARENT
REMARK Flexibility Score: inf
ROOT
ATOM      1  C   UNL     1      66.016  31.171  22.751  1.00  0.00     0.000 C 
ENDROOT
BRANCH   1   2
ATOM      2  C   UNL     1      66.914  32.310  22.244  1.00  0.00     0.000 C 
BRANCH   2   3
ATOM      3  C   UNL     1      66.525  32.787  20.829  1.00  0.00     0.000 C 
BRANCH   3   4
ATOM      4  C   UNL     1      65.367  33.800  20.805  1.00  0.00     0.000 C 
BRANCH   4   5
ATOM      5  C   UNL     1      65.221  34.516  19.451  1.00  0.00     0.000 C 
BRANCH   5   6
ATOM      6  C   UNL     1      64.576  33.627  18.377  1.00  0.00     0.000 C 
BRANCH   6   7
ATOM      7  C   UNL     1      63.593  34.405  17.485  1.00  0.00     0.000 C 
BRANCH   7   8
ATOM      8  C   UNL     1      62.122  34.132  17.842  1.00  0.00     0.000 C 
BRANCH   8   9
ATOM      9  C   UNL     1      61.157  34.115  16.640  1.00  0.00     0.000 C 
BRANCH   9  10
ATOM     10  C   UNL     1      61.611  33.190  15.489  1.00  0.00     0.000 C 
BRANCH  10  11
ATOM     11  C   UNL     1      60.522  32.183  15.095  1.00  0.00     0.000 C 
BRANCH  11  12
ATOM     12  C   UNL     1      60.135  32.323  13.619  1.00  0.00     0.006 C 
BRANCH  12  13
ATOM     13  C   UNL     1      61.324  31.988  12.715  1.00  0.00     0.053 C 
BRANCH  13  14
ATOM     14  C   UNL     1      61.164  30.627  12.115  1.00  0.00     0.041 C 
ATOM     15  O   UNL     1      60.183  30.377  11.368  1.00  0.00    -0.550 OA
ATOM     16  O   UNL     1      62.109  29.639  12.366  1.00  0.00    -0.550 OA
ENDBRANCH  13  14
ENDBRANCH  12  13
ENDBRANCH  11  12
ENDBRANCH  10  11
ENDBRANCH   9  10
ENDBRANCH   8   9
ENDBRANCH   7   8
ENDBRANCH   6   7
ENDBRANCH   5   6
ENDBRANCH   4   5
ENDBRANCH   3   4
ENDBRANCH   2   3
ENDBRANCH   1   2
BRANCH   1  17
ATOM     17  C   UNL     1      66.783  29.840  22.811  1.00  0.00     0.000 C 
BRANCH  17  18
ATOM     18  C   UNL     1      66.045  28.754  23.620  1.00  0.00     0.000 C 
BRANCH  18  19
ATOM     19  C   UNL     1      65.783  27.439  22.862  1.00  0.00     0.000 C 
BRANCH  19  20
ATOM     20  C   UNL     1      65.390  26.278  23.786  1.00  0.00     0.000 C 
BRANCH  20  21
ATOM     21  C   UNL     1      64.926  26.797  25.153  1.00  0.00     0.000 C 
BRANCH  21  22
ATOM     22  C   UNL     1      63.456  26.458  25.459  1.00  0.00    -0.000 C 
BRANCH  22  23
ATOM     23  C   UNL     1      62.441  27.335  24.699  1.00  0.00    -0.000 C 
BRANCH  23  24
ATOM     24  C   UNL     1      61.115  27.500  25.466  1.00  0.00    -0.000 C 
BRANCH  24  25
ATOM     25  C   UNL     1      61.250  27.128  26.958  1.00  0.00    -0.000 C 
BRANCH  25  26
ATOM     26  C   UNL     1      61.200  28.335  27.912  1.00  0.00    -0.000 C 
BRANCH  26  27
ATOM     27  C   UNL     1      62.594  28.806  28.359  1.00  0.00    -0.000 C 
BRANCH  27  28
ATOM     28  C   UNL     1      62.964  30.194  27.800  1.00  0.00    -0.000 C 
BRANCH  28  29
ATOM     29  C   UNL     1      63.908  30.169  26.582  1.00  0.00    -0.003 C 
ATOM     30  C   UNL     1      65.381  30.012  26.965  1.00  0.00     0.004 C 
ENDBRANCH  28  29
ENDBRANCH  27  28
ENDBRANCH  26  27
ENDBRANCH  25  26
ENDBRANCH  24  25
ENDBRANCH  23  24
ENDBRANCH  22  23
ENDBRANCH  21  22
ENDBRANCH  20  21
ENDBRANCH  19  20
ENDBRANCH  18  19
ENDBRANCH  17  18
ENDBRANCH   1  17
TORSDOF 26
ENDMDL
MODEL 8
REMARK VINA RESULT:    -4.022      5.594     11.490
REMARK INTER + INTRA:         -14.479
REMARK INTER:                 -11.931
REMARK INTRA:                  -2.548
REMARK UNBOUND:                -4.344
REMARK SMILES CCCCCCCCCCCCCCCCCCCCCCCCCCCC(=O)[O-]
REMARK SMILES IDX 15 1 16 2 17 3 18 4 19 5 20 6 21 7 22 8 23 9 24 10 25 11
REMARK SMILES IDX 26 12 27 13 28 14 29 15 30 16 14 17 13 18 12 19 11 20 10 21
REMARK SMILES IDX 9 22 8 23 7 24 6 25 5 26 4 27 3 28 2 29 1 30
REMARK H PARENT
REMARK Flexibility Score: inf
ROOT
ATOM      1  C   UNL     1      65.852  32.619  22.018  1.00  0.00     0.000 C 
ENDROOT
BRANCH   1   2
ATOM      2  C   UNL     1      66.311  33.328  20.734  1.00  0.00     0.000 C 
BRANCH   2   3
ATOM      3  C   UNL     1      65.237  34.281  20.167  1.00  0.00     0.000 C 
BRANCH   3   4
ATOM      4  C   UNL     1      65.704  35.098  18.950  1.00  0.00     0.000 C 
BRANCH   4   5
ATOM      5  C   UNL     1      64.782  34.941  17.729  1.00  0.00     0.000 C 
BRANCH   5   6
ATOM      6  C   UNL     1      63.762  33.805  17.899  1.00  0.00     0.000 C 
BRANCH   6   7
ATOM      7  C   UNL     1      62.363  34.191  17.387  1.00  0.00     0.000 C 
BRANCH   7   8
ATOM      8  C   UNL     1      62.055  33.607  15.998  1.00  0.00     0.000 C 
BRANCH   8   9
ATOM      9  C   UNL     1      60.608  33.823  15.512  1.00  0.00     0.000 C 
BRANCH   9  10
ATOM     10  C   UNL     1      60.282  33.105  14.185  1.00  0.00     0.000 C 
BRANCH  10  11
ATOM     11  C   UNL     1      60.665  31.619  14.224  1.00  0.00     0.000 C 
BRANCH  11  12
ATOM     12  C   UNL     1      59.990  30.835  13.093  1.00  0.00     0.006 C 
BRANCH  12  13
ATOM     13  C   UNL     1      61.001  30.498  11.994  1.00  0.00     0.053 C 
BRANCH  13  14
ATOM     14  C   UNL     1      61.284  29.029  11.970  1.00  0.00     0.041 C 
ATOM     15  O   UNL     1      61.320  28.410  10.876  1.00  0.00    -0.550 OA
ATOM     16  O   UNL     1      61.527  28.347  13.156  1.00  0.00    -0.550 OA
ENDBRANCH  13  14
ENDBRANCH  12  13
ENDBRANCH  11  12
ENDBRANCH  10  11
ENDBRANCH   9  10
ENDBRANCH   8   9
ENDBRANCH   7   8
ENDBRANCH   6   7
ENDBRANCH   5   6
ENDBRANCH   4   5
ENDBRANCH   3   4
ENDBRANCH   2   3
ENDBRANCH   1   2
BRANCH   1  17
ATOM     17  C   UNL     1      66.916  31.631  22.520  1.00  0.00     0.000 C 
BRANCH  17  18
ATOM     18  C   UNL     1      66.378  30.195  22.685  1.00  0.00     0.000 C 
BRANCH  18  19
ATOM     19  C   UNL     1      65.449  29.981  23.895  1.00  0.00     0.000 C 
BRANCH  19  20
ATOM     20  C   UNL     1      66.195  29.514  25.153  1.00  0.00     0.000 C 
BRANCH  20  21
ATOM     21  C   UNL     1      65.336  29.717  26.408  1.00  0.00     0.000 C 
BRANCH  21  22
ATOM     22  C   UNL     1      63.937  30.280  26.097  1.00  0.00    -0.000 C 
BRANCH  22  23
ATOM     23  C   UNL     1      62.838  29.786  27.059  1.00  0.00    -0.000 C 
BRANCH  23  24
ATOM     24  C   UNL     1      61.893  28.763  26.398  1.00  0.00    -0.000 C 
BRANCH  24  25
ATOM     25  C   UNL     1      62.052  28.724  24.863  1.00  0.00    -0.000 C 
BRANCH  25  26
ATOM     26  C   UNL     1      62.686  27.425  24.331  1.00  0.00    -0.000 C 
BRANCH  26  27
ATOM     27  C   UNL     1      63.391  26.608  25.426  1.00  0.00    -0.000 C 
BRANCH  27  28
ATOM     28  C   UNL     1      64.808  26.159  25.019  1.00  0.00    -0.000 C 
BRANCH  28  29
ATOM     29  C   UNL     1      64.939  25.680  23.560  1.00  0.00    -0.003 C 
ATOM     30  C   UNL     1      65.942  26.499  22.745  1.00  0.00     0.004 C 
ENDBRANCH  28  29
ENDBRANCH  27  28
ENDBRANCH  26  27
ENDBRANCH  25  26
ENDBRANCH  24  25
ENDBRANCH  23  24
ENDBRANCH  22  23
ENDBRANCH  21  22
ENDBRANCH  20  21
ENDBRANCH  19  20
ENDBRANCH  18  19
ENDBRANCH  17  18
ENDBRANCH   1  17
TORSDOF 26
ENDMDL
MODEL 9
REMARK VINA RESULT:    -4.010      3.897      7.059
REMARK INTER + INTRA:         -14.448
REMARK INTER:                 -12.106
REMARK INTRA:                  -2.342
REMARK UNBOUND:                -4.344
REMARK SMILES CCCCCCCCCCCCCCCCCCCCCCCCCCCC(=O)[O-]
REMARK SMILES IDX 15 1 16 2 17 3 18 4 19 5 20 6 21 7 22 8 23 9 24 10 25 11
REMARK SMILES IDX 26 12 27 13 28 14 29 15 30 16 14 17 13 18 12 19 11 20 10 21
REMARK SMILES IDX 9 22 8 23 7 24 6 25 5 26 4 27 3 28 2 29 1 30
REMARK H PARENT
REMARK Flexibility Score: inf
ROOT
ATOM      1  C   UNL     1      61.545  33.671  18.638  1.00  0.00     0.000 C 
ENDROOT
BRANCH   1   2
ATOM      2  C   UNL     1      62.625  33.846  19.719  1.00  0.00     0.000 C 
BRANCH   2   3
ATOM      3  C   UNL     1      64.053  33.855  19.134  1.00  0.00     0.000 C 
BRANCH   3   4
ATOM      4  C   UNL     1      65.136  34.301  20.131  1.00  0.00     0.000 C 
BRANCH   4   5
ATOM      5  C   UNL     1      66.336  33.340  20.188  1.00  0.00     0.000 C 
BRANCH   5   6
ATOM      6  C   UNL     1      66.761  33.006  21.626  1.00  0.00     0.000 C 
BRANCH   6   7
ATOM      7  C   UNL     1      66.721  31.495  21.913  1.00  0.00     0.000 C 
BRANCH   7   8
ATOM      8  C   UNL     1      65.683  31.118  22.982  1.00  0.00     0.000 C 
BRANCH   8   9
ATOM      9  C   UNL     1      65.465  29.604  23.168  1.00  0.00     0.000 C 
BRANCH   9  10
ATOM     10  C   UNL     1      63.986  29.207  23.369  1.00  0.00     0.000 C 
BRANCH  10  11
ATOM     11  C   UNL     1      63.410  29.772  24.676  1.00  0.00     0.000 C 
BRANCH  11  12
ATOM     12  C   UNL     1      61.954  29.341  24.881  1.00  0.00     0.006 C 
BRANCH  12  13
ATOM     13  C   UNL     1      61.795  27.841  24.618  1.00  0.00     0.053 C 
BRANCH  13  14
ATOM     14  C   UNL     1      62.242  27.046  25.804  1.00  0.00     0.041 C 
ATOM     15  O   UNL     1      63.241  26.287  25.716  1.00  0.00    -0.550 OA
ATOM     16  O   UNL     1      61.566  27.159  27.013  1.00  0.00    -0.550 OA
ENDBRANCH  13  14
ENDBRANCH  12  13
ENDBRANCH  11  12
ENDBRANCH  10  11
ENDBRANCH   9  10
ENDBRANCH   8   9
ENDBRANCH   7   8
ENDBRANCH   6   7
ENDBRANCH   5   6
ENDBRANCH   4   5
ENDBRANCH   3   4
ENDBRANCH   2   3
ENDBRANCH   1   2
BRANCH   1  17
ATOM     17  C   UNL     1      61.964  34.338  17.319  1.00  0.00     0.000 C 
BRANCH  17  18
ATOM     18  C   UNL     1      61.810  33.410  16.097  1.00  0.00     0.000 C 
BRANCH  18  19
ATOM     19  C   UNL     1      60.556  33.663  15.239  1.00  0.00     0.000 C 
BRANCH  19  20
ATOM     20  C   UNL     1      60.389  32.645  14.101  1.00  0.00     0.000 C 
BRANCH  20  21
ATOM     21  C   UNL     1      60.943  31.273  14.506  1.00  0.00     0.000 C 
BRANCH  21  22
ATOM     22  C   UNL     1      62.192  30.866  13.703  1.00  0.00    -0.000 C 
BRANCH  22  23
ATOM     23  C   UNL     1      62.333  31.600  12.355  1.00  0.00    -0.000 C 
BRANCH  23  24
ATOM     24  C   UNL     1      63.290  30.874  11.388  1.00  0.00    -0.000 C 
BRANCH  24  25
ATOM     25  C   UNL     1      63.018  29.356  11.323  1.00  0.00    -0.000 C 
BRANCH  25  26
ATOM     26  C   UNL     1      62.247  28.910  10.067  1.00  0.00    -0.000 C 
BRANCH  26  27
ATOM     27  C   UNL     1      60.920  28.206  10.395  1.00  0.00    -0.000 C 
BRANCH  27  28
ATOM     28  C   UNL     1      59.836  29.177  10.901  1.00  0.00    -0.000 C 
BRANCH  28  29
ATOM     29  C   UNL     1      59.318  28.882  12.323  1.00  0.00    -0.003 C 
ATOM     30  C   UNL     1      60.153  27.835  13.062  1.00  0.00     0.004 C 
ENDBRANCH  28  29
ENDBRANCH  27  28
ENDBRANCH  26  27
ENDBRANCH  25  26
ENDBRANCH  24  25
ENDBRANCH  23  24
ENDBRANCH  22  23
ENDBRANCH  21  22
ENDBRANCH  20  21
ENDBRANCH  19  20
ENDBRANCH  18  19
ENDBRANCH  17  18
ENDBRANCH   1  17
TORSDOF 26
ENDMDL
