MODEL 1
REMARK VINA RESULT:    11.341      0.000      0.000
REMARK INTER + INTRA:          19.853
REMARK INTER:                  20.623
REMARK INTRA:                  -0.770
REMARK UNBOUND:                -0.770
REMARK SMILES CCCCCCCCCCCCCC[C@H](C)C(=O)[O-]
REMARK SMILES IDX 9 1 10 2 11 3 12 4 13 5 14 6 15 7 16 8 17 9 18 10 19 11 8 12
REMARK SMILES IDX 7 13 6 14 5 15 4 16 3 17 2 18 1 19
REMARK H PARENT
REMARK Flexibility Score: inf
ROOT
ATOM      1  C   UNL     1     -33.218  11.970  19.677  1.00  0.00     0.000 C 
ENDROOT
BRANCH   1   2
ATOM      2  C   UNL     1     -32.405  11.986  18.377  1.00  0.00     0.000 C 
BRANCH   2   3
ATOM      3  C   UNL     1     -33.218  12.591  17.226  1.00  0.00     0.000 C 
BRANCH   3   4
ATOM      4  C   UNL     1     -34.013  13.817  17.699  1.00  0.00     0.000 C 
BRANCH   4   5
ATOM      5  C   UNL     1     -35.038  14.294  16.657  1.00  0.00     0.001 C 
BRANCH   5   6
ATOM      6  C   UNL     1     -35.223  15.822  16.665  1.00  0.00     0.009 C 
BRANCH   6   7
ATOM      7  C   UNL     1     -35.748  16.351  18.019  1.00  0.00     0.032 C 
ATOM      8  C   UNL     1     -37.278  16.265  18.122  1.00  0.00     0.014 C 
BRANCH   7   9
ATOM      9  C   UNL     1     -35.302  17.773  18.222  1.00  0.00     0.044 C 
ATOM     10  O   UNL     1     -34.101  18.035  18.492  1.00  0.00    -0.550 OA
ATOM     11  O   UNL     1     -36.221  18.809  18.111  1.00  0.00    -0.550 OA
ENDBRANCH   7   9
ENDBRANCH   6   7
ENDBRANCH   5   6
ENDBRANCH   4   5
ENDBRANCH   3   4
ENDBRANCH   2   3
ENDBRANCH   1   2
BRANCH   1  12
ATOM     12  C   UNL     1     -33.575  10.536  20.086  1.00  0.00     0.000 C 
BRANCH  12  13
ATOM     13  C   UNL     1     -34.271  10.511  21.455  1.00  0.00    -0.000 C 
BRANCH  13  14
ATOM     14  C   UNL     1     -34.012  11.785  22.273  1.00  0.00    -0.000 C 
BRANCH  14  15
ATOM     15  C   UNL     1     -34.714  11.760  23.643  1.00  0.00    -0.000 C 
BRANCH  15  16
ATOM     16  C   UNL     1     -33.912  10.992  24.706  1.00  0.00    -0.000 C 
BRANCH  16  17
ATOM     17  C   UNL     1     -34.816  10.254  25.708  1.00  0.00    -0.000 C 
BRANCH  17  18
ATOM     18  C   UNL     1     -34.107   9.065  26.374  1.00  0.00    -0.003 C 
ATOM     19  C   UNL     1     -32.847   9.478  27.137  1.00  0.00     0.004 C 
ENDBRANCH  17  18
ENDBRANCH  16  17
ENDBRANCH  15  16
ENDBRANCH  14  15
ENDBRANCH  13  14
ENDBRANCH  12  13
ENDBRANCH   1  12
TORSDOF 14
ENDMDL
MODEL 2
REMARK VINA RESULT:    11.635      1.866      2.319
REMARK INTER + INTRA:          20.387
REMARK INTER:                  21.157
REMARK INTRA:                  -0.770
REMARK UNBOUND:                -0.770
REMARK SMILES CCCCCCCCCCCCCC[C@H](C)C(=O)[O-]
REMARK SMILES IDX 9 1 10 2 11 3 12 4 13 5 14 6 15 7 16 8 17 9 18 10 19 11 8 12
REMARK SMILES IDX 7 13 6 14 5 15 4 16 3 17 2 18 1 19
REMARK H PARENT
REMARK Flexibility Score: inf
ROOT
ATOM      1  C   UNL     1     -33.130  11.450  19.081  1.00  0.00     0.000 C 
ENDROOT
BRANCH   1   2
ATOM      2  C   UNL     1     -32.403  12.479  18.207  1.00  0.00     0.000 C 
BRANCH   2   3
ATOM      3  C   UNL     1     -33.001  12.523  16.795  1.00  0.00     0.000 C 
BRANCH   3   4
ATOM      4  C   UNL     1     -34.361  13.237  16.796  1.00  0.00     0.000 C 
BRANCH   4   5
ATOM      5  C   UNL     1     -34.353  14.522  17.640  1.00  0.00     0.001 C 
BRANCH   5   6
ATOM      6  C   UNL     1     -35.345  15.578  17.120  1.00  0.00     0.009 C 
BRANCH   6   7
ATOM      7  C   UNL     1     -35.968  16.419  18.256  1.00  0.00     0.032 C 
ATOM      8  C   UNL     1     -37.502  16.413  18.209  1.00  0.00     0.014 C 
BRANCH   7   9
ATOM      9  C   UNL     1     -35.461  17.834  18.184  1.00  0.00     0.044 C 
ATOM     10  O   UNL     1     -34.229  18.079  18.274  1.00  0.00    -0.550 OA
ATOM     11  O   UNL     1     -36.357  18.883  18.017  1.00  0.00    -0.550 OA
ENDBRANCH   7   9
ENDBRANCH   6   7
ENDBRANCH   5   6
ENDBRANCH   4   5
ENDBRANCH   3   4
ENDBRANCH   2   3
ENDBRANCH   1   2
BRANCH   1  12
ATOM     12  C   UNL     1     -33.815  12.127  20.274  1.00  0.00     0.000 C 
BRANCH  12  13
ATOM     13  C   UNL     1     -34.162  11.102  21.364  1.00  0.00    -0.000 C 
BRANCH  13  14
ATOM     14  C   UNL     1     -34.296   9.674  20.812  1.00  0.00    -0.000 C 
BRANCH  14  15
ATOM     15  C   UNL     1     -33.246   8.713  21.400  1.00  0.00    -0.000 C 
BRANCH  15  16
ATOM     16  C   UNL     1     -33.751   7.979  22.653  1.00  0.00    -0.000 C 
BRANCH  16  17
ATOM     17  C   UNL     1     -34.712   6.826  22.314  1.00  0.00    -0.000 C 
BRANCH  17  18
ATOM     18  C   UNL     1     -35.210   6.089  23.566  1.00  0.00    -0.003 C 
ATOM     19  C   UNL     1     -34.418   6.454  24.823  1.00  0.00     0.004 C 
ENDBRANCH  17  18
ENDBRANCH  16  17
ENDBRANCH  15  16
ENDBRANCH  14  15
ENDBRANCH  13  14
ENDBRANCH  12  13
ENDBRANCH   1  12
TORSDOF 14
ENDMDL
MODEL 3
REMARK VINA RESULT:    12.206      4.080      8.767
REMARK INTER + INTRA:          21.426
REMARK INTER:                  22.235
REMARK INTRA:                  -0.809
REMARK UNBOUND:                -0.770
REMARK SMILES CCCCCCCCCCCCCC[C@H](C)C(=O)[O-]
REMARK SMILES IDX 9 1 10 2 11 3 12 4 13 5 14 6 15 7 16 8 17 9 18 10 19 11 8 12
REMARK SMILES IDX 7 13 6 14 5 15 4 16 3 17 2 18 1 19
REMARK H PARENT
REMARK Flexibility Score: inf
ROOT
ATOM      1  C   UNL     1     -33.388  12.177  19.476  1.00  0.00     0.000 C 
ENDROOT
BRANCH   1   2
ATOM      2  C   UNL     1     -33.272  10.844  20.224  1.00  0.00     0.000 C 
BRANCH   2   3
ATOM      3  C   UNL     1     -34.317  10.747  21.342  1.00  0.00     0.000 C 
BRANCH   3   4
ATOM      4  C   UNL     1     -34.118  11.862  22.379  1.00  0.00     0.000 C 
BRANCH   4   5
ATOM      5  C   UNL     1     -34.737  11.517  23.743  1.00  0.00     0.001 C 
BRANCH   5   6
ATOM      6  C   UNL     1     -33.686  11.073  24.776  1.00  0.00     0.009 C 
BRANCH   6   7
ATOM      7  C   UNL     1     -34.122   9.820  25.568  1.00  0.00     0.032 C 
ATOM      8  C   UNL     1     -35.566   9.929  26.078  1.00  0.00     0.014 C 
BRANCH   7   9
ATOM      9  C   UNL     1     -33.188   9.593  26.725  1.00  0.00     0.044 C 
ATOM     10  O   UNL     1     -32.435  10.518  27.131  1.00  0.00    -0.550 OA
ATOM     11  O   UNL     1     -33.152   8.355  27.353  1.00  0.00    -0.550 OA
ENDBRANCH   7   9
ENDBRANCH   6   7
ENDBRANCH   5   6
ENDBRANCH   4   5
ENDBRANCH   3   4
ENDBRANCH   2   3
ENDBRANCH   1   2
BRANCH   1  12
ATOM     12  C   UNL     1     -33.151  11.988  17.973  1.00  0.00     0.000 C 
BRANCH  12  13
ATOM     13  C   UNL     1     -33.612  13.222  17.183  1.00  0.00    -0.000 C 
BRANCH  13  14
ATOM     14  C   UNL     1     -34.442  14.194  18.036  1.00  0.00    -0.000 C 
BRANCH  14  15
ATOM     15  C   UNL     1     -35.206  15.224  17.184  1.00  0.00    -0.000 C 
BRANCH  15  16
ATOM     16  C   UNL     1     -35.164  16.638  17.785  1.00  0.00    -0.000 C 
BRANCH  16  17
ATOM     17  C   UNL     1     -36.518  17.070  18.373  1.00  0.00    -0.000 C 
BRANCH  17  18
ATOM     18  C   UNL     1     -37.691  16.257  17.805  1.00  0.00    -0.003 C 
ATOM     19  C   UNL     1     -38.429  15.452  18.875  1.00  0.00     0.004 C 
ENDBRANCH  17  18
ENDBRANCH  16  17
ENDBRANCH  15  16
ENDBRANCH  14  15
ENDBRANCH  13  14
ENDBRANCH  12  13
ENDBRANCH   1  12
TORSDOF 14
ENDMDL
MODEL 4
REMARK VINA RESULT:    12.248      4.113      8.335
REMARK INTER + INTRA:          21.502
REMARK INTER:                  22.271
REMARK INTRA:                  -0.770
REMARK UNBOUND:                -0.770
REMARK SMILES CCCCCCCCCCCCCC[C@H](C)C(=O)[O-]
REMARK SMILES IDX 9 1 10 2 11 3 12 4 13 5 14 6 15 7 16 8 17 9 18 10 19 11 8 12
REMARK SMILES IDX 7 13 6 14 5 15 4 16 3 17 2 18 1 19
REMARK H PARENT
REMARK Flexibility Score: inf
ROOT
ATOM      1  C   UNL     1     -34.982  15.036  16.239  1.00  0.00     0.000 C 
ENDROOT
BRANCH   1   2
ATOM      2  C   UNL     1     -34.382  14.329  17.459  1.00  0.00     0.000 C 
BRANCH   2   3
ATOM      3  C   UNL     1     -33.905  12.917  17.099  1.00  0.00     0.000 C 
BRANCH   3   4
ATOM      4  C   UNL     1     -32.723  12.494  17.984  1.00  0.00     0.000 C 
BRANCH   4   5
ATOM      5  C   UNL     1     -33.160  12.096  19.403  1.00  0.00     0.001 C 
BRANCH   5   6
ATOM      6  C   UNL     1     -33.175  10.571  19.613  1.00  0.00     0.009 C 
BRANCH   6   7
ATOM      7  C   UNL     1     -34.038  10.145  20.821  1.00  0.00     0.032 C 
ATOM      8  C   UNL     1     -34.136  11.250  21.883  1.00  0.00     0.014 C 
BRANCH   7   9
ATOM      9  C   UNL     1     -33.475   8.894  21.438  1.00  0.00     0.044 C 
ATOM     10  O   UNL     1     -32.256   8.608  21.308  1.00  0.00    -0.550 OA
ATOM     11  O   UNL     1     -34.305   8.044  22.159  1.00  0.00    -0.550 OA
ENDBRANCH   7   9
ENDBRANCH   6   7
ENDBRANCH   5   6
ENDBRANCH   4   5
ENDBRANCH   3   4
ENDBRANCH   2   3
ENDBRANCH   1   2
BRANCH   1  12
ATOM     12  C   UNL     1     -35.101  16.546  16.480  1.00  0.00     0.000 C 
BRANCH  12  13
ATOM     13  C   UNL     1     -35.210  16.857  17.980  1.00  0.00    -0.000 C 
BRANCH  13  14
ATOM     14  C   UNL     1     -36.653  17.154  18.419  1.00  0.00    -0.000 C 
BRANCH  14  15
ATOM     15  C   UNL     1     -37.665  16.150  17.838  1.00  0.00    -0.000 C 
BRANCH  15  16
ATOM     16  C   UNL     1     -38.510  15.464  18.924  1.00  0.00    -0.000 C 
BRANCH  16  17
ATOM     17  C   UNL     1     -40.012  15.463  18.590  1.00  0.00    -0.000 C 
BRANCH  17  18
ATOM     18  C   UNL     1     -40.474  16.785  17.959  1.00  0.00    -0.003 C 
ATOM     19  C   UNL     1     -41.124  16.592  16.588  1.00  0.00     0.004 C 
ENDBRANCH  17  18
ENDBRANCH  16  17
ENDBRANCH  15  16
ENDBRANCH  14  15
ENDBRANCH  13  14
ENDBRANCH  12  13
ENDBRANCH   1  12
TORSDOF 14
ENDMDL
MODEL 5
REMARK VINA RESULT:    12.253      3.034      7.641
REMARK INTER + INTRA:          21.511
REMARK INTER:                  21.832
REMARK INTRA:                  -0.321
REMARK UNBOUND:                -0.770
REMARK SMILES CCCCCCCCCCCCCC[C@H](C)C(=O)[O-]
REMARK SMILES IDX 9 1 10 2 11 3 12 4 13 5 14 6 15 7 16 8 17 9 18 10 19 11 8 12
REMARK SMILES IDX 7 13 6 14 5 15 4 16 3 17 2 18 1 19
REMARK H PARENT
REMARK Flexibility Score: inf
ROOT
ATOM      1  C   UNL     1     -34.478  14.316  17.684  1.00  0.00     0.000 C 
ENDROOT
BRANCH   1   2
ATOM      2  C   UNL     1     -34.064  12.980  17.055  1.00  0.00     0.000 C 
BRANCH   2   3
ATOM      3  C   UNL     1     -32.547  12.772  17.151  1.00  0.00     0.000 C 
BRANCH   3   4
ATOM      4  C   UNL     1     -32.169  12.081  18.469  1.00  0.00     0.000 C 
BRANCH   4   5
ATOM      5  C   UNL     1     -33.292  11.179  19.007  1.00  0.00     0.001 C 
BRANCH   5   6
ATOM      6  C   UNL     1     -33.959  11.751  20.270  1.00  0.00     0.009 C 
BRANCH   6   7
ATOM      7  C   UNL     1     -33.663  10.911  21.532  1.00  0.00     0.032 C 
ATOM      8  C   UNL     1     -34.235   9.490  21.430  1.00  0.00     0.014 C 
BRANCH   7   9
ATOM      9  C   UNL     1     -34.221  11.598  22.749  1.00  0.00     0.044 C 
ATOM     10  O   UNL     1     -34.821  12.701  22.643  1.00  0.00    -0.550 OA
ATOM     11  O   UNL     1     -34.075  11.016  24.001  1.00  0.00    -0.550 OA
ENDBRANCH   7   9
ENDBRANCH   6   7
ENDBRANCH   5   6
ENDBRANCH   4   5
ENDBRANCH   3   4
ENDBRANCH   2   3
ENDBRANCH   1   2
BRANCH   1  12
ATOM     12  C   UNL     1     -35.068  15.261  16.631  1.00  0.00     0.000 C 
BRANCH  12  13
ATOM     13  C   UNL     1     -34.803  16.729  16.999  1.00  0.00    -0.000 C 
BRANCH  13  14
ATOM     14  C   UNL     1     -35.381  17.108  18.371  1.00  0.00    -0.000 C 
BRANCH  14  15
ATOM     15  C   UNL     1     -36.908  17.306  18.335  1.00  0.00    -0.000 C 
BRANCH  15  16
ATOM     16  C   UNL     1     -37.650  16.089  17.760  1.00  0.00    -0.000 C 
BRANCH  16  17
ATOM     17  C   UNL     1     -38.515  15.375  18.813  1.00  0.00    -0.000 C 
BRANCH  17  18
ATOM     18  C   UNL     1     -39.975  15.852  18.795  1.00  0.00    -0.003 C 
ATOM     19  C   UNL     1     -40.393  16.434  17.444  1.00  0.00     0.004 C 
ENDBRANCH  17  18
ENDBRANCH  16  17
ENDBRANCH  15  16
ENDBRANCH  14  15
ENDBRANCH  13  14
ENDBRANCH  12  13
ENDBRANCH   1  12
TORSDOF 14
ENDMDL
MODEL 6
REMARK VINA RESULT:    12.271      4.071      8.853
REMARK INTER + INTRA:          21.544
REMARK INTER:                  22.342
REMARK INTRA:                  -0.798
REMARK UNBOUND:                -0.770
REMARK SMILES CCCCCCCCCCCCCC[C@H](C)C(=O)[O-]
REMARK SMILES IDX 9 1 10 2 11 3 12 4 13 5 14 6 15 7 16 8 17 9 18 10 19 11 8 12
REMARK SMILES IDX 7 13 6 14 5 15 4 16 3 17 2 18 1 19
REMARK H PARENT
REMARK Flexibility Score: inf
ROOT
ATOM      1  C   UNL     1     -33.258  10.855  19.352  1.00  0.00     0.000 C 
ENDROOT
BRANCH   1   2
ATOM      2  C   UNL     1     -34.000  10.834  20.694  1.00  0.00     0.000 C 
BRANCH   2   3
ATOM      3  C   UNL     1     -34.037  12.230  21.325  1.00  0.00     0.000 C 
BRANCH   3   4
ATOM      4  C   UNL     1     -34.579  12.171  22.761  1.00  0.00     0.000 C 
BRANCH   4   5
ATOM      5  C   UNL     1     -33.998  10.996  23.564  1.00  0.00     0.001 C 
BRANCH   5   6
ATOM      6  C   UNL     1     -34.385  11.045  25.052  1.00  0.00     0.009 C 
BRANCH   6   7
ATOM      7  C   UNL     1     -34.354   9.654  25.722  1.00  0.00     0.032 C 
ATOM      8  C   UNL     1     -35.690   9.303  26.393  1.00  0.00     0.014 C 
BRANCH   7   9
ATOM      9  C   UNL     1     -33.244   9.597  26.736  1.00  0.00     0.044 C 
ATOM     10  O   UNL     1     -32.447  10.563  26.868  1.00  0.00    -0.550 OA
ATOM     11  O   UNL     1     -33.094   8.471  27.536  1.00  0.00    -0.550 OA
ENDBRANCH   7   9
ENDBRANCH   6   7
ENDBRANCH   5   6
ENDBRANCH   4   5
ENDBRANCH   3   4
ENDBRANCH   2   3
ENDBRANCH   1   2
BRANCH   1  12
ATOM     12  C   UNL     1     -32.867  12.285  18.961  1.00  0.00     0.000 C 
BRANCH  12  13
ATOM     13  C   UNL     1     -32.999  12.496  17.445  1.00  0.00    -0.000 C 
BRANCH  13  14
ATOM     14  C   UNL     1     -34.292  13.232  17.060  1.00  0.00    -0.000 C 
BRANCH  14  15
ATOM     15  C   UNL     1     -34.464  14.560  17.820  1.00  0.00    -0.000 C 
BRANCH  15  16
ATOM     16  C   UNL     1     -35.422  15.529  17.110  1.00  0.00    -0.000 C 
BRANCH  16  17
ATOM     17  C   UNL     1     -36.293  16.327  18.096  1.00  0.00    -0.000 C 
BRANCH  17  18
ATOM     18  C   UNL     1     -35.915  17.815  18.142  1.00  0.00    -0.003 C 
ATOM     19  C   UNL     1     -34.420  18.041  18.373  1.00  0.00     0.004 C 
ENDBRANCH  17  18
ENDBRANCH  16  17
ENDBRANCH  15  16
ENDBRANCH  14  15
ENDBRANCH  13  14
ENDBRANCH  12  13
ENDBRANCH   1  12
TORSDOF 14
ENDMDL
MODEL 7
REMARK VINA RESULT:    12.304      2.809      3.919
REMARK INTER + INTRA:          21.604
REMARK INTER:                  22.265
REMARK INTRA:                  -0.661
REMARK UNBOUND:                -0.770
REMARK SMILES CCCCCCCCCCCCCC[C@H](C)C(=O)[O-]
REMARK SMILES IDX 9 1 10 2 11 3 12 4 13 5 14 6 15 7 16 8 17 9 18 10 19 11 8 12
REMARK SMILES IDX 7 13 6 14 5 15 4 16 3 17 2 18 1 19
REMARK H PARENT
REMARK Flexibility Score: inf
ROOT
ATOM      1  C   UNL     1     -33.648  13.402  16.923  1.00  0.00     0.000 C 
ENDROOT
BRANCH   1   2
ATOM      2  C   UNL     1     -34.373  14.306  17.927  1.00  0.00     0.000 C 
BRANCH   2   3
ATOM      3  C   UNL     1     -35.102  15.449  17.213  1.00  0.00     0.000 C 
BRANCH   3   4
ATOM      4  C   UNL     1     -35.223  16.679  18.125  1.00  0.00     0.000 C 
BRANCH   4   5
ATOM      5  C   UNL     1     -36.678  17.145  18.299  1.00  0.00     0.001 C 
BRANCH   5   6
ATOM      6  C   UNL     1     -37.696  16.113  17.783  1.00  0.00     0.009 C 
BRANCH   6   7
ATOM      7  C   UNL     1     -39.008  16.111  18.599  1.00  0.00     0.032 C 
ATOM      8  C   UNL     1     -39.213  14.796  19.364  1.00  0.00     0.014 C 
BRANCH   7   9
ATOM      9  C   UNL     1     -40.180  16.360  17.689  1.00  0.00     0.044 C 
ATOM     10  O   UNL     1     -41.091  15.499  17.569  1.00  0.00    -0.550 OA
ATOM     11  O   UNL     1     -40.261  17.547  16.973  1.00  0.00    -0.550 OA
ENDBRANCH   7   9
ENDBRANCH   6   7
ENDBRANCH   5   6
ENDBRANCH   4   5
ENDBRANCH   3   4
ENDBRANCH   2   3
ENDBRANCH   1   2
BRANCH   1  12
ATOM     12  C   UNL     1     -33.422  12.002  17.505  1.00  0.00     0.000 C 
BRANCH  12  13
ATOM     13  C   UNL     1     -33.287  12.056  19.035  1.00  0.00    -0.000 C 
BRANCH  13  14
ATOM     14  C   UNL     1     -33.052  10.671  19.657  1.00  0.00    -0.000 C 
BRANCH  14  15
ATOM     15  C   UNL     1     -33.993  10.389  20.843  1.00  0.00    -0.000 C 
BRANCH  15  16
ATOM     16  C   UNL     1     -33.522   9.208  21.706  1.00  0.00    -0.000 C 
BRANCH  16  17
ATOM     17  C   UNL     1     -34.657   8.218  22.022  1.00  0.00    -0.000 C 
BRANCH  17  18
ATOM     18  C   UNL     1     -34.145   6.931  22.686  1.00  0.00    -0.003 C 
ATOM     19  C   UNL     1     -35.023   6.476  23.853  1.00  0.00     0.004 C 
ENDBRANCH  17  18
ENDBRANCH  16  17
ENDBRANCH  15  16
ENDBRANCH  14  15
ENDBRANCH  13  14
ENDBRANCH  12  13
ENDBRANCH   1  12
TORSDOF 14
ENDMDL
MODEL 8
REMARK VINA RESULT:    12.614      2.329      4.367
REMARK INTER + INTRA:          22.167
REMARK INTER:                  21.865
REMARK INTRA:                   0.302
REMARK UNBOUND:                -0.770
REMARK SMILES CCCCCCCCCCCCCC[C@H](C)C(=O)[O-]
REMARK SMILES IDX 9 1 10 2 11 3 12 4 13 5 14 6 15 7 16 8 17 9 18 10 19 11 8 12
REMARK SMILES IDX 7 13 6 14 5 15 4 16 3 17 2 18 1 19
REMARK H PARENT
REMARK Flexibility Score: inf
ROOT
ATOM      1  C   UNL     1     -34.501  14.067  17.609  1.00  0.00     0.000 C 
ENDROOT
BRANCH   1   2
ATOM      2  C   UNL     1     -35.644  14.913  17.036  1.00  0.00     0.000 C 
BRANCH   2   3
ATOM      3  C   UNL     1     -35.181  16.346  16.751  1.00  0.00     0.000 C 
BRANCH   3   4
ATOM      4  C   UNL     1     -35.262  17.212  18.018  1.00  0.00     0.000 C 
BRANCH   4   5
ATOM      5  C   UNL     1     -36.703  17.384  18.524  1.00  0.00     0.001 C 
BRANCH   5   6
ATOM      6  C   UNL     1     -37.696  16.445  17.817  1.00  0.00     0.009 C 
BRANCH   6   7
ATOM      7  C   UNL     1     -38.954  16.160  18.667  1.00  0.00     0.032 C 
ATOM      8  C   UNL     1     -38.931  14.755  19.285  1.00  0.00     0.014 C 
BRANCH   7   9
ATOM      9  C   UNL     1     -40.190  16.326  17.826  1.00  0.00     0.044 C 
ATOM     10  O   UNL     1     -41.121  15.479  17.881  1.00  0.00    -0.550 OA
ATOM     11  O   UNL     1     -40.311  17.421  16.980  1.00  0.00    -0.550 OA
ENDBRANCH   7   9
ENDBRANCH   6   7
ENDBRANCH   5   6
ENDBRANCH   4   5
ENDBRANCH   3   4
ENDBRANCH   2   3
ENDBRANCH   1   2
BRANCH   1  12
ATOM     12  C   UNL     1     -33.904  13.148  16.537  1.00  0.00     0.000 C 
BRANCH  12  13
ATOM     13  C   UNL     1     -33.240  11.918  17.174  1.00  0.00    -0.000 C 
BRANCH  13  14
ATOM     14  C   UNL     1     -32.502  12.254  18.479  1.00  0.00    -0.000 C 
BRANCH  14  15
ATOM     15  C   UNL     1     -33.392  12.075  19.723  1.00  0.00    -0.000 C 
BRANCH  15  16
ATOM     16  C   UNL     1     -33.649  10.598  20.061  1.00  0.00    -0.000 C 
BRANCH  16  17
ATOM     17  C   UNL     1     -34.133  10.399  21.508  1.00  0.00    -0.000 C 
BRANCH  17  18
ATOM     18  C   UNL     1     -34.313  11.729  22.255  1.00  0.00    -0.003 C 
ATOM     19  C   UNL     1     -34.326  11.558  23.775  1.00  0.00     0.004 C 
ENDBRANCH  17  18
ENDBRANCH  16  17
ENDBRANCH  15  16
ENDBRANCH  14  15
ENDBRANCH  13  14
ENDBRANCH  12  13
ENDBRANCH   1  12
TORSDOF 14
ENDMDL
MODEL 9
REMARK VINA RESULT:    12.684      4.802      9.078
REMARK INTER + INTRA:          22.296
REMARK INTER:                  22.872
REMARK INTRA:                  -0.576
REMARK UNBOUND:                -0.770
REMARK SMILES CCCCCCCCCCCCCC[C@H](C)C(=O)[O-]
REMARK SMILES IDX 9 1 10 2 11 3 12 4 13 5 14 6 15 7 16 8 17 9 18 10 19 11 8 12
REMARK SMILES IDX 7 13 6 14 5 15 4 16 3 17 2 18 1 19
REMARK H PARENT
REMARK Flexibility Score: inf
ROOT
ATOM      1  C   UNL     1     -32.818  12.339  17.956  1.00  0.00     0.000 C 
ENDROOT
BRANCH   1   2
ATOM      2  C   UNL     1     -33.202  12.043  19.411  1.00  0.00     0.000 C 
BRANCH   2   3
ATOM      3  C   UNL     1     -33.474  10.548  19.616  1.00  0.00     0.000 C 
BRANCH   3   4
ATOM      4  C   UNL     1     -33.925  10.264  21.056  1.00  0.00     0.000 C 
BRANCH   4   5
ATOM      5  C   UNL     1     -33.563   8.844  21.519  1.00  0.00     0.001 C 
BRANCH   5   6
ATOM      6  C   UNL     1     -34.659   8.206  22.390  1.00  0.00     0.009 C 
BRANCH   6   7
ATOM      7  C   UNL     1     -34.337   6.746  22.779  1.00  0.00     0.032 C 
ATOM      8  C   UNL     1     -34.974   5.734  21.815  1.00  0.00     0.014 C 
BRANCH   7   9
ATOM      9  C   UNL     1     -34.801   6.474  24.183  1.00  0.00     0.044 C 
ATOM     10  O   UNL     1     -34.003   6.018  25.045  1.00  0.00    -0.550 OA
ATOM     11  O   UNL     1     -36.121   6.726  24.538  1.00  0.00    -0.550 OA
ENDBRANCH   7   9
ENDBRANCH   6   7
ENDBRANCH   5   6
ENDBRANCH   4   5
ENDBRANCH   3   4
ENDBRANCH   2   3
ENDBRANCH   1   2
BRANCH   1  12
ATOM     12  C   UNL     1     -33.956  13.057  17.221  1.00  0.00     0.000 C 
BRANCH  12  13
ATOM     13  C   UNL     1     -34.395  14.317  17.983  1.00  0.00    -0.000 C 
BRANCH  13  14
ATOM     14  C   UNL     1     -34.951  15.406  17.053  1.00  0.00    -0.000 C 
BRANCH  14  15
ATOM     15  C   UNL     1     -35.168  16.748  17.777  1.00  0.00    -0.000 C 
BRANCH  15  16
ATOM     16  C   UNL     1     -36.583  16.882  18.363  1.00  0.00    -0.000 C 
BRANCH  16  17
ATOM     17  C   UNL     1     -37.594  15.941  17.686  1.00  0.00    -0.000 C 
BRANCH  17  18
ATOM     18  C   UNL     1     -38.990  16.022  18.323  1.00  0.00    -0.003 C 
ATOM     19  C   UNL     1     -39.190  15.001  19.444  1.00  0.00     0.004 C 
ENDBRANCH  17  18
ENDBRANCH  16  17
ENDBRANCH  15  16
ENDBRANCH  14  15
ENDBRANCH  13  14
ENDBRANCH  12  13
ENDBRANCH   1  12
TORSDOF 14
ENDMDL
