MODEL 1
REMARK VINA RESULT:    -4.915      0.000      0.000
REMARK INTER + INTRA:          -8.099
REMARK INTER:                  -7.501
REMARK INTRA:                  -0.598
REMARK UNBOUND:                -0.598
REMARK SMILES O=C([O-])CCCCCCCCC(=O)[O-]
REMARK SMILES IDX 7 1 6 2 5 3 4 4 2 5 1 6 3 7 8 8 9 9 10 10 11 11 12 12 13 13
REMARK SMILES IDX 14 14
REMARK H PARENT
REMARK Flexibility Score: inf
ROOT
ATOM      1  C   UNL     1      18.314  20.347 -13.566  1.00  0.00     0.000 C 
ENDROOT
BRANCH   1   2
ATOM      2  C   UNL     1      17.034  19.690 -13.029  1.00  0.00     0.000 C 
BRANCH   2   3
ATOM      3  C   UNL     1      16.207  20.634 -12.138  1.00  0.00     0.006 C 
BRANCH   3   4
ATOM      4  C   UNL     1      15.954  22.021 -12.750  1.00  0.00     0.053 C 
BRANCH   4   5
ATOM      5  C   UNL     1      14.671  22.622 -12.268  1.00  0.00     0.041 C 
ATOM      6  O   UNL     1      13.751  21.884 -11.826  1.00  0.00    -0.550 OA
ATOM      7  O   UNL     1      14.504  24.001 -12.275  1.00  0.00    -0.550 OA
ENDBRANCH   4   5
ENDBRANCH   3   4
ENDBRANCH   2   3
ENDBRANCH   1   2
BRANCH   1   8
ATOM      8  C   UNL     1      19.409  19.302 -13.806  1.00  0.00     0.000 C 
BRANCH   8   9
ATOM      9  C   UNL     1      18.816  17.890 -13.891  1.00  0.00     0.000 C 
BRANCH   9  10
ATOM     10  C   UNL     1      19.346  17.001 -12.757  1.00  0.00     0.006 C 
BRANCH  10  11
ATOM     11  C   UNL     1      20.431  17.701 -11.928  1.00  0.00     0.053 C 
BRANCH  11  12
ATOM     12  C   UNL     1      19.993  17.925 -10.514  1.00  0.00     0.041 C 
ATOM     13  O   UNL     1      20.627  17.397  -9.562  1.00  0.00    -0.550 OA
ATOM     14  O   UNL     1      18.863  18.690 -10.246  1.00  0.00    -0.550 OA
ENDBRANCH  11  12
ENDBRANCH  10  11
ENDBRANCH   9  10
ENDBRANCH   8   9
ENDBRANCH   1   8
TORSDOF 9
ENDMDL
MODEL 2
REMARK VINA RESULT:    -4.913      0.291      5.937
REMARK INTER + INTRA:          -8.096
REMARK INTER:                  -7.493
REMARK INTRA:                  -0.603
REMARK UNBOUND:                -0.598
REMARK SMILES O=C([O-])CCCCCCCCC(=O)[O-]
REMARK SMILES IDX 7 1 6 2 5 3 4 4 2 5 1 6 3 7 8 8 9 9 10 10 11 11 12 12 13 13
REMARK SMILES IDX 14 14
REMARK H PARENT
REMARK Flexibility Score: inf
ROOT
ATOM      1  C   UNL     1      19.573  19.491 -13.779  1.00  0.00     0.000 C 
ENDROOT
BRANCH   1   2
ATOM      2  C   UNL     1      19.075  18.051 -13.975  1.00  0.00     0.000 C 
BRANCH   2   3
ATOM      3  C   UNL     1      19.428  17.132 -12.792  1.00  0.00     0.006 C 
BRANCH   3   4
ATOM      4  C   UNL     1      20.525  17.684 -11.868  1.00  0.00     0.053 C 
BRANCH   4   5
ATOM      5  C   UNL     1      20.025  17.911 -10.475  1.00  0.00     0.041 C 
ATOM      6  O   UNL     1      20.654  17.441  -9.491  1.00  0.00    -0.550 OA
ATOM      7  O   UNL     1      18.881  18.670 -10.263  1.00  0.00    -0.550 OA
ENDBRANCH   4   5
ENDBRANCH   3   4
ENDBRANCH   2   3
ENDBRANCH   1   2
BRANCH   1   8
ATOM      8  C   UNL     1      18.396  20.465 -13.642  1.00  0.00     0.000 C 
BRANCH   8   9
ATOM      9  C   UNL     1      17.132  19.739 -13.166  1.00  0.00     0.000 C 
BRANCH   9  10
ATOM     10  C   UNL     1      16.372  20.578 -12.129  1.00  0.00     0.006 C 
BRANCH  10  11
ATOM     11  C   UNL     1      16.035  21.981 -12.651  1.00  0.00     0.053 C 
BRANCH  11  12
ATOM     12  C   UNL     1      14.633  22.381 -12.307  1.00  0.00     0.041 C 
ATOM     13  O   UNL     1      13.921  21.636 -11.581  1.00  0.00    -0.550 OA
ATOM     14  O   UNL     1      14.098  23.558 -12.816  1.00  0.00    -0.550 OA
ENDBRANCH  11  12
ENDBRANCH  10  11
ENDBRANCH   9  10
ENDBRANCH   8   9
ENDBRANCH   1   8
TORSDOF 9
ENDMDL
MODEL 3
REMARK VINA RESULT:    -4.735      1.188      6.658
REMARK INTER + INTRA:          -7.824
REMARK INTER:                  -7.286
REMARK INTRA:                  -0.538
REMARK UNBOUND:                -0.598
REMARK SMILES O=C([O-])CCCCCCCCC(=O)[O-]
REMARK SMILES IDX 7 1 6 2 5 3 4 4 2 5 1 6 3 7 8 8 9 9 10 10 11 11 12 12 13 13
REMARK SMILES IDX 14 14
REMARK H PARENT
REMARK Flexibility Score: inf
ROOT
ATOM      1  C   UNL     1      17.577  20.882 -13.211  1.00  0.00     0.000 C 
ENDROOT
BRANCH   1   2
ATOM      2  C   UNL     1      18.651  19.879 -13.657  1.00  0.00     0.000 C 
BRANCH   2   3
ATOM      3  C   UNL     1      18.561  18.537 -12.907  1.00  0.00     0.006 C 
BRANCH   3   4
ATOM      4  C   UNL     1      19.869  18.103 -12.228  1.00  0.00     0.053 C 
BRANCH   4   5
ATOM      5  C   UNL     1      19.837  18.333 -10.749  1.00  0.00     0.041 C 
ATOM      6  O   UNL     1      18.763  18.665 -10.182  1.00  0.00    -0.550 OA
ATOM      7  O   UNL     1      20.987  18.149  -9.992  1.00  0.00    -0.550 OA
ENDBRANCH   4   5
ENDBRANCH   3   4
ENDBRANCH   2   3
ENDBRANCH   1   2
BRANCH   1   8
ATOM      8  C   UNL     1      16.581  20.228 -12.246  1.00  0.00     0.000 C 
BRANCH   8   9
ATOM      9  C   UNL     1      15.346  21.114 -12.043  1.00  0.00     0.000 C 
BRANCH   9  10
ATOM     10  C   UNL     1      15.519  22.469 -12.744  1.00  0.00     0.006 C 
BRANCH  10  11
ATOM     11  C   UNL     1      14.492  23.505 -12.266  1.00  0.00     0.053 C 
BRANCH  11  12
ATOM     12  C   UNL     1      13.100  23.140 -12.681  1.00  0.00     0.041 C 
ATOM     13  O   UNL     1      12.785  23.125 -13.900  1.00  0.00    -0.550 OA
ATOM     14  O   UNL     1      12.139  22.850 -11.719  1.00  0.00    -0.550 OA
ENDBRANCH  11  12
ENDBRANCH  10  11
ENDBRANCH   9  10
ENDBRANCH   8   9
ENDBRANCH   1   8
TORSDOF 9
ENDMDL
MODEL 4
REMARK VINA RESULT:    -4.574     11.671     13.822
REMARK INTER + INTRA:          -7.578
REMARK INTER:                  -6.821
REMARK INTRA:                  -0.757
REMARK UNBOUND:                -0.598
REMARK SMILES O=C([O-])CCCCCCCCC(=O)[O-]
REMARK SMILES IDX 7 1 6 2 5 3 4 4 2 5 1 6 3 7 8 8 9 9 10 10 11 11 12 12 13 13
REMARK SMILES IDX 14 14
REMARK H PARENT
REMARK Flexibility Score: inf
ROOT
ATOM      1  C   UNL     1       6.271  14.980  -9.044  1.00  0.00     0.000 C 
ENDROOT
BRANCH   1   2
ATOM      2  C   UNL     1       6.842  14.225  -7.834  1.00  0.00     0.000 C 
BRANCH   2   3
ATOM      3  C   UNL     1       7.205  12.765  -8.161  1.00  0.00     0.006 C 
BRANCH   3   4
ATOM      4  C   UNL     1       8.117  12.599  -9.387  1.00  0.00     0.053 C 
BRANCH   4   5
ATOM      5  C   UNL     1       9.462  13.221  -9.174  1.00  0.00     0.041 C 
ATOM      6  O   UNL     1      10.320  12.647  -8.452  1.00  0.00    -0.550 OA
ATOM      7  O   UNL     1       9.780  14.420  -9.800  1.00  0.00    -0.550 OA
ENDBRANCH   4   5
ENDBRANCH   3   4
ENDBRANCH   2   3
ENDBRANCH   1   2
BRANCH   1   8
ATOM      8  C   UNL     1       4.980  15.719  -8.670  1.00  0.00     0.000 C 
BRANCH   8   9
ATOM      9  C   UNL     1       4.400  15.186  -7.354  1.00  0.00     0.000 C 
BRANCH   9  10
ATOM     10  C   UNL     1       4.103  16.333  -6.378  1.00  0.00     0.006 C 
BRANCH  10  11
ATOM     11  C   UNL     1       4.881  17.609  -6.727  1.00  0.00     0.053 C 
BRANCH  11  12
ATOM     12  C   UNL     1       6.131  17.739  -5.912  1.00  0.00     0.041 C 
ATOM     13  O   UNL     1       7.232  17.339  -6.373  1.00  0.00    -0.550 OA
ATOM     14  O   UNL     1       6.076  18.271  -4.630  1.00  0.00    -0.550 OA
ENDBRANCH  11  12
ENDBRANCH  10  11
ENDBRANCH   9  10
ENDBRANCH   8   9
ENDBRANCH   1   8
TORSDOF 9
ENDMDL
MODEL 5
REMARK VINA RESULT:    -4.561     11.367     12.793
REMARK INTER + INTRA:          -7.559
REMARK INTER:                  -6.874
REMARK INTRA:                  -0.685
REMARK UNBOUND:                -0.598
REMARK SMILES O=C([O-])CCCCCCCCC(=O)[O-]
REMARK SMILES IDX 7 1 6 2 5 3 4 4 2 5 1 6 3 7 8 8 9 9 10 10 11 11 12 12 13 13
REMARK SMILES IDX 14 14
REMARK H PARENT
REMARK Flexibility Score: inf
ROOT
ATOM      1  C   UNL     1       4.847  15.467  -8.502  1.00  0.00     0.000 C 
ENDROOT
BRANCH   1   2
ATOM      2  C   UNL     1       4.483  15.280  -7.022  1.00  0.00     0.000 C 
BRANCH   2   3
ATOM      3  C   UNL     1       3.975  16.576  -6.365  1.00  0.00     0.006 C 
BRANCH   3   4
ATOM      4  C   UNL     1       4.834  17.815  -6.663  1.00  0.00     0.053 C 
BRANCH   4   5
ATOM      5  C   UNL     1       6.111  17.814  -5.880  1.00  0.00     0.041 C 
ATOM      6  O   UNL     1       6.116  18.180  -4.675  1.00  0.00    -0.550 OA
ATOM      7  O   UNL     1       7.289  17.379  -6.473  1.00  0.00    -0.550 OA
ENDBRANCH   4   5
ENDBRANCH   3   4
ENDBRANCH   2   3
ENDBRANCH   1   2
BRANCH   1   8
ATOM      8  C   UNL     1       5.756  14.332  -8.991  1.00  0.00     0.000 C 
BRANCH   8   9
ATOM      9  C   UNL     1       7.160  14.451  -8.388  1.00  0.00     0.000 C 
BRANCH   9  10
ATOM     10  C   UNL     1       8.040  15.395  -9.220  1.00  0.00     0.006 C 
BRANCH  10  11
ATOM     11  C   UNL     1       8.469  14.766 -10.552  1.00  0.00     0.053 C 
BRANCH  11  12
ATOM     12  C   UNL     1       9.498  13.694 -10.355  1.00  0.00     0.041 C 
ATOM     13  O   UNL     1       9.209  12.490 -10.581  1.00  0.00    -0.550 OA
ATOM     14  O   UNL     1      10.765  14.022  -9.889  1.00  0.00    -0.550 OA
ENDBRANCH  11  12
ENDBRANCH  10  11
ENDBRANCH   9  10
ENDBRANCH   8   9
ENDBRANCH   1   8
TORSDOF 9
ENDMDL
MODEL 6
REMARK VINA RESULT:    -4.519      2.049      7.304
REMARK INTER + INTRA:          -7.494
REMARK INTER:                  -6.994
REMARK INTRA:                  -0.500
REMARK UNBOUND:                -0.598
REMARK SMILES O=C([O-])CCCCCCCCC(=O)[O-]
REMARK SMILES IDX 7 1 6 2 5 3 4 4 2 5 1 6 3 7 8 8 9 9 10 10 11 11 12 12 13 13
REMARK SMILES IDX 14 14
REMARK H PARENT
REMARK Flexibility Score: inf
ROOT
ATOM      1  C   UNL     1      15.895  20.624 -12.134  1.00  0.00     0.000 C 
ENDROOT
BRANCH   1   2
ATOM      2  C   UNL     1      16.957  21.403 -12.923  1.00  0.00     0.000 C 
BRANCH   2   3
ATOM      3  C   UNL     1      18.118  20.512 -13.400  1.00  0.00     0.006 C 
BRANCH   3   4
ATOM      4  C   UNL     1      17.950  19.022 -13.066  1.00  0.00     0.053 C 
BRANCH   4   5
ATOM      5  C   UNL     1      18.879  18.582 -11.978  1.00  0.00     0.041 C 
ATOM      6  O   UNL     1      18.515  18.634 -10.773  1.00  0.00    -0.550 OA
ATOM      7  O   UNL     1      20.136  18.083 -12.296  1.00  0.00    -0.550 OA
ENDBRANCH   4   5
ENDBRANCH   3   4
ENDBRANCH   2   3
ENDBRANCH   1   2
BRANCH   1   8
ATOM      8  C   UNL     1      14.658  21.492 -11.872  1.00  0.00     0.000 C 
BRANCH   8   9
ATOM      9  C   UNL     1      14.777  22.848 -12.578  1.00  0.00     0.000 C 
BRANCH   9  10
ATOM     10  C   UNL     1      13.493  23.180 -13.352  1.00  0.00     0.006 C 
BRANCH  10  11
ATOM     11  C   UNL     1      12.228  22.827 -12.559  1.00  0.00     0.053 C 
BRANCH  11  12
ATOM     12  C   UNL     1      11.644  24.027 -11.879  1.00  0.00     0.041 C 
ATOM     13  O   UNL     1      12.250  24.567 -10.915  1.00  0.00    -0.550 OA
ATOM     14  O   UNL     1      10.414  24.530 -12.285  1.00  0.00    -0.550 OA
ENDBRANCH  11  12
ENDBRANCH  10  11
ENDBRANCH   9  10
ENDBRANCH   8   9
ENDBRANCH   1   8
TORSDOF 9
ENDMDL
MODEL 7
REMARK VINA RESULT:    -4.499     11.422     12.984
REMARK INTER + INTRA:          -7.464
REMARK INTER:                  -6.936
REMARK INTRA:                  -0.528
REMARK UNBOUND:                -0.598
REMARK SMILES O=C([O-])CCCCCCCCC(=O)[O-]
REMARK SMILES IDX 7 1 6 2 5 3 4 4 2 5 1 6 3 7 8 8 9 9 10 10 11 11 12 12 13 13
REMARK SMILES IDX 14 14
REMARK H PARENT
REMARK Flexibility Score: inf
ROOT
ATOM      1  C   UNL     1       4.724  14.562  -7.818  1.00  0.00     0.000 C 
ENDROOT
BRANCH   1   2
ATOM      2  C   UNL     1       4.366  15.791  -6.970  1.00  0.00     0.000 C 
BRANCH   2   3
ATOM      3  C   UNL     1       4.652  17.120  -7.694  1.00  0.00     0.006 C 
BRANCH   3   4
ATOM      4  C   UNL     1       5.079  18.267  -6.764  1.00  0.00     0.053 C 
BRANCH   4   5
ATOM      5  C   UNL     1       6.183  17.858  -5.839  1.00  0.00     0.041 C 
ATOM      6  O   UNL     1       6.101  18.104  -4.606  1.00  0.00    -0.550 OA
ATOM      7  O   UNL     1       7.288  17.178  -6.334  1.00  0.00    -0.550 OA
ENDBRANCH   4   5
ENDBRANCH   3   4
ENDBRANCH   2   3
ENDBRANCH   1   2
BRANCH   1   8
ATOM      8  C   UNL     1       4.883  14.942  -9.295  1.00  0.00     0.000 C 
BRANCH   8   9
ATOM      9  C   UNL     1       5.837  13.980 -10.013  1.00  0.00     0.000 C 
BRANCH   9  10
ATOM     10  C   UNL     1       6.730  14.731 -11.011  1.00  0.00     0.006 C 
BRANCH  10  11
ATOM     11  C   UNL     1       8.186  14.249 -10.966  1.00  0.00     0.053 C 
BRANCH  11  12
ATOM     12  C   UNL     1       8.831  14.548  -9.648  1.00  0.00     0.041 C 
ATOM     13  O   UNL     1       9.461  13.649  -9.032  1.00  0.00    -0.550 OA
ATOM     14  O   UNL     1       8.706  15.811  -9.082  1.00  0.00    -0.550 OA
ENDBRANCH  11  12
ENDBRANCH  10  11
ENDBRANCH   9  10
ENDBRANCH   8   9
ENDBRANCH   1   8
TORSDOF 9
ENDMDL
MODEL 8
REMARK VINA RESULT:    -4.475      1.934      3.162
REMARK INTER + INTRA:          -7.428
REMARK INTER:                  -6.912
REMARK INTRA:                  -0.517
REMARK UNBOUND:                -0.598
REMARK SMILES O=C([O-])CCCCCCCCC(=O)[O-]
REMARK SMILES IDX 7 1 6 2 5 3 4 4 2 5 1 6 3 7 8 8 9 9 10 10 11 11 12 12 13 13
REMARK SMILES IDX 14 14
REMARK H PARENT
REMARK Flexibility Score: inf
ROOT
ATOM      1  C   UNL     1      14.957  21.436 -12.086  1.00  0.00     0.000 C 
ENDROOT
BRANCH   1   2
ATOM      2  C   UNL     1      15.230  22.811 -12.714  1.00  0.00     0.000 C 
BRANCH   2   3
ATOM      3  C   UNL     1      14.012  23.373 -13.469  1.00  0.00     0.006 C 
BRANCH   3   4
ATOM      4  C   UNL     1      12.668  22.758 -13.048  1.00  0.00     0.053 C 
BRANCH   4   5
ATOM      5  C   UNL     1      11.796  23.747 -12.338  1.00  0.00     0.041 C 
ATOM      6  O   UNL     1      10.701  24.107 -12.846  1.00  0.00    -0.550 OA
ATOM      7  O   UNL     1      12.178  24.246 -11.100  1.00  0.00    -0.550 OA
ENDBRANCH   4   5
ENDBRANCH   3   4
ENDBRANCH   2   3
ENDBRANCH   1   2
BRANCH   1   8
ATOM      8  C   UNL     1      16.188  20.528 -12.198  1.00  0.00     0.000 C 
BRANCH   8   9
ATOM      9  C   UNL     1      17.241  21.138 -13.131  1.00  0.00     0.000 C 
BRANCH   9  10
ATOM     10  C   UNL     1      18.403  20.162 -13.365  1.00  0.00     0.006 C 
BRANCH  10  11
ATOM     11  C   UNL     1      18.145  18.790 -12.728  1.00  0.00     0.053 C 
BRANCH  11  12
ATOM     12  C   UNL     1      19.160  18.465 -11.676  1.00  0.00     0.041 C 
ATOM     13  O   UNL     1      20.258  17.937 -11.996  1.00  0.00    -0.550 OA
ATOM     14  O   UNL     1      18.881  18.712 -10.337  1.00  0.00    -0.550 OA
ENDBRANCH  11  12
ENDBRANCH  10  11
ENDBRANCH   9  10
ENDBRANCH   8   9
ENDBRANCH   1   8
TORSDOF 9
ENDMDL
MODEL 9
REMARK VINA RESULT:    -4.327      1.930      3.338
REMARK INTER + INTRA:          -7.202
REMARK INTER:                  -6.515
REMARK INTRA:                  -0.686
REMARK UNBOUND:                -0.598
REMARK SMILES O=C([O-])CCCCCCCCC(=O)[O-]
REMARK SMILES IDX 7 1 6 2 5 3 4 4 2 5 1 6 3 7 8 8 9 9 10 10 11 11 12 12 13 13
REMARK SMILES IDX 14 14
REMARK H PARENT
REMARK Flexibility Score: inf
ROOT
ATOM      1  C   UNL     1      19.138  17.613 -14.035  1.00  0.00     0.000 C 
ENDROOT
BRANCH   1   2
ATOM      2  C   UNL     1      19.836  18.980 -13.983  1.00  0.00     0.000 C 
BRANCH   2   3
ATOM      3  C   UNL     1      18.853  20.144 -13.764  1.00  0.00     0.006 C 
BRANCH   3   4
ATOM      4  C   UNL     1      17.396  19.708 -13.544  1.00  0.00     0.053 C 
BRANCH   4   5
ATOM      5  C   UNL     1      16.979  19.844 -12.112  1.00  0.00     0.041 C 
ATOM      6  O   UNL     1      15.979  20.545 -11.807  1.00  0.00    -0.550 OA
ATOM      7  O   UNL     1      17.677  19.169 -11.119  1.00  0.00    -0.550 OA
ENDBRANCH   4   5
ENDBRANCH   3   4
ENDBRANCH   2   3
ENDBRANCH   1   2
BRANCH   1   8
ATOM      8  C   UNL     1      19.546  16.743 -12.840  1.00  0.00     0.000 C 
BRANCH   8   9
ATOM      9  C   UNL     1      20.784  17.314 -12.139  1.00  0.00     0.000 C 
BRANCH   9  10
ATOM     10  C   UNL     1      20.562  17.415 -10.623  1.00  0.00     0.006 C 
BRANCH  10  11
ATOM     11  C   UNL     1      21.857  17.199  -9.829  1.00  0.00     0.053 C 
BRANCH  11  12
ATOM     12  C   UNL     1      21.903  15.842  -9.197  1.00  0.00     0.041 C 
ATOM     13  O   UNL     1      22.951  15.445  -8.624  1.00  0.00    -0.550 OA
ATOM     14  O   UNL     1      20.799  15.001  -9.270  1.00  0.00    -0.550 OA
ENDBRANCH  11  12
ENDBRANCH  10  11
ENDBRANCH   9  10
ENDBRANCH   8   9
ENDBRANCH   1   8
TORSDOF 9
ENDMDL
