MODEL 1
REMARK VINA RESULT:    -4.741      0.000      0.000
REMARK INTER + INTRA:         -10.052
REMARK INTER:                  -7.236
REMARK INTRA:                  -2.817
REMARK UNBOUND:                -2.817
REMARK SMILES CC(=O)CCC=C(C)CCC=C(C)CCC=C(C)C
REMARK SMILES IDX 10 1 11 2 12 3 13 4 14 5 15 6 16 7 18 8 17 9 19 10 9 11 7 12
REMARK SMILES IDX 6 13 8 14 5 15 4 16 2 17 3 18 1 19
REMARK H PARENT
REMARK Flexibility Score: inf
ROOT
ATOM      1  C   UNL     1      18.831 -20.941 -25.130  1.00  0.00     0.032 C 
ENDROOT
BRANCH   1   2
ATOM      2  C   UNL     1      18.841 -20.999 -23.622  1.00  0.00    -0.028 C 
ATOM      3  C   UNL     1      17.745 -21.225 -22.860  1.00  0.00    -0.077 C 
ATOM      4  C   UNL     1      16.374 -21.405 -23.472  1.00  0.00     0.039 C 
BRANCH   3   5
ATOM      5  C   UNL     1      17.894 -21.289 -21.355  1.00  0.00     0.034 C 
BRANCH   5   6
ATOM      6  C   UNL     1      18.935 -22.342 -20.953  1.00  0.00     0.032 C 
BRANCH   6   7
ATOM      7  C   UNL     1      18.387 -23.738 -21.118  1.00  0.00    -0.028 C 
ATOM      8  C   UNL     1      18.282 -26.048 -21.947  1.00  0.00     0.039 C 
ATOM      9  C   UNL     1      18.965 -24.707 -21.862  1.00  0.00    -0.080 C 
ATOM     10  C   UNL     1      20.272 -24.491 -22.588  1.00  0.00     0.039 C 
ENDBRANCH   6   7
ENDBRANCH   5   6
ENDBRANCH   3   5
ENDBRANCH   1   2
BRANCH   1  11
ATOM     11  C   UNL     1      19.345 -22.254 -25.728  1.00  0.00     0.034 C 
BRANCH  11  12
ATOM     12  C   UNL     1      18.195 -23.175 -26.075  1.00  0.00    -0.077 C 
ATOM     13  C   UNL     1      17.982 -24.273 -25.314  1.00  0.00    -0.028 C 
ATOM     14  C   UNL     1      17.318 -22.835 -27.256  1.00  0.00     0.039 C 
BRANCH  13  15
ATOM     15  C   UNL     1      16.844 -25.251 -25.508  1.00  0.00     0.035 C 
BRANCH  15  16
ATOM     16  C   UNL     1      15.694 -24.958 -24.539  1.00  0.00     0.079 C 
BRANCH  16  17
ATOM     17  C   UNL     1      14.401 -24.713 -25.270  1.00  0.00     0.130 C 
ATOM     18  O   UNL     1      13.697 -25.662 -25.584  1.00  0.00    -0.300 OA
ATOM     19  C   UNL     1      13.957 -23.326 -25.625  1.00  0.00     0.087 C 
ENDBRANCH  16  17
ENDBRANCH  15  16
ENDBRANCH  13  15
ENDBRANCH  11  12
ENDBRANCH   1  11
TORSDOF 9
ENDMDL
MODEL 2
REMARK VINA RESULT:    -4.498      1.529      3.074
REMARK INTER + INTRA:          -9.682
REMARK INTER:                  -6.782
REMARK INTRA:                  -2.899
REMARK UNBOUND:                -2.817
REMARK SMILES CC(=O)CCC=C(C)CCC=C(C)CCC=C(C)C
REMARK SMILES IDX 10 1 11 2 12 3 13 4 14 5 15 6 16 7 18 8 17 9 19 10 9 11 7 12
REMARK SMILES IDX 6 13 8 14 5 15 4 16 2 17 3 18 1 19
REMARK H PARENT
REMARK Flexibility Score: inf
ROOT
ATOM      1  C   UNL     1      19.382 -22.023 -25.837  1.00  0.00     0.032 C 
ENDROOT
BRANCH   1   2
ATOM      2  C   UNL     1      19.621 -23.175 -24.891  1.00  0.00    -0.028 C 
ATOM      3  C   UNL     1      18.919 -24.332 -24.907  1.00  0.00    -0.077 C 
ATOM      4  C   UNL     1      17.780 -24.560 -25.874  1.00  0.00     0.039 C 
BRANCH   3   5
ATOM      5  C   UNL     1      19.278 -25.425 -23.922  1.00  0.00     0.034 C 
BRANCH   5   6
ATOM      6  C   UNL     1      19.473 -24.848 -22.513  1.00  0.00     0.032 C 
BRANCH   6   7
ATOM      7  C   UNL     1      18.152 -24.459 -21.897  1.00  0.00    -0.028 C 
ATOM      8  C   UNL     1      16.508 -23.008 -20.790  1.00  0.00     0.039 C 
ATOM      9  C   UNL     1      17.869 -23.236 -21.397  1.00  0.00    -0.080 C 
ATOM     10  C   UNL     1      18.862 -22.098 -21.446  1.00  0.00     0.039 C 
ENDBRANCH   6   7
ENDBRANCH   5   6
ENDBRANCH   3   5
ENDBRANCH   1   2
BRANCH   1  11
ATOM     11  C   UNL     1      18.681 -20.866 -25.116  1.00  0.00     0.034 C 
BRANCH  11  12
ATOM     12  C   UNL     1      17.178 -20.984 -25.244  1.00  0.00    -0.077 C 
ATOM     13  C   UNL     1      16.472 -21.507 -24.216  1.00  0.00    -0.028 C 
ATOM     14  C   UNL     1      16.513 -20.507 -26.512  1.00  0.00     0.039 C 
BRANCH  13  15
ATOM     15  C   UNL     1      14.965 -21.637 -24.179  1.00  0.00     0.035 C 
BRANCH  15  16
ATOM     16  C   UNL     1      14.516 -23.003 -24.710  1.00  0.00     0.079 C 
BRANCH  16  17
ATOM     17  C   UNL     1      14.305 -23.991 -23.593  1.00  0.00     0.130 C 
ATOM     18  O   UNL     1      13.575 -23.696 -22.658  1.00  0.00    -0.300 OA
ATOM     19  C   UNL     1      14.974 -25.332 -23.602  1.00  0.00     0.087 C 
ENDBRANCH  16  17
ENDBRANCH  15  16
ENDBRANCH  13  15
ENDBRANCH  11  12
ENDBRANCH   1  11
TORSDOF 9
ENDMDL
MODEL 3
REMARK VINA RESULT:    -4.461      1.814      3.793
REMARK INTER + INTRA:          -9.624
REMARK INTER:                  -6.873
REMARK INTRA:                  -2.751
REMARK UNBOUND:                -2.817
REMARK SMILES CC(=O)CCC=C(C)CCC=C(C)CCC=C(C)C
REMARK SMILES IDX 10 1 11 2 12 3 13 4 14 5 15 6 16 7 18 8 17 9 19 10 9 11 7 12
REMARK SMILES IDX 6 13 8 14 5 15 4 16 2 17 3 18 1 19
REMARK H PARENT
REMARK Flexibility Score: inf
ROOT
ATOM      1  C   UNL     1      16.917 -22.504 -27.122  1.00  0.00     0.032 C 
ENDROOT
BRANCH   1   2
ATOM      2  C   UNL     1      17.965 -23.105 -26.218  1.00  0.00    -0.028 C 
ATOM      3  C   UNL     1      17.823 -24.280 -25.560  1.00  0.00    -0.077 C 
ATOM      4  C   UNL     1      16.551 -25.092 -25.649  1.00  0.00     0.039 C 
BRANCH   3   5
ATOM      5  C   UNL     1      18.964 -24.788 -24.706  1.00  0.00     0.034 C 
BRANCH   5   6
ATOM      6  C   UNL     1      19.765 -23.622 -24.112  1.00  0.00     0.032 C 
BRANCH   6   7
ATOM      7  C   UNL     1      19.141 -23.131 -22.830  1.00  0.00    -0.028 C 
ATOM      8  C   UNL     1      18.142 -21.520 -21.267  1.00  0.00     0.039 C 
ATOM      9  C   UNL     1      18.724 -21.863 -22.615  1.00  0.00    -0.080 C 
ATOM     10  C   UNL     1      18.809 -20.797 -23.682  1.00  0.00     0.039 C 
ENDBRANCH   6   7
ENDBRANCH   5   6
ENDBRANCH   3   5
ENDBRANCH   1   2
BRANCH   1  11
ATOM     11  C   UNL     1      16.273 -21.278 -26.466  1.00  0.00     0.034 C 
BRANCH  11  12
ATOM     12  C   UNL     1      15.159 -21.691 -25.529  1.00  0.00    -0.077 C 
ATOM     13  C   UNL     1      15.200 -21.280 -24.241  1.00  0.00    -0.028 C 
ATOM     14  C   UNL     1      14.033 -22.544 -26.062  1.00  0.00     0.039 C 
BRANCH  13  15
ATOM     15  C   UNL     1      14.134 -21.569 -23.207  1.00  0.00     0.035 C 
BRANCH  15  16
ATOM     16  C   UNL     1      14.706 -22.378 -22.038  1.00  0.00     0.079 C 
BRANCH  16  17
ATOM     17  C   UNL     1      14.888 -23.828 -22.403  1.00  0.00     0.130 C 
ATOM     18  O   UNL     1      15.964 -24.371 -22.199  1.00  0.00    -0.300 OA
ATOM     19  C   UNL     1      13.774 -24.622 -23.015  1.00  0.00     0.087 C 
ENDBRANCH  16  17
ENDBRANCH  15  16
ENDBRANCH  13  15
ENDBRANCH  11  12
ENDBRANCH   1  11
TORSDOF 9
ENDMDL
MODEL 4
REMARK VINA RESULT:    -4.446      3.320      6.608
REMARK INTER + INTRA:          -9.603
REMARK INTER:                  -7.578
REMARK INTRA:                  -2.024
REMARK UNBOUND:                -2.817
REMARK SMILES CC(=O)CCC=C(C)CCC=C(C)CCC=C(C)C
REMARK SMILES IDX 10 1 11 2 12 3 13 4 14 5 15 6 16 7 18 8 17 9 19 10 9 11 7 12
REMARK SMILES IDX 6 13 8 14 5 15 4 16 2 17 3 18 1 19
REMARK H PARENT
REMARK Flexibility Score: inf
ROOT
ATOM      1  C   UNL     1      19.887 -25.308 -23.234  1.00  0.00     0.032 C 
ENDROOT
BRANCH   1   2
ATOM      2  C   UNL     1      20.003 -24.024 -24.018  1.00  0.00    -0.028 C 
ATOM      3  C   UNL     1      19.200 -23.689 -25.055  1.00  0.00    -0.077 C 
ATOM      4  C   UNL     1      18.113 -24.615 -25.552  1.00  0.00     0.039 C 
BRANCH   3   5
ATOM      5  C   UNL     1      19.401 -22.355 -25.741  1.00  0.00     0.034 C 
BRANCH   5   6
ATOM      6  C   UNL     1      18.391 -21.319 -25.231  1.00  0.00     0.032 C 
BRANCH   6   7
ATOM      7  C   UNL     1      18.867 -20.680 -23.950  1.00  0.00    -0.028 C 
ATOM      8  C   UNL     1      18.916 -20.193 -21.543  1.00  0.00     0.039 C 
ATOM      9  C   UNL     1      18.347 -20.931 -22.728  1.00  0.00    -0.080 C 
ATOM     10  C   UNL     1      17.237 -21.934 -22.517  1.00  0.00     0.039 C 
ENDBRANCH   6   7
ENDBRANCH   5   6
ENDBRANCH   3   5
ENDBRANCH   1   2
BRANCH   1  11
ATOM     11  C   UNL     1      20.933 -25.357 -22.114  1.00  0.00     0.034 C 
BRANCH  11  12
ATOM     12  C   UNL     1      20.298 -25.068 -20.772  1.00  0.00    -0.077 C 
ATOM     13  C   UNL     1      19.817 -23.828 -20.527  1.00  0.00    -0.028 C 
ATOM     14  C   UNL     1      20.216 -26.176 -19.749  1.00  0.00     0.039 C 
BRANCH  13  15
ATOM     15  C   UNL     1      19.111 -23.410 -19.255  1.00  0.00     0.035 C 
BRANCH  15  16
ATOM     16  C   UNL     1      19.854 -22.262 -18.565  1.00  0.00     0.079 C 
BRANCH  16  17
ATOM     17  C   UNL     1      21.183 -22.710 -18.016  1.00  0.00     0.130 C 
ATOM     18  O   UNL     1      22.203 -22.129 -18.356  1.00  0.00    -0.300 OA
ATOM     19  C   UNL     1      21.282 -23.859 -17.059  1.00  0.00     0.087 C 
ENDBRANCH  16  17
ENDBRANCH  15  16
ENDBRANCH  13  15
ENDBRANCH  11  12
ENDBRANCH   1  11
TORSDOF 9
ENDMDL
MODEL 5
REMARK VINA RESULT:    -4.400      2.315      4.938
REMARK INTER + INTRA:          -9.531
REMARK INTER:                  -6.929
REMARK INTRA:                  -2.602
REMARK UNBOUND:                -2.817
REMARK SMILES CC(=O)CCC=C(C)CCC=C(C)CCC=C(C)C
REMARK SMILES IDX 10 1 11 2 12 3 13 4 14 5 15 6 16 7 18 8 17 9 19 10 9 11 7 12
REMARK SMILES IDX 6 13 8 14 5 15 4 16 2 17 3 18 1 19
REMARK H PARENT
REMARK Flexibility Score: inf
ROOT
ATOM      1  C   UNL     1      19.667 -23.106 -25.391  1.00  0.00     0.032 C 
ENDROOT
BRANCH   1   2
ATOM      2  C   UNL     1      18.462 -22.320 -25.847  1.00  0.00    -0.028 C 
ATOM      3  C   UNL     1      18.085 -21.130 -25.322  1.00  0.00    -0.077 C 
ATOM      4  C   UNL     1      18.839 -20.490 -24.179  1.00  0.00     0.039 C 
BRANCH   3   5
ATOM      5  C   UNL     1      16.870 -20.428 -25.890  1.00  0.00     0.034 C 
BRANCH   5   6
ATOM      6  C   UNL     1      15.605 -21.270 -25.684  1.00  0.00     0.032 C 
BRANCH   6   7
ATOM      7  C   UNL     1      15.383 -21.570 -24.222  1.00  0.00    -0.028 C 
ATOM      8  C   UNL     1      15.062 -22.948 -22.215  1.00  0.00     0.039 C 
ATOM      9  C   UNL     1      15.314 -22.812 -23.694  1.00  0.00    -0.080 C 
ATOM     10  C   UNL     1      15.499 -24.054 -24.535  1.00  0.00     0.039 C 
ENDBRANCH   6   7
ENDBRANCH   5   6
ENDBRANCH   3   5
ENDBRANCH   1   2
BRANCH   1  11
ATOM     11  C   UNL     1      19.240 -24.333 -24.578  1.00  0.00     0.034 C 
BRANCH  11  12
ATOM     12  C   UNL     1      19.604 -24.166 -23.119  1.00  0.00    -0.077 C 
ATOM     13  C   UNL     1      18.794 -23.434 -22.320  1.00  0.00    -0.028 C 
ATOM     14  C   UNL     1      20.858 -24.826 -22.599  1.00  0.00     0.039 C 
BRANCH  13  15
ATOM     15  C   UNL     1      19.002 -23.226 -20.836  1.00  0.00     0.035 C 
BRANCH  15  16
ATOM     16  C   UNL     1      18.999 -21.735 -20.483  1.00  0.00     0.079 C 
BRANCH  16  17
ATOM     17  C   UNL     1      17.612 -21.242 -20.166  1.00  0.00     0.130 C 
ATOM     18  O   UNL     1      16.958 -21.799 -19.297  1.00  0.00    -0.300 OA
ATOM     19  C   UNL     1      17.013 -20.079 -20.898  1.00  0.00     0.087 C 
ENDBRANCH  16  17
ENDBRANCH  15  16
ENDBRANCH  13  15
ENDBRANCH  11  12
ENDBRANCH   1  11
TORSDOF 9
ENDMDL
MODEL 6
REMARK VINA RESULT:    -4.355      2.307      5.065
REMARK INTER + INTRA:          -9.464
REMARK INTER:                  -7.098
REMARK INTRA:                  -2.365
REMARK UNBOUND:                -2.817
REMARK SMILES CC(=O)CCC=C(C)CCC=C(C)CCC=C(C)C
REMARK SMILES IDX 10 1 11 2 12 3 13 4 14 5 15 6 16 7 18 8 17 9 19 10 9 11 7 12
REMARK SMILES IDX 6 13 8 14 5 15 4 16 2 17 3 18 1 19
REMARK H PARENT
REMARK Flexibility Score: inf
ROOT
ATOM      1  C   UNL     1      18.823 -21.219 -22.623  1.00  0.00     0.032 C 
ENDROOT
BRANCH   1   2
ATOM      2  C   UNL     1      17.818 -20.927 -23.711  1.00  0.00    -0.028 C 
ATOM      3  C   UNL     1      18.045 -21.124 -25.031  1.00  0.00    -0.077 C 
ATOM      4  C   UNL     1      19.374 -21.631 -25.543  1.00  0.00     0.039 C 
BRANCH   3   5
ATOM      5  C   UNL     1      16.942 -20.818 -26.021  1.00  0.00     0.034 C 
BRANCH   5   6
ATOM      6  C   UNL     1      16.546 -22.077 -26.804  1.00  0.00     0.032 C 
BRANCH   6   7
ATOM      7  C   UNL     1      15.681 -22.988 -25.970  1.00  0.00    -0.028 C 
ATOM      8  C   UNL     1      15.068 -25.008 -24.715  1.00  0.00     0.039 C 
ATOM      9  C   UNL     1      16.057 -24.205 -25.519  1.00  0.00    -0.080 C 
ATOM     10  C   UNL     1      17.434 -24.768 -25.782  1.00  0.00     0.039 C 
ENDBRANCH   6   7
ENDBRANCH   5   6
ENDBRANCH   3   5
ENDBRANCH   1   2
BRANCH   1  11
ATOM     11  C   UNL     1      18.272 -22.257 -21.639  1.00  0.00     0.034 C 
BRANCH  11  12
ATOM     12  C   UNL     1      18.496 -23.661 -22.156  1.00  0.00    -0.077 C 
ATOM     13  C   UNL     1      19.654 -23.949 -22.793  1.00  0.00    -0.028 C 
ATOM     14  C   UNL     1      17.421 -24.700 -21.938  1.00  0.00     0.039 C 
BRANCH  13  15
ATOM     15  C   UNL     1      20.037 -25.316 -23.313  1.00  0.00     0.035 C 
BRANCH  15  16
ATOM     16  C   UNL     1      20.772 -26.129 -22.241  1.00  0.00     0.079 C 
BRANCH  16  17
ATOM     17  C   UNL     1      20.315 -27.564 -22.223  1.00  0.00     0.130 C 
ATOM     18  O   UNL     1      20.848 -28.376 -22.964  1.00  0.00    -0.300 OA
ATOM     19  C   UNL     1      19.216 -28.019 -21.311  1.00  0.00     0.087 C 
ENDBRANCH  16  17
ENDBRANCH  15  16
ENDBRANCH  13  15
ENDBRANCH  11  12
ENDBRANCH   1  11
TORSDOF 9
ENDMDL
MODEL 7
REMARK VINA RESULT:    -4.314      2.604      5.857
REMARK INTER + INTRA:          -9.400
REMARK INTER:                  -7.294
REMARK INTRA:                  -2.106
REMARK UNBOUND:                -2.817
REMARK SMILES CC(=O)CCC=C(C)CCC=C(C)CCC=C(C)C
REMARK SMILES IDX 10 1 11 2 12 3 13 4 14 5 15 6 16 7 18 8 17 9 19 10 9 11 7 12
REMARK SMILES IDX 6 13 8 14 5 15 4 16 2 17 3 18 1 19
REMARK H PARENT
REMARK Flexibility Score: inf
ROOT
ATOM      1  C   UNL     1      19.656 -24.619 -23.950  1.00  0.00     0.032 C 
ENDROOT
BRANCH   1   2
ATOM      2  C   UNL     1      18.588 -24.395 -24.993  1.00  0.00    -0.028 C 
ATOM      3  C   UNL     1      18.590 -23.371 -25.878  1.00  0.00    -0.077 C 
ATOM      4  C   UNL     1      19.672 -22.315 -25.872  1.00  0.00     0.039 C 
BRANCH   3   5
ATOM      5  C   UNL     1      17.473 -23.276 -26.895  1.00  0.00     0.034 C 
BRANCH   5   6
ATOM      6  C   UNL     1      16.868 -21.866 -26.913  1.00  0.00     0.032 C 
BRANCH   6   7
ATOM      7  C   UNL     1      16.353 -21.478 -25.550  1.00  0.00    -0.028 C 
ATOM      8  C   UNL     1      14.730 -21.250 -23.720  1.00  0.00     0.039 C 
ATOM      9  C   UNL     1      15.102 -21.724 -25.102  1.00  0.00    -0.080 C 
ATOM     10  C   UNL     1      14.083 -22.468 -25.933  1.00  0.00     0.039 C 
ENDBRANCH   6   7
ENDBRANCH   5   6
ENDBRANCH   3   5
ENDBRANCH   1   2
BRANCH   1  11
ATOM     11  C   UNL     1      19.044 -24.660 -22.545  1.00  0.00     0.034 C 
BRANCH  11  12
ATOM     12  C   UNL     1      18.242 -23.406 -22.270  1.00  0.00    -0.077 C 
ATOM     13  C   UNL     1      18.854 -22.203 -22.360  1.00  0.00    -0.028 C 
ATOM     14  C   UNL     1      16.782 -23.537 -21.909  1.00  0.00     0.039 C 
BRANCH  13  15
ATOM     15  C   UNL     1      18.170 -20.868 -22.166  1.00  0.00     0.035 C 
BRANCH  15  16
ATOM     16  C   UNL     1      18.740 -20.128 -20.952  1.00  0.00     0.079 C 
BRANCH  16  17
ATOM     17  C   UNL     1      18.175 -20.660 -19.661  1.00  0.00     0.130 C 
ATOM     18  O   UNL     1      18.878 -21.343 -18.932  1.00  0.00    -0.300 OA
ATOM     19  C   UNL     1      16.764 -20.368 -19.251  1.00  0.00     0.087 C 
ENDBRANCH  16  17
ENDBRANCH  15  16
ENDBRANCH  13  15
ENDBRANCH  11  12
ENDBRANCH   1  11
TORSDOF 9
ENDMDL
MODEL 8
REMARK VINA RESULT:    -4.298      2.280      5.281
REMARK INTER + INTRA:          -9.376
REMARK INTER:                  -6.741
REMARK INTRA:                  -2.635
REMARK UNBOUND:                -2.817
REMARK SMILES CC(=O)CCC=C(C)CCC=C(C)CCC=C(C)C
REMARK SMILES IDX 10 1 11 2 12 3 13 4 14 5 15 6 16 7 18 8 17 9 19 10 9 11 7 12
REMARK SMILES IDX 6 13 8 14 5 15 4 16 2 17 3 18 1 19
REMARK H PARENT
REMARK Flexibility Score: inf
ROOT
ATOM      1  C   UNL     1      19.537 -25.845 -23.642  1.00  0.00     0.032 C 
ENDROOT
BRANCH   1   2
ATOM      2  C   UNL     1      18.648 -25.403 -24.779  1.00  0.00    -0.028 C 
ATOM      3  C   UNL     1      17.365 -24.999 -24.631  1.00  0.00    -0.077 C 
ATOM      4  C   UNL     1      16.683 -24.992 -23.282  1.00  0.00     0.039 C 
BRANCH   3   5
ATOM      5  C   UNL     1      16.588 -24.552 -25.851  1.00  0.00     0.034 C 
BRANCH   5   6
ATOM      6  C   UNL     1      17.322 -23.419 -26.581  1.00  0.00     0.032 C 
BRANCH   6   7
ATOM      7  C   UNL     1      17.555 -22.243 -25.666  1.00  0.00    -0.028 C 
ATOM      8  C   UNL     1      18.841 -20.582 -24.393  1.00  0.00     0.039 C 
ATOM      9  C   UNL     1      18.771 -21.751 -25.342  1.00  0.00    -0.080 C 
ATOM     10  C   UNL     1      20.048 -22.323 -25.912  1.00  0.00     0.039 C 
ENDBRANCH   6   7
ENDBRANCH   5   6
ENDBRANCH   3   5
ENDBRANCH   1   2
BRANCH   1  11
ATOM     11  C   UNL     1      20.344 -24.664 -23.093  1.00  0.00     0.034 C 
BRANCH  11  12
ATOM     12  C   UNL     1      19.821 -24.237 -21.738  1.00  0.00    -0.077 C 
ATOM     13  C   UNL     1      19.288 -23.002 -21.600  1.00  0.00    -0.028 C 
ATOM     14  C   UNL     1      19.906 -25.207 -20.584  1.00  0.00     0.039 C 
BRANCH  13  15
ATOM     15  C   UNL     1      18.680 -22.460 -20.325  1.00  0.00     0.035 C 
BRANCH  15  16
ATOM     16  C   UNL     1      17.158 -22.338 -20.449  1.00  0.00     0.079 C 
BRANCH  16  17
ATOM     17  C   UNL     1      16.763 -21.202 -21.355  1.00  0.00     0.130 C 
ATOM     18  O   UNL     1      17.234 -20.090 -21.167  1.00  0.00    -0.300 OA
ATOM     19  C   UNL     1      15.802 -21.406 -22.486  1.00  0.00     0.087 C 
ENDBRANCH  16  17
ENDBRANCH  15  16
ENDBRANCH  13  15
ENDBRANCH  11  12
ENDBRANCH   1  11
TORSDOF 9
ENDMDL
MODEL 9
REMARK VINA RESULT:    -4.244      4.660      7.644
REMARK INTER + INTRA:          -9.293
REMARK INTER:                  -8.103
REMARK INTRA:                  -1.191
REMARK UNBOUND:                -2.817
REMARK SMILES CC(=O)CCC=C(C)CCC=C(C)CCC=C(C)C
REMARK SMILES IDX 10 1 11 2 12 3 13 4 14 5 15 6 16 7 18 8 17 9 19 10 9 11 7 12
REMARK SMILES IDX 6 13 8 14 5 15 4 16 2 17 3 18 1 19
REMARK H PARENT
REMARK Flexibility Score: inf
ROOT
ATOM      1  C   UNL     1      19.883 -25.495 -22.831  1.00  0.00     0.032 C 
ENDROOT
BRANCH   1   2
ATOM      2  C   UNL     1      20.017 -24.248 -23.671  1.00  0.00    -0.028 C 
ATOM      3  C   UNL     1      19.274 -23.986 -24.771  1.00  0.00    -0.077 C 
ATOM      4  C   UNL     1      18.244 -24.966 -25.288  1.00  0.00     0.039 C 
BRANCH   3   5
ATOM      5  C   UNL     1      19.486 -22.683 -25.510  1.00  0.00     0.034 C 
BRANCH   5   6
ATOM      6  C   UNL     1      18.428 -21.647 -25.108  1.00  0.00     0.032 C 
BRANCH   6   7
ATOM      7  C   UNL     1      18.872 -20.855 -23.903  1.00  0.00    -0.028 C 
ATOM      8  C   UNL     1      18.893 -20.109 -21.563  1.00  0.00     0.039 C 
ATOM      9  C   UNL     1      18.360 -20.994 -22.661  1.00  0.00    -0.080 C 
ATOM     10  C   UNL     1      17.290 -22.012 -22.342  1.00  0.00     0.039 C 
ENDBRANCH   6   7
ENDBRANCH   5   6
ENDBRANCH   3   5
ENDBRANCH   1   2
BRANCH   1  11
ATOM     11  C   UNL     1      21.037 -25.601 -21.828  1.00  0.00     0.034 C 
BRANCH  11  12
ATOM     12  C   UNL     1      21.563 -27.019 -21.760  1.00  0.00    -0.077 C 
ATOM     13  C   UNL     1      22.779 -27.242 -21.212  1.00  0.00    -0.028 C 
ATOM     14  C   UNL     1      20.709 -28.141 -22.300  1.00  0.00     0.039 C 
BRANCH  13  15
ATOM     15  C   UNL     1      23.407 -28.605 -21.027  1.00  0.00     0.035 C 
BRANCH  15  16
ATOM     16  C   UNL     1      24.427 -28.896 -22.133  1.00  0.00     0.079 C 
BRANCH  16  17
ATOM     17  C   UNL     1      25.841 -28.822 -21.618  1.00  0.00     0.130 C 
ATOM     18  O   UNL     1      26.768 -29.125 -22.354  1.00  0.00    -0.300 OA
ATOM     19  C   UNL     1      26.136 -28.386 -20.215  1.00  0.00     0.087 C 
ENDBRANCH  16  17
ENDBRANCH  15  16
ENDBRANCH  13  15
ENDBRANCH  11  12
ENDBRANCH   1  11
TORSDOF 9
ENDMDL
