MODEL 1
REMARK VINA RESULT:    -5.528      0.000      0.000
REMARK INTER + INTRA:          -6.317
REMARK INTER:                  -6.175
REMARK INTRA:                  -0.143
REMARK UNBOUND:                -0.143
REMARK SMILES O=C([O-])C=Cc1ccccc1
REMARK SMILES IDX 4 1 5 2 2 3 1 4 3 5 6 6 7 7 11 8 8 9 10 10 9 11
REMARK H PARENT
REMARK Flexibility Score: inf
ROOT
ATOM      1  C   UNL     1      11.672  -3.260  10.510  1.00  0.00     0.025 C 
ATOM      2  C   UNL     1      12.150  -2.222  11.214  1.00  0.00     0.010 C 
ENDROOT
BRANCH   1   3
ATOM      3  C   UNL     1      10.333  -3.241   9.897  1.00  0.00     0.064 C 
ATOM      4  O   UNL     1       9.981  -4.125   9.071  1.00  0.00    -0.545 OA
ATOM      5  O   UNL     1       9.441  -2.231  10.237  1.00  0.00    -0.545 OA
ENDBRANCH   1   3
BRANCH   2   6
ATOM      6  C   UNL     1      13.491  -2.177  11.859  1.00  0.00    -0.026 A 
ATOM      7  C   UNL     1      14.229  -0.985  12.033  1.00  0.00     0.008 A 
ATOM      8  C   UNL     1      14.046  -3.386  12.317  1.00  0.00     0.008 A 
ATOM      9  C   UNL     1      15.485  -1.015  12.648  1.00  0.00     0.001 A 
ATOM     10  C   UNL     1      15.302  -3.407  12.931  1.00  0.00     0.001 A 
ATOM     11  C   UNL     1      16.021  -2.223  13.096  1.00  0.00     0.000 A 
ENDBRANCH   2   6
TORSDOF 2
ENDMDL
MODEL 2
REMARK VINA RESULT:    -5.355      0.139      1.465
REMARK INTER + INTRA:          -6.124
REMARK INTER:                  -5.992
REMARK INTRA:                  -0.132
REMARK UNBOUND:                -0.143
REMARK SMILES O=C([O-])C=Cc1ccccc1
REMARK SMILES IDX 4 1 5 2 2 3 1 4 3 5 6 6 7 7 11 8 8 9 10 10 9 11
REMARK H PARENT
REMARK Flexibility Score: inf
ROOT
ATOM      1  C   UNL     1      11.698  -3.309  10.625  1.00  0.00     0.025 C 
ATOM      2  C   UNL     1      12.315  -2.231  11.134  1.00  0.00     0.010 C 
ENDROOT
BRANCH   1   3
ATOM      3  C   UNL     1      10.408  -3.213   9.920  1.00  0.00     0.064 C 
ATOM      4  O   UNL     1      10.112  -4.011   8.991  1.00  0.00    -0.545 OA
ATOM      5  O   UNL     1       9.501  -2.227  10.288  1.00  0.00    -0.545 OA
ENDBRANCH   1   3
BRANCH   2   6
ATOM      6  C   UNL     1      13.617  -2.259  11.857  1.00  0.00    -0.026 A 
ATOM      7  C   UNL     1      14.182  -3.438  12.392  1.00  0.00     0.008 A 
ATOM      8  C   UNL     1      14.315  -1.047  12.011  1.00  0.00     0.008 A 
ATOM      9  C   UNL     1      15.410  -3.393  13.060  1.00  0.00     0.001 A 
ATOM     10  C   UNL     1      15.542  -1.011  12.680  1.00  0.00     0.001 A 
ATOM     11  C   UNL     1      16.089  -2.182  13.204  1.00  0.00     0.000 A 
ENDBRANCH   2   6
TORSDOF 2
ENDMDL
