MODEL 1
REMARK VINA RESULT:    -4.594      0.000      0.000
REMARK INTER + INTRA:          -5.678
REMARK INTER:                  -5.400
REMARK INTRA:                  -0.278
REMARK UNBOUND:                -0.278
REMARK SMILES O=c1cc(-c2ccc(O)c(O)c2)oc2cc(O)cc(O)c12
REMARK SMILES IDX 4 1 3 2 2 3 1 4 21 5 19 6 18 7 16 8 15 9 14 10 13 11 5 12
REMARK SMILES IDX 6 13 7 14 8 15 12 16 10 17 9 18 11 20 20 22 17 24
REMARK H PARENT 9 19 11 21 20 23 17 25
REMARK Flexibility Score: inf
ROOT
ATOM      1  C   UNL     1     -31.081 -20.875 -33.933  1.00  0.00     0.138 A 
ATOM      2  C   UNL     1     -29.719 -20.551 -33.868  1.00  0.00     0.100 A 
ATOM      3  C   UNL     1     -29.204 -19.962 -32.711  1.00  0.00     0.197 A 
ATOM      4  O   UNL     1     -27.991 -19.626 -32.705  1.00  0.00    -0.289 OA
ATOM      5  C   UNL     1     -30.054 -19.727 -31.604  1.00  0.00     0.107 A 
ATOM      6  C   UNL     1     -29.632 -19.170 -30.361  1.00  0.00     0.134 A 
ATOM      7  C   UNL     1     -30.585 -18.875 -29.377  1.00  0.00     0.093 A 
ATOM      8  C   UNL     1     -31.934 -19.171 -29.570  1.00  0.00     0.123 A 
ATOM      9  C   UNL     1     -32.350 -19.766 -30.762  1.00  0.00     0.094 A 
ATOM     10  C   UNL     1     -31.429 -20.040 -31.774  1.00  0.00     0.146 A 
ATOM     11  O   UNL     1     -31.868 -20.593 -32.901  1.00  0.00    -0.456 OA
ENDROOT
BRANCH   1  12
ATOM     12  C   UNL     1     -31.679 -21.503 -35.139  1.00  0.00     0.021 A 
ATOM     13  C   UNL     1     -32.930 -21.097 -35.641  1.00  0.00     0.016 A 
ATOM     14  C   UNL     1     -33.465 -21.699 -36.783  1.00  0.00     0.051 A 
ATOM     15  C   UNL     1     -32.761 -22.707 -37.447  1.00  0.00     0.157 A 
ATOM     16  C   UNL     1     -30.970 -22.508 -35.820  1.00  0.00     0.062 A 
ATOM     17  C   UNL     1     -31.506 -23.113 -36.966  1.00  0.00     0.158 A 
BRANCH  15  18
ATOM     18  O   UNL     1     -33.322 -23.289 -38.584  1.00  0.00    -0.504 OA
ATOM     19  H   UNL     1     -33.765 -24.199 -38.559  1.00  0.00     0.293 HD
ENDBRANCH  15  18
BRANCH  17  20
ATOM     20  O   UNL     1     -30.797 -24.115 -37.626  1.00  0.00    -0.504 OA
ATOM     21  H   UNL     1     -31.265 -24.811 -38.194  1.00  0.00     0.293 HD
ENDBRANCH  17  20
ENDBRANCH   1  12
BRANCH   6  22
ATOM     22  O   UNL     1     -28.297 -18.914 -30.032  1.00  0.00    -0.507 OA
ATOM     23  H   UNL     1     -27.993 -18.314 -29.280  1.00  0.00     0.293 HD
ENDBRANCH   6  22
BRANCH   8  24
ATOM     24  O   UNL     1     -32.852 -18.877 -28.564  1.00  0.00    -0.508 OA
ATOM     25  H   UNL     1     -33.149 -17.927 -28.378  1.00  0.00     0.293 HD
ENDBRANCH   8  24
TORSDOF 5
ENDMDL
MODEL 2
REMARK VINA RESULT:    -2.939      1.997      7.329
REMARK INTER + INTRA:          -3.732
REMARK INTER:                  -3.450
REMARK INTRA:                  -0.283
REMARK UNBOUND:                -0.278
REMARK SMILES O=c1cc(-c2ccc(O)c(O)c2)oc2cc(O)cc(O)c12
REMARK SMILES IDX 4 1 3 2 2 3 1 4 21 5 19 6 18 7 16 8 15 9 14 10 13 11 5 12
REMARK SMILES IDX 6 13 7 14 8 15 12 16 10 17 9 18 11 20 20 22 17 24
REMARK H PARENT 9 19 11 21 20 23 17 25
REMARK Flexibility Score: inf
ROOT
ATOM      1  C   UNL     1     -31.899 -21.323 -33.819  1.00  0.00     0.138 A 
ATOM      2  C   UNL     1     -32.722 -20.284 -34.275  1.00  0.00     0.100 A 
ATOM      3  C   UNL     1     -33.151 -20.276 -35.604  1.00  0.00     0.197 A 
ATOM      4  O   UNL     1     -33.837 -19.298 -36.000  1.00  0.00    -0.289 OA
ATOM      5  C   UNL     1     -32.779 -21.332 -36.469  1.00  0.00     0.107 A 
ATOM      6  C   UNL     1     -33.190 -21.449 -37.830  1.00  0.00     0.134 A 
ATOM      7  C   UNL     1     -32.665 -22.477 -38.624  1.00  0.00     0.093 A 
ATOM      8  C   UNL     1     -31.791 -23.424 -38.091  1.00  0.00     0.123 A 
ATOM      9  C   UNL     1     -31.424 -23.349 -36.746  1.00  0.00     0.094 A 
ATOM     10  C   UNL     1     -31.904 -22.317 -35.938  1.00  0.00     0.146 A 
ATOM     11  O   UNL     1     -31.519 -22.273 -34.667  1.00  0.00    -0.456 OA
ENDROOT
BRANCH   1  12
ATOM     12  C   UNL     1     -31.415 -21.380 -32.417  1.00  0.00     0.021 A 
ATOM     13  C   UNL     1     -31.210 -22.606 -31.755  1.00  0.00     0.016 A 
ATOM     14  C   UNL     1     -30.744 -22.630 -30.438  1.00  0.00     0.051 A 
ATOM     15  C   UNL     1     -30.467 -21.439 -29.762  1.00  0.00     0.157 A 
ATOM     16  C   UNL     1     -31.121 -20.185 -31.736  1.00  0.00     0.062 A 
ATOM     17  C   UNL     1     -30.654 -20.210 -30.414  1.00  0.00     0.158 A 
BRANCH  15  18
ATOM     18  O   UNL     1     -30.004 -21.497 -28.447  1.00  0.00    -0.504 OA
ATOM     19  H   UNL     1     -29.497 -20.730 -28.021  1.00  0.00     0.293 HD
ENDBRANCH  15  18
BRANCH  17  20
ATOM     20  O   UNL     1     -30.375 -19.017 -29.748  1.00  0.00    -0.504 OA
ATOM     21  H   UNL     1     -30.325 -18.973 -28.737  1.00  0.00     0.293 HD
ENDBRANCH  17  20
ENDBRANCH   1  12
BRANCH   6  22
ATOM     22  O   UNL     1     -34.125 -20.607 -38.440  1.00  0.00    -0.507 OA
ATOM     23  H   UNL     1     -34.399 -20.655 -39.409  1.00  0.00     0.293 HD
ENDBRANCH   6  22
BRANCH   8  24
ATOM     24  O   UNL     1     -31.299 -24.441 -38.906  1.00  0.00    -0.508 OA
ATOM     25  H   UNL     1     -30.536 -24.280 -39.552  1.00  0.00     0.293 HD
ENDBRANCH   8  24
TORSDOF 5
ENDMDL
MODEL 3
REMARK VINA RESULT:    -2.599      1.543      7.319
REMARK INTER + INTRA:          -3.333
REMARK INTER:                  -3.070
REMARK INTRA:                  -0.263
REMARK UNBOUND:                -0.278
REMARK SMILES O=c1cc(-c2ccc(O)c(O)c2)oc2cc(O)cc(O)c12
REMARK SMILES IDX 4 1 3 2 2 3 1 4 21 5 19 6 18 7 16 8 15 9 14 10 13 11 5 12
REMARK SMILES IDX 6 13 7 14 8 15 12 16 10 17 9 18 11 20 20 22 17 24
REMARK H PARENT 9 19 11 21 20 23 17 25
REMARK Flexibility Score: inf
ROOT
ATOM      1  C   UNL     1     -31.273 -20.674 -33.935  1.00  0.00     0.138 A 
ATOM      2  C   UNL     1     -32.327 -19.952 -34.511  1.00  0.00     0.100 A 
ATOM      3  C   UNL     1     -32.904 -20.403 -35.700  1.00  0.00     0.197 A 
ATOM      4  O   UNL     1     -33.806 -19.700 -36.225  1.00  0.00    -0.289 OA
ATOM      5  C   UNL     1     -32.442 -21.600 -36.296  1.00  0.00     0.107 A 
ATOM      6  C   UNL     1     -32.981 -22.176 -37.485  1.00  0.00     0.134 A 
ATOM      7  C   UNL     1     -32.367 -23.302 -38.046  1.00  0.00     0.093 A 
ATOM      8  C   UNL     1     -31.272 -23.907 -37.431  1.00  0.00     0.123 A 
ATOM      9  C   UNL     1     -30.769 -23.383 -36.239  1.00  0.00     0.094 A 
ATOM     10  C   UNL     1     -31.338 -22.242 -35.673  1.00  0.00     0.146 A 
ATOM     11  O   UNL     1     -30.821 -21.766 -34.544  1.00  0.00    -0.456 OA
ENDROOT
BRANCH   1  12
ATOM     12  C   UNL     1     -30.624 -20.241 -32.672  1.00  0.00     0.021 A 
ATOM     13  C   UNL     1     -29.527 -19.357 -32.668  1.00  0.00     0.016 A 
ATOM     14  C   UNL     1     -28.943 -18.958 -31.463  1.00  0.00     0.051 A 
ATOM     15  C   UNL     1     -29.444 -19.423 -30.245  1.00  0.00     0.157 A 
ATOM     16  C   UNL     1     -31.133 -20.694 -31.441  1.00  0.00     0.062 A 
ATOM     17  C   UNL     1     -30.546 -20.294 -30.232  1.00  0.00     0.158 A 
BRANCH  15  18
ATOM     18  O   UNL     1     -28.839 -19.007 -29.059  1.00  0.00    -0.504 OA
ATOM     19  H   UNL     1     -27.859 -18.756 -29.015  1.00  0.00     0.293 HD
ENDBRANCH  15  18
BRANCH  17  20
ATOM     20  O   UNL     1     -31.054 -20.758 -29.020  1.00  0.00    -0.504 OA
ATOM     21  H   UNL     1     -32.034 -20.658 -28.781  1.00  0.00     0.293 HD
ENDBRANCH  17  20
ENDBRANCH   1  12
BRANCH   6  22
ATOM     22  O   UNL     1     -34.125 -21.701 -38.134  1.00  0.00    -0.507 OA
ATOM     23  H   UNL     1     -34.310 -21.795 -39.120  1.00  0.00     0.293 HD
ENDBRANCH   6  22
BRANCH   8  24
ATOM     24  O   UNL     1     -30.694 -25.035 -38.010  1.00  0.00    -0.508 OA
ATOM     25  H   UNL     1     -31.080 -25.459 -38.845  1.00  0.00     0.293 HD
ENDBRANCH   8  24
TORSDOF 5
ENDMDL
