MODEL 1
REMARK VINA RESULT:    -2.379      0.000      0.000
REMARK INTER + INTRA:          -2.379
REMARK INTER:                  -2.379
REMARK INTRA:                   0.000
REMARK UNBOUND:                 0.000
REMARK SMILES CC1=CC[C@H]2[C@H](C1)C2(C)C
REMARK SMILES IDX 1 1 2 2 3 3 4 4 5 5 6 6 7 7 8 8 9 9 10 10
REMARK H PARENT
REMARK Flexibility Score: inf
ROOT
ATOM      1  C   UNL     1     -17.515   0.287  17.215  1.00  0.00     0.039 C 
ATOM      2  C   UNL     1     -16.443  -0.764  17.192  1.00  0.00    -0.077 C 
ATOM      3  C   UNL     1     -15.620  -0.909  18.272  1.00  0.00    -0.028 C 
ATOM      4  C   UNL     1     -14.529  -1.977  18.320  1.00  0.00     0.031 C 
ATOM      5  C   UNL     1     -14.916  -3.089  17.340  1.00  0.00     0.003 C 
ATOM      6  C   UNL     1     -14.922  -2.304  15.975  1.00  0.00     0.003 C 
ATOM      7  C   UNL     1     -16.331  -1.700  15.983  1.00  0.00     0.034 C 
ATOM      8  C   UNL     1     -14.328  -3.691  16.083  1.00  0.00    -0.029 C 
ATOM      9  C   UNL     1     -12.800  -3.796  16.051  1.00  0.00     0.012 C 
ATOM     10  C   UNL     1     -15.128  -4.808  15.408  1.00  0.00     0.012 C 
ENDROOT
TORSDOF 0
ENDMDL
MODEL 2
REMARK VINA RESULT:    -1.585      0.745      2.139
REMARK INTER + INTRA:          -1.585
REMARK INTER:                  -1.585
REMARK INTRA:                   0.000
REMARK UNBOUND:                 0.000
REMARK SMILES CC1=CC[C@H]2[C@H](C1)C2(C)C
REMARK SMILES IDX 1 1 2 2 3 3 4 4 5 5 6 6 7 7 8 8 9 9 10 10
REMARK H PARENT
REMARK Flexibility Score: inf
ROOT
ATOM      1  C   UNL     1     -16.955   0.782  17.896  1.00  0.00     0.039 C 
ATOM      2  C   UNL     1     -16.497  -0.463  17.194  1.00  0.00    -0.077 C 
ATOM      3  C   UNL     1     -17.179  -0.907  16.097  1.00  0.00    -0.028 C 
ATOM      4  C   UNL     1     -16.747  -2.151  15.325  1.00  0.00     0.031 C 
ATOM      5  C   UNL     1     -15.257  -2.382  15.600  1.00  0.00     0.003 C 
ATOM      6  C   UNL     1     -15.268  -2.621  17.157  1.00  0.00     0.003 C 
ATOM      7  C   UNL     1     -15.232  -1.181  17.681  1.00  0.00     0.034 C 
ATOM      8  C   UNL     1     -14.419  -3.469  16.236  1.00  0.00    -0.029 C 
ATOM      9  C   UNL     1     -14.891  -4.903  15.981  1.00  0.00     0.012 C 
ATOM     10  C   UNL     1     -12.910  -3.226  16.316  1.00  0.00     0.012 C 
ENDROOT
TORSDOF 0
ENDMDL
MODEL 3
REMARK VINA RESULT:     0.428      1.610      3.173
REMARK INTER + INTRA:           0.428
REMARK INTER:                   0.428
REMARK INTRA:                   0.000
REMARK UNBOUND:                 0.000
REMARK SMILES CC1=CC[C@H]2[C@H](C1)C2(C)C
REMARK SMILES IDX 1 1 2 2 3 3 4 4 5 5 6 6 7 7 8 8 9 9 10 10
REMARK H PARENT
REMARK Flexibility Score: inf
ROOT
ATOM      1  C   UNL     1     -13.555  -1.830  21.394  1.00  0.00     0.039 C 
ATOM      2  C   UNL     1     -14.070  -2.065  20.003  1.00  0.00    -0.077 C 
ATOM      3  C   UNL     1     -15.363  -1.746  19.703  1.00  0.00    -0.028 C 
ATOM      4  C   UNL     1     -15.938  -1.936  18.300  1.00  0.00     0.031 C 
ATOM      5  C   UNL     1     -14.769  -1.942  17.309  1.00  0.00     0.003 C 
ATOM      6  C   UNL     1     -13.961  -3.202  17.798  1.00  0.00     0.003 C 
ATOM      7  C   UNL     1     -13.117  -2.597  18.926  1.00  0.00     0.034 C 
ATOM      8  C   UNL     1     -14.175  -2.926  16.326  1.00  0.00    -0.029 C 
ATOM      9  C   UNL     1     -15.181  -3.817  15.592  1.00  0.00     0.012 C 
ATOM     10  C   UNL     1     -12.935  -2.471  15.551  1.00  0.00     0.012 C 
ENDROOT
TORSDOF 0
ENDMDL
MODEL 4
REMARK VINA RESULT:     0.514      2.866      4.967
REMARK INTER + INTRA:           0.514
REMARK INTER:                   0.514
REMARK INTRA:                   0.000
REMARK UNBOUND:                 0.000
REMARK SMILES CC1=CC[C@H]2[C@H](C1)C2(C)C
REMARK SMILES IDX 1 1 2 2 3 3 4 4 5 5 6 6 7 7 8 8 9 9 10 10
REMARK H PARENT
REMARK Flexibility Score: inf
ROOT
ATOM      1  C   UNL     1     -14.150  -2.522  16.746  1.00  0.00     0.039 C 
ATOM      2  C   UNL     1     -14.344  -2.377  18.227  1.00  0.00    -0.077 C 
ATOM      3  C   UNL     1     -15.600  -2.483  18.754  1.00  0.00    -0.028 C 
ATOM      4  C   UNL     1     -15.859  -2.371  20.255  1.00  0.00     0.031 C 
ATOM      5  C   UNL     1     -14.556  -2.714  20.985  1.00  0.00     0.003 C 
ATOM      6  C   UNL     1     -13.603  -1.576  20.458  1.00  0.00     0.003 C 
ATOM      7  C   UNL     1     -13.123  -2.177  19.132  1.00  0.00     0.034 C 
ATOM      8  C   UNL     1     -13.601  -1.995  21.911  1.00  0.00    -0.029 C 
ATOM      9  C   UNL     1     -14.248  -1.033  22.912  1.00  0.00     0.012 C 
ATOM     10  C   UNL     1     -12.365  -2.771  22.374  1.00  0.00     0.012 C 
ENDROOT
TORSDOF 0
ENDMDL
