MODEL 1
REMARK VINA RESULT:    22.804      0.000      0.000
REMARK INTER + INTRA:          35.949
REMARK INTER:                  34.801
REMARK INTRA:                   1.148
REMARK UNBOUND:                 1.148
REMARK SMILES CC1=CCC[C@@H](C)C(=O)C[C@H](C(C)C)C(=O)C1
REMARK SMILES IDX 8 1 9 2 6 3 7 4 5 5 4 6 3 7 2 8 1 9 10 11 11 12 15 13 16 14
REMARK SMILES IDX 17 15 12 17 13 18 14 19
REMARK H PARENT
REMARK Flexibility Score: 70.00
ROOT
ATOM      1  C   UNL     1      84.085  14.659 109.832  1.00  0.00     0.136 C 
ATOM      2  O   UNL     1      85.152  14.374 110.358  1.00  0.00    -0.299 OA
ENDROOT
BRANCH   1   3
ATOM      3  C   UNL     1      82.960  13.649 109.825  1.00  0.00     0.053 C 
ATOM      4  C   UNL     1      82.556  13.258 111.250  1.00  0.00     0.016 C 
BRANCH   3   5
ATOM      5  C   UNL     1      83.393  12.415 108.995  1.00  0.00     0.015 C 
BRANCH   5   6
ATOM      6  C   UNL     1      83.677  12.675 107.501  1.00  0.00     0.028 C 
BRANCH   6   7
ATOM      7  C   UNL     1      82.859  13.756 106.826  1.00  0.00    -0.028 C 
ATOM      8  C   UNL     1      83.330  14.799 106.101  1.00  0.00    -0.070 CG0
ATOM      9  C   UNL     1      82.321  15.698 105.430  1.00  0.00     0.039 C 
ATOM     10  G   UNL     1      84.799  15.161 105.982  1.00  0.00     0.000 G0
ENDBRANCH   6   7
ENDBRANCH   5   6
ENDBRANCH   3   5
ENDBRANCH   1   3
BRANCH   1  11
ATOM     11  C   UNL     1      83.939  15.984 109.123  1.00  0.00     0.087 C 
BRANCH  11  12
ATOM     12  C   UNL     1      85.217  16.363 108.313  1.00  0.00     0.066 C 
BRANCH  12  13
ATOM     13  C   UNL     1      85.502  15.275 107.285  1.00  0.00     0.140 C 
ATOM     14  O   UNL     1      86.298  14.390 107.569  1.00  0.00    -0.299 OA
BRANCH  13  15
ATOM     15  C   UNL     1      84.778  15.210 105.955  1.00  0.00     0.106 CG0
ATOM     16  G   UNL     1      83.332  14.789 106.144  1.00  0.00     0.000 G0
ENDBRANCH  13  15
ENDBRANCH  12  13
BRANCH  12  17
ATOM     17  C   UNL     1      85.085  17.763 107.625  1.00  0.00    -0.006 C 
ATOM     18  C   UNL     1      85.798  18.872 108.426  1.00  0.00     0.008 C 
ATOM     19  C   UNL     1      83.609  18.174 107.448  1.00  0.00     0.008 C 
ENDBRANCH  12  17
ENDBRANCH  11  12
ENDBRANCH   1  11
TORSDOF 1
ENDMDL
MODEL 2
REMARK VINA RESULT:    23.815      1.935      3.328
REMARK INTER + INTRA:          37.492
REMARK INTER:                  32.484
REMARK INTRA:                   5.008
REMARK UNBOUND:                 1.148
REMARK SMILES CC1=CCC[C@@H](C)C(=O)C[C@H](C(C)C)C(=O)C1
REMARK SMILES IDX 8 1 9 2 6 3 7 4 5 5 4 6 3 7 2 8 1 9 10 11 11 12 15 13 16 14
REMARK SMILES IDX 17 15 12 17 13 18 14 19
REMARK H PARENT
REMARK Flexibility Score: 70.00
ROOT
ATOM      1  C   UNL     1      83.123  14.694 106.738  1.00  0.00     0.136 C 
ATOM      2  O   UNL     1      82.542  14.360 105.715  1.00  0.00    -0.299 OA
ENDROOT
BRANCH   1   3
ATOM      3  C   UNL     1      83.372  13.675 107.826  1.00  0.00     0.053 C 
ATOM      4  C   UNL     1      83.278  12.246 107.281  1.00  0.00     0.016 C 
BRANCH   3   5
ATOM      5  C   UNL     1      82.368  13.912 108.981  1.00  0.00     0.015 C 
BRANCH   5   6
ATOM      6  C   UNL     1      82.775  13.338 110.354  1.00  0.00     0.028 C 
BRANCH   6   7
ATOM      7  C   UNL     1      84.114  13.776 110.911  1.00  0.00    -0.028 C 
ATOM      8  C   UNL     1      85.232  14.071 110.205  1.00  0.00    -0.070 CG0
ATOM      9  C   UNL     1      86.426  14.589 110.969  1.00  0.00     0.039 C 
ATOM     10  G   UNL     1      85.383  13.844 108.712  1.00  0.00     0.000 G0
ENDBRANCH   6   7
ENDBRANCH   5   6
ENDBRANCH   3   5
ENDBRANCH   1   3
BRANCH   1  11
ATOM     11  C   UNL     1      83.506  16.142 106.932  1.00  0.00     0.087 C 
BRANCH  11  12
ATOM     12  C   UNL     1      84.583  16.323 108.046  1.00  0.00     0.066 C 
BRANCH  12  13
ATOM     13  C   UNL     1      85.591  15.184 107.961  1.00  0.00     0.140 C 
ATOM     14  O   UNL     1      86.630  15.361 107.338  1.00  0.00    -0.299 OA
BRANCH  13  15
ATOM     15  C   UNL     1      85.386  13.867 108.683  1.00  0.00     0.106 CG0
ATOM     16  G   UNL     1      85.209  14.087 110.174  1.00  0.00     0.000 G0
ENDBRANCH  13  15
ENDBRANCH  12  13
BRANCH  12  17
ATOM     17  C   UNL     1      85.297  17.713 107.954  1.00  0.00    -0.006 C 
ATOM     18  C   UNL     1      85.275  18.465 109.301  1.00  0.00     0.008 C 
ATOM     19  C   UNL     1      84.648  18.618 106.888  1.00  0.00     0.008 C 
ENDBRANCH  12  17
ENDBRANCH  11  12
ENDBRANCH   1  11
TORSDOF 1
ENDMDL
MODEL 3
REMARK VINA RESULT:    24.156      1.804      4.428
REMARK INTER + INTRA:          38.014
REMARK INTER:                  35.233
REMARK INTRA:                   2.781
REMARK UNBOUND:                 1.148
REMARK SMILES CC1=CCC[C@@H](C)C(=O)C[C@H](C(C)C)C(=O)C1
REMARK SMILES IDX 8 1 9 2 6 3 7 4 5 5 4 6 3 7 2 8 1 9 10 11 11 12 15 13 16 14
REMARK SMILES IDX 17 15 12 17 13 18 14 19
REMARK H PARENT
REMARK Flexibility Score: 70.00
ROOT
ATOM      1  C   UNL     1      82.634  14.083 107.016  1.00  0.00     0.136 C 
ATOM      2  O   UNL     1      83.130  12.990 106.780  1.00  0.00    -0.299 OA
ENDROOT
BRANCH   1   3
ATOM      3  C   UNL     1      82.559  15.125 105.923  1.00  0.00     0.053 C 
ATOM      4  C   UNL     1      83.509  14.788 104.768  1.00  0.00     0.016 C 
BRANCH   3   5
ATOM      5  C   UNL     1      82.869  16.516 106.529  1.00  0.00     0.015 C 
BRANCH   5   6
ATOM      6  C   UNL     1      84.020  16.562 107.555  1.00  0.00     0.028 C 
BRANCH   6   7
ATOM      7  C   UNL     1      85.283  15.803 107.205  1.00  0.00    -0.028 C 
ATOM      8  C   UNL     1      85.828  14.769 107.890  1.00  0.00    -0.070 CG0
ATOM      9  C   UNL     1      87.039  14.095 107.293  1.00  0.00     0.039 C 
ATOM     10  G   UNL     1      85.344  14.296 109.249  1.00  0.00     0.000 G0
ENDBRANCH   6   7
ENDBRANCH   5   6
ENDBRANCH   3   5
ENDBRANCH   1   3
BRANCH   1  11
ATOM     11  C   UNL     1      82.181  14.402 108.421  1.00  0.00     0.087 C 
BRANCH  11  12
ATOM     12  C   UNL     1      82.808  13.438 109.475  1.00  0.00     0.066 C 
BRANCH  12  13
ATOM     13  C   UNL     1      84.276  13.209 109.137  1.00  0.00     0.140 C 
ATOM     14  O   UNL     1      84.615  12.123 108.688  1.00  0.00    -0.299 OA
BRANCH  13  15
ATOM     15  C   UNL     1      85.316  14.305 109.268  1.00  0.00     0.106 CG0
ATOM     16  G   UNL     1      85.788  14.771 107.903  1.00  0.00     0.000 G0
ENDBRANCH  13  15
ENDBRANCH  12  13
BRANCH  12  17
ATOM     17  C   UNL     1      82.646  13.978 110.936  1.00  0.00    -0.006 C 
ATOM     18  C   UNL     1      83.416  13.118 111.960  1.00  0.00     0.008 C 
ATOM     19  C   UNL     1      81.166  14.025 111.366  1.00  0.00     0.008 C 
ENDBRANCH  12  17
ENDBRANCH  11  12
ENDBRANCH   1  11
TORSDOF 1
ENDMDL
MODEL 4
REMARK VINA RESULT:    24.283      1.709      3.187
REMARK INTER + INTRA:          38.208
REMARK INTER:                  35.326
REMARK INTRA:                   2.882
REMARK UNBOUND:                 1.148
REMARK SMILES CC1=CCC[C@@H](C)C(=O)C[C@H](C(C)C)C(=O)C1
REMARK SMILES IDX 8 1 9 2 6 3 7 4 5 5 4 6 3 7 2 8 1 9 10 11 11 12 15 13 16 14
REMARK SMILES IDX 17 15 12 17 13 18 14 19
REMARK H PARENT
REMARK Flexibility Score: 70.00
ROOT
ATOM      1  C   UNL     1      83.519  15.515 106.539  1.00  0.00     0.136 C 
ATOM      2  O   UNL     1      84.557  15.487 105.892  1.00  0.00    -0.299 OA
ENDROOT
BRANCH   1   3
ATOM      3  C   UNL     1      82.462  14.460 106.308  1.00  0.00     0.053 C 
ATOM      4  C   UNL     1      81.328  14.576 107.332  1.00  0.00     0.016 C 
BRANCH   3   5
ATOM      5  C   UNL     1      83.126  13.061 106.348  1.00  0.00     0.015 C 
BRANCH   5   6
ATOM      6  C   UNL     1      83.943  12.741 107.616  1.00  0.00     0.028 C 
BRANCH   6   7
ATOM      7  C   UNL     1      83.221  12.848 108.943  1.00  0.00    -0.028 C 
ATOM      8  C   UNL     1      83.527  13.675 109.972  1.00  0.00    -0.070 CG0
ATOM      9  C   UNL     1      82.600  13.684 111.163  1.00  0.00     0.039 C 
ATOM     10  G   UNL     1      84.777  14.534 110.033  1.00  0.00     0.000 G0
ENDBRANCH   6   7
ENDBRANCH   5   6
ENDBRANCH   3   5
ENDBRANCH   1   3
BRANCH   1  11
ATOM     11  C   UNL     1      83.277  16.656 107.499  1.00  0.00     0.087 C 
BRANCH  11  12
ATOM     12  C   UNL     1      84.372  16.735 108.608  1.00  0.00     0.066 C 
BRANCH  12  13
ATOM     13  C   UNL     1      85.009  15.363 108.785  1.00  0.00     0.140 C 
ATOM     14  O   UNL     1      85.765  14.947 107.917  1.00  0.00    -0.299 OA
BRANCH  13  15
ATOM     15  C   UNL     1      84.799  14.529 110.033  1.00  0.00     0.106 CG0
ATOM     16  G   UNL     1      83.540  13.688 109.919  1.00  0.00     0.000 G0
ENDBRANCH  13  15
ENDBRANCH  12  13
BRANCH  12  17
ATOM     17  C   UNL     1      85.455  17.819 108.288  1.00  0.00    -0.006 C 
ATOM     18  C   UNL     1      85.935  18.551 109.559  1.00  0.00     0.008 C 
ATOM     19  C   UNL     1      84.929  18.877 107.297  1.00  0.00     0.008 C 
ENDBRANCH  12  17
ENDBRANCH  11  12
ENDBRANCH   1  11
TORSDOF 1
ENDMDL
MODEL 5
REMARK VINA RESULT:    24.931      6.983      9.813
REMARK INTER + INTRA:          39.196
REMARK INTER:                  34.782
REMARK INTRA:                   4.414
REMARK UNBOUND:                 1.148
REMARK SMILES CC1=CCC[C@@H](C)C(=O)C[C@H](C(C)C)C(=O)C1
REMARK SMILES IDX 8 1 9 2 6 3 7 4 5 5 4 6 3 7 2 8 1 9 10 11 11 12 15 13 16 14
REMARK SMILES IDX 17 15 12 17 13 18 14 19
REMARK H PARENT
REMARK Flexibility Score: 70.00
ROOT
ATOM      1  C   UNL     1      89.893  23.037 112.181  1.00  0.00     0.136 C 
ATOM      2  O   UNL     1      89.935  24.216 112.504  1.00  0.00    -0.299 OA
ENDROOT
BRANCH   1   3
ATOM      3  C   UNL     1      90.749  22.028 112.913  1.00  0.00     0.053 C 
ATOM      4  C   UNL     1      91.470  22.671 114.103  1.00  0.00     0.016 C 
BRANCH   3   5
ATOM      5  C   UNL     1      91.749  21.395 111.914  1.00  0.00     0.015 C 
BRANCH   5   6
ATOM      6  C   UNL     1      92.312  20.014 112.312  1.00  0.00     0.028 C 
BRANCH   6   7
ATOM      7  C   UNL     1      91.316  18.884 112.460  1.00  0.00    -0.028 C 
ATOM      8  C   UNL     1      90.035  18.979 112.889  1.00  0.00    -0.070 CG0
ATOM      9  C   UNL     1      89.190  17.729 112.856  1.00  0.00     0.039 C 
ATOM     10  G   UNL     1      89.420  20.241 113.468  1.00  0.00     0.000 G0
ENDBRANCH   6   7
ENDBRANCH   5   6
ENDBRANCH   3   5
ENDBRANCH   1   3
BRANCH   1  11
ATOM     11  C   UNL     1      89.049  22.622 111.000  1.00  0.00     0.087 C 
BRANCH  11  12
ATOM     12  C   UNL     1      88.554  21.147 111.116  1.00  0.00     0.066 C 
BRANCH  12  13
ATOM     13  C   UNL     1      88.321  20.810 112.584  1.00  0.00     0.140 C 
ATOM     14  O   UNL     1      87.196  20.940 113.047  1.00  0.00    -0.299 OA
BRANCH  13  15
ATOM     15  C   UNL     1      89.416  20.248 113.468  1.00  0.00     0.106 CG0
ATOM     16  G   UNL     1      90.017  18.993 112.859  1.00  0.00     0.000 G0
ENDBRANCH  13  15
ENDBRANCH  12  13
BRANCH  12  17
ATOM     17  C   UNL     1      87.263  20.890 110.270  1.00  0.00    -0.006 C 
ATOM     18  C   UNL     1      87.179  19.433 109.770  1.00  0.00     0.008 C 
ATOM     19  C   UNL     1      87.190  21.823 109.044  1.00  0.00     0.008 C 
ENDBRANCH  12  17
ENDBRANCH  11  12
ENDBRANCH   1  11
TORSDOF 1
ENDMDL
MODEL 6
REMARK VINA RESULT:    25.160      6.985     10.054
REMARK INTER + INTRA:          39.546
REMARK INTER:                  38.209
REMARK INTRA:                   1.336
REMARK UNBOUND:                 1.148
REMARK SMILES CC1=CCC[C@@H](C)C(=O)C[C@H](C(C)C)C(=O)C1
REMARK SMILES IDX 8 1 9 2 6 3 7 4 5 5 4 6 3 7 2 8 1 9 10 11 11 12 15 13 16 14
REMARK SMILES IDX 17 15 12 17 13 18 14 19
REMARK H PARENT
REMARK Flexibility Score: 70.00
ROOT
ATOM      1  C   UNL     1      90.400  19.918 111.951  1.00  0.00     0.136 C 
ATOM      2  O   UNL     1      90.013  19.047 112.718  1.00  0.00    -0.299 OA
ENDROOT
BRANCH   1   3
ATOM      3  C   UNL     1      91.737  20.583 112.185  1.00  0.00     0.053 C 
ATOM      4  C   UNL     1      92.883  19.567 112.115  1.00  0.00     0.016 C 
BRANCH   3   5
ATOM      5  C   UNL     1      91.707  21.315 113.550  1.00  0.00     0.015 C 
BRANCH   5   6
ATOM      6  C   UNL     1      90.796  22.557 113.626  1.00  0.00     0.028 C 
BRANCH   6   7
ATOM      7  C   UNL     1      90.605  23.348 112.348  1.00  0.00    -0.028 C 
ATOM      8  C   UNL     1      89.430  23.658 111.751  1.00  0.00    -0.070 CG0
ATOM      9  C   UNL     1      89.476  24.549 110.534  1.00  0.00     0.039 C 
ATOM     10  G   UNL     1      88.082  23.109 112.183  1.00  0.00     0.000 G0
ENDBRANCH   6   7
ENDBRANCH   5   6
ENDBRANCH   3   5
ENDBRANCH   1   3
BRANCH   1  11
ATOM     11  C   UNL     1      89.494  20.375 110.833  1.00  0.00     0.087 C 
BRANCH  11  12
ATOM     12  C   UNL     1      88.033  20.621 111.321  1.00  0.00     0.066 C 
BRANCH  12  13
ATOM     13  C   UNL     1      88.043  21.662 112.433  1.00  0.00     0.140 C 
ATOM     14  O   UNL     1      88.096  21.283 113.595  1.00  0.00    -0.299 OA
BRANCH  13  15
ATOM     15  C   UNL     1      88.064  23.150 112.147  1.00  0.00     0.106 CG0
ATOM     16  G   UNL     1      89.460  23.611 111.768  1.00  0.00     0.000 G0
ENDBRANCH  13  15
ENDBRANCH  12  13
BRANCH  12  17
ATOM     17  C   UNL     1      87.088  21.058 110.152  1.00  0.00    -0.006 C 
ATOM     18  C   UNL     1      86.503  19.848 109.396  1.00  0.00     0.008 C 
ATOM     19  C   UNL     1      87.820  21.952 109.131  1.00  0.00     0.008 C 
ENDBRANCH  12  17
ENDBRANCH  11  12
ENDBRANCH   1  11
TORSDOF 1
ENDMDL
MODEL 7
REMARK VINA RESULT:    25.667      8.629     10.505
REMARK INTER + INTRA:          40.319
REMARK INTER:                  37.205
REMARK INTRA:                   3.114
REMARK UNBOUND:                 1.148
REMARK SMILES CC1=CCC[C@@H](C)C(=O)C[C@H](C(C)C)C(=O)C1
REMARK SMILES IDX 8 1 9 2 6 3 7 4 5 5 4 6 3 7 2 8 1 9 10 11 11 12 15 13 16 14
REMARK SMILES IDX 17 15 12 17 13 18 14 19
REMARK H PARENT
REMARK Flexibility Score: 70.00
ROOT
ATOM      1  C   UNL     1      90.693  22.877 112.492  1.00  0.00     0.136 C 
ATOM      2  O   UNL     1      90.683  22.825 113.714  1.00  0.00    -0.299 OA
ENDROOT
BRANCH   1   3
ATOM      3  C   UNL     1      89.795  23.860 111.776  1.00  0.00     0.053 C 
ATOM      4  C   UNL     1      89.017  24.729 112.771  1.00  0.00     0.016 C 
BRANCH   3   5
ATOM      5  C   UNL     1      88.844  23.083 110.833  1.00  0.00     0.015 C 
BRANCH   5   6
ATOM      6  C   UNL     1      88.758  21.561 111.070  1.00  0.00     0.028 C 
BRANCH   6   7
ATOM      7  C   UNL     1      87.824  21.089 112.164  1.00  0.00    -0.028 C 
ATOM      8  C   UNL     1      88.167  20.710 113.419  1.00  0.00    -0.070 CG0
ATOM      9  C   UNL     1      87.051  20.375 114.378  1.00  0.00     0.039 C 
ATOM     10  G   UNL     1      89.596  20.532 113.896  1.00  0.00     0.000 G0
ENDBRANCH   6   7
ENDBRANCH   5   6
ENDBRANCH   3   5
ENDBRANCH   1   3
BRANCH   1  11
ATOM     11  C   UNL     1      91.541  21.897 111.717  1.00  0.00     0.087 C 
BRANCH  11  12
ATOM     12  C   UNL     1      91.847  20.605 112.536  1.00  0.00     0.066 C 
BRANCH  12  13
ATOM     13  C   UNL     1      90.536  19.935 112.927  1.00  0.00     0.140 C 
ATOM     14  O   UNL     1      90.265  18.843 112.446  1.00  0.00    -0.299 OA
BRANCH  13  15
ATOM     15  C   UNL     1      89.593  20.539 113.949  1.00  0.00     0.106 CG0
ATOM     16  G   UNL     1      88.194  20.683 113.379  1.00  0.00     0.000 G0
ENDBRANCH  13  15
ENDBRANCH  12  13
BRANCH  12  17
ATOM     17  C   UNL     1      92.771  19.616 111.750  1.00  0.00    -0.006 C 
ATOM     18  C   UNL     1      94.059  19.282 112.531  1.00  0.00     0.008 C 
ATOM     19  C   UNL     1      93.177  20.184 110.376  1.00  0.00     0.008 C 
ENDBRANCH  12  17
ENDBRANCH  11  12
ENDBRANCH   1  11
TORSDOF 1
ENDMDL
