MODEL 1
REMARK VINA RESULT:    -4.491      0.000      0.000
REMARK INTER + INTRA:          -6.281
REMARK INTER:                  -6.066
REMARK INTRA:                  -0.214
REMARK UNBOUND:                -0.214
REMARK SMILES CCCCCCC=CC(=O)[O-]
REMARK SMILES IDX 5 1 6 2 7 3 8 4 9 5 10 6 11 7 4 8 3 9 2 10 1 11
REMARK H PARENT
REMARK Flexibility Score: inf
ROOT
ATOM      1  C   UNL     1       7.074   7.495  80.388  1.00  0.00     0.004 C 
ENDROOT
BRANCH   1   2
ATOM      2  C   UNL     1       6.869   8.652  81.382  1.00  0.00     0.027 C 
BRANCH   2   3
ATOM      3  C   UNL     1       5.474   8.696  81.939  1.00  0.00    -0.025 C 
ATOM      4  C   UNL     1       4.881   9.854  82.251  1.00  0.00     0.020 C 
BRANCH   4   5
ATOM      5  C   UNL     1       3.515   9.918  82.792  1.00  0.00     0.064 C 
ATOM      6  O   UNL     1       2.968   8.905  83.306  1.00  0.00    -0.545 OA
ATOM      7  O   UNL     1       2.815  11.117  82.738  1.00  0.00    -0.545 OA
ENDBRANCH   4   5
ENDBRANCH   2   3
ENDBRANCH   1   2
BRANCH   1   8
ATOM      8  C   UNL     1       8.063   7.805  79.248  1.00  0.00     0.000 C 
BRANCH   8   9
ATOM      9  C   UNL     1       9.204   6.777  79.156  1.00  0.00    -0.000 C 
BRANCH   9  10
ATOM     10  C   UNL     1       8.731   5.346  79.462  1.00  0.00    -0.003 C 
ATOM     11  C   UNL     1       9.858   4.444  79.964  1.00  0.00     0.004 C 
ENDBRANCH   9  10
ENDBRANCH   8   9
ENDBRANCH   1   8
TORSDOF 6
ENDMDL
MODEL 2
REMARK VINA RESULT:    -4.200      3.469      6.607
REMARK INTER + INTRA:          -5.888
REMARK INTER:                  -5.602
REMARK INTRA:                  -0.285
REMARK UNBOUND:                -0.214
REMARK SMILES CCCCCCC=CC(=O)[O-]
REMARK SMILES IDX 5 1 6 2 7 3 8 4 9 5 10 6 11 7 4 8 3 9 2 10 1 11
REMARK H PARENT
REMARK Flexibility Score: inf
ROOT
ATOM      1  C   UNL     1       4.796   8.387  82.217  1.00  0.00     0.004 C 
ENDROOT
BRANCH   1   2
ATOM      2  C   UNL     1       5.973   9.267  81.759  1.00  0.00     0.027 C 
BRANCH   2   3
ATOM      3  C   UNL     1       7.067   8.474  81.101  1.00  0.00    -0.025 C 
ATOM      4  C   UNL     1       6.800   7.401  80.350  1.00  0.00     0.020 C 
BRANCH   4   5
ATOM      5  C   UNL     1       7.856   6.615  79.693  1.00  0.00     0.064 C 
ATOM      6  O   UNL     1       8.687   7.160  78.918  1.00  0.00    -0.545 OA
ATOM      7  O   UNL     1       7.941   5.250  79.934  1.00  0.00    -0.545 OA
ENDBRANCH   4   5
ENDBRANCH   2   3
ENDBRANCH   1   2
BRANCH   1   8
ATOM      8  C   UNL     1       3.603   9.172  82.793  1.00  0.00     0.000 C 
BRANCH   8   9
ATOM      9  C   UNL     1       3.633  10.662  82.411  1.00  0.00    -0.000 C 
BRANCH   9  10
ATOM     10  C   UNL     1       2.247  11.194  82.011  1.00  0.00    -0.003 C 
ATOM     11  C   UNL     1       2.288  12.075  80.763  1.00  0.00     0.004 C 
ENDBRANCH   9  10
ENDBRANCH   8   9
ENDBRANCH   1   8
TORSDOF 6
ENDMDL
MODEL 3
REMARK VINA RESULT:    -4.168      0.898      1.732
REMARK INTER + INTRA:          -5.845
REMARK INTER:                  -5.592
REMARK INTRA:                  -0.252
REMARK UNBOUND:                -0.214
REMARK SMILES CCCCCCC=CC(=O)[O-]
REMARK SMILES IDX 5 1 6 2 7 3 8 4 9 5 10 6 11 7 4 8 3 9 2 10 1 11
REMARK H PARENT
REMARK Flexibility Score: inf
ROOT
ATOM      1  C   UNL     1       6.808   7.268  80.382  1.00  0.00     0.004 C 
ENDROOT
BRANCH   1   2
ATOM      2  C   UNL     1       6.751   8.605  81.143  1.00  0.00     0.027 C 
BRANCH   2   3
ATOM      3  C   UNL     1       5.505   8.749  81.970  1.00  0.00    -0.025 C 
ATOM      4  C   UNL     1       4.969   9.947  82.226  1.00  0.00     0.020 C 
BRANCH   4   5
ATOM      5  C   UNL     1       3.747  10.108  83.029  1.00  0.00     0.064 C 
ATOM      6  O   UNL     1       3.570  11.125  83.751  1.00  0.00    -0.545 OA
ATOM      7  O   UNL     1       2.769   9.122  82.989  1.00  0.00    -0.545 OA
ENDBRANCH   4   5
ENDBRANCH   2   3
ENDBRANCH   1   2
BRANCH   1   8
ATOM      8  C   UNL     1       7.708   7.286  79.132  1.00  0.00     0.000 C 
BRANCH   8   9
ATOM      9  C   UNL     1       8.908   6.332  79.251  1.00  0.00    -0.000 C 
BRANCH   9  10
ATOM     10  C   UNL     1      10.253   7.076  79.248  1.00  0.00    -0.003 C 
ATOM     11  C   UNL     1      10.114   8.552  79.620  1.00  0.00     0.004 C 
ENDBRANCH   9  10
ENDBRANCH   8   9
ENDBRANCH   1   8
TORSDOF 6
ENDMDL
MODEL 4
REMARK VINA RESULT:    -4.156      5.625      8.031
REMARK INTER + INTRA:          -5.828
REMARK INTER:                  -5.575
REMARK INTRA:                  -0.252
REMARK UNBOUND:                -0.214
REMARK SMILES CCCCCCC=CC(=O)[O-]
REMARK SMILES IDX 5 1 6 2 7 3 8 4 9 5 10 6 11 7 4 8 3 9 2 10 1 11
REMARK H PARENT
REMARK Flexibility Score: inf
ROOT
ATOM      1  C   UNL     1       8.852   5.835  78.877  1.00  0.00     0.004 C 
ENDROOT
BRANCH   1   2
ATOM      2  C   UNL     1       9.185   4.695  79.855  1.00  0.00     0.027 C 
BRANCH   2   3
ATOM      3  C   UNL     1      10.660   4.423  79.948  1.00  0.00    -0.025 C 
ATOM      4  C   UNL     1      11.228   3.413  79.281  1.00  0.00     0.020 C 
BRANCH   4   5
ATOM      5  C   UNL     1      12.671   3.133  79.354  1.00  0.00     0.064 C 
ATOM      6  O   UNL     1      13.517   4.067  79.345  1.00  0.00    -0.545 OA
ATOM      7  O   UNL     1      13.108   1.818  79.437  1.00  0.00    -0.545 OA
ENDBRANCH   4   5
ENDBRANCH   2   3
ENDBRANCH   1   2
BRANCH   1   8
ATOM      8  C   UNL     1       9.478   7.193  79.246  1.00  0.00     0.000 C 
BRANCH   8   9
ATOM      9  C   UNL     1       8.433   8.218  79.721  1.00  0.00    -0.000 C 
BRANCH   9  10
ATOM     10  C   UNL     1       7.182   7.551  80.313  1.00  0.00    -0.003 C 
ATOM     11  C   UNL     1       6.457   8.441  81.323  1.00  0.00     0.004 C 
ENDBRANCH   9  10
ENDBRANCH   8   9
ENDBRANCH   1   8
TORSDOF 6
ENDMDL
MODEL 5
REMARK VINA RESULT:    -4.126      3.433      6.587
REMARK INTER + INTRA:          -5.787
REMARK INTER:                  -5.490
REMARK INTRA:                  -0.297
REMARK UNBOUND:                -0.214
REMARK SMILES CCCCCCC=CC(=O)[O-]
REMARK SMILES IDX 5 1 6 2 7 3 8 4 9 5 10 6 11 7 4 8 3 9 2 10 1 11
REMARK H PARENT
REMARK Flexibility Score: inf
ROOT
ATOM      1  C   UNL     1       4.643   8.348  82.293  1.00  0.00     0.004 C 
ENDROOT
BRANCH   1   2
ATOM      2  C   UNL     1       5.792   9.277  81.862  1.00  0.00     0.027 C 
BRANCH   2   3
ATOM      3  C   UNL     1       6.963   8.525  81.296  1.00  0.00    -0.025 C 
ATOM      4  C   UNL     1       6.805   7.586  80.357  1.00  0.00     0.020 C 
BRANCH   4   5
ATOM      5  C   UNL     1       7.939   6.844  79.786  1.00  0.00     0.064 C 
ATOM      6  O   UNL     1       7.976   5.584  79.817  1.00  0.00    -0.545 OA
ATOM      7  O   UNL     1       8.987   7.542  79.200  1.00  0.00    -0.545 OA
ENDBRANCH   4   5
ENDBRANCH   2   3
ENDBRANCH   1   2
BRANCH   1   8
ATOM      8  C   UNL     1       3.467   9.069  82.979  1.00  0.00     0.000 C 
BRANCH   8   9
ATOM      9  C   UNL     1       3.435  10.577  82.673  1.00  0.00    -0.000 C 
BRANCH   9  10
ATOM     10  C   UNL     1       2.039  11.061  82.250  1.00  0.00    -0.003 C 
ATOM     11  C   UNL     1       0.931  10.075  82.621  1.00  0.00     0.004 C 
ENDBRANCH   9  10
ENDBRANCH   8   9
ENDBRANCH   1   8
TORSDOF 6
ENDMDL
MODEL 6
REMARK VINA RESULT:    -4.090      3.720      5.979
REMARK INTER + INTRA:          -5.739
REMARK INTER:                  -5.158
REMARK INTRA:                  -0.581
REMARK UNBOUND:                -0.214
REMARK SMILES CCCCCCC=CC(=O)[O-]
REMARK SMILES IDX 5 1 6 2 7 3 8 4 9 5 10 6 11 7 4 8 3 9 2 10 1 11
REMARK H PARENT
REMARK Flexibility Score: inf
ROOT
ATOM      1  C   UNL     1       5.227  10.092  82.477  1.00  0.00     0.004 C 
ENDROOT
BRANCH   1   2
ATOM      2  C   UNL     1       5.560   8.735  81.833  1.00  0.00     0.027 C 
BRANCH   2   3
ATOM      3  C   UNL     1       6.905   8.726  81.162  1.00  0.00    -0.025 C 
ATOM      4  C   UNL     1       7.271   7.736  80.341  1.00  0.00     0.020 C 
BRANCH   4   5
ATOM      5  C   UNL     1       8.580   7.712  79.671  1.00  0.00     0.064 C 
ATOM      6  O   UNL     1       9.383   8.677  79.773  1.00  0.00    -0.545 OA
ATOM      7  O   UNL     1       8.939   6.604  78.913  1.00  0.00    -0.545 OA
ENDBRANCH   4   5
ENDBRANCH   2   3
ENDBRANCH   1   2
BRANCH   1   8
ATOM      8  C   UNL     1       4.448  11.056  81.562  1.00  0.00     0.000 C 
BRANCH   8   9
ATOM      9  C   UNL     1       5.330  12.185  81.002  1.00  0.00    -0.000 C 
BRANCH   9  10
ATOM     10  C   UNL     1       5.710  11.957  79.530  1.00  0.00    -0.003 C 
ATOM     11  C   UNL     1       7.220  11.989  79.296  1.00  0.00     0.004 C 
ENDBRANCH   9  10
ENDBRANCH   8   9
ENDBRANCH   1   8
TORSDOF 6
ENDMDL
MODEL 7
REMARK VINA RESULT:    -4.032      6.674      7.832
REMARK INTER + INTRA:          -5.660
REMARK INTER:                  -5.453
REMARK INTRA:                  -0.207
REMARK UNBOUND:                -0.214
REMARK SMILES CCCCCCC=CC(=O)[O-]
REMARK SMILES IDX 5 1 6 2 7 3 8 4 9 5 10 6 11 7 4 8 3 9 2 10 1 11
REMARK H PARENT
REMARK Flexibility Score: inf
ROOT
ATOM      1  C   UNL     1       1.884   6.151  86.005  1.00  0.00     0.004 C 
ENDROOT
BRANCH   1   2
ATOM      2  C   UNL     1       2.587   7.297  85.257  1.00  0.00     0.027 C 
BRANCH   2   3
ATOM      3  C   UNL     1       2.567   8.588  86.025  1.00  0.00    -0.025 C 
ATOM      4  C   UNL     1       2.252   8.625  87.325  1.00  0.00     0.020 C 
BRANCH   4   5
ATOM      5  C   UNL     1       2.233   9.877  88.096  1.00  0.00     0.064 C 
ATOM      6  O   UNL     1       2.244   9.868  89.356  1.00  0.00    -0.545 OA
ATOM      7  O   UNL     1       2.205  11.092  87.423  1.00  0.00    -0.545 OA
ENDBRANCH   4   5
ENDBRANCH   2   3
ENDBRANCH   1   2
BRANCH   1   8
ATOM      8  C   UNL     1       2.629   4.803  85.947  1.00  0.00     0.000 C 
BRANCH   8   9
ATOM      9  C   UNL     1       2.214   3.847  87.078  1.00  0.00    -0.000 C 
BRANCH   9  10
ATOM     10  C   UNL     1       3.132   2.617  87.173  1.00  0.00    -0.003 C 
ATOM     11  C   UNL     1       2.650   1.596  88.204  1.00  0.00     0.004 C 
ENDBRANCH   9  10
ENDBRANCH   8   9
ENDBRANCH   1   8
TORSDOF 6
ENDMDL
MODEL 8
REMARK VINA RESULT:    -4.028      1.191      2.100
REMARK INTER + INTRA:          -5.655
REMARK INTER:                  -5.475
REMARK INTRA:                  -0.180
REMARK UNBOUND:                -0.214
REMARK SMILES CCCCCCC=CC(=O)[O-]
REMARK SMILES IDX 5 1 6 2 7 3 8 4 9 5 10 6 11 7 4 8 3 9 2 10 1 11
REMARK H PARENT
REMARK Flexibility Score: inf
ROOT
ATOM      1  C   UNL     1       5.905   8.900  81.880  1.00  0.00     0.004 C 
ENDROOT
BRANCH   1   2
ATOM      2  C   UNL     1       5.216  10.271  81.767  1.00  0.00     0.027 C 
BRANCH   2   3
ATOM      3  C   UNL     1       3.938  10.345  82.554  1.00  0.00    -0.025 C 
ATOM      4  C   UNL     1       3.314   9.241  82.980  1.00  0.00     0.020 C 
BRANCH   4   5
ATOM      5  C   UNL     1       2.065   9.292  83.756  1.00  0.00     0.064 C 
ATOM      6  O   UNL     1       2.045   8.994  84.980  1.00  0.00    -0.545 OA
ATOM      7  O   UNL     1       0.887   9.679  83.129  1.00  0.00    -0.545 OA
ENDBRANCH   4   5
ENDBRANCH   2   3
ENDBRANCH   1   2
BRANCH   1   8
ATOM      8  C   UNL     1       7.038   8.672  80.862  1.00  0.00     0.000 C 
BRANCH   8   9
ATOM      9  C   UNL     1       7.031   7.250  80.274  1.00  0.00    -0.000 C 
BRANCH   9  10
ATOM     10  C   UNL     1       8.360   6.890  79.592  1.00  0.00    -0.003 C 
ATOM     11  C   UNL     1       8.653   5.389  79.620  1.00  0.00     0.004 C 
ENDBRANCH   9  10
ENDBRANCH   8   9
ENDBRANCH   1   8
TORSDOF 6
ENDMDL
MODEL 9
REMARK VINA RESULT:    -3.932      1.818      2.632
REMARK INTER + INTRA:          -5.525
REMARK INTER:                  -5.237
REMARK INTRA:                  -0.288
REMARK UNBOUND:                -0.214
REMARK SMILES CCCCCCC=CC(=O)[O-]
REMARK SMILES IDX 5 1 6 2 7 3 8 4 9 5 10 6 11 7 4 8 3 9 2 10 1 11
REMARK H PARENT
REMARK Flexibility Score: inf
ROOT
ATOM      1  C   UNL     1       6.760   8.709  81.487  1.00  0.00     0.004 C 
ENDROOT
BRANCH   1   2
ATOM      2  C   UNL     1       5.386   8.891  82.157  1.00  0.00     0.027 C 
BRANCH   2   3
ATOM      3  C   UNL     1       4.819  10.268  81.953  1.00  0.00    -0.025 C 
ATOM      4  C   UNL     1       5.308  11.095  81.023  1.00  0.00     0.020 C 
BRANCH   4   5
ATOM      5  C   UNL     1       4.763  12.444  80.804  1.00  0.00     0.064 C 
ATOM      6  O   UNL     1       5.016  13.086  79.750  1.00  0.00    -0.545 OA
ATOM      7  O   UNL     1       3.954  13.019  81.775  1.00  0.00    -0.545 OA
ENDBRANCH   4   5
ENDBRANCH   2   3
ENDBRANCH   1   2
BRANCH   1   8
ATOM      8  C   UNL     1       6.826   7.547  80.478  1.00  0.00     0.000 C 
BRANCH   8   9
ATOM      9  C   UNL     1       7.709   7.869  79.260  1.00  0.00    -0.000 C 
BRANCH   9  10
ATOM     10  C   UNL     1       9.040   7.100  79.280  1.00  0.00    -0.003 C 
ATOM     11  C   UNL     1       8.850   5.589  79.411  1.00  0.00     0.004 C 
ENDBRANCH   9  10
ENDBRANCH   8   9
ENDBRANCH   1   8
TORSDOF 6
ENDMDL
