MODEL 1
REMARK VINA RESULT:    -6.658      0.000      0.000
REMARK INTER + INTRA:         -10.153
REMARK INTER:                  -9.382
REMARK INTRA:                  -0.771
REMARK UNBOUND:                -0.771
REMARK SMILES COc1ccc(-c2cc(=O)c3c(OC)c(OC)c(OC)c(OC)c3o2)cc1OC
REMARK SMILES IDX 7 1 8 2 9 3 10 4 11 5 24 6 25 7 21 8 18 9 15 10 12 11 6 12
REMARK SMILES IDX 3 13 27 14 4 15 26 16 5 17 2 18 1 19 28 20 29 21 22 22 23 23
REMARK SMILES IDX 13 24 14 25 19 26 20 27 16 28 17 29
REMARK H PARENT
REMARK Flexibility Score: inf
ROOT
ATOM      1  C   UNL     1       7.864  52.689  21.073  1.00  0.00     0.138 A 
ATOM      2  C   UNL     1       7.787  52.407  22.438  1.00  0.00     0.100 A 
ATOM      3  C   UNL     1       8.948  52.087  23.133  1.00  0.00     0.197 A 
ATOM      4  O   UNL     1       8.855  51.827  24.363  1.00  0.00    -0.289 OA
ATOM      5  C   UNL     1      10.193  52.060  22.456  1.00  0.00     0.115 A 
ATOM      6  C   UNL     1      10.193  52.367  21.075  1.00  0.00     0.188 A 
ATOM      7  O   UNL     1       9.044  52.647  20.462  1.00  0.00    -0.452 OA
ATOM      8  C   UNL     1      11.403  52.381  20.343  1.00  0.00     0.209 A 
ATOM      9  C   UNL     1      12.622  52.077  21.002  1.00  0.00     0.211 A 
ATOM     10  C   UNL     1      12.620  51.725  22.377  1.00  0.00     0.208 A 
ATOM     11  C   UNL     1      11.404  51.735  23.111  1.00  0.00     0.179 A 
ENDROOT
BRANCH   1  12
ATOM     12  C   UNL     1       6.655  53.033  20.289  1.00  0.00     0.021 A 
ATOM     13  C   UNL     1       4.382  53.695  18.751  1.00  0.00     0.160 A 
ATOM     14  C   UNL     1       4.616  54.348  19.972  1.00  0.00     0.161 A 
ATOM     15  C   UNL     1       5.289  52.716  18.304  1.00  0.00     0.051 A 
ATOM     16  C   UNL     1       5.753  54.015  20.734  1.00  0.00     0.062 A 
ATOM     17  C   UNL     1       6.414  52.394  19.064  1.00  0.00     0.016 A 
BRANCH  13  18
ATOM     18  O   UNL     1       3.242  54.050  18.012  1.00  0.00    -0.493 OA
ATOM     19  C   UNL     1       3.250  54.380  16.628  1.00  0.00     0.278 C 
ENDBRANCH  13  18
BRANCH  14  20
ATOM     20  O   UNL     1       3.694  55.321  20.393  1.00  0.00    -0.493 OA
ATOM     21  C   UNL     1       4.046  56.558  21.006  1.00  0.00     0.278 C 
ENDBRANCH  14  20
ENDBRANCH   1  12
BRANCH   8  22
ATOM     22  O   UNL     1      11.448  52.688  18.970  1.00  0.00    -0.490 OA
ATOM     23  C   UNL     1      11.548  53.979  18.369  1.00  0.00     0.278 C 
ENDBRANCH   8  22
BRANCH  11  24
ATOM     24  O   UNL     1      11.342  51.424  24.488  1.00  0.00    -0.492 OA
ATOM     25  C   UNL     1      11.666  50.193  25.125  1.00  0.00     0.278 C 
ENDBRANCH  11  24
BRANCH   9  26
ATOM     26  O   UNL     1      13.865  52.124  20.339  1.00  0.00    -0.490 OA
ATOM     27  C   UNL     1      14.749  53.232  20.206  1.00  0.00     0.279 C 
ENDBRANCH   9  26
BRANCH  10  28
ATOM     28  O   UNL     1      13.798  51.368  23.063  1.00  0.00    -0.490 OA
ATOM     29  C   UNL     1      14.665  52.214  23.814  1.00  0.00     0.278 C 
ENDBRANCH  10  28
TORSDOF 7
ENDMDL
MODEL 2
REMARK VINA RESULT:    -6.184      1.030      3.374
REMARK INTER + INTRA:          -9.486
REMARK INTER:                  -8.753
REMARK INTRA:                  -0.732
REMARK UNBOUND:                -0.771
REMARK SMILES COc1ccc(-c2cc(=O)c3c(OC)c(OC)c(OC)c(OC)c3o2)cc1OC
REMARK SMILES IDX 7 1 8 2 9 3 10 4 11 5 24 6 25 7 21 8 18 9 15 10 12 11 6 12
REMARK SMILES IDX 3 13 27 14 4 15 26 16 5 17 2 18 1 19 28 20 29 21 22 22 23 23
REMARK SMILES IDX 13 24 14 25 19 26 20 27 16 28 17 29
REMARK H PARENT
REMARK Flexibility Score: inf
ROOT
ATOM      1  C   UNL     1       8.729  52.748  20.361  1.00  0.00     0.138 A 
ATOM      2  C   UNL     1       9.792  53.125  19.538  1.00  0.00     0.100 A 
ATOM      3  C   UNL     1      11.096  52.893  19.962  1.00  0.00     0.197 A 
ATOM      4  O   UNL     1      12.041  53.249  19.208  1.00  0.00    -0.289 OA
ATOM      5  C   UNL     1      11.332  52.271  21.214  1.00  0.00     0.115 A 
ATOM      6  C   UNL     1      10.205  51.909  21.987  1.00  0.00     0.188 A 
ATOM      7  O   UNL     1       8.981  52.175  21.533  1.00  0.00    -0.452 OA
ATOM      8  C   UNL     1      10.368  51.264  23.235  1.00  0.00     0.209 A 
ATOM      9  C   UNL     1      11.675  50.988  23.714  1.00  0.00     0.211 A 
ATOM     10  C   UNL     1      12.809  51.391  22.961  1.00  0.00     0.208 A 
ATOM     11  C   UNL     1      12.637  52.017  21.699  1.00  0.00     0.179 A 
ENDROOT
BRANCH   1  12
ATOM     12  C   UNL     1       7.323  52.976  19.954  1.00  0.00     0.021 A 
ATOM     13  C   UNL     1       4.660  53.422  19.129  1.00  0.00     0.160 A 
ATOM     14  C   UNL     1       5.150  54.053  20.283  1.00  0.00     0.161 A 
ATOM     15  C   UNL     1       5.507  52.573  18.390  1.00  0.00     0.051 A 
ATOM     16  C   UNL     1       6.480  53.828  20.689  1.00  0.00     0.062 A 
ATOM     17  C   UNL     1       6.824  52.358  18.798  1.00  0.00     0.016 A 
BRANCH  13  18
ATOM     18  O   UNL     1       3.331  53.667  18.748  1.00  0.00    -0.493 OA
ATOM     19  C   UNL     1       2.947  54.356  17.564  1.00  0.00     0.278 C 
ENDBRANCH  13  18
BRANCH  14  20
ATOM     20  O   UNL     1       4.284  54.894  21.001  1.00  0.00    -0.493 OA
ATOM     21  C   UNL     1       4.364  56.316  21.014  1.00  0.00     0.278 C 
ENDBRANCH  14  20
ENDBRANCH   1  12
BRANCH   8  22
ATOM     22  O   UNL     1       9.273  50.881  24.033  1.00  0.00    -0.490 OA
ATOM     23  C   UNL     1       8.698  51.598  25.125  1.00  0.00     0.278 C 
ENDBRANCH   8  22
BRANCH  11  24
ATOM     24  O   UNL     1      13.726  52.413  20.889  1.00  0.00    -0.492 OA
ATOM     25  C   UNL     1      14.626  53.495  21.098  1.00  0.00     0.278 C 
ENDBRANCH  11  24
BRANCH   9  26
ATOM     26  O   UNL     1      11.901  50.303  24.925  1.00  0.00    -0.490 OA
ATOM     27  C   UNL     1      12.083  48.905  25.124  1.00  0.00     0.279 C 
ENDBRANCH   9  26
BRANCH  10  28
ATOM     28  O   UNL     1      14.126  51.183  23.417  1.00  0.00    -0.490 OA
ATOM     29  C   UNL     1      14.843  51.932  24.395  1.00  0.00     0.278 C 
ENDBRANCH  10  28
TORSDOF 7
ENDMDL
MODEL 3
REMARK VINA RESULT:    -6.036      1.818      8.006
REMARK INTER + INTRA:          -9.277
REMARK INTER:                  -8.639
REMARK INTRA:                  -0.637
REMARK UNBOUND:                -0.771
REMARK SMILES COc1ccc(-c2cc(=O)c3c(OC)c(OC)c(OC)c(OC)c3o2)cc1OC
REMARK SMILES IDX 7 1 8 2 9 3 10 4 11 5 24 6 25 7 21 8 18 9 15 10 12 11 6 12
REMARK SMILES IDX 3 13 27 14 4 15 26 16 5 17 2 18 1 19 28 20 29 21 22 22 23 23
REMARK SMILES IDX 13 24 14 25 19 26 20 27 16 28 17 29
REMARK H PARENT
REMARK Flexibility Score: inf
ROOT
ATOM      1  C   UNL     1       8.657  52.447  21.482  1.00  0.00     0.138 A 
ATOM      2  C   UNL     1       7.418  52.688  22.078  1.00  0.00     0.100 A 
ATOM      3  C   UNL     1       6.327  53.000  21.275  1.00  0.00     0.197 A 
ATOM      4  O   UNL     1       5.219  53.222  21.832  1.00  0.00    -0.289 OA
ATOM      5  C   UNL     1       6.479  53.060  19.867  1.00  0.00     0.115 A 
ATOM      6  C   UNL     1       7.763  52.795  19.336  1.00  0.00     0.188 A 
ATOM      7  O   UNL     1       8.773  52.519  20.160  1.00  0.00    -0.452 OA
ATOM      8  C   UNL     1       7.980  52.815  17.939  1.00  0.00     0.209 A 
ATOM      9  C   UNL     1       6.901  53.114  17.068  1.00  0.00     0.211 A 
ATOM     10  C   UNL     1       5.622  53.425  17.599  1.00  0.00     0.208 A 
ATOM     11  C   UNL     1       5.406  53.380  19.002  1.00  0.00     0.179 A 
ENDROOT
BRANCH   1  12
ATOM     12  C   UNL     1       9.850  52.112  22.296  1.00  0.00     0.021 A 
ATOM     13  C   UNL     1      12.120  51.525  23.867  1.00  0.00     0.160 A 
ATOM     14  C   UNL     1      12.142  51.276  22.486  1.00  0.00     0.161 A 
ATOM     15  C   UNL     1      10.964  52.071  24.455  1.00  0.00     0.051 A 
ATOM     16  C   UNL     1      11.006  51.573  21.706  1.00  0.00     0.062 A 
ATOM     17  C   UNL     1       9.844  52.364  23.675  1.00  0.00     0.016 A 
BRANCH  13  18
ATOM     18  O   UNL     1      13.267  51.221  24.617  1.00  0.00    -0.493 OA
ATOM     19  C   UNL     1      14.334  52.131  24.861  1.00  0.00     0.278 C 
ENDBRANCH  13  18
BRANCH  14  20
ATOM     20  O   UNL     1      13.309  50.731  21.925  1.00  0.00    -0.493 OA
ATOM     21  C   UNL     1      14.255  51.466  21.155  1.00  0.00     0.278 C 
ENDBRANCH  14  20
ENDBRANCH   1  12
BRANCH   8  22
ATOM     22  O   UNL     1       9.241  52.550  17.370  1.00  0.00    -0.490 OA
ATOM     23  C   UNL     1      10.460  53.261  17.584  1.00  0.00     0.278 C 
ENDBRANCH   8  22
BRANCH  11  24
ATOM     24  O   UNL     1       4.149  53.649  19.588  1.00  0.00    -0.492 OA
ATOM     25  C   UNL     1       3.452  54.890  19.639  1.00  0.00     0.278 C 
ENDBRANCH  11  24
BRANCH   9  26
ATOM     26  O   UNL     1       7.043  53.100  15.665  1.00  0.00    -0.490 OA
ATOM     27  C   UNL     1       6.796  52.023  14.768  1.00  0.00     0.279 C 
ENDBRANCH   9  26
BRANCH  10  28
ATOM     28  O   UNL     1       4.533  53.775  16.778  1.00  0.00    -0.490 OA
ATOM     29  C   UNL     1       3.518  52.920  16.256  1.00  0.00     0.278 C 
ENDBRANCH  10  28
TORSDOF 7
ENDMDL
MODEL 4
REMARK VINA RESULT:    -6.013      1.518      4.018
REMARK INTER + INTRA:          -9.245
REMARK INTER:                  -8.463
REMARK INTRA:                  -0.782
REMARK UNBOUND:                -0.771
REMARK SMILES COc1ccc(-c2cc(=O)c3c(OC)c(OC)c(OC)c(OC)c3o2)cc1OC
REMARK SMILES IDX 7 1 8 2 9 3 10 4 11 5 24 6 25 7 21 8 18 9 15 10 12 11 6 12
REMARK SMILES IDX 3 13 27 14 4 15 26 16 5 17 2 18 1 19 28 20 29 21 22 22 23 23
REMARK SMILES IDX 13 24 14 25 19 26 20 27 16 28 17 29
REMARK H PARENT
REMARK Flexibility Score: inf
ROOT
ATOM      1  C   UNL     1       9.400  52.560  19.869  1.00  0.00     0.138 A 
ATOM      2  C   UNL     1      10.132  52.701  18.689  1.00  0.00     0.100 A 
ATOM      3  C   UNL     1      11.509  52.507  18.715  1.00  0.00     0.197 A 
ATOM      4  O   UNL     1      12.153  52.648  17.641  1.00  0.00    -0.289 OA
ATOM      5  C   UNL     1      12.151  52.161  19.931  1.00  0.00     0.115 A 
ATOM      6  C   UNL     1      11.341  52.027  21.083  1.00  0.00     0.188 A 
ATOM      7  O   UNL     1      10.030  52.244  20.996  1.00  0.00    -0.452 OA
ATOM      8  C   UNL     1      11.914  51.661  22.324  1.00  0.00     0.209 A 
ATOM      9  C   UNL     1      13.312  51.436  22.409  1.00  0.00     0.211 A 
ATOM     10  C   UNL     1      14.133  51.614  21.265  1.00  0.00     0.208 A 
ATOM     11  C   UNL     1      13.549  51.959  20.018  1.00  0.00     0.179 A 
ENDROOT
BRANCH   1  12
ATOM     12  C   UNL     1       7.932  52.758  19.892  1.00  0.00     0.021 A 
ATOM     13  C   UNL     1       5.132  53.105  19.980  1.00  0.00     0.160 A 
ATOM     14  C   UNL     1       5.744  52.658  18.799  1.00  0.00     0.161 A 
ATOM     15  C   UNL     1       5.923  53.374  21.113  1.00  0.00     0.051 A 
ATOM     16  C   UNL     1       7.142  52.484  18.761  1.00  0.00     0.062 A 
ATOM     17  C   UNL     1       7.306  53.197  21.067  1.00  0.00     0.016 A 
BRANCH  13  18
ATOM     18  O   UNL     1       3.737  53.267  19.987  1.00  0.00    -0.493 OA
ATOM     19  C   UNL     1       3.073  54.524  19.923  1.00  0.00     0.278 C 
ENDBRANCH  13  18
BRANCH  14  20
ATOM     20  O   UNL     1       4.930  52.398  17.684  1.00  0.00    -0.493 OA
ATOM     21  C   UNL     1       4.752  53.288  16.586  1.00  0.00     0.278 C 
ENDBRANCH  14  20
ENDBRANCH   1  12
BRANCH   8  22
ATOM     22  O   UNL     1      11.142  51.510  23.492  1.00  0.00    -0.490 OA
ATOM     23  C   UNL     1      10.480  50.331  23.952  1.00  0.00     0.278 C 
ENDBRANCH   8  22
BRANCH  11  24
ATOM     24  O   UNL     1      14.309  52.120  18.838  1.00  0.00    -0.492 OA
ATOM     25  C   UNL     1      15.271  53.127  18.545  1.00  0.00     0.278 C 
ENDBRANCH  11  24
BRANCH   9  26
ATOM     26  O   UNL     1      13.933  51.020  23.605  1.00  0.00    -0.490 OA
ATOM     27  C   UNL     1      14.445  51.832  24.657  1.00  0.00     0.279 C 
ENDBRANCH   9  26
BRANCH  10  28
ATOM     28  O   UNL     1      15.531  51.450  21.312  1.00  0.00    -0.490 OA
ATOM     29  C   UNL     1      16.284  50.266  21.060  1.00  0.00     0.278 C 
ENDBRANCH  10  28
TORSDOF 7
ENDMDL
MODEL 5
REMARK VINA RESULT:    -5.924      1.451      2.346
REMARK INTER + INTRA:          -9.119
REMARK INTER:                  -8.303
REMARK INTRA:                  -0.817
REMARK UNBOUND:                -0.771
REMARK SMILES COc1ccc(-c2cc(=O)c3c(OC)c(OC)c(OC)c(OC)c3o2)cc1OC
REMARK SMILES IDX 7 1 8 2 9 3 10 4 11 5 24 6 25 7 21 8 18 9 15 10 12 11 6 12
REMARK SMILES IDX 3 13 27 14 4 15 26 16 5 17 2 18 1 19 28 20 29 21 22 22 23 23
REMARK SMILES IDX 13 24 14 25 19 26 20 27 16 28 17 29
REMARK H PARENT
REMARK Flexibility Score: inf
ROOT
ATOM      1  C   UNL     1       8.727  52.603  20.882  1.00  0.00     0.138 A 
ATOM      2  C   UNL     1       8.996  52.160  22.178  1.00  0.00     0.100 A 
ATOM      3  C   UNL     1      10.311  51.901  22.549  1.00  0.00     0.197 A 
ATOM      4  O   UNL     1      10.532  51.493  23.721  1.00  0.00    -0.289 OA
ATOM      5  C   UNL     1      11.360  52.099  21.617  1.00  0.00     0.115 A 
ATOM      6  C   UNL     1      11.010  52.560  20.326  1.00  0.00     0.188 A 
ATOM      7  O   UNL     1       9.730  52.772  20.027  1.00  0.00    -0.452 OA
ATOM      8  C   UNL     1      12.010  52.801  19.355  1.00  0.00     0.209 A 
ATOM      9  C   UNL     1      13.371  52.569  19.680  1.00  0.00     0.211 A 
ATOM     10  C   UNL     1      13.722  52.064  20.960  1.00  0.00     0.208 A 
ATOM     11  C   UNL     1      12.715  51.846  21.937  1.00  0.00     0.179 A 
ENDROOT
BRANCH   1  12
ATOM     12  C   UNL     1       7.342  52.890  20.439  1.00  0.00     0.021 A 
ATOM     13  C   UNL     1       4.685  53.407  19.637  1.00  0.00     0.160 A 
ATOM     14  C   UNL     1       5.614  52.913  18.707  1.00  0.00     0.161 A 
ATOM     15  C   UNL     1       5.090  53.637  20.966  1.00  0.00     0.051 A 
ATOM     16  C   UNL     1       6.938  52.655  19.113  1.00  0.00     0.062 A 
ATOM     17  C   UNL     1       6.403  53.376  21.360  1.00  0.00     0.016 A 
BRANCH  13  18
ATOM     18  O   UNL     1       3.373  53.653  19.203  1.00  0.00    -0.493 OA
ATOM     19  C   UNL     1       2.876  54.933  18.828  1.00  0.00     0.278 C 
ENDBRANCH  13  18
BRANCH  14  20
ATOM     20  O   UNL     1       5.182  52.693  17.388  1.00  0.00    -0.493 OA
ATOM     21  C   UNL     1       6.006  52.825  16.235  1.00  0.00     0.278 C 
ENDBRANCH  14  20
ENDBRANCH   1  12
BRANCH   8  22
ATOM     22  O   UNL     1      11.705  53.266  18.061  1.00  0.00    -0.490 OA
ATOM     23  C   UNL     1      11.347  52.489  16.919  1.00  0.00     0.278 C 
ENDBRANCH   8  22
BRANCH  11  24
ATOM     24  O   UNL     1      13.005  51.375  23.237  1.00  0.00    -0.492 OA
ATOM     25  C   UNL     1      13.726  52.038  24.270  1.00  0.00     0.278 C 
ENDBRANCH  11  24
BRANCH   9  26
ATOM     26  O   UNL     1      14.416  52.838  18.772  1.00  0.00    -0.490 OA
ATOM     27  C   UNL     1      14.917  52.000  17.737  1.00  0.00     0.279 C 
ENDBRANCH   9  26
BRANCH  10  28
ATOM     28  O   UNL     1      15.054  51.772  21.312  1.00  0.00    -0.490 OA
ATOM     29  C   UNL     1      15.767  50.554  21.114  1.00  0.00     0.278 C 
ENDBRANCH  10  28
TORSDOF 7
ENDMDL
MODEL 6
REMARK VINA RESULT:    -5.533      2.123      4.949
REMARK INTER + INTRA:          -8.569
REMARK INTER:                  -7.810
REMARK INTRA:                  -0.759
REMARK UNBOUND:                -0.771
REMARK SMILES COc1ccc(-c2cc(=O)c3c(OC)c(OC)c(OC)c(OC)c3o2)cc1OC
REMARK SMILES IDX 7 1 8 2 9 3 10 4 11 5 24 6 25 7 21 8 18 9 15 10 12 11 6 12
REMARK SMILES IDX 3 13 27 14 4 15 26 16 5 17 2 18 1 19 28 20 29 21 22 22 23 23
REMARK SMILES IDX 13 24 14 25 19 26 20 27 16 28 17 29
REMARK H PARENT
REMARK Flexibility Score: inf
ROOT
ATOM      1  C   UNL     1      11.277  52.046  20.713  1.00  0.00     0.138 A 
ATOM      2  C   UNL     1      11.914  51.859  19.485  1.00  0.00     0.100 A 
ATOM      3  C   UNL     1      13.285  51.629  19.458  1.00  0.00     0.197 A 
ATOM      4  O   UNL     1      13.843  51.471  18.339  1.00  0.00    -0.289 OA
ATOM      5  C   UNL     1      14.017  51.577  20.671  1.00  0.00     0.115 A 
ATOM      6  C   UNL     1      13.301  51.766  21.876  1.00  0.00     0.188 A 
ATOM      7  O   UNL     1      11.991  52.000  21.833  1.00  0.00    -0.452 OA
ATOM      8  C   UNL     1      13.965  51.703  23.123  1.00  0.00     0.209 A 
ATOM      9  C   UNL     1      15.362  51.457  23.160  1.00  0.00     0.211 A 
ATOM     10  C   UNL     1      16.091  51.311  21.950  1.00  0.00     0.208 A 
ATOM     11  C   UNL     1      15.414  51.353  20.703  1.00  0.00     0.179 A 
ENDROOT
BRANCH   1  12
ATOM     12  C   UNL     1       9.819  52.296  20.792  1.00  0.00     0.021 A 
ATOM     13  C   UNL     1       7.048  52.819  20.918  1.00  0.00     0.160 A 
ATOM     14  C   UNL     1       7.750  52.480  22.086  1.00  0.00     0.161 A 
ATOM     15  C   UNL     1       7.737  52.898  19.693  1.00  0.00     0.051 A 
ATOM     16  C   UNL     1       9.133  52.222  22.018  1.00  0.00     0.062 A 
ATOM     17  C   UNL     1       9.108  52.643  19.635  1.00  0.00     0.016 A 
BRANCH  13  18
ATOM     18  O   UNL     1       5.670  53.072  21.018  1.00  0.00    -0.493 OA
ATOM     19  C   UNL     1       5.064  54.334  20.763  1.00  0.00     0.278 C 
ENDBRANCH  13  18
BRANCH  14  20
ATOM     20  O   UNL     1       7.037  52.410  23.295  1.00  0.00    -0.493 OA
ATOM     21  C   UNL     1       7.385  51.571  24.391  1.00  0.00     0.278 C 
ENDBRANCH  14  20
ENDBRANCH   1  12
BRANCH   8  22
ATOM     22  O   UNL     1      13.288  51.878  24.345  1.00  0.00    -0.490 OA
ATOM     23  C   UNL     1      12.627  50.882  25.125  1.00  0.00     0.278 C 
ENDBRANCH   8  22
BRANCH  11  24
ATOM     24  O   UNL     1      16.080  51.184  19.468  1.00  0.00    -0.492 OA
ATOM     25  C   UNL     1      16.901  50.097  19.056  1.00  0.00     0.278 C 
ENDBRANCH  11  24
BRANCH   9  26
ATOM     26  O   UNL     1      16.070  51.333  24.372  1.00  0.00    -0.490 OA
ATOM     27  C   UNL     1      16.328  50.151  25.122  1.00  0.00     0.279 C 
ENDBRANCH   9  26
BRANCH  10  28
ATOM     28  O   UNL     1      17.486  51.114  21.934  1.00  0.00    -0.490 OA
ATOM     29  C   UNL     1      18.511  52.089  22.111  1.00  0.00     0.278 C 
ENDBRANCH  10  28
TORSDOF 7
ENDMDL
MODEL 7
REMARK VINA RESULT:    -5.524      2.272      4.269
REMARK INTER + INTRA:          -8.555
REMARK INTER:                  -7.897
REMARK INTRA:                  -0.658
REMARK UNBOUND:                -0.771
REMARK SMILES COc1ccc(-c2cc(=O)c3c(OC)c(OC)c(OC)c(OC)c3o2)cc1OC
REMARK SMILES IDX 7 1 8 2 9 3 10 4 11 5 24 6 25 7 21 8 18 9 15 10 12 11 6 12
REMARK SMILES IDX 3 13 27 14 4 15 26 16 5 17 2 18 1 19 28 20 29 21 22 22 23 23
REMARK SMILES IDX 13 24 14 25 19 26 20 27 16 28 17 29
REMARK H PARENT
REMARK Flexibility Score: inf
ROOT
ATOM      1  C   UNL     1      11.472  51.904  22.440  1.00  0.00     0.138 A 
ATOM      2  C   UNL     1      11.970  51.832  23.742  1.00  0.00     0.100 A 
ATOM      3  C   UNL     1      13.326  51.597  23.939  1.00  0.00     0.197 A 
ATOM      4  O   UNL     1      13.755  51.528  25.122  1.00  0.00    -0.289 OA
ATOM      5  C   UNL     1      14.187  51.444  22.822  1.00  0.00     0.115 A 
ATOM      6  C   UNL     1      13.610  51.538  21.534  1.00  0.00     0.188 A 
ATOM      7  O   UNL     1      12.300  51.747  21.413  1.00  0.00    -0.452 OA
ATOM      8  C   UNL     1      14.415  51.418  20.377  1.00  0.00     0.209 A 
ATOM      9  C   UNL     1      15.808  51.191  20.515  1.00  0.00     0.211 A 
ATOM     10  C   UNL     1      16.382  51.051  21.806  1.00  0.00     0.208 A 
ATOM     11  C   UNL     1      15.573  51.196  22.963  1.00  0.00     0.179 A 
ENDROOT
BRANCH   1  12
ATOM     12  C   UNL     1      10.034  52.151  22.179  1.00  0.00     0.021 A 
ATOM     13  C   UNL     1       7.308  52.669  21.662  1.00  0.00     0.160 A 
ATOM     14  C   UNL     1       7.711  52.257  22.942  1.00  0.00     0.161 A 
ATOM     15  C   UNL     1       8.271  52.823  20.647  1.00  0.00     0.051 A 
ATOM     16  C   UNL     1       9.073  52.002  23.195  1.00  0.00     0.062 A 
ATOM     17  C   UNL     1       9.619  52.570  20.907  1.00  0.00     0.016 A 
BRANCH  13  18
ATOM     18  O   UNL     1       5.944  52.917  21.440  1.00  0.00    -0.493 OA
ATOM     19  C   UNL     1       5.425  53.610  20.310  1.00  0.00     0.278 C 
ENDBRANCH  13  18
BRANCH  14  20
ATOM     20  O   UNL     1       6.728  52.112  23.935  1.00  0.00    -0.493 OA
ATOM     21  C   UNL     1       6.857  51.285  25.087  1.00  0.00     0.278 C 
ENDBRANCH  14  20
ENDBRANCH   1  12
BRANCH   8  22
ATOM     22  O   UNL     1      13.881  51.513  19.078  1.00  0.00    -0.490 OA
ATOM     23  C   UNL     1      13.709  52.692  18.292  1.00  0.00     0.278 C 
ENDBRANCH   8  22
BRANCH  11  24
ATOM     24  O   UNL     1      16.092  51.098  24.274  1.00  0.00    -0.492 OA
ATOM     25  C   UNL     1      16.417  49.919  25.002  1.00  0.00     0.278 C 
ENDBRANCH  11  24
BRANCH   9  26
ATOM     26  O   UNL     1      16.669  51.113  19.402  1.00  0.00    -0.490 OA
ATOM     27  C   UNL     1      16.983  49.970  18.613  1.00  0.00     0.279 C 
ENDBRANCH   9  26
BRANCH  10  28
ATOM     28  O   UNL     1      17.752  50.777  21.993  1.00  0.00    -0.490 OA
ATOM     29  C   UNL     1      18.812  51.708  22.197  1.00  0.00     0.278 C 
ENDBRANCH  10  28
TORSDOF 7
ENDMDL
MODEL 8
REMARK VINA RESULT:    -5.416      0.918      1.861
REMARK INTER + INTRA:          -8.403
REMARK INTER:                  -7.587
REMARK INTRA:                  -0.816
REMARK UNBOUND:                -0.771
REMARK SMILES COc1ccc(-c2cc(=O)c3c(OC)c(OC)c(OC)c(OC)c3o2)cc1OC
REMARK SMILES IDX 7 1 8 2 9 3 10 4 11 5 24 6 25 7 21 8 18 9 15 10 12 11 6 12
REMARK SMILES IDX 3 13 27 14 4 15 26 16 5 17 2 18 1 19 28 20 29 21 22 22 23 23
REMARK SMILES IDX 13 24 14 25 19 26 20 27 16 28 17 29
REMARK H PARENT
REMARK Flexibility Score: inf
ROOT
ATOM      1  C   UNL     1       7.971  52.481  21.171  1.00  0.00     0.138 A 
ATOM      2  C   UNL     1       7.933  52.185  22.535  1.00  0.00     0.100 A 
ATOM      3  C   UNL     1       9.122  51.922  23.206  1.00  0.00     0.197 A 
ATOM      4  O   UNL     1       9.066  51.648  24.435  1.00  0.00    -0.289 OA
ATOM      5  C   UNL     1      10.354  51.966  22.507  1.00  0.00     0.115 A 
ATOM      6  C   UNL     1      10.312  52.283  21.129  1.00  0.00     0.188 A 
ATOM      7  O   UNL     1       9.139  52.507  20.539  1.00  0.00    -0.452 OA
ATOM      8  C   UNL     1      11.507  52.368  20.376  1.00  0.00     0.209 A 
ATOM      9  C   UNL     1      12.752  52.123  21.010  1.00  0.00     0.211 A 
ATOM     10  C   UNL     1      12.793  51.761  22.382  1.00  0.00     0.208 A 
ATOM     11  C   UNL     1      11.593  51.701  23.137  1.00  0.00     0.179 A 
ENDROOT
BRANCH   1  12
ATOM     12  C   UNL     1       6.731  52.767  20.412  1.00  0.00     0.021 A 
ATOM     13  C   UNL     1       4.339  53.296  19.008  1.00  0.00     0.160 A 
ATOM     14  C   UNL     1       5.323  52.477  18.430  1.00  0.00     0.161 A 
ATOM     15  C   UNL     1       4.555  53.843  20.286  1.00  0.00     0.051 A 
ATOM     16  C   UNL     1       6.514  52.215  19.136  1.00  0.00     0.062 A 
ATOM     17  C   UNL     1       5.737  53.576  20.980  1.00  0.00     0.016 A 
BRANCH  13  18
ATOM     18  O   UNL     1       3.163  53.537  18.281  1.00  0.00    -0.493 OA
ATOM     19  C   UNL     1       2.904  54.726  17.543  1.00  0.00     0.278 C 
ENDBRANCH  13  18
BRANCH  14  20
ATOM     20  O   UNL     1       5.081  51.944  17.153  1.00  0.00    -0.493 OA
ATOM     21  C   UNL     1       5.630  52.459  15.944  1.00  0.00     0.278 C 
ENDBRANCH  14  20
ENDBRANCH   1  12
BRANCH   8  22
ATOM     22  O   UNL     1      11.510  52.687  19.004  1.00  0.00    -0.490 OA
ATOM     23  C   UNL     1      11.444  51.784  17.901  1.00  0.00     0.278 C 
ENDBRANCH   8  22
BRANCH  11  24
ATOM     24  O   UNL     1      11.572  51.377  24.513  1.00  0.00    -0.492 OA
ATOM     25  C   UNL     1      11.889  50.131  25.125  1.00  0.00     0.278 C 
ENDBRANCH  11  24
BRANCH   9  26
ATOM     26  O   UNL     1      13.979  52.241  20.325  1.00  0.00    -0.490 OA
ATOM     27  C   UNL     1      14.696  53.429  20.007  1.00  0.00     0.279 C 
ENDBRANCH   9  26
BRANCH  10  28
ATOM     28  O   UNL     1      14.001  51.462  23.044  1.00  0.00    -0.490 OA
ATOM     29  C   UNL     1      14.911  52.369  23.661  1.00  0.00     0.278 C 
ENDBRANCH  10  28
TORSDOF 7
ENDMDL
