MODEL 1
REMARK VINA RESULT:    -3.383      0.000      0.000
REMARK INTER + INTRA:          -4.958
REMARK INTER:                  -4.569
REMARK INTRA:                  -0.389
REMARK UNBOUND:                -0.389
REMARK SMILES C=C1C(=O)O[C@@H]2[C@@H]1CCC(C)=CCC[C@]1(C)O[C@H]21
REMARK SMILES IDX 6 1 7 2 2 3 1 4 3 5 4 6 5 7 8 8 9 9 10 10 11 11 12 12 18 14
REMARK SMILES IDX 15 15 17 16 16 17 14 18 13 19
REMARK H PARENT
REMARK Flexibility Score: 70.00
ROOT
ATOM      1  C   UNL     1     -14.712 -21.887 -39.825  1.00  0.00     0.216 C 
ATOM      2  C   UNL     1     -16.030 -22.747 -39.875  1.00  0.00     0.070 C 
ATOM      3  C   UNL     1     -15.792 -23.681 -41.025  1.00  0.00     0.037 C 
ATOM      4  C   UNL     1     -16.680 -24.533 -41.542  1.00  0.00     0.021 C 
ATOM      5  C   UNL     1     -14.468 -23.442 -41.532  1.00  0.00     0.334 C 
ATOM      6  O   UNL     1     -13.923 -24.060 -42.485  1.00  0.00    -0.247 OA
ATOM      7  O   UNL     1     -13.860 -22.422 -40.837  1.00  0.00    -0.455 OA
ENDROOT
BRANCH   2   8
ATOM      8  C   UNL     1     -16.279 -23.551 -38.573  1.00  0.00     0.017 C 
BRANCH   8   9
ATOM      9  C   UNL     1     -17.072 -22.809 -37.473  1.00  0.00     0.031 C 
BRANCH   9  10
ATOM     10  C   UNL     1     -16.266 -22.541 -36.215  1.00  0.00    -0.077 C 
ATOM     11  C   UNL     1     -15.941 -23.701 -35.306  1.00  0.00     0.039 C 
ATOM     12  C   UNL     1     -15.780 -21.323 -35.877  1.00  0.00    -0.028 CG0
ATOM     13  G   UNL     1     -15.862 -20.052 -36.698  1.00  0.00     0.000 G0
ENDBRANCH   9  10
ENDBRANCH   8   9
ENDBRANCH   2   8
BRANCH   1  14
ATOM     14  C   UNL     1     -14.924 -20.381 -40.133  1.00  0.00     0.192 C 
ATOM     15  C   UNL     1     -14.926 -19.331 -39.053  1.00  0.00     0.096 C 
ATOM     16  O   UNL     1     -16.114 -19.888 -39.555  1.00  0.00    -0.362 OA
ATOM     17  C   UNL     1     -14.774 -17.875 -39.490  1.00  0.00     0.045 C 
BRANCH  15  18
ATOM     18  C   UNL     1     -14.650 -19.674 -37.567  1.00  0.00     0.042 C 
BRANCH  18  19
ATOM     19  C   UNL     1     -15.876 -20.049 -36.704  1.00  0.00     0.030 CG0
ATOM     20  G   UNL     1     -15.778 -21.316 -35.879  1.00  0.00     0.000 G0
ENDBRANCH  18  19
ENDBRANCH  15  18
ENDBRANCH   1  14
TORSDOF 0
ENDMDL
MODEL 2
REMARK VINA RESULT:    -3.288      5.239      7.828
REMARK INTER + INTRA:          -4.831
REMARK INTER:                  -4.474
REMARK INTRA:                  -0.356
REMARK UNBOUND:                -0.389
REMARK SMILES C=C1C(=O)O[C@@H]2[C@@H]1CCC(C)=CCC[C@]1(C)O[C@H]21
REMARK SMILES IDX 6 1 7 2 2 3 1 4 3 5 4 6 5 7 8 8 9 9 10 10 11 11 12 12 18 14
REMARK SMILES IDX 15 15 17 16 16 17 14 18 13 19
REMARK H PARENT
REMARK Flexibility Score: 70.00
ROOT
ATOM      1  C   UNL     1     -11.735 -25.360 -41.370  1.00  0.00     0.216 C 
ATOM      2  C   UNL     1     -10.327 -25.167 -42.049  1.00  0.00     0.070 C 
ATOM      3  C   UNL     1      -9.362 -25.505 -40.952  1.00  0.00     0.037 C 
ATOM      4  C   UNL     1      -8.036 -25.374 -41.004  1.00  0.00     0.021 C 
ATOM      5  C   UNL     1     -10.118 -25.917 -39.800  1.00  0.00     0.334 C 
ATOM      6  O   UNL     1      -9.634 -26.293 -38.699  1.00  0.00    -0.247 OA
ATOM      7  O   UNL     1     -11.468 -25.835 -40.051  1.00  0.00    -0.455 OA
ENDROOT
BRANCH   2   8
ATOM      8  C   UNL     1     -10.108 -26.103 -43.266  1.00  0.00     0.017 C 
BRANCH   8   9
ATOM      9  C   UNL     1     -10.998 -25.817 -44.496  1.00  0.00     0.031 C 
BRANCH   9  10
ATOM     10  C   UNL     1     -12.124 -26.818 -44.681  1.00  0.00    -0.077 C 
ATOM     11  C   UNL     1     -11.769 -28.266 -44.923  1.00  0.00     0.039 C 
ATOM     12  C   UNL     1     -13.437 -26.499 -44.599  1.00  0.00    -0.028 CG0
ATOM     13  G   UNL     1     -14.023 -25.151 -44.232  1.00  0.00     0.000 G0
ENDBRANCH   9  10
ENDBRANCH   8   9
ENDBRANCH   2   8
BRANCH   1  14
ATOM     14  C   UNL     1     -12.564 -24.054 -41.244  1.00  0.00     0.192 C 
ATOM     15  C   UNL     1     -13.884 -23.867 -41.944  1.00  0.00     0.096 C 
ATOM     16  O   UNL     1     -12.679 -23.382 -42.480  1.00  0.00    -0.362 OA
ATOM     17  C   UNL     1     -14.775 -22.721 -41.468  1.00  0.00     0.045 C 
BRANCH  15  18
ATOM     18  C   UNL     1     -14.538 -24.991 -42.786  1.00  0.00     0.042 C 
BRANCH  18  19
ATOM     19  C   UNL     1     -14.031 -25.155 -44.237  1.00  0.00     0.030 CG0
ATOM     20  G   UNL     1     -13.436 -26.497 -44.613  1.00  0.00     0.000 G0
ENDBRANCH  18  19
ENDBRANCH  15  18
ENDBRANCH   1  14
TORSDOF 0
ENDMDL
MODEL 3
REMARK VINA RESULT:    -3.234      6.603      8.953
REMARK INTER + INTRA:          -4.757
REMARK INTER:                  -4.361
REMARK INTRA:                  -0.397
REMARK UNBOUND:                -0.389
REMARK SMILES C=C1C(=O)O[C@@H]2[C@@H]1CCC(C)=CCC[C@]1(C)O[C@H]21
REMARK SMILES IDX 6 1 7 2 2 3 1 4 3 5 4 6 5 7 8 8 9 9 10 10 11 11 12 12 18 14
REMARK SMILES IDX 15 15 17 16 16 17 14 18 13 19
REMARK H PARENT
REMARK Flexibility Score: 70.00
ROOT
ATOM      1  C   UNL     1     -10.713 -26.163 -40.291  1.00  0.00     0.216 C 
ATOM      2  C   UNL     1      -9.303 -25.596 -39.879  1.00  0.00     0.070 C 
ATOM      3  C   UNL     1      -9.264 -25.805 -38.394  1.00  0.00     0.037 C 
ATOM      4  C   UNL     1      -8.313 -25.373 -37.565  1.00  0.00     0.021 C 
ATOM      5  C   UNL     1     -10.472 -26.480 -38.004  1.00  0.00     0.334 C 
ATOM      6  O   UNL     1     -10.771 -26.834 -36.833  1.00  0.00    -0.247 OA
ATOM      7  O   UNL     1     -11.288 -26.683 -39.093  1.00  0.00    -0.455 OA
ENDROOT
BRANCH   2   8
ATOM      8  C   UNL     1      -8.127 -26.344 -40.559  1.00  0.00     0.017 C 
BRANCH   8   9
ATOM      9  C   UNL     1      -7.953 -26.078 -42.071  1.00  0.00     0.031 C 
BRANCH   9  10
ATOM     10  C   UNL     1      -8.362 -27.248 -42.947  1.00  0.00    -0.077 C 
ATOM     11  C   UNL     1      -7.588 -28.539 -42.834  1.00  0.00     0.039 C 
ATOM     12  C   UNL     1      -9.414 -27.219 -43.800  1.00  0.00    -0.028 CG0
ATOM     13  G   UNL     1     -10.408 -26.090 -43.979  1.00  0.00     0.000 G0
ENDBRANCH   9  10
ENDBRANCH   8   9
ENDBRANCH   2   8
BRANCH   1  14
ATOM     14  C   UNL     1     -11.687 -25.096 -40.858  1.00  0.00     0.192 C 
ATOM     15  C   UNL     1     -12.167 -25.121 -42.285  1.00  0.00     0.096 C 
ATOM     16  O   UNL     1     -11.086 -24.322 -41.876  1.00  0.00    -0.362 OA
ATOM     17  C   UNL     1     -13.384 -24.264 -42.632  1.00  0.00     0.045 C 
BRANCH  15  18
ATOM     18  C   UNL     1     -11.775 -26.252 -43.269  1.00  0.00     0.042 C 
BRANCH  18  19
ATOM     19  C   UNL     1     -10.417 -26.102 -43.992  1.00  0.00     0.030 CG0
ATOM     20  G   UNL     1      -9.401 -27.207 -43.789  1.00  0.00     0.000 G0
ENDBRANCH  18  19
ENDBRANCH  15  18
ENDBRANCH   1  14
TORSDOF 0
ENDMDL
MODEL 4
REMARK VINA RESULT:    -3.223      6.430      8.863
REMARK INTER + INTRA:          -4.742
REMARK INTER:                  -4.690
REMARK INTRA:                  -0.052
REMARK UNBOUND:                -0.389
REMARK SMILES C=C1C(=O)O[C@@H]2[C@@H]1CCC(C)=CCC[C@]1(C)O[C@H]21
REMARK SMILES IDX 6 1 7 2 2 3 1 4 3 5 4 6 5 7 8 8 9 9 10 10 11 11 12 12 18 14
REMARK SMILES IDX 15 15 17 16 16 17 14 18 13 19
REMARK H PARENT
REMARK Flexibility Score: 70.00
ROOT
ATOM      1  C   UNL     1      -8.943 -25.805 -40.919  1.00  0.00     0.216 C 
ATOM      2  C   UNL     1     -10.242 -26.289 -40.172  1.00  0.00     0.070 C 
ATOM      3  C   UNL     1      -9.842 -26.258 -38.726  1.00  0.00     0.037 C 
ATOM      4  C   UNL     1     -10.572 -26.700 -37.700  1.00  0.00     0.021 C 
ATOM      5  C   UNL     1      -8.501 -25.748 -38.641  1.00  0.00     0.334 C 
ATOM      6  O   UNL     1      -7.849 -25.567 -37.578  1.00  0.00    -0.247 OA
ATOM      7  O   UNL     1      -8.000 -25.488 -39.896  1.00  0.00    -0.455 OA
ENDROOT
BRANCH   2   8
ATOM      8  C   UNL     1     -11.461 -25.360 -40.412  1.00  0.00     0.017 C 
BRANCH   8   9
ATOM      9  C   UNL     1     -11.362 -24.438 -41.648  1.00  0.00     0.031 C 
BRANCH   9  10
ATOM     10  C   UNL     1     -12.446 -24.684 -42.681  1.00  0.00    -0.077 C 
ATOM     11  C   UNL     1     -13.565 -23.678 -42.807  1.00  0.00     0.039 C 
ATOM     12  C   UNL     1     -12.449 -25.736 -43.534  1.00  0.00    -0.028 CG0
ATOM     13  G   UNL     1     -11.369 -26.788 -43.683  1.00  0.00     0.000 G0
ENDBRANCH   9  10
ENDBRANCH   8   9
ENDBRANCH   2   8
BRANCH   1  14
ATOM     14  C   UNL     1      -8.301 -26.879 -41.838  1.00  0.00     0.192 C 
ATOM     15  C   UNL     1      -8.786 -27.134 -43.240  1.00  0.00     0.096 C 
ATOM     16  O   UNL     1      -9.209 -27.915 -42.151  1.00  0.00    -0.362 OA
ATOM     17  C   UNL     1      -7.869 -27.932 -44.166  1.00  0.00     0.045 C 
BRANCH  15  18
ATOM     18  C   UNL     1      -9.916 -26.295 -43.888  1.00  0.00     0.042 C 
BRANCH  18  19
ATOM     19  C   UNL     1     -11.362 -26.801 -43.680  1.00  0.00     0.030 CG0
ATOM     20  G   UNL     1     -12.446 -25.754 -43.534  1.00  0.00     0.000 G0
ENDBRANCH  18  19
ENDBRANCH  15  18
ENDBRANCH   1  14
TORSDOF 0
ENDMDL
MODEL 5
REMARK VINA RESULT:    -3.162      5.559      8.192
REMARK INTER + INTRA:          -4.659
REMARK INTER:                  -4.263
REMARK INTRA:                  -0.396
REMARK UNBOUND:                -0.389
REMARK SMILES C=C1C(=O)O[C@@H]2[C@@H]1CCC(C)=CCC[C@]1(C)O[C@H]21
REMARK SMILES IDX 6 1 7 2 2 3 1 4 3 5 4 6 5 7 8 8 9 9 10 10 11 11 12 12 18 14
REMARK SMILES IDX 15 15 17 16 16 17 14 18 13 19
REMARK H PARENT
REMARK Flexibility Score: 70.00
ROOT
ATOM      1  C   UNL     1     -12.710 -25.725 -42.890  1.00  0.00     0.216 C 
ATOM      2  C   UNL     1     -12.394 -24.392 -42.113  1.00  0.00     0.070 C 
ATOM      3  C   UNL     1     -13.737 -23.959 -41.604  1.00  0.00     0.037 C 
ATOM      4  C   UNL     1     -14.009 -22.811 -40.982  1.00  0.00     0.021 C 
ATOM      5  C   UNL     1     -14.703 -24.957 -41.978  1.00  0.00     0.334 C 
ATOM      6  O   UNL     1     -15.931 -24.933 -41.701  1.00  0.00    -0.247 OA
ATOM      7  O   UNL     1     -14.106 -25.961 -42.706  1.00  0.00    -0.455 OA
ENDROOT
BRANCH   2   8
ATOM      8  C   UNL     1     -11.413 -24.599 -40.929  1.00  0.00     0.017 C 
BRANCH   8   9
ATOM      9  C   UNL     1      -9.930 -24.790 -41.319  1.00  0.00     0.031 C 
BRANCH   9  10
ATOM     10  C   UNL     1      -9.415 -26.199 -41.093  1.00  0.00    -0.077 C 
ATOM     11  C   UNL     1      -9.331 -26.718 -39.677  1.00  0.00     0.039 C 
ATOM     12  C   UNL     1      -9.065 -27.043 -42.092  1.00  0.00    -0.028 CG0
ATOM     13  G   UNL     1      -9.195 -26.792 -43.581  1.00  0.00     0.000 G0
ENDBRANCH   9  10
ENDBRANCH   8   9
ENDBRANCH   2   8
BRANCH   1  14
ATOM     14  C   UNL     1     -12.441 -25.648 -44.417  1.00  0.00     0.192 C 
ATOM     15  C   UNL     1     -11.335 -26.426 -45.080  1.00  0.00     0.096 C 
ATOM     16  O   UNL     1     -11.180 -25.082 -44.702  1.00  0.00    -0.362 OA
ATOM     17  C   UNL     1     -11.390 -26.567 -46.600  1.00  0.00     0.045 C 
BRANCH  15  18
ATOM     18  C   UNL     1     -10.431 -27.408 -44.294  1.00  0.00     0.042 C 
BRANCH  18  19
ATOM     19  C   UNL     1      -9.201 -26.800 -43.583  1.00  0.00     0.030 CG0
ATOM     20  G   UNL     1      -9.065 -27.058 -42.096  1.00  0.00     0.000 G0
ENDBRANCH  18  19
ENDBRANCH  15  18
ENDBRANCH   1  14
TORSDOF 0
ENDMDL
MODEL 6
REMARK VINA RESULT:    -3.154      3.567      5.840
REMARK INTER + INTRA:          -4.649
REMARK INTER:                  -4.265
REMARK INTRA:                  -0.384
REMARK UNBOUND:                -0.389
REMARK SMILES C=C1C(=O)O[C@@H]2[C@@H]1CCC(C)=CCC[C@]1(C)O[C@H]21
REMARK SMILES IDX 6 1 7 2 2 3 1 4 3 5 4 6 5 7 8 8 9 9 10 10 11 11 12 12 18 14
REMARK SMILES IDX 15 15 17 16 16 17 14 18 13 19
REMARK H PARENT
REMARK Flexibility Score: 70.00
ROOT
ATOM      1  C   UNL     1     -12.860 -24.281 -43.169  1.00  0.00     0.216 C 
ATOM      2  C   UNL     1     -12.927 -24.508 -41.612  1.00  0.00     0.070 C 
ATOM      3  C   UNL     1     -11.560 -25.028 -41.277  1.00  0.00     0.037 C 
ATOM      4  C   UNL     1     -11.162 -25.483 -40.088  1.00  0.00     0.021 C 
ATOM      5  C   UNL     1     -10.773 -25.031 -42.481  1.00  0.00     0.334 C 
ATOM      6  O   UNL     1      -9.568 -25.387 -42.571  1.00  0.00    -0.247 OA
ATOM      7  O   UNL     1     -11.522 -24.599 -43.551  1.00  0.00    -0.455 OA
ENDROOT
BRANCH   2   8
ATOM      8  C   UNL     1     -13.214 -23.205 -40.821  1.00  0.00     0.017 C 
BRANCH   8   9
ATOM      9  C   UNL     1     -14.602 -23.129 -40.145  1.00  0.00     0.031 C 
BRANCH   9  10
ATOM     10  C   UNL     1     -15.473 -22.001 -40.667  1.00  0.00    -0.077 C 
ATOM     11  C   UNL     1     -15.324 -20.630 -40.051  1.00  0.00     0.039 C 
ATOM     12  C   UNL     1     -16.354 -22.138 -41.687  1.00  0.00    -0.028 CG0
ATOM     13  G   UNL     1     -16.572 -23.372 -42.538  1.00  0.00     0.000 G0
ENDBRANCH   9  10
ENDBRANCH   8   9
ENDBRANCH   2   8
BRANCH   1  14
ATOM     14  C   UNL     1     -13.814 -25.193 -43.986  1.00  0.00     0.192 C 
ATOM     15  C   UNL     1     -15.232 -24.796 -44.302  1.00  0.00     0.096 C 
ATOM     16  O   UNL     1     -14.915 -25.628 -43.214  1.00  0.00    -0.362 OA
ATOM     17  C   UNL     1     -15.951 -25.578 -45.400  1.00  0.00     0.045 C 
BRANCH  15  18
ATOM     18  C   UNL     1     -15.816 -23.421 -43.892  1.00  0.00     0.042 C 
BRANCH  18  19
ATOM     19  C   UNL     1     -16.585 -23.366 -42.552  1.00  0.00     0.030 CG0
ATOM     20  G   UNL     1     -16.378 -22.139 -41.687  1.00  0.00     0.000 G0
ENDBRANCH  18  19
ENDBRANCH  15  18
ENDBRANCH   1  14
TORSDOF 0
ENDMDL
MODEL 7
REMARK VINA RESULT:    -3.017      6.405      8.991
REMARK INTER + INTRA:          -4.464
REMARK INTER:                  -4.072
REMARK INTRA:                  -0.393
REMARK UNBOUND:                -0.389
REMARK SMILES C=C1C(=O)O[C@@H]2[C@@H]1CCC(C)=CCC[C@]1(C)O[C@H]21
REMARK SMILES IDX 6 1 7 2 2 3 1 4 3 5 4 6 5 7 8 8 9 9 10 10 11 11 12 12 18 14
REMARK SMILES IDX 15 15 17 16 16 17 14 18 13 19
REMARK H PARENT
REMARK Flexibility Score: 70.00
ROOT
ATOM      1  C   UNL     1     -10.783 -27.614 -44.023  1.00  0.00     0.216 C 
ATOM      2  C   UNL     1     -10.875 -26.339 -44.943  1.00  0.00     0.070 C 
ATOM      3  C   UNL     1     -11.680 -26.814 -46.117  1.00  0.00     0.037 C 
ATOM      4  C   UNL     1     -11.927 -26.123 -47.231  1.00  0.00     0.021 C 
ATOM      5  C   UNL     1     -12.071 -28.176 -45.872  1.00  0.00     0.334 C 
ATOM      6  O   UNL     1     -12.773 -28.888 -46.637  1.00  0.00    -0.247 OA
ATOM      7  O   UNL     1     -11.559 -28.619 -44.674  1.00  0.00    -0.455 OA
ENDROOT
BRANCH   2   8
ATOM      8  C   UNL     1     -11.583 -25.144 -44.254  1.00  0.00     0.017 C 
BRANCH   8   9
ATOM      9  C   UNL     1     -10.745 -24.393 -43.195  1.00  0.00     0.031 C 
BRANCH   9  10
ATOM     10  C   UNL     1     -11.217 -24.617 -41.771  1.00  0.00    -0.077 C 
ATOM     11  C   UNL     1     -12.577 -24.097 -41.372  1.00  0.00     0.039 C 
ATOM     12  C   UNL     1     -10.507 -25.297 -40.839  1.00  0.00    -0.028 CG0
ATOM     13  G   UNL     1      -9.192 -26.019 -41.049  1.00  0.00     0.000 G0
ENDBRANCH   9  10
ENDBRANCH   8   9
ENDBRANCH   2   8
BRANCH   1  14
ATOM     14  C   UNL     1      -9.344 -28.168 -43.846  1.00  0.00     0.192 C 
ATOM     15  C   UNL     1      -8.614 -28.107 -42.530  1.00  0.00     0.096 C 
ATOM     16  O   UNL     1      -8.421 -27.145 -43.536  1.00  0.00    -0.362 OA
ATOM     17  C   UNL     1      -7.379 -28.992 -42.371  1.00  0.00     0.045 C 
BRANCH  15  18
ATOM     18  C   UNL     1      -9.275 -27.548 -41.245  1.00  0.00     0.042 C 
BRANCH  18  19
ATOM     19  C   UNL     1      -9.202 -26.018 -41.038  1.00  0.00     0.030 CG0
ATOM     20  G   UNL     1     -10.512 -25.289 -40.814  1.00  0.00     0.000 G0
ENDBRANCH  18  19
ENDBRANCH  15  18
ENDBRANCH   1  14
TORSDOF 0
ENDMDL
MODEL 8
REMARK VINA RESULT:    -3.002      5.718      8.198
REMARK INTER + INTRA:          -4.444
REMARK INTER:                  -4.050
REMARK INTRA:                  -0.393
REMARK UNBOUND:                -0.389
REMARK SMILES C=C1C(=O)O[C@@H]2[C@@H]1CCC(C)=CCC[C@]1(C)O[C@H]21
REMARK SMILES IDX 6 1 7 2 2 3 1 4 3 5 4 6 5 7 8 8 9 9 10 10 11 11 12 12 18 14
REMARK SMILES IDX 15 15 17 16 16 17 14 18 13 19
REMARK H PARENT
REMARK Flexibility Score: 70.00
ROOT
ATOM      1  C   UNL     1      -9.984 -25.679 -42.105  1.00  0.00     0.216 C 
ATOM      2  C   UNL     1     -11.073 -25.987 -41.009  1.00  0.00     0.070 C 
ATOM      3  C   UNL     1     -10.276 -26.074 -39.741  1.00  0.00     0.037 C 
ATOM      4  C   UNL     1     -10.740 -26.439 -38.545  1.00  0.00     0.021 C 
ATOM      5  C   UNL     1      -8.903 -25.779 -40.052  1.00  0.00     0.334 C 
ATOM      6  O   UNL     1      -7.954 -25.740 -39.226  1.00  0.00    -0.247 OA
ATOM      7  O   UNL     1      -8.750 -25.550 -41.400  1.00  0.00    -0.455 OA
ENDROOT
BRANCH   2   8
ATOM      8  C   UNL     1     -12.147 -24.874 -40.893  1.00  0.00     0.017 C 
BRANCH   8   9
ATOM      9  C   UNL     1     -13.549 -25.243 -41.429  1.00  0.00     0.031 C 
BRANCH   9  10
ATOM     10  C   UNL     1     -14.005 -24.380 -42.591  1.00  0.00    -0.077 C 
ATOM     11  C   UNL     1     -14.654 -23.050 -42.291  1.00  0.00     0.039 C 
ATOM     12  C   UNL     1     -13.825 -24.712 -43.892  1.00  0.00    -0.028 CG0
ATOM     13  G   UNL     1     -13.084 -25.919 -44.428  1.00  0.00     0.000 G0
ENDBRANCH   9  10
ENDBRANCH   8   9
ENDBRANCH   2   8
BRANCH   1  14
ATOM     14  C   UNL     1      -9.811 -26.802 -43.162  1.00  0.00     0.192 C 
ATOM     15  C   UNL     1     -10.599 -26.829 -44.445  1.00  0.00     0.096 C 
ATOM     16  O   UNL     1     -10.987 -27.568 -43.314  1.00  0.00    -0.362 OA
ATOM     17  C   UNL     1     -10.098 -27.748 -45.557  1.00  0.00     0.045 C 
BRANCH  15  18
ATOM     18  C   UNL     1     -11.590 -25.701 -44.829  1.00  0.00     0.042 C 
BRANCH  18  19
ATOM     19  C   UNL     1     -13.072 -25.922 -44.449  1.00  0.00     0.030 CG0
ATOM     20  G   UNL     1     -13.829 -24.729 -43.902  1.00  0.00     0.000 G0
ENDBRANCH  18  19
ENDBRANCH  15  18
ENDBRANCH   1  14
TORSDOF 0
ENDMDL
MODEL 9
REMARK VINA RESULT:    -2.985      4.834      7.457
REMARK INTER + INTRA:          -4.421
REMARK INTER:                  -4.602
REMARK INTRA:                   0.181
REMARK UNBOUND:                -0.389
REMARK SMILES C=C1C(=O)O[C@@H]2[C@@H]1CCC(C)=CCC[C@]1(C)O[C@H]21
REMARK SMILES IDX 6 1 7 2 2 3 1 4 3 5 4 6 5 7 8 8 9 9 10 10 11 11 12 12 18 14
REMARK SMILES IDX 15 15 17 16 16 17 14 18 13 19
REMARK H PARENT
REMARK Flexibility Score: 70.00
ROOT
ATOM      1  C   UNL     1     -13.000 -23.816 -40.959  1.00  0.00     0.216 C 
ATOM      2  C   UNL     1     -13.252 -23.968 -42.506  1.00  0.00     0.070 C 
ATOM      3  C   UNL     1     -14.451 -23.100 -42.750  1.00  0.00     0.037 C 
ATOM      4  C   UNL     1     -15.123 -22.994 -43.897  1.00  0.00     0.021 C 
ATOM      5  C   UNL     1     -14.805 -22.464 -41.510  1.00  0.00     0.334 C 
ATOM      6  O   UNL     1     -15.751 -21.649 -41.346  1.00  0.00    -0.247 OA
ATOM      7  O   UNL     1     -13.968 -22.875 -40.498  1.00  0.00    -0.455 OA
ENDROOT
BRANCH   2   8
ATOM      8  C   UNL     1     -12.055 -23.485 -43.366  1.00  0.00     0.017 C 
BRANCH   8   9
ATOM      9  C   UNL     1     -10.858 -24.460 -43.449  1.00  0.00     0.031 C 
BRANCH   9  10
ATOM     10  C   UNL     1     -11.231 -25.841 -43.956  1.00  0.00    -0.077 C 
ATOM     11  C   UNL     1     -11.780 -25.973 -45.355  1.00  0.00     0.039 C 
ATOM     12  C   UNL     1     -11.059 -26.978 -43.239  1.00  0.00    -0.028 CG0
ATOM     13  G   UNL     1     -10.405 -27.104 -41.878  1.00  0.00     0.000 G0
ENDBRANCH   9  10
ENDBRANCH   8   9
ENDBRANCH   2   8
BRANCH   1  14
ATOM     14  C   UNL     1     -13.193 -25.127 -40.152  1.00  0.00     0.192 C 
ATOM     15  C   UNL     1     -12.143 -26.206 -40.104  1.00  0.00     0.096 C 
ATOM     16  O   UNL     1     -13.231 -26.262 -40.992  1.00  0.00    -0.362 OA
ATOM     17  C   UNL     1     -12.272 -27.263 -39.009  1.00  0.00     0.045 C 
BRANCH  15  18
ATOM     18  C   UNL     1     -10.769 -26.052 -40.804  1.00  0.00     0.042 C 
BRANCH  18  19
ATOM     19  C   UNL     1     -10.410 -27.115 -41.867  1.00  0.00     0.030 CG0
ATOM     20  G   UNL     1     -11.053 -26.971 -43.232  1.00  0.00     0.000 G0
ENDBRANCH  18  19
ENDBRANCH  15  18
ENDBRANCH   1  14
TORSDOF 0
ENDMDL
