MODEL 1
REMARK VINA RESULT:    -3.915      0.000      0.000
REMARK INTER + INTRA:          -6.405
REMARK INTER:                  -5.746
REMARK INTRA:                  -0.660
REMARK UNBOUND:                -0.660
REMARK SMILES O=C([O-])CCCCCCCC(=O)[O-]
REMARK SMILES IDX 7 1 6 2 5 3 4 4 2 5 1 6 3 7 8 8 9 9 10 10 11 11 12 12 13 13
REMARK H PARENT
REMARK Flexibility Score: inf
ROOT
ATOM      1  C   UNL     1      30.371   6.621  48.435  1.00  0.00     0.000 C 
ENDROOT
BRANCH   1   2
ATOM      2  C   UNL     1      30.354   8.127  48.751  1.00  0.00     0.000 C 
BRANCH   2   3
ATOM      3  C   UNL     1      31.750   8.692  49.046  1.00  0.00     0.006 C 
BRANCH   3   4
ATOM      4  C   UNL     1      32.151   9.738  48.003  1.00  0.00     0.053 C 
BRANCH   4   5
ATOM      5  C   UNL     1      33.604   9.617  47.670  1.00  0.00     0.041 C 
ATOM      6  O   UNL     1      34.474   9.752  48.570  1.00  0.00    -0.550 OA
ATOM      7  O   UNL     1      34.001   9.403  46.356  1.00  0.00    -0.550 OA
ENDBRANCH   4   5
ENDBRANCH   3   4
ENDBRANCH   2   3
ENDBRANCH   1   2
BRANCH   1   8
ATOM      8  C   UNL     1      31.288   6.250  47.250  1.00  0.00     0.000 C 
BRANCH   8   9
ATOM      9  C   UNL     1      32.427   5.305  47.672  1.00  0.00     0.006 C 
BRANCH   9  10
ATOM     10  C   UNL     1      33.812   5.927  47.452  1.00  0.00     0.053 C 
BRANCH  10  11
ATOM     11  C   UNL     1      34.374   5.573  46.111  1.00  0.00     0.041 C 
ATOM     12  O   UNL     1      35.124   4.569  45.981  1.00  0.00    -0.550 OA
ATOM     13  O   UNL     1      34.042   6.332  44.995  1.00  0.00    -0.550 OA
ENDBRANCH  10  11
ENDBRANCH   9  10
ENDBRANCH   8   9
ENDBRANCH   1   8
TORSDOF 8
ENDMDL
MODEL 2
REMARK VINA RESULT:    -3.889      0.238      3.936
REMARK INTER + INTRA:          -6.368
REMARK INTER:                  -5.854
REMARK INTRA:                  -0.514
REMARK UNBOUND:                -0.660
REMARK SMILES O=C([O-])CCCCCCCC(=O)[O-]
REMARK SMILES IDX 7 1 6 2 5 3 4 4 2 5 1 6 3 7 8 8 9 9 10 10 11 11 12 12 13 13
REMARK H PARENT
REMARK Flexibility Score: inf
ROOT
ATOM      1  C   UNL     1      30.308   6.484  48.196  1.00  0.00     0.000 C 
ENDROOT
BRANCH   1   2
ATOM      2  C   UNL     1      31.468   6.248  47.213  1.00  0.00     0.000 C 
BRANCH   2   3
ATOM      3  C   UNL     1      32.507   5.251  47.743  1.00  0.00     0.006 C 
BRANCH   3   4
ATOM      4  C   UNL     1      33.927   5.801  47.583  1.00  0.00     0.053 C 
BRANCH   4   5
ATOM      5  C   UNL     1      34.457   5.496  46.218  1.00  0.00     0.041 C 
ATOM      6  O   UNL     1      35.215   4.507  46.039  1.00  0.00    -0.550 OA
ATOM      7  O   UNL     1      34.155   6.334  45.152  1.00  0.00    -0.550 OA
ENDBRANCH   4   5
ENDBRANCH   3   4
ENDBRANCH   2   3
ENDBRANCH   1   2
BRANCH   1   8
ATOM      8  C   UNL     1      30.252   7.923  48.750  1.00  0.00     0.000 C 
BRANCH   8   9
ATOM      9  C   UNL     1      31.654   8.484  49.052  1.00  0.00     0.006 C 
BRANCH   9  10
ATOM     10  C   UNL     1      32.072   9.574  48.058  1.00  0.00     0.053 C 
BRANCH  10  11
ATOM     11  C   UNL     1      33.525   9.481  47.709  1.00  0.00     0.041 C 
ATOM     12  O   UNL     1      34.380   9.246  48.604  1.00  0.00    -0.550 OA
ATOM     13  O   UNL     1      33.933   9.619  46.388  1.00  0.00    -0.550 OA
ENDBRANCH  10  11
ENDBRANCH   9  10
ENDBRANCH   8   9
ENDBRANCH   1   8
TORSDOF 8
ENDMDL
MODEL 3
REMARK VINA RESULT:    -3.782     17.193     18.035
REMARK INTER + INTRA:          -6.210
REMARK INTER:                  -5.589
REMARK INTRA:                  -0.621
REMARK UNBOUND:                -0.660
REMARK SMILES O=C([O-])CCCCCCCC(=O)[O-]
REMARK SMILES IDX 7 1 6 2 5 3 4 4 2 5 1 6 3 7 8 8 9 9 10 10 11 11 12 12 13 13
REMARK H PARENT
REMARK Flexibility Score: inf
ROOT
ATOM      1  C   UNL     1      22.388  11.534  35.244  1.00  0.00     0.000 C 
ENDROOT
BRANCH   1   2
ATOM      2  C   UNL     1      21.907  11.908  33.832  1.00  0.00     0.000 C 
BRANCH   2   3
ATOM      3  C   UNL     1      21.120  13.225  33.798  1.00  0.00     0.006 C 
BRANCH   3   4
ATOM      4  C   UNL     1      20.639  13.613  35.199  1.00  0.00     0.053 C 
BRANCH   4   5
ATOM      5  C   UNL     1      19.275  13.057  35.458  1.00  0.00     0.041 C 
ATOM      6  O   UNL     1      19.021  12.485  36.550  1.00  0.00    -0.550 OA
ATOM      7  O   UNL     1      18.298  13.126  34.473  1.00  0.00    -0.550 OA
ENDBRANCH   4   5
ENDBRANCH   3   4
ENDBRANCH   2   3
ENDBRANCH   1   2
BRANCH   1   8
ATOM      8  C   UNL     1      22.075  10.074  35.637  1.00  0.00     0.000 C 
BRANCH   8   9
ATOM      9  C   UNL     1      20.751   9.580  35.024  1.00  0.00     0.006 C 
BRANCH   9  10
ATOM     10  C   UNL     1      19.829   8.941  36.070  1.00  0.00     0.053 C 
BRANCH  10  11
ATOM     11  C   UNL     1      19.859   7.446  35.998  1.00  0.00     0.041 C 
ATOM     12  O   UNL     1      20.561   6.866  35.127  1.00  0.00    -0.550 OA
ATOM     13  O   UNL     1      19.140   6.691  36.916  1.00  0.00    -0.550 OA
ENDBRANCH  10  11
ENDBRANCH   9  10
ENDBRANCH   8   9
ENDBRANCH   1   8
TORSDOF 8
ENDMDL
MODEL 4
REMARK VINA RESULT:    -3.750     17.360     18.627
REMARK INTER + INTRA:          -6.164
REMARK INTER:                  -5.575
REMARK INTRA:                  -0.588
REMARK UNBOUND:                -0.660
REMARK SMILES O=C([O-])CCCCCCCC(=O)[O-]
REMARK SMILES IDX 7 1 6 2 5 3 4 4 2 5 1 6 3 7 8 8 9 9 10 10 11 11 12 12 13 13
REMARK H PARENT
REMARK Flexibility Score: inf
ROOT
ATOM      1  C   UNL     1      22.263  11.550  35.327  1.00  0.00     0.000 C 
ENDROOT
BRANCH   1   2
ATOM      2  C   UNL     1      21.963  10.072  35.629  1.00  0.00     0.000 C 
BRANCH   2   3
ATOM      3  C   UNL     1      20.476   9.809  35.907  1.00  0.00     0.006 C 
BRANCH   3   4
ATOM      4  C   UNL     1      19.894   8.821  34.892  1.00  0.00     0.053 C 
BRANCH   4   5
ATOM      5  C   UNL     1      19.924   7.429  35.439  1.00  0.00     0.041 C 
ATOM      6  O   UNL     1      20.946   6.710  35.284  1.00  0.00    -0.550 OA
ATOM      7  O   UNL     1      18.805   6.908  36.075  1.00  0.00    -0.550 OA
ENDBRANCH   4   5
ENDBRANCH   3   4
ENDBRANCH   2   3
ENDBRANCH   1   2
BRANCH   1   8
ATOM      8  C   UNL     1      21.877  11.978  33.895  1.00  0.00     0.000 C 
BRANCH   8   9
ATOM      9  C   UNL     1      21.136  13.327  33.873  1.00  0.00     0.006 C 
BRANCH   9  10
ATOM     10  C   UNL     1      20.519  13.675  35.233  1.00  0.00     0.053 C 
BRANCH  10  11
ATOM     11  C   UNL     1      19.086  13.252  35.319  1.00  0.00     0.041 C 
ATOM     12  O   UNL     1      18.525  13.131  36.441  1.00  0.00    -0.550 OA
ATOM     13  O   UNL     1      18.357  13.025  34.158  1.00  0.00    -0.550 OA
ENDBRANCH  10  11
ENDBRANCH   9  10
ENDBRANCH   8   9
ENDBRANCH   1   8
TORSDOF 8
ENDMDL
MODEL 5
REMARK VINA RESULT:    -3.699     17.287     18.133
REMARK INTER + INTRA:          -6.089
REMARK INTER:                  -5.531
REMARK INTRA:                  -0.558
REMARK UNBOUND:                -0.660
REMARK SMILES O=C([O-])CCCCCCCC(=O)[O-]
REMARK SMILES IDX 7 1 6 2 5 3 4 4 2 5 1 6 3 7 8 8 9 9 10 10 11 11 12 12 13 13
REMARK H PARENT
REMARK Flexibility Score: inf
ROOT
ATOM      1  C   UNL     1      22.043  10.201  35.515  1.00  0.00     0.000 C 
ENDROOT
BRANCH   1   2
ATOM      2  C   UNL     1      22.302  11.716  35.556  1.00  0.00     0.000 C 
BRANCH   2   3
ATOM      3  C   UNL     1      21.010  12.543  35.592  1.00  0.00     0.006 C 
BRANCH   3   4
ATOM      4  C   UNL     1      20.985  13.572  34.458  1.00  0.00     0.053 C 
BRANCH   4   5
ATOM      5  C   UNL     1      20.809  12.893  33.137  1.00  0.00     0.041 C 
ATOM      6  O   UNL     1      19.869  12.074  32.966  1.00  0.00    -0.550 OA
ATOM      7  O   UNL     1      21.714  13.127  32.109  1.00  0.00    -0.550 OA
ENDBRANCH   4   5
ENDBRANCH   3   4
ENDBRANCH   2   3
ENDBRANCH   1   2
BRANCH   1   8
ATOM      8  C   UNL     1      20.564   9.821  35.743  1.00  0.00     0.000 C 
BRANCH   8   9
ATOM      9  C   UNL     1      20.086   8.735  34.763  1.00  0.00     0.006 C 
BRANCH   9  10
ATOM     10  C   UNL     1      20.427   7.321  35.250  1.00  0.00     0.053 C 
BRANCH  10  11
ATOM     11  C   UNL     1      19.298   6.711  36.021  1.00  0.00     0.041 C 
ATOM     12  O   UNL     1      19.471   6.337  37.212  1.00  0.00    -0.550 OA
ATOM     13  O   UNL     1      18.044   6.588  35.437  1.00  0.00    -0.550 OA
ENDBRANCH  10  11
ENDBRANCH   9  10
ENDBRANCH   8   9
ENDBRANCH   1   8
TORSDOF 8
ENDMDL
MODEL 6
REMARK VINA RESULT:    -3.698     17.295     18.544
REMARK INTER + INTRA:          -6.087
REMARK INTER:                  -5.660
REMARK INTRA:                  -0.427
REMARK UNBOUND:                -0.660
REMARK SMILES O=C([O-])CCCCCCCC(=O)[O-]
REMARK SMILES IDX 7 1 6 2 5 3 4 4 2 5 1 6 3 7 8 8 9 9 10 10 11 11 12 12 13 13
REMARK H PARENT
REMARK Flexibility Score: inf
ROOT
ATOM      1  C   UNL     1      22.104  10.072  35.628  1.00  0.00     0.000 C 
ENDROOT
BRANCH   1   2
ATOM      2  C   UNL     1      20.644   9.587  35.628  1.00  0.00     0.000 C 
BRANCH   2   3
ATOM      3  C   UNL     1      20.377   8.495  34.583  1.00  0.00     0.006 C 
BRANCH   3   4
ATOM      4  C   UNL     1      20.608   7.101  35.174  1.00  0.00     0.053 C 
BRANCH   4   5
ATOM      5  C   UNL     1      19.401   6.645  35.930  1.00  0.00     0.041 C 
ATOM      6  O   UNL     1      19.415   6.618  37.188  1.00  0.00    -0.550 OA
ATOM      7  O   UNL     1      18.277   6.202  35.243  1.00  0.00    -0.550 OA
ENDBRANCH   4   5
ENDBRANCH   3   4
ENDBRANCH   2   3
ENDBRANCH   1   2
BRANCH   1   8
ATOM      8  C   UNL     1      22.253  11.580  35.335  1.00  0.00     0.000 C 
BRANCH   8   9
ATOM      9  C   UNL     1      20.954  12.357  35.617  1.00  0.00     0.006 C 
BRANCH   9  10
ATOM     10  C   UNL     1      20.834  13.621  34.757  1.00  0.00     0.053 C 
BRANCH  10  11
ATOM     11  C   UNL     1      20.716  13.293  33.300  1.00  0.00     0.041 C 
ATOM     12  O   UNL     1      21.633  13.618  32.500  1.00  0.00    -0.550 OA
ATOM     13  O   UNL     1      19.609  12.596  32.832  1.00  0.00    -0.550 OA
ENDBRANCH  10  11
ENDBRANCH   9  10
ENDBRANCH   8   9
ENDBRANCH   1   8
TORSDOF 8
ENDMDL
MODEL 7
REMARK VINA RESULT:    -3.682      2.791      4.528
REMARK INTER + INTRA:          -6.064
REMARK INTER:                  -5.746
REMARK INTRA:                  -0.318
REMARK UNBOUND:                -0.660
REMARK SMILES O=C([O-])CCCCCCCC(=O)[O-]
REMARK SMILES IDX 7 1 6 2 5 3 4 4 2 5 1 6 3 7 8 8 9 9 10 10 11 11 12 12 13 13
REMARK H PARENT
REMARK Flexibility Score: inf
ROOT
ATOM      1  C   UNL     1      32.927  10.416  48.966  1.00  0.00     0.000 C 
ENDROOT
BRANCH   1   2
ATOM      2  C   UNL     1      31.723   9.677  48.358  1.00  0.00     0.000 C 
BRANCH   2   3
ATOM      3  C   UNL     1      31.453   8.322  49.025  1.00  0.00     0.006 C 
BRANCH   3   4
ATOM      4  C   UNL     1      29.982   7.922  48.883  1.00  0.00     0.053 C 
BRANCH   4   5
ATOM      5  C   UNL     1      29.858   6.633  48.135  1.00  0.00     0.041 C 
ATOM      6  O   UNL     1      28.853   5.895  48.307  1.00  0.00    -0.550 OA
ATOM      7  O   UNL     1      30.878   6.222  47.286  1.00  0.00    -0.550 OA
ENDBRANCH   4   5
ENDBRANCH   3   4
ENDBRANCH   2   3
ENDBRANCH   1   2
BRANCH   1   8
ATOM      8  C   UNL     1      34.236  10.222  48.172  1.00  0.00     0.000 C 
BRANCH   8   9
ATOM      9  C   UNL     1      33.987   9.594  46.788  1.00  0.00     0.006 C 
BRANCH   9  10
ATOM     10  C   UNL     1      34.796  10.283  45.682  1.00  0.00     0.053 C 
BRANCH  10  11
ATOM     11  C   UNL     1      34.394   9.808  44.321  1.00  0.00     0.041 C 
ATOM     12  O   UNL     1      33.784  10.579  43.533  1.00  0.00    -0.550 OA
ATOM     13  O   UNL     1      34.724   8.523  43.908  1.00  0.00    -0.550 OA
ENDBRANCH  10  11
ENDBRANCH   9  10
ENDBRANCH   8   9
ENDBRANCH   1   8
TORSDOF 8
ENDMDL
MODEL 8
REMARK VINA RESULT:    -3.612      1.468      4.206
REMARK INTER + INTRA:          -5.961
REMARK INTER:                  -5.405
REMARK INTRA:                  -0.556
REMARK UNBOUND:                -0.660
REMARK SMILES O=C([O-])CCCCCCCC(=O)[O-]
REMARK SMILES IDX 7 1 6 2 5 3 4 4 2 5 1 6 3 7 8 8 9 9 10 10 11 11 12 12 13 13
REMARK H PARENT
REMARK Flexibility Score: inf
ROOT
ATOM      1  C   UNL     1      32.231   8.271  48.675  1.00  0.00     0.000 C 
ENDROOT
BRANCH   1   2
ATOM      2  C   UNL     1      31.320   7.281  47.929  1.00  0.00     0.000 C 
BRANCH   2   3
ATOM      3  C   UNL     1      32.049   5.998  47.507  1.00  0.00     0.006 C 
BRANCH   3   4
ATOM      4  C   UNL     1      33.561   6.133  47.712  1.00  0.00     0.053 C 
BRANCH   4   5
ATOM      5  C   UNL     1      34.302   5.445  46.610  1.00  0.00     0.041 C 
ATOM      6  O   UNL     1      35.009   4.434  46.857  1.00  0.00    -0.550 OA
ATOM      7  O   UNL     1      34.253   5.953  45.318  1.00  0.00    -0.550 OA
ENDBRANCH   4   5
ENDBRANCH   3   4
ENDBRANCH   2   3
ENDBRANCH   1   2
BRANCH   1   8
ATOM      8  C   UNL     1      32.351   9.644  47.980  1.00  0.00     0.000 C 
BRANCH   8   9
ATOM      9  C   UNL     1      33.789   9.933  47.509  1.00  0.00     0.006 C 
BRANCH   9  10
ATOM     10  C   UNL     1      34.090   9.309  46.141  1.00  0.00     0.053 C 
BRANCH  10  11
ATOM     11  C   UNL     1      34.674  10.308  45.191  1.00  0.00     0.041 C 
ATOM     12  O   UNL     1      35.663  11.009  45.535  1.00  0.00    -0.550 OA
ATOM     13  O   UNL     1      34.148  10.442  43.912  1.00  0.00    -0.550 OA
ENDBRANCH  10  11
ENDBRANCH   9  10
ENDBRANCH   8   9
ENDBRANCH   1   8
TORSDOF 8
ENDMDL
MODEL 9
REMARK VINA RESULT:    -3.602      1.681      2.573
REMARK INTER + INTRA:          -5.946
REMARK INTER:                  -5.340
REMARK INTRA:                  -0.606
REMARK UNBOUND:                -0.660
REMARK SMILES O=C([O-])CCCCCCCC(=O)[O-]
REMARK SMILES IDX 7 1 6 2 5 3 4 4 2 5 1 6 3 7 8 8 9 9 10 10 11 11 12 12 13 13
REMARK H PARENT
REMARK Flexibility Score: inf
ROOT
ATOM      1  C   UNL     1      31.648   8.646  48.328  1.00  0.00     0.000 C 
ENDROOT
BRANCH   1   2
ATOM      2  C   UNL     1      33.182   8.766  48.344  1.00  0.00     0.000 C 
BRANCH   2   3
ATOM      3  C   UNL     1      33.722   9.668  47.226  1.00  0.00     0.006 C 
BRANCH   3   4
ATOM      4  C   UNL     1      33.984   8.865  45.949  1.00  0.00     0.053 C 
BRANCH   4   5
ATOM      5  C   UNL     1      34.732   9.692  44.953  1.00  0.00     0.041 C 
ATOM      6  O   UNL     1      35.055   9.204  43.839  1.00  0.00    -0.550 OA
ATOM      7  O   UNL     1      35.116  10.988  45.274  1.00  0.00    -0.550 OA
ENDBRANCH   4   5
ENDBRANCH   3   4
ENDBRANCH   2   3
ENDBRANCH   1   2
BRANCH   1   8
ATOM      8  C   UNL     1      31.141   7.193  48.437  1.00  0.00     0.000 C 
BRANCH   8   9
ATOM      9  C   UNL     1      31.642   6.315  47.276  1.00  0.00     0.006 C 
BRANCH   9  10
ATOM     10  C   UNL     1      32.467   5.118  47.764  1.00  0.00     0.053 C 
BRANCH  10  11
ATOM     11  C   UNL     1      33.932   5.318  47.526  1.00  0.00     0.041 C 
ATOM     12  O   UNL     1      34.729   5.393  48.498  1.00  0.00    -0.550 OA
ATOM     13  O   UNL     1      34.422   5.386  46.228  1.00  0.00    -0.550 OA
ENDBRANCH  10  11
ENDBRANCH   9  10
ENDBRANCH   8   9
ENDBRANCH   1   8
TORSDOF 8
ENDMDL
