MODEL 1
REMARK VINA RESULT:    -6.011      0.000      0.000
REMARK INTER + INTRA:          -6.536
REMARK INTER:                  -6.362
REMARK INTRA:                  -0.174
REMARK UNBOUND:                -0.174
REMARK SMILES C=C(C)[C@H]1CC[C@]2(C)CCCC(=C)[C@@H]2C1
REMARK SMILES IDX 4 1 5 2 6 3 7 4 9 5 10 6 11 7 12 8 13 9 14 10 15 11 8 12
REMARK SMILES IDX 2 13 3 14 1 15
REMARK H PARENT
REMARK Flexibility Score: inf
ROOT
ATOM      1  C   UNL     1       2.432  13.871   2.398  1.00  0.00     0.015 C 
ATOM      2  C   UNL     1       1.039  13.601   3.020  1.00  0.00     0.008 C 
ATOM      3  C   UNL     1      -0.075  14.524   2.475  1.00  0.00     0.008 C 
ATOM      4  C   UNL     1       0.131  14.954   0.996  1.00  0.00    -0.026 C 
ATOM      5  C   UNL     1       0.007  13.693   0.078  1.00  0.00     0.008 C 
ATOM      6  C   UNL     1       0.469  13.940  -1.358  1.00  0.00     0.005 C 
ATOM      7  C   UNL     1       1.925  14.386  -1.382  1.00  0.00     0.031 C 
ATOM      8  C   UNL     1       2.104  15.630  -0.552  1.00  0.00    -0.074 C 
ATOM      9  C   UNL     1       2.887  16.624  -1.005  1.00  0.00     0.008 C 
ATOM     10  C   UNL     1       1.513  15.708   0.851  1.00  0.00     0.021 C 
ATOM     11  C   UNL     1       2.571  15.325   1.924  1.00  0.00     0.016 C 
ATOM     12  C   UNL     1      -1.014  15.935   0.631  1.00  0.00     0.012 C 
ENDROOT
BRANCH   1  13
ATOM     13  C   UNL     1       3.550  13.497   3.365  1.00  0.00    -0.077 C 
ATOM     14  C   UNL     1       3.638  12.115   3.963  1.00  0.00     0.039 C 
ATOM     15  C   UNL     1       4.487  14.400   3.696  1.00  0.00     0.008 C 
ENDBRANCH   1  13
TORSDOF 1
ENDMDL
MODEL 2
REMARK VINA RESULT:    -5.691      1.791      5.101
REMARK INTER + INTRA:          -6.198
REMARK INTER:                  -6.025
REMARK INTRA:                  -0.173
REMARK UNBOUND:                -0.174
REMARK SMILES C=C(C)[C@H]1CC[C@]2(C)CCCC(=C)[C@@H]2C1
REMARK SMILES IDX 4 1 5 2 6 3 7 4 9 5 10 6 11 7 12 8 13 9 14 10 15 11 8 12
REMARK SMILES IDX 2 13 3 14 1 15
REMARK H PARENT
REMARK Flexibility Score: inf
ROOT
ATOM      1  C   UNL     1       1.255  14.805   2.496  1.00  0.00     0.015 C 
ATOM      2  C   UNL     1      -0.227  14.908   2.936  1.00  0.00     0.008 C 
ATOM      3  C   UNL     1      -0.722  13.690   3.747  1.00  0.00     0.008 C 
ATOM      4  C   UNL     1       0.381  13.020   4.614  1.00  0.00    -0.026 C 
ATOM      5  C   UNL     1       0.821  14.019   5.735  1.00  0.00     0.008 C 
ATOM      6  C   UNL     1       2.091  13.586   6.468  1.00  0.00     0.005 C 
ATOM      7  C   UNL     1       3.252  13.447   5.492  1.00  0.00     0.031 C 
ATOM      8  C   UNL     1       2.908  12.458   4.409  1.00  0.00    -0.074 C 
ATOM      9  C   UNL     1       3.833  11.572   4.002  1.00  0.00     0.008 C 
ATOM     10  C   UNL     1       1.570  12.546   3.685  1.00  0.00     0.021 C 
ATOM     11  C   UNL     1       1.707  13.344   2.357  1.00  0.00     0.016 C 
ATOM     12  C   UNL     1      -0.249  11.775   5.292  1.00  0.00     0.012 C 
ENDROOT
BRANCH   1  13
ATOM     13  C   UNL     1       1.505  15.583   1.209  1.00  0.00    -0.077 C 
ATOM     14  C   UNL     1       2.802  16.318   0.979  1.00  0.00     0.039 C 
ATOM     15  C   UNL     1       0.567  15.621   0.249  1.00  0.00     0.008 C 
ENDBRANCH   1  13
TORSDOF 1
ENDMDL
MODEL 3
REMARK VINA RESULT:    -5.682      1.773      4.538
REMARK INTER + INTRA:          -6.188
REMARK INTER:                  -6.011
REMARK INTRA:                  -0.177
REMARK UNBOUND:                -0.174
REMARK SMILES C=C(C)[C@H]1CC[C@]2(C)CCCC(=C)[C@@H]2C1
REMARK SMILES IDX 4 1 5 2 6 3 7 4 9 5 10 6 11 7 12 8 13 9 14 10 15 11 8 12
REMARK SMILES IDX 2 13 3 14 1 15
REMARK H PARENT
REMARK Flexibility Score: inf
ROOT
ATOM      1  C   UNL     1       0.249  14.077   4.297  1.00  0.00     0.015 C 
ATOM      2  C   UNL     1       0.734  12.862   5.127  1.00  0.00     0.008 C 
ATOM      3  C   UNL     1       1.788  11.995   4.403  1.00  0.00     0.008 C 
ATOM      4  C   UNL     1       2.710  12.796   3.442  1.00  0.00    -0.026 C 
ATOM      5  C   UNL     1       3.595  13.772   4.285  1.00  0.00     0.008 C 
ATOM      6  C   UNL     1       4.334  14.808   3.436  1.00  0.00     0.005 C 
ATOM      7  C   UNL     1       3.345  15.651   2.641  1.00  0.00     0.031 C 
ATOM      8  C   UNL     1       2.490  14.769   1.768  1.00  0.00    -0.074 C 
ATOM      9  C   UNL     1       2.215  15.149   0.509  1.00  0.00     0.008 C 
ATOM     10  C   UNL     1       1.831  13.523   2.347  1.00  0.00     0.021 C 
ATOM     11  C   UNL     1       0.370  13.820   2.788  1.00  0.00     0.016 C 
ATOM     12  C   UNL     1       3.645  11.779   2.736  1.00  0.00     0.012 C 
ENDROOT
BRANCH   1  13
ATOM     13  C   UNL     1      -1.175  14.472   4.676  1.00  0.00    -0.077 C 
ATOM     14  C   UNL     1      -1.625  14.488   6.115  1.00  0.00     0.039 C 
ATOM     15  C   UNL     1      -2.055  14.820   3.724  1.00  0.00     0.008 C 
ENDBRANCH   1  13
TORSDOF 1
ENDMDL
MODEL 4
REMARK VINA RESULT:    -5.625      1.224      2.819
REMARK INTER + INTRA:          -6.128
REMARK INTER:                  -5.968
REMARK INTRA:                  -0.159
REMARK UNBOUND:                -0.174
REMARK SMILES C=C(C)[C@H]1CC[C@]2(C)CCCC(=C)[C@@H]2C1
REMARK SMILES IDX 4 1 5 2 6 3 7 4 9 5 10 6 11 7 12 8 13 9 14 10 15 11 8 12
REMARK SMILES IDX 2 13 3 14 1 15
REMARK H PARENT
REMARK Flexibility Score: inf
ROOT
ATOM      1  C   UNL     1       1.698  13.732   2.332  1.00  0.00     0.015 C 
ATOM      2  C   UNL     1       2.366  15.129   2.387  1.00  0.00     0.008 C 
ATOM      3  C   UNL     1       2.511  15.804   1.006  1.00  0.00     0.008 C 
ATOM      4  C   UNL     1       1.382  15.437   0.003  1.00  0.00    -0.026 C 
ATOM      5  C   UNL     1       0.029  16.022   0.527  1.00  0.00     0.008 C 
ATOM      6  C   UNL     1      -1.193  15.488  -0.221  1.00  0.00     0.005 C 
ATOM      7  C   UNL     1      -1.270  13.971  -0.105  1.00  0.00     0.031 C 
ATOM      8  C   UNL     1      -0.011  13.341  -0.639  1.00  0.00    -0.074 C 
ATOM      9  C   UNL     1      -0.093  12.236  -1.399  1.00  0.00     0.008 C 
ATOM     10  C   UNL     1       1.353  13.871  -0.212  1.00  0.00     0.021 C 
ATOM     11  C   UNL     1       1.924  13.047   0.976  1.00  0.00     0.016 C 
ATOM     12  C   UNL     1       1.717  16.121  -1.349  1.00  0.00     0.012 C 
ENDROOT
BRANCH   1  13
ATOM     13  C   UNL     1       2.170  12.847   3.481  1.00  0.00    -0.077 C 
ATOM     14  C   UNL     1       3.551  12.240   3.484  1.00  0.00     0.039 C 
ATOM     15  C   UNL     1       1.357  12.599   4.521  1.00  0.00     0.008 C 
ENDBRANCH   1  13
TORSDOF 1
ENDMDL
MODEL 5
REMARK VINA RESULT:    -5.353      1.459      5.106
REMARK INTER + INTRA:          -5.839
REMARK INTER:                  -5.667
REMARK INTRA:                  -0.172
REMARK UNBOUND:                -0.174
REMARK SMILES C=C(C)[C@H]1CC[C@]2(C)CCCC(=C)[C@@H]2C1
REMARK SMILES IDX 4 1 5 2 6 3 7 4 9 5 10 6 11 7 12 8 13 9 14 10 15 11 8 12
REMARK SMILES IDX 2 13 3 14 1 15
REMARK H PARENT
REMARK Flexibility Score: inf
ROOT
ATOM      1  C   UNL     1       0.257  13.742   1.284  1.00  0.00     0.015 C 
ATOM      2  C   UNL     1       1.448  14.179   0.396  1.00  0.00     0.008 C 
ATOM      3  C   UNL     1       2.624  14.791   1.189  1.00  0.00     0.008 C 
ATOM      4  C   UNL     1       2.795  14.201   2.617  1.00  0.00    -0.026 C 
ATOM      5  C   UNL     1       3.211  12.697   2.498  1.00  0.00     0.008 C 
ATOM      6  C   UNL     1       3.131  11.940   3.824  1.00  0.00     0.005 C 
ATOM      7  C   UNL     1       1.714  11.984   4.381  1.00  0.00     0.031 C 
ATOM      8  C   UNL     1       1.270  13.412   4.565  1.00  0.00    -0.074 C 
ATOM      9  C   UNL     1       0.591  13.758   5.672  1.00  0.00     0.008 C 
ATOM     10  C   UNL     1       1.468  14.427   3.446  1.00  0.00     0.021 C 
ATOM     11  C   UNL     1       0.183  14.561   2.581  1.00  0.00     0.016 C 
ATOM     12  C   UNL     1       3.952  14.972   3.306  1.00  0.00     0.012 C 
ENDROOT
BRANCH   1  13
ATOM     13  C   UNL     1      -1.059  13.808   0.516  1.00  0.00    -0.077 C 
ATOM     14  C   UNL     1      -1.302  12.942  -0.695  1.00  0.00     0.039 C 
ATOM     15  C   UNL     1      -2.033  14.642   0.914  1.00  0.00     0.008 C 
ENDBRANCH   1  13
TORSDOF 1
ENDMDL
MODEL 6
REMARK VINA RESULT:    -5.337      1.464      3.808
REMARK INTER + INTRA:          -5.823
REMARK INTER:                  -5.643
REMARK INTRA:                  -0.180
REMARK UNBOUND:                -0.174
REMARK SMILES C=C(C)[C@H]1CC[C@]2(C)CCCC(=C)[C@@H]2C1
REMARK SMILES IDX 4 1 5 2 6 3 7 4 9 5 10 6 11 7 12 8 13 9 14 10 15 11 8 12
REMARK SMILES IDX 2 13 3 14 1 15
REMARK H PARENT
REMARK Flexibility Score: inf
ROOT
ATOM      1  C   UNL     1       2.985  15.989   2.015  1.00  0.00     0.015 C 
ATOM      2  C   UNL     1       2.529  16.287   0.564  1.00  0.00     0.008 C 
ATOM      3  C   UNL     1       1.785  15.113  -0.109  1.00  0.00     0.008 C 
ATOM      4  C   UNL     1       0.966  14.237   0.880  1.00  0.00    -0.026 C 
ATOM      5  C   UNL     1      -0.207  15.092   1.464  1.00  0.00     0.008 C 
ATOM      6  C   UNL     1      -0.906  14.432   2.653  1.00  0.00     0.005 C 
ATOM      7  C   UNL     1       0.085  14.177   3.781  1.00  0.00     0.031 C 
ATOM      8  C   UNL     1       1.220  13.314   3.294  1.00  0.00    -0.074 C 
ATOM      9  C   UNL     1       1.684  12.324   4.076  1.00  0.00     0.008 C 
ATOM     10  C   UNL     1       1.928  13.644   1.985  1.00  0.00     0.021 C 
ATOM     11  C   UNL     1       3.210  14.487   2.242  1.00  0.00     0.016 C 
ATOM     12  C   UNL     1       0.355  13.064   0.068  1.00  0.00     0.012 C 
ENDROOT
BRANCH   1  13
ATOM     13  C   UNL     1       4.227  16.794   2.381  1.00  0.00    -0.077 C 
ATOM     14  C   UNL     1       5.100  16.397   3.545  1.00  0.00     0.039 C 
ATOM     15  C   UNL     1       4.568  17.874   1.661  1.00  0.00     0.008 C 
ENDBRANCH   1  13
TORSDOF 1
ENDMDL
MODEL 7
REMARK VINA RESULT:    -5.137      1.568      3.752
REMARK INTER + INTRA:          -5.611
REMARK INTER:                  -5.445
REMARK INTRA:                  -0.166
REMARK UNBOUND:                -0.174
REMARK SMILES C=C(C)[C@H]1CC[C@]2(C)CCCC(=C)[C@@H]2C1
REMARK SMILES IDX 4 1 5 2 6 3 7 4 9 5 10 6 11 7 12 8 13 9 14 10 15 11 8 12
REMARK SMILES IDX 2 13 3 14 1 15
REMARK H PARENT
REMARK Flexibility Score: inf
ROOT
ATOM      1  C   UNL     1       1.201  15.011   1.211  1.00  0.00     0.015 C 
ATOM      2  C   UNL     1       1.378  14.053   0.006  1.00  0.00     0.008 C 
ATOM      3  C   UNL     1       0.127  13.199  -0.299  1.00  0.00     0.008 C 
ATOM      4  C   UNL     1      -1.216  13.904   0.042  1.00  0.00    -0.026 C 
ATOM      5  C   UNL     1      -1.400  15.131  -0.913  1.00  0.00     0.008 C 
ATOM      6  C   UNL     1      -2.536  16.063  -0.489  1.00  0.00     0.005 C 
ATOM      7  C   UNL     1      -2.289  16.603   0.914  1.00  0.00     0.031 C 
ATOM      8  C   UNL     1      -2.150  15.467   1.894  1.00  0.00    -0.074 C 
ATOM      9  C   UNL     1      -2.736  15.555   3.100  1.00  0.00     0.008 C 
ATOM     10  C   UNL     1      -1.239  14.287   1.576  1.00  0.00     0.021 C 
ATOM     11  C   UNL     1       0.166  14.479   2.213  1.00  0.00     0.016 C 
ATOM     12  C   UNL     1      -2.359  12.894  -0.239  1.00  0.00     0.012 C 
ENDROOT
BRANCH   1  13
ATOM     13  C   UNL     1       2.535  15.291   1.894  1.00  0.00    -0.077 C 
ATOM     14  C   UNL     1       3.309  16.554   1.610  1.00  0.00     0.039 C 
ATOM     15  C   UNL     1       3.042  14.411   2.773  1.00  0.00     0.008 C 
ENDBRANCH   1  13
TORSDOF 1
ENDMDL
MODEL 8
REMARK VINA RESULT:    -4.786      2.555      5.731
REMARK INTER + INTRA:          -5.240
REMARK INTER:                  -5.073
REMARK INTRA:                  -0.167
REMARK UNBOUND:                -0.174
REMARK SMILES C=C(C)[C@H]1CC[C@]2(C)CCCC(=C)[C@@H]2C1
REMARK SMILES IDX 4 1 5 2 6 3 7 4 9 5 10 6 11 7 12 8 13 9 14 10 15 11 8 12
REMARK SMILES IDX 2 13 3 14 1 15
REMARK H PARENT
REMARK Flexibility Score: inf
ROOT
ATOM      1  C   UNL     1      -2.341  12.790  -0.568  1.00  0.00     0.015 C 
ATOM      2  C   UNL     1      -1.081  12.597  -1.449  1.00  0.00     0.008 C 
ATOM      3  C   UNL     1      -0.141  13.822  -1.468  1.00  0.00     0.008 C 
ATOM      4  C   UNL     1      -0.139  14.636  -0.144  1.00  0.00    -0.026 C 
ATOM      5  C   UNL     1       0.476  13.754   0.992  1.00  0.00     0.008 C 
ATOM      6  C   UNL     1       0.271  14.337   2.391  1.00  0.00     0.005 C 
ATOM      7  C   UNL     1      -1.214  14.504   2.688  1.00  0.00     0.031 C 
ATOM      8  C   UNL     1      -1.858  15.387   1.652  1.00  0.00    -0.074 C 
ATOM      9  C   UNL     1      -2.751  16.316   2.034  1.00  0.00     0.008 C 
ATOM     10  C   UNL     1      -1.604  15.141   0.169  1.00  0.00     0.021 C 
ATOM     11  C   UNL     1      -2.732  14.270  -0.453  1.00  0.00     0.016 C 
ATOM     12  C   UNL     1       0.780  15.868  -0.354  1.00  0.00     0.012 C 
ENDROOT
BRANCH   1  13
ATOM     13  C   UNL     1      -3.507  11.949  -1.077  1.00  0.00    -0.077 C 
ATOM     14  C   UNL     1      -3.874  10.643  -0.420  1.00  0.00     0.039 C 
ATOM     15  C   UNL     1      -4.234  12.368  -2.125  1.00  0.00     0.008 C 
ENDBRANCH   1  13
TORSDOF 1
ENDMDL
