MODEL 1
REMARK VINA RESULT:    27.225      0.000      0.000
REMARK INTER + INTRA:          34.597
REMARK INTER:                  32.796
REMARK INTRA:                   1.802
REMARK UNBOUND:                 1.802
REMARK SMILES O=c1c(O)c(-c2ccc(O)cc2O)oc2cc(O)cc(O)c12
REMARK SMILES IDX 5 1 3 2 2 3 1 4 22 5 20 6 19 7 17 8 16 9 15 10 14 11 6 12
REMARK SMILES IDX 8 13 7 14 9 15 11 16 12 17 10 18 13 20 4 22 21 24 18 26
REMARK H PARENT 10 19 13 21 4 23 21 25 18 27
REMARK Flexibility Score: inf
ROOT
ATOM      1  C   UNL     1      -5.450  -2.491  13.023  1.00  0.00     0.184 A 
ATOM      2  C   UNL     1      -6.245  -1.935  12.007  1.00  0.00     0.208 A 
ATOM      3  C   UNL     1      -7.642  -1.960  12.144  1.00  0.00     0.238 A 
ATOM      4  O   UNL     1      -8.346  -1.410  11.258  1.00  0.00    -0.285 OA
ATOM      5  C   UNL     1      -8.226  -2.560  13.286  1.00  0.00     0.111 A 
ATOM      6  C   UNL     1      -9.632  -2.677  13.510  1.00  0.00     0.134 A 
ATOM      7  C   UNL     1     -10.096  -3.174  14.734  1.00  0.00     0.093 A 
ATOM      8  C   UNL     1      -9.207  -3.618  15.716  1.00  0.00     0.123 A 
ATOM      9  C   UNL     1      -7.835  -3.562  15.483  1.00  0.00     0.094 A 
ATOM     10  C   UNL     1      -7.340  -3.038  14.286  1.00  0.00     0.146 A 
ATOM     11  O   UNL     1      -6.025  -2.992  14.109  1.00  0.00    -0.451 OA
ENDROOT
BRANCH   1  12
ATOM     12  C   UNL     1      -3.972  -2.519  12.930  1.00  0.00     0.063 A 
ATOM     13  C   UNL     1      -1.845  -3.576  13.463  1.00  0.00     0.047 A 
ATOM     14  C   UNL     1      -3.240  -3.563  13.525  1.00  0.00     0.020 A 
ATOM     15  C   UNL     1      -1.159  -2.542  12.816  1.00  0.00     0.119 A 
ATOM     16  C   UNL     1      -1.876  -1.492  12.234  1.00  0.00     0.093 A 
ATOM     17  C   UNL     1      -3.278  -1.472  12.290  1.00  0.00     0.130 A 
BRANCH  15  18
ATOM     18  O   UNL     1       0.232  -2.544  12.748  1.00  0.00    -0.508 OA
ATOM     19  H   UNL     1       0.729  -1.996  12.056  1.00  0.00     0.293 HD
ENDBRANCH  15  18
BRANCH  17  20
ATOM     20  O   UNL     1      -3.982  -0.422  11.698  1.00  0.00    -0.507 OA
ATOM     21  H   UNL     1      -3.785   0.545  11.929  1.00  0.00     0.293 HD
ENDBRANCH  17  20
ENDBRANCH   1  12
BRANCH   2  22
ATOM     22  O   UNL     1      -5.645  -1.337  10.896  1.00  0.00    -0.502 OA
ATOM     23  H   UNL     1      -5.239  -0.409  10.930  1.00  0.00     0.293 HD
ENDBRANCH   2  22
BRANCH   6  24
ATOM     24  O   UNL     1     -10.604  -2.349  12.561  1.00  0.00    -0.507 OA
ATOM     25  H   UNL     1     -10.553  -2.583  11.581  1.00  0.00     0.293 HD
ENDBRANCH   6  24
BRANCH   8  26
ATOM     26  O   UNL     1      -9.678  -4.125  16.925  1.00  0.00    -0.508 OA
ATOM     27  H   UNL     1     -10.629  -4.460  17.025  1.00  0.00     0.293 HD
ENDBRANCH   8  26
TORSDOF 6
ENDMDL
MODEL 2
REMARK VINA RESULT:    27.348     10.203     11.226
REMARK INTER + INTRA:          34.745
REMARK INTER:                  35.154
REMARK INTRA:                  -0.409
REMARK UNBOUND:                 1.802
REMARK SMILES O=c1c(O)c(-c2ccc(O)cc2O)oc2cc(O)cc(O)c12
REMARK SMILES IDX 5 1 3 2 2 3 1 4 22 5 20 6 19 7 17 8 16 9 15 10 14 11 6 12
REMARK SMILES IDX 8 13 7 14 9 15 11 16 12 17 10 18 13 20 4 22 21 24 18 26
REMARK H PARENT 10 19 13 21 4 23 21 25 18 27
REMARK Flexibility Score: inf
ROOT
ATOM      1  C   UNL     1      -5.655   7.625  16.556  1.00  0.00     0.184 A 
ATOM      2  C   UNL     1      -5.310   6.720  17.574  1.00  0.00     0.208 A 
ATOM      3  C   UNL     1      -5.698   5.376  17.449  1.00  0.00     0.238 A 
ATOM      4  O   UNL     1      -5.337   4.559  18.337  1.00  0.00    -0.285 OA
ATOM      5  C   UNL     1      -6.441   4.959  16.319  1.00  0.00     0.111 A 
ATOM      6  C   UNL     1      -6.919   3.630  16.109  1.00  0.00     0.134 A 
ATOM      7  C   UNL     1      -7.534   3.302  14.895  1.00  0.00     0.093 A 
ATOM      8  C   UNL     1      -7.745   4.270  13.909  1.00  0.00     0.123 A 
ATOM      9  C   UNL     1      -7.334   5.582  14.128  1.00  0.00     0.094 A 
ATOM     10  C   UNL     1      -6.686   5.932  15.316  1.00  0.00     0.146 A 
ATOM     11  O   UNL     1      -6.300   7.192  15.480  1.00  0.00    -0.451 OA
ENDROOT
BRANCH   1  12
ATOM     12  C   UNL     1      -5.300   9.061  16.635  1.00  0.00     0.063 A 
ATOM     13  C   UNL     1      -3.669  10.849  16.369  1.00  0.00     0.047 A 
ATOM     14  C   UNL     1      -4.014   9.499  16.269  1.00  0.00     0.020 A 
ATOM     15  C   UNL     1      -4.598  11.779  16.848  1.00  0.00     0.119 A 
ATOM     16  C   UNL     1      -5.874  11.352  17.229  1.00  0.00     0.093 A 
ATOM     17  C   UNL     1      -6.230   9.999  17.128  1.00  0.00     0.130 A 
BRANCH  15  18
ATOM     18  O   UNL     1      -4.264  13.127  16.953  1.00  0.00    -0.508 OA
ATOM     19  H   UNL     1      -4.784  13.756  17.554  1.00  0.00     0.293 HD
ENDBRANCH  15  18
BRANCH  17  20
ATOM     20  O   UNL     1      -7.509   9.588  17.505  1.00  0.00    -0.507 OA
ATOM     21  H   UNL     1      -8.075  10.133  18.145  1.00  0.00     0.293 HD
ENDBRANCH  17  20
ENDBRANCH   1  12
BRANCH   2  22
ATOM     22  O   UNL     1      -4.565   7.153  18.673  1.00  0.00    -0.502 OA
ATOM     23  H   UNL     1      -4.406   8.133  18.871  1.00  0.00     0.293 HD
ENDBRANCH   2  22
BRANCH   6  24
ATOM     24  O   UNL     1      -6.842   2.613  17.064  1.00  0.00    -0.507 OA
ATOM     25  H   UNL     1      -7.467   2.513  17.850  1.00  0.00     0.293 HD
ENDBRANCH   6  24
BRANCH   8  26
ATOM     26  O   UNL     1      -8.371   3.937  12.709  1.00  0.00    -0.508 OA
ATOM     27  H   UNL     1      -7.960   3.274  12.063  1.00  0.00     0.293 HD
ENDBRANCH   8  26
TORSDOF 6
ENDMDL
MODEL 3
REMARK VINA RESULT:    28.181     12.880     14.730
REMARK INTER + INTRA:          35.749
REMARK INTER:                  35.496
REMARK INTRA:                   0.253
REMARK UNBOUND:                 1.802
REMARK SMILES O=c1c(O)c(-c2ccc(O)cc2O)oc2cc(O)cc(O)c12
REMARK SMILES IDX 5 1 3 2 2 3 1 4 22 5 20 6 19 7 17 8 16 9 15 10 14 11 6 12
REMARK SMILES IDX 8 13 7 14 9 15 11 16 12 17 10 18 13 20 4 22 21 24 18 26
REMARK H PARENT 10 19 13 21 4 23 21 25 18 27
REMARK Flexibility Score: inf
ROOT
ATOM      1  C   UNL     1     -10.473   8.120  19.557  1.00  0.00     0.184 A 
ATOM      2  C   UNL     1      -9.097   8.311  19.769  1.00  0.00     0.208 A 
ATOM      3  C   UNL     1      -8.485   9.469  19.264  1.00  0.00     0.238 A 
ATOM      4  O   UNL     1      -7.265   9.661  19.506  1.00  0.00    -0.285 OA
ATOM      5  C   UNL     1      -9.252  10.411  18.538  1.00  0.00     0.111 A 
ATOM      6  C   UNL     1      -8.727  11.601  17.947  1.00  0.00     0.134 A 
ATOM      7  C   UNL     1      -9.601  12.524  17.361  1.00  0.00     0.093 A 
ATOM      8  C   UNL     1     -10.973  12.271  17.287  1.00  0.00     0.123 A 
ATOM      9  C   UNL     1     -11.487  11.086  17.807  1.00  0.00     0.094 A 
ATOM     10  C   UNL     1     -10.645  10.162  18.431  1.00  0.00     0.146 A 
ATOM     11  O   UNL     1     -11.177   9.050  18.924  1.00  0.00    -0.451 OA
ENDROOT
BRANCH   1  12
ATOM     12  C   UNL     1     -11.177   6.910  20.041  1.00  0.00     0.063 A 
ATOM     13  C   UNL     1     -11.338   5.041  21.592  1.00  0.00     0.047 A 
ATOM     14  C   UNL     1     -10.691   6.199  21.152  1.00  0.00     0.020 A 
ATOM     15  C   UNL     1     -12.472   4.571  20.922  1.00  0.00     0.119 A 
ATOM     16  C   UNL     1     -12.955   5.262  19.806  1.00  0.00     0.093 A 
ATOM     17  C   UNL     1     -12.313   6.426  19.359  1.00  0.00     0.130 A 
BRANCH  15  18
ATOM     18  O   UNL     1     -13.124   3.417  21.351  1.00  0.00    -0.508 OA
ATOM     19  H   UNL     1     -12.773   2.868  22.127  1.00  0.00     0.293 HD
ENDBRANCH  15  18
BRANCH  17  20
ATOM     20  O   UNL     1     -12.810   7.111  18.249  1.00  0.00    -0.507 OA
ATOM     21  H   UNL     1     -12.199   7.628  17.627  1.00  0.00     0.293 HD
ENDBRANCH  17  20
ENDBRANCH   1  12
BRANCH   2  22
ATOM     22  O   UNL     1      -8.364   7.373  20.501  1.00  0.00    -0.502 OA
ATOM     23  H   UNL     1      -7.889   7.608  21.364  1.00  0.00     0.293 HD
ENDBRANCH   2  22
BRANCH   6  24
ATOM     24  O   UNL     1      -7.365  11.907  17.886  1.00  0.00    -0.507 OA
ATOM     25  H   UNL     1      -6.952  12.764  18.222  1.00  0.00     0.293 HD
ENDBRANCH   6  24
BRANCH   8  26
ATOM     26  O   UNL     1     -11.834  13.189  16.688  1.00  0.00    -0.508 OA
ATOM     27  H   UNL     1     -12.507  13.716  17.230  1.00  0.00     0.293 HD
ENDBRANCH   8  26
TORSDOF 6
ENDMDL
MODEL 4
REMARK VINA RESULT:    29.120     10.006     10.726
REMARK INTER + INTRA:          36.880
REMARK INTER:                  37.221
REMARK INTRA:                  -0.341
REMARK UNBOUND:                 1.802
REMARK SMILES O=c1c(O)c(-c2ccc(O)cc2O)oc2cc(O)cc(O)c12
REMARK SMILES IDX 5 1 3 2 2 3 1 4 22 5 20 6 19 7 17 8 16 9 15 10 14 11 6 12
REMARK SMILES IDX 8 13 7 14 9 15 11 16 12 17 10 18 13 20 4 22 21 24 18 26
REMARK H PARENT 10 19 13 21 4 23 21 25 18 27
REMARK Flexibility Score: inf
ROOT
ATOM      1  C   UNL     1      -5.939   7.592  15.973  1.00  0.00     0.184 A 
ATOM      2  C   UNL     1      -6.757   7.378  14.852  1.00  0.00     0.208 A 
ATOM      3  C   UNL     1      -7.189   6.072  14.564  1.00  0.00     0.238 A 
ATOM      4  O   UNL     1      -7.967   5.895  13.591  1.00  0.00    -0.285 OA
ATOM      5  C   UNL     1      -6.780   4.998  15.389  1.00  0.00     0.111 A 
ATOM      6  C   UNL     1      -7.125   3.630  15.168  1.00  0.00     0.134 A 
ATOM      7  C   UNL     1      -6.771   2.666  16.121  1.00  0.00     0.093 A 
ATOM      8  C   UNL     1      -6.029   3.011  17.254  1.00  0.00     0.123 A 
ATOM      9  C   UNL     1      -5.637   4.333  17.448  1.00  0.00     0.094 A 
ATOM     10  C   UNL     1      -6.006   5.323  16.533  1.00  0.00     0.146 A 
ATOM     11  O   UNL     1      -5.622   6.574  16.763  1.00  0.00    -0.451 OA
ENDROOT
BRANCH   1  12
ATOM     12  C   UNL     1      -5.429   8.939  16.320  1.00  0.00     0.063 A 
ATOM     13  C   UNL     1      -3.611  10.557  16.375  1.00  0.00     0.047 A 
ATOM     14  C   UNL     1      -4.102   9.297  16.023  1.00  0.00     0.020 A 
ATOM     15  C   UNL     1      -4.435  11.473  17.039  1.00  0.00     0.119 A 
ATOM     16  C   UNL     1      -5.751  11.121  17.352  1.00  0.00     0.093 A 
ATOM     17  C   UNL     1      -6.253   9.860  17.000  1.00  0.00     0.130 A 
BRANCH  15  18
ATOM     18  O   UNL     1      -3.956  12.731  17.395  1.00  0.00    -0.508 OA
ATOM     19  H   UNL     1      -3.062  13.072  17.061  1.00  0.00     0.293 HD
ENDBRANCH  15  18
BRANCH  17  20
ATOM     20  O   UNL     1      -7.571   9.525  17.312  1.00  0.00    -0.507 OA
ATOM     21  H   UNL     1      -7.863   9.352  18.268  1.00  0.00     0.293 HD
ENDBRANCH  17  20
ENDBRANCH   1  12
BRANCH   2  22
ATOM     22  O   UNL     1      -7.159   8.456  14.059  1.00  0.00    -0.502 OA
ATOM     23  H   UNL     1      -6.988   8.491  13.062  1.00  0.00     0.293 HD
ENDBRANCH   2  22
BRANCH   6  24
ATOM     24  O   UNL     1      -7.783   3.165  14.027  1.00  0.00    -0.507 OA
ATOM     25  H   UNL     1      -7.387   3.151  13.100  1.00  0.00     0.293 HD
ENDBRANCH   6  24
BRANCH   8  26
ATOM     26  O   UNL     1      -5.668   2.044  18.189  1.00  0.00    -0.508 OA
ATOM     27  H   UNL     1      -5.960   2.106  19.157  1.00  0.00     0.293 HD
ENDBRANCH   8  26
TORSDOF 6
ENDMDL
MODEL 5
REMARK VINA RESULT:    29.239     10.083     11.141
REMARK INTER + INTRA:          37.024
REMARK INTER:                  37.341
REMARK INTRA:                  -0.317
REMARK UNBOUND:                 1.802
REMARK SMILES O=c1c(O)c(-c2ccc(O)cc2O)oc2cc(O)cc(O)c12
REMARK SMILES IDX 5 1 3 2 2 3 1 4 22 5 20 6 19 7 17 8 16 9 15 10 14 11 6 12
REMARK SMILES IDX 8 13 7 14 9 15 11 16 12 17 10 18 13 20 4 22 21 24 18 26
REMARK H PARENT 10 19 13 21 4 23 21 25 18 27
REMARK Flexibility Score: inf
ROOT
ATOM      1  C   UNL     1      -5.889   7.524  16.619  1.00  0.00     0.184 A 
ATOM      2  C   UNL     1      -5.459   6.596  17.582  1.00  0.00     0.208 A 
ATOM      3  C   UNL     1      -5.719   5.231  17.376  1.00  0.00     0.238 A 
ATOM      4  O   UNL     1      -5.282   4.401  18.214  1.00  0.00    -0.285 OA
ATOM      5  C   UNL     1      -6.422   4.815  16.221  1.00  0.00     0.111 A 
ATOM      6  C   UNL     1      -6.775   3.463  15.930  1.00  0.00     0.134 A 
ATOM      7  C   UNL     1      -7.359   3.152  14.695  1.00  0.00     0.093 A 
ATOM      8  C   UNL     1      -7.662   4.153  13.769  1.00  0.00     0.123 A 
ATOM      9  C   UNL     1      -7.375   5.482  14.068  1.00  0.00     0.094 A 
ATOM     10  C   UNL     1      -6.760   5.820  15.276  1.00  0.00     0.146 A 
ATOM     11  O   UNL     1      -6.493   7.098  15.517  1.00  0.00    -0.451 OA
ENDROOT
BRANCH   1  12
ATOM     12  C   UNL     1      -5.670   8.980  16.786  1.00  0.00     0.063 A 
ATOM     13  C   UNL     1      -6.532  11.199  17.291  1.00  0.00     0.047 A 
ATOM     14  C   UNL     1      -6.731   9.822  17.161  1.00  0.00     0.020 A 
ATOM     15  C   UNL     1      -5.274  11.755  17.037  1.00  0.00     0.119 A 
ATOM     16  C   UNL     1      -4.215  10.928  16.649  1.00  0.00     0.093 A 
ATOM     17  C   UNL     1      -4.405   9.545  16.518  1.00  0.00     0.130 A 
BRANCH  15  18
ATOM     18  O   UNL     1      -5.064  13.127  17.162  1.00  0.00    -0.508 OA
ATOM     19  H   UNL     1      -4.134  13.526  17.122  1.00  0.00     0.293 HD
ENDBRANCH  15  18
BRANCH  17  20
ATOM     20  O   UNL     1      -3.339   8.730  16.138  1.00  0.00    -0.507 OA
ATOM     21  H   UNL     1      -3.042   8.661  15.170  1.00  0.00     0.293 HD
ENDBRANCH  17  20
ENDBRANCH   1  12
BRANCH   2  22
ATOM     22  O   UNL     1      -4.755   7.030  18.708  1.00  0.00    -0.502 OA
ATOM     23  H   UNL     1      -4.260   7.913  18.733  1.00  0.00     0.293 HD
ENDBRANCH   2  22
BRANCH   6  24
ATOM     24  O   UNL     1      -6.601   2.401  16.822  1.00  0.00    -0.507 OA
ATOM     25  H   UNL     1      -7.089   1.520  16.769  1.00  0.00     0.293 HD
ENDBRANCH   6  24
BRANCH   8  26
ATOM     26  O   UNL     1      -8.256   3.836  12.549  1.00  0.00    -0.508 OA
ATOM     27  H   UNL     1      -9.261   3.868  12.424  1.00  0.00     0.293 HD
ENDBRANCH   8  26
TORSDOF 6
ENDMDL
