MODEL 1
REMARK VINA RESULT:    -3.747      0.000      0.000
REMARK INTER + INTRA:          -4.441
REMARK INTER:                  -4.404
REMARK INTRA:                  -0.036
REMARK UNBOUND:                -0.036
REMARK SMILES CCCCC(=O)[O-]
REMARK SMILES IDX 4 1 5 2 6 3 7 4 3 5 2 6 1 7
REMARK H PARENT
REMARK Flexibility Score: inf
ROOT
ATOM      1  C   UNL     1     -11.580 -15.667  26.672  1.00  0.00     0.053 C 
ENDROOT
BRANCH   1   2
ATOM      2  C   UNL     1     -10.141 -15.250  26.638  1.00  0.00     0.041 C 
ATOM      3  O   UNL     1      -9.350 -15.632  27.540  1.00  0.00    -0.550 OA
ATOM      4  O   UNL     1      -9.683 -14.413  25.629  1.00  0.00    -0.550 OA
ENDBRANCH   1   2
BRANCH   1   5
ATOM      5  C   UNL     1     -11.860 -16.657  27.810  1.00  0.00     0.006 C 
BRANCH   5   6
ATOM      6  C   UNL     1     -13.065 -16.234  28.664  1.00  0.00    -0.003 C 
ATOM      7  C   UNL     1     -13.407 -17.303  29.698  1.00  0.00     0.004 C 
ENDBRANCH   5   6
ENDBRANCH   1   5
TORSDOF 3
ENDMDL
MODEL 2
REMARK VINA RESULT:    -3.684      3.562      4.313
REMARK INTER + INTRA:          -4.367
REMARK INTER:                  -4.271
REMARK INTRA:                  -0.096
REMARK UNBOUND:                -0.036
REMARK SMILES CCCCC(=O)[O-]
REMARK SMILES IDX 4 1 5 2 6 3 7 4 3 5 2 6 1 7
REMARK H PARENT
REMARK Flexibility Score: inf
ROOT
ATOM      1  C   UNL     1     -10.895 -18.440  29.223  1.00  0.00     0.053 C 
ENDROOT
BRANCH   1   2
ATOM      2  C   UNL     1     -10.767 -18.617  30.705  1.00  0.00     0.041 C 
ATOM      3  O   UNL     1     -11.751 -18.392  31.457  1.00  0.00    -0.550 OA
ATOM      4  O   UNL     1      -9.551 -18.996  31.258  1.00  0.00    -0.550 OA
ENDBRANCH   1   2
BRANCH   1   5
ATOM      5  C   UNL     1     -10.783 -16.967  28.812  1.00  0.00     0.006 C 
BRANCH   5   6
ATOM      6  C   UNL     1     -11.959 -16.517  27.933  1.00  0.00    -0.003 C 
ATOM      7  C   UNL     1     -13.241 -16.394  28.751  1.00  0.00     0.004 C 
ENDBRANCH   5   6
ENDBRANCH   1   5
TORSDOF 3
ENDMDL
MODEL 3
REMARK VINA RESULT:    -3.642      2.765      3.933
REMARK INTER + INTRA:          -4.317
REMARK INTER:                  -4.223
REMARK INTRA:                  -0.095
REMARK UNBOUND:                -0.036
REMARK SMILES CCCCC(=O)[O-]
REMARK SMILES IDX 4 1 5 2 6 3 7 4 3 5 2 6 1 7
REMARK H PARENT
REMARK Flexibility Score: inf
ROOT
ATOM      1  C   UNL     1     -11.493 -18.266  29.257  1.00  0.00     0.053 C 
ENDROOT
BRANCH   1   2
ATOM      2  C   UNL     1     -10.487 -17.992  30.332  1.00  0.00     0.041 C 
ATOM      3  O   UNL     1     -10.268 -16.810  30.708  1.00  0.00    -0.550 OA
ATOM      4  O   UNL     1      -9.766 -19.038  30.895  1.00  0.00    -0.550 OA
ENDBRANCH   1   2
BRANCH   1   5
ATOM      5  C   UNL     1     -12.874 -17.698  29.610  1.00  0.00     0.006 C 
BRANCH   5   6
ATOM      6  C   UNL     1     -13.204 -16.432  28.805  1.00  0.00    -0.003 C 
ATOM      7  C   UNL     1     -12.306 -16.312  27.578  1.00  0.00     0.004 C 
ENDBRANCH   5   6
ENDBRANCH   1   5
TORSDOF 3
ENDMDL
MODEL 4
REMARK VINA RESULT:    -3.602      2.952      3.943
REMARK INTER + INTRA:          -4.270
REMARK INTER:                  -4.236
REMARK INTRA:                  -0.034
REMARK UNBOUND:                -0.036
REMARK SMILES CCCCC(=O)[O-]
REMARK SMILES IDX 4 1 5 2 6 3 7 4 3 5 2 6 1 7
REMARK H PARENT
REMARK Flexibility Score: inf
ROOT
ATOM      1  C   UNL     1     -10.453 -16.626  28.703  1.00  0.00     0.053 C 
ENDROOT
BRANCH   1   2
ATOM      2  C   UNL     1     -10.423 -17.760  29.681  1.00  0.00     0.041 C 
ATOM      3  O   UNL     1     -10.670 -18.934  29.298  1.00  0.00    -0.550 OA
ATOM      4  O   UNL     1     -10.154 -17.516  31.022  1.00  0.00    -0.550 OA
ENDBRANCH   1   2
BRANCH   1   5
ATOM      5  C   UNL     1     -11.654 -16.724  27.753  1.00  0.00     0.006 C 
BRANCH   5   6
ATOM      6  C   UNL     1     -11.627 -15.637  26.668  1.00  0.00    -0.003 C 
ATOM      7  C   UNL     1     -10.201 -15.166  26.397  1.00  0.00     0.004 C 
ENDBRANCH   5   6
ENDBRANCH   1   5
TORSDOF 3
ENDMDL
MODEL 5
REMARK VINA RESULT:    -3.598      2.446      3.806
REMARK INTER + INTRA:          -4.265
REMARK INTER:                  -4.139
REMARK INTRA:                  -0.126
REMARK UNBOUND:                -0.036
REMARK SMILES CCCCC(=O)[O-]
REMARK SMILES IDX 4 1 5 2 6 3 7 4 3 5 2 6 1 7
REMARK H PARENT
REMARK Flexibility Score: inf
ROOT
ATOM      1  C   UNL     1     -11.951 -17.117  30.249  1.00  0.00     0.053 C 
ENDROOT
BRANCH   1   2
ATOM      2  C   UNL     1     -10.503 -17.500  30.241  1.00  0.00     0.041 C 
ATOM      3  O   UNL     1      -9.615 -16.624  30.412  1.00  0.00    -0.550 OA
ATOM      4  O   UNL     1     -10.134 -18.820  30.013  1.00  0.00    -0.550 OA
ENDBRANCH   1   2
BRANCH   1   5
ATOM      5  C   UNL     1     -12.295 -16.167  29.095  1.00  0.00     0.006 C 
BRANCH   5   6
ATOM      6  C   UNL     1     -11.902 -16.745  27.728  1.00  0.00    -0.003 C 
ATOM      7  C   UNL     1     -11.165 -15.710  26.884  1.00  0.00     0.004 C 
ENDBRANCH   5   6
ENDBRANCH   1   5
TORSDOF 3
ENDMDL
MODEL 6
REMARK VINA RESULT:    -3.594      2.252      2.501
REMARK INTER + INTRA:          -4.261
REMARK INTER:                  -4.215
REMARK INTRA:                  -0.046
REMARK UNBOUND:                -0.036
REMARK SMILES CCCCC(=O)[O-]
REMARK SMILES IDX 4 1 5 2 6 3 7 4 3 5 2 6 1 7
REMARK H PARENT
REMARK Flexibility Score: inf
ROOT
ATOM      1  C   UNL     1     -11.648 -16.853  28.159  1.00  0.00     0.053 C 
ENDROOT
BRANCH   1   2
ATOM      2  C   UNL     1     -10.934 -15.909  27.240  1.00  0.00     0.041 C 
ATOM      3  O   UNL     1      -9.704 -15.683  27.394  1.00  0.00    -0.550 OA
ATOM      4  O   UNL     1     -11.633 -15.255  26.234  1.00  0.00    -0.550 OA
ENDBRANCH   1   2
BRANCH   1   5
ATOM      5  C   UNL     1     -10.843 -17.123  29.437  1.00  0.00     0.006 C 
BRANCH   5   6
ATOM      6  C   UNL     1     -10.491 -18.609  29.599  1.00  0.00    -0.003 C 
ATOM      7  C   UNL     1      -9.856 -18.878  30.960  1.00  0.00     0.004 C 
ENDBRANCH   5   6
ENDBRANCH   1   5
TORSDOF 3
ENDMDL
MODEL 7
REMARK VINA RESULT:    -3.548      1.191      2.056
REMARK INTER + INTRA:          -4.207
REMARK INTER:                  -4.129
REMARK INTRA:                  -0.078
REMARK UNBOUND:                -0.036
REMARK SMILES CCCCC(=O)[O-]
REMARK SMILES IDX 4 1 5 2 6 3 7 4 3 5 2 6 1 7
REMARK H PARENT
REMARK Flexibility Score: inf
ROOT
ATOM      1  C   UNL     1     -12.585 -16.359  27.692  1.00  0.00     0.053 C 
ENDROOT
BRANCH   1   2
ATOM      2  C   UNL     1     -11.127 -16.104  27.461  1.00  0.00     0.041 C 
ATOM      3  O   UNL     1     -10.738 -15.594  26.377  1.00  0.00    -0.550 OA
ATOM      4  O   UNL     1     -10.196 -16.461  28.427  1.00  0.00    -0.550 OA
ENDBRANCH   1   2
BRANCH   1   5
ATOM      5  C   UNL     1     -12.964 -16.200  29.170  1.00  0.00     0.006 C 
BRANCH   5   6
ATOM      6  C   UNL     1     -13.419 -17.525  29.800  1.00  0.00    -0.003 C 
ATOM      7  C   UNL     1     -12.733 -17.760  31.142  1.00  0.00     0.004 C 
ENDBRANCH   5   6
ENDBRANCH   1   5
TORSDOF 3
ENDMDL
MODEL 8
REMARK VINA RESULT:    -3.535      2.291      4.209
REMARK INTER + INTRA:          -4.192
REMARK INTER:                  -4.162
REMARK INTRA:                  -0.030
REMARK UNBOUND:                -0.036
REMARK SMILES CCCCC(=O)[O-]
REMARK SMILES IDX 4 1 5 2 6 3 7 4 3 5 2 6 1 7
REMARK H PARENT
REMARK Flexibility Score: inf
ROOT
ATOM      1  C   UNL     1     -10.304 -15.917  27.446  1.00  0.00     0.053 C 
ENDROOT
BRANCH   1   2
ATOM      2  C   UNL     1     -11.697 -16.436  27.625  1.00  0.00     0.041 C 
ATOM      3  O   UNL     1     -12.638 -15.979  26.923  1.00  0.00    -0.550 OA
ATOM      4  O   UNL     1     -11.963 -17.400  28.589  1.00  0.00    -0.550 OA
ENDBRANCH   1   2
BRANCH   1   5
ATOM      5  C   UNL     1     -10.185 -15.014  26.211  1.00  0.00     0.006 C 
BRANCH   5   6
ATOM      6  C   UNL     1      -8.904 -14.166  26.232  1.00  0.00    -0.003 C 
ATOM      7  C   UNL     1      -7.698 -15.002  26.648  1.00  0.00     0.004 C 
ENDBRANCH   5   6
ENDBRANCH   1   5
TORSDOF 3
ENDMDL
MODEL 9
REMARK VINA RESULT:    -3.463      2.656      3.152
REMARK INTER + INTRA:          -4.106
REMARK INTER:                  -4.010
REMARK INTRA:                  -0.096
REMARK UNBOUND:                -0.036
REMARK SMILES CCCCC(=O)[O-]
REMARK SMILES IDX 4 1 5 2 6 3 7 4 3 5 2 6 1 7
REMARK H PARENT
REMARK Flexibility Score: inf
ROOT
ATOM      1  C   UNL     1     -12.275 -17.145  29.020  1.00  0.00     0.053 C 
ENDROOT
BRANCH   1   2
ATOM      2  C   UNL     1     -12.285 -16.299  27.783  1.00  0.00     0.041 C 
ATOM      3  O   UNL     1     -11.202 -15.894  27.285  1.00  0.00    -0.550 OA
ATOM      4  O   UNL     1     -13.491 -15.932  27.201  1.00  0.00    -0.550 OA
ENDBRANCH   1   2
BRANCH   1   5
ATOM      5  C   UNL     1     -11.400 -18.394  28.850  1.00  0.00     0.006 C 
BRANCH   5   6
ATOM      6  C   UNL     1     -10.450 -18.604  30.039  1.00  0.00    -0.003 C 
ATOM      7  C   UNL     1      -9.924 -17.271  30.564  1.00  0.00     0.004 C 
ENDBRANCH   5   6
ENDBRANCH   1   5
TORSDOF 3
ENDMDL
