MODEL 1
REMARK VINA RESULT:    -3.534      0.000      0.000
REMARK INTER + INTRA:          -5.043
REMARK INTER:                  -4.567
REMARK INTRA:                  -0.476
REMARK UNBOUND:                -0.476
REMARK SMILES CCCCCCC(C)=O
REMARK SMILES IDX 4 1 3 2 2 3 1 4 5 5 6 6 7 7 9 8 8 9
REMARK H PARENT
REMARK Flexibility Score: inf
ROOT
ATOM      1  C   UNL     1      16.078  42.745   1.566  1.00  0.00     0.000 C 
ENDROOT
BRANCH   1   2
ATOM      2  C   UNL     1      15.892  44.223   1.941  1.00  0.00    -0.000 C 
BRANCH   2   3
ATOM      3  C   UNL     1      15.047  44.993   0.915  1.00  0.00    -0.003 C 
ATOM      4  C   UNL     1      15.831  45.236  -0.371  1.00  0.00     0.004 C 
ENDBRANCH   2   3
ENDBRANCH   1   2
BRANCH   1   5
ATOM      5  C   UNL     1      17.555  42.327   1.524  1.00  0.00     0.008 C 
BRANCH   5   6
ATOM      6  C   UNL     1      18.458  43.453   2.041  1.00  0.00     0.075 C 
BRANCH   6   7
ATOM      7  C   UNL     1      19.586  43.717   1.081  1.00  0.00     0.129 C 
ATOM      8  O   UNL     1      20.638  43.105   1.197  1.00  0.00    -0.300 OA
ATOM      9  C   UNL     1      19.439  44.743  -0.002  1.00  0.00     0.087 C 
ENDBRANCH   6   7
ENDBRANCH   5   6
ENDBRANCH   1   5
TORSDOF 5
ENDMDL
MODEL 2
REMARK VINA RESULT:    -3.495     18.121     19.974
REMARK INTER + INTRA:          -4.993
REMARK INTER:                  -4.808
REMARK INTRA:                  -0.185
REMARK UNBOUND:                -0.476
REMARK SMILES CCCCCCC(C)=O
REMARK SMILES IDX 4 1 3 2 2 3 1 4 5 5 6 6 7 7 9 8 8 9
REMARK H PARENT
REMARK Flexibility Score: inf
ROOT
ATOM      1  C   UNL     1      24.896  57.788  -9.022  1.00  0.00     0.000 C 
ENDROOT
BRANCH   1   2
ATOM      2  C   UNL     1      25.522  56.406  -9.266  1.00  0.00    -0.000 C 
BRANCH   2   3
ATOM      3  C   UNL     1      25.134  55.381  -8.190  1.00  0.00    -0.003 C 
ATOM      4  C   UNL     1      23.621  55.335  -7.995  1.00  0.00     0.004 C 
ENDBRANCH   2   3
ENDBRANCH   1   2
BRANCH   1   5
ATOM      5  C   UNL     1      25.805  58.938  -9.479  1.00  0.00     0.008 C 
BRANCH   5   6
ATOM      6  C   UNL     1      26.911  58.426 -10.409  1.00  0.00     0.075 C 
BRANCH   6   7
ATOM      7  C   UNL     1      27.943  59.494 -10.651  1.00  0.00     0.129 C 
ATOM      8  O   UNL     1      27.643  60.671 -10.511  1.00  0.00    -0.300 OA
ATOM      9  C   UNL     1      29.329  59.127 -11.086  1.00  0.00     0.087 C 
ENDBRANCH   6   7
ENDBRANCH   5   6
ENDBRANCH   1   5
TORSDOF 5
ENDMDL
MODEL 3
REMARK VINA RESULT:    -3.442      0.879      1.124
REMARK INTER + INTRA:          -4.924
REMARK INTER:                  -4.535
REMARK INTRA:                  -0.389
REMARK UNBOUND:                -0.476
REMARK SMILES CCCCCCC(C)=O
REMARK SMILES IDX 4 1 3 2 2 3 1 4 5 5 6 6 7 7 9 8 8 9
REMARK H PARENT
REMARK Flexibility Score: inf
ROOT
ATOM      1  C   UNL     1      16.033  42.712   1.495  1.00  0.00     0.000 C 
ENDROOT
BRANCH   1   2
ATOM      2  C   UNL     1      15.834  44.195   1.847  1.00  0.00    -0.000 C 
BRANCH   2   3
ATOM      3  C   UNL     1      15.140  44.982   0.725  1.00  0.00    -0.003 C 
ATOM      4  C   UNL     1      16.074  45.184  -0.464  1.00  0.00     0.004 C 
ENDBRANCH   2   3
ENDBRANCH   1   2
BRANCH   1   5
ATOM      5  C   UNL     1      17.504  42.279   1.568  1.00  0.00     0.008 C 
BRANCH   5   6
ATOM      6  C   UNL     1      18.404  43.457   1.958  1.00  0.00     0.075 C 
BRANCH   6   7
ATOM      7  C   UNL     1      19.523  43.627   0.967  1.00  0.00     0.129 C 
ATOM      8  O   UNL     1      19.495  44.556   0.173  1.00  0.00    -0.300 OA
ATOM      9  C   UNL     1      20.660  42.651   0.928  1.00  0.00     0.087 C 
ENDBRANCH   6   7
ENDBRANCH   5   6
ENDBRANCH   1   5
TORSDOF 5
ENDMDL
MODEL 4
REMARK VINA RESULT:    -3.351     21.623     23.846
REMARK INTER + INTRA:          -4.807
REMARK INTER:                  -4.537
REMARK INTRA:                  -0.269
REMARK UNBOUND:                -0.476
REMARK SMILES CCCCCCC(C)=O
REMARK SMILES IDX 4 1 3 2 2 3 1 4 5 5 6 6 7 7 9 8 8 9
REMARK H PARENT
REMARK Flexibility Score: inf
ROOT
ATOM      1  C   UNL     1      29.838  57.393 -13.159  1.00  0.00     0.000 C 
ENDROOT
BRANCH   1   2
ATOM      2  C   UNL     1      31.097  56.711 -13.715  1.00  0.00    -0.000 C 
BRANCH   2   3
ATOM      3  C   UNL     1      32.098  57.711 -14.312  1.00  0.00    -0.003 C 
ATOM      4  C   UNL     1      33.521  57.404 -13.855  1.00  0.00     0.004 C 
ENDBRANCH   2   3
ENDBRANCH   1   2
BRANCH   1   5
ATOM      5  C   UNL     1      30.105  58.828 -12.682  1.00  0.00     0.008 C 
BRANCH   5   6
ATOM      6  C   UNL     1      29.871  58.957 -11.172  1.00  0.00     0.075 C 
BRANCH   6   7
ATOM      7  C   UNL     1      28.520  59.557 -10.890  1.00  0.00     0.129 C 
ATOM      8  O   UNL     1      28.385  60.772 -10.879  1.00  0.00    -0.300 OA
ATOM      9  C   UNL     1      27.344  58.676 -10.597  1.00  0.00     0.087 C 
ENDBRANCH   6   7
ENDBRANCH   5   6
ENDBRANCH   1   5
TORSDOF 5
ENDMDL
MODEL 5
REMARK VINA RESULT:    -3.330      2.483      4.315
REMARK INTER + INTRA:          -4.780
REMARK INTER:                  -4.340
REMARK INTRA:                  -0.440
REMARK UNBOUND:                -0.476
REMARK SMILES CCCCCCC(C)=O
REMARK SMILES IDX 4 1 3 2 2 3 1 4 5 5 6 6 7 7 9 8 8 9
REMARK H PARENT
REMARK Flexibility Score: inf
ROOT
ATOM      1  C   UNL     1      18.445  43.518   2.032  1.00  0.00     0.000 C 
ENDROOT
BRANCH   1   2
ATOM      2  C   UNL     1      19.744  43.754   1.246  1.00  0.00    -0.000 C 
BRANCH   2   3
ATOM      3  C   UNL     1      20.732  42.585   1.372  1.00  0.00    -0.003 C 
ATOM      4  C   UNL     1      21.115  42.038  -0.000  1.00  0.00     0.004 C 
ENDBRANCH   2   3
ENDBRANCH   1   2
BRANCH   1   5
ATOM      5  C   UNL     1      17.693  42.261   1.569  1.00  0.00     0.008 C 
BRANCH   5   6
ATOM      6  C   UNL     1      16.442  42.635   0.767  1.00  0.00     0.075 C 
BRANCH   6   7
ATOM      7  C   UNL     1      16.558  42.161  -0.656  1.00  0.00     0.129 C 
ATOM      8  O   UNL     1      15.709  42.483  -1.475  1.00  0.00    -0.300 OA
ATOM      9  C   UNL     1      17.693  41.276  -1.073  1.00  0.00     0.087 C 
ENDBRANCH   6   7
ENDBRANCH   5   6
ENDBRANCH   1   5
TORSDOF 5
ENDMDL
MODEL 6
REMARK VINA RESULT:    -3.316     21.220     23.201
REMARK INTER + INTRA:          -4.762
REMARK INTER:                  -4.495
REMARK INTRA:                  -0.267
REMARK UNBOUND:                -0.476
REMARK SMILES CCCCCCC(C)=O
REMARK SMILES IDX 4 1 3 2 2 3 1 4 5 5 6 6 7 7 9 8 8 9
REMARK H PARENT
REMARK Flexibility Score: inf
ROOT
ATOM      1  C   UNL     1      29.834  59.387 -10.538  1.00  0.00     0.000 C 
ENDROOT
BRANCH   1   2
ATOM      2  C   UNL     1      28.690  60.298 -11.009  1.00  0.00    -0.000 C 
BRANCH   2   3
ATOM      3  C   UNL     1      27.359  59.988 -10.308  1.00  0.00    -0.003 C 
ATOM      4  C   UNL     1      26.973  58.522 -10.484  1.00  0.00     0.004 C 
ENDBRANCH   2   3
ENDBRANCH   1   2
BRANCH   1   5
ATOM      5  C   UNL     1      30.771  58.976 -11.682  1.00  0.00     0.008 C 
BRANCH   5   6
ATOM      6  C   UNL     1      30.033  58.116 -12.715  1.00  0.00     0.075 C 
BRANCH   6   7
ATOM      7  C   UNL     1      30.995  57.231 -13.460  1.00  0.00     0.129 C 
ATOM      8  O   UNL     1      30.869  56.017 -13.407  1.00  0.00    -0.300 OA
ATOM      9  C   UNL     1      32.122  57.827 -14.247  1.00  0.00     0.087 C 
ENDBRANCH   6   7
ENDBRANCH   5   6
ENDBRANCH   1   5
TORSDOF 5
ENDMDL
MODEL 7
REMARK VINA RESULT:    -3.298     23.349     24.435
REMARK INTER + INTRA:          -4.739
REMARK INTER:                  -4.297
REMARK INTRA:                  -0.441
REMARK UNBOUND:                -0.476
REMARK SMILES CCCCCCC(C)=O
REMARK SMILES IDX 4 1 3 2 2 3 1 4 5 5 6 6 7 7 9 8 8 9
REMARK H PARENT
REMARK Flexibility Score: inf
ROOT
ATOM      1  C   UNL     1      31.498  56.665 -14.243  1.00  0.00     0.000 C 
ENDROOT
BRANCH   1   2
ATOM      2  C   UNL     1      32.663  57.666 -14.195  1.00  0.00    -0.000 C 
BRANCH   2   3
ATOM      3  C   UNL     1      33.992  57.008 -13.793  1.00  0.00    -0.003 C 
ATOM      4  C   UNL     1      33.997  56.637 -12.313  1.00  0.00     0.004 C 
ENDBRANCH   2   3
ENDBRANCH   1   2
BRANCH   1   5
ATOM      5  C   UNL     1      30.375  57.017 -13.257  1.00  0.00     0.008 C 
BRANCH   5   6
ATOM      6  C   UNL     1      30.199  58.535 -13.145  1.00  0.00     0.075 C 
BRANCH   6   7
ATOM      7  C   UNL     1      30.065  58.954 -11.707  1.00  0.00     0.129 C 
ATOM      8  O   UNL     1      28.959  59.000 -11.188  1.00  0.00    -0.300 OA
ATOM      9  C   UNL     1      31.275  59.340 -10.911  1.00  0.00     0.087 C 
ENDBRANCH   6   7
ENDBRANCH   5   6
ENDBRANCH   1   5
TORSDOF 5
ENDMDL
MODEL 8
REMARK VINA RESULT:    -3.291      2.540      4.633
REMARK INTER + INTRA:          -4.729
REMARK INTER:                  -4.397
REMARK INTRA:                  -0.332
REMARK UNBOUND:                -0.476
REMARK SMILES CCCCCCC(C)=O
REMARK SMILES IDX 4 1 3 2 2 3 1 4 5 5 6 6 7 7 9 8 8 9
REMARK H PARENT
REMARK Flexibility Score: inf
ROOT
ATOM      1  C   UNL     1      18.864  44.532  -0.052  1.00  0.00     0.000 C 
ENDROOT
BRANCH   1   2
ATOM      2  C   UNL     1      18.823  43.900   1.348  1.00  0.00    -0.000 C 
BRANCH   2   3
ATOM      3  C   UNL     1      19.434  42.492   1.381  1.00  0.00    -0.003 C 
ATOM      4  C   UNL     1      20.748  42.445   0.606  1.00  0.00     0.004 C 
ENDBRANCH   2   3
ENDBRANCH   1   2
BRANCH   1   5
ATOM      5  C   UNL     1      17.579  45.300  -0.392  1.00  0.00     0.008 C 
BRANCH   5   6
ATOM      6  C   UNL     1      16.352  44.386  -0.300  1.00  0.00     0.075 C 
BRANCH   6   7
ATOM      7  C   UNL     1      15.288  45.003   0.566  1.00  0.00     0.129 C 
ATOM      8  O   UNL     1      14.511  45.816   0.088  1.00  0.00    -0.300 OA
ATOM      9  C   UNL     1      15.190  44.648   2.019  1.00  0.00     0.087 C 
ENDBRANCH   6   7
ENDBRANCH   5   6
ENDBRANCH   1   5
TORSDOF 5
ENDMDL
MODEL 9
REMARK VINA RESULT:    -3.232      2.374      3.961
REMARK INTER + INTRA:          -4.653
REMARK INTER:                  -4.192
REMARK INTRA:                  -0.460
REMARK UNBOUND:                -0.476
REMARK SMILES CCCCCCC(C)=O
REMARK SMILES IDX 4 1 3 2 2 3 1 4 5 5 6 6 7 7 9 8 8 9
REMARK H PARENT
REMARK Flexibility Score: inf
ROOT
ATOM      1  C   UNL     1      17.589  42.278   1.500  1.00  0.00     0.000 C 
ENDROOT
BRANCH   1   2
ATOM      2  C   UNL     1      18.810  42.601   0.624  1.00  0.00    -0.000 C 
BRANCH   2   3
ATOM      3  C   UNL     1      19.468  43.937   0.996  1.00  0.00    -0.003 C 
ATOM      4  C   UNL     1      19.360  44.941  -0.148  1.00  0.00     0.004 C 
ENDBRANCH   2   3
ENDBRANCH   1   2
BRANCH   1   5
ATOM      5  C   UNL     1      16.281  42.832   0.918  1.00  0.00     0.008 C 
BRANCH   5   6
ATOM      6  C   UNL     1      15.799  44.051   1.715  1.00  0.00     0.075 C 
BRANCH   6   7
ATOM      7  C   UNL     1      15.218  45.093   0.799  1.00  0.00     0.129 C 
ATOM      8  O   UNL     1      14.281  45.780   1.177  1.00  0.00    -0.300 OA
ATOM      9  C   UNL     1      15.765  45.280  -0.584  1.00  0.00     0.087 C 
ENDBRANCH   6   7
ENDBRANCH   5   6
ENDBRANCH   1   5
TORSDOF 5
ENDMDL
