MODEL 1
REMARK VINA RESULT:    -5.393      0.000      0.000
REMARK INTER + INTRA:          -7.291
REMARK INTER:                  -6.654
REMARK INTRA:                  -0.638
REMARK UNBOUND:                -0.638
REMARK SMILES CC(C)=CCC[C@H](C)[C@H]1C=CC(C)=CC1
REMARK SMILES IDX 6 1 7 2 8 3 9 4 13 5 12 6 14 7 11 8 15 9 10 10 5 11 4 12
REMARK SMILES IDX 2 13 1 14 3 15
REMARK H PARENT
REMARK Flexibility Score: inf
ROOT
ATOM      1  C   UNL     1      29.125  23.655  13.021  1.00  0.00     0.008 C 
ENDROOT
BRANCH   1   2
ATOM      2  C   UNL     1      29.250  24.404  11.665  1.00  0.00    -0.007 C 
ATOM      3  C   UNL     1      30.254  23.662  10.761  1.00  0.00     0.008 C 
BRANCH   2   4
ATOM      4  C   UNL     1      29.588  25.919  11.822  1.00  0.00     0.018 C 
ATOM      5  C   UNL     1      30.115  30.179  11.282  1.00  0.00     0.044 C 
ATOM      6  C   UNL     1      29.770  28.719  11.264  1.00  0.00    -0.055 C 
ATOM      7  C   UNL     1      28.712  28.264  11.956  1.00  0.00    -0.023 C 
ATOM      8  C   UNL     1      30.649  27.761  10.552  1.00  0.00    -0.001 C 
ATOM      9  C   UNL     1      28.326  26.810  11.887  1.00  0.00     0.035 C 
ATOM     10  C   UNL     1      30.536  26.445  10.761  1.00  0.00    -0.023 C 
ENDBRANCH   2   4
ENDBRANCH   1   2
BRANCH   1  11
ATOM     11  C   UNL     1      30.437  23.011  13.512  1.00  0.00     0.027 C 
BRANCH  11  12
ATOM     12  C   UNL     1      30.237  21.603  14.024  1.00  0.00    -0.028 C 
ATOM     13  C   UNL     1      30.841  20.526  13.479  1.00  0.00    -0.080 C 
ATOM     14  C   UNL     1      31.780  20.657  12.305  1.00  0.00     0.039 C 
ATOM     15  C   UNL     1      30.562  19.166  14.065  1.00  0.00     0.039 C 
ENDBRANCH  11  12
ENDBRANCH   1  11
TORSDOF 4
ENDMDL
MODEL 2
REMARK VINA RESULT:    -5.276      0.633      1.425
REMARK INTER + INTRA:          -7.147
REMARK INTER:                  -6.419
REMARK INTRA:                  -0.728
REMARK UNBOUND:                -0.638
REMARK SMILES CC(C)=CCC[C@H](C)[C@H]1C=CC(C)=CC1
REMARK SMILES IDX 6 1 7 2 8 3 9 4 13 5 12 6 14 7 11 8 15 9 10 10 5 11 4 12
REMARK SMILES IDX 2 13 1 14 3 15
REMARK H PARENT
REMARK Flexibility Score: inf
ROOT
ATOM      1  C   UNL     1      29.173  24.318  12.599  1.00  0.00     0.008 C 
ENDROOT
BRANCH   1   2
ATOM      2  C   UNL     1      29.356  24.669  11.097  1.00  0.00    -0.007 C 
ATOM      3  C   UNL     1      30.532  23.857  10.520  1.00  0.00     0.008 C 
BRANCH   2   4
ATOM      4  C   UNL     1      29.497  26.201  10.831  1.00  0.00     0.018 C 
ATOM      5  C   UNL     1      30.295  30.446  11.074  1.00  0.00     0.044 C 
ATOM      6  C   UNL     1      30.177  28.955  11.197  1.00  0.00    -0.055 C 
ATOM      7  C   UNL     1      31.048  28.152  10.562  1.00  0.00    -0.023 C 
ATOM      8  C   UNL     1      29.046  28.363  11.951  1.00  0.00    -0.001 C 
ATOM      9  C   UNL     1      30.971  26.658  10.737  1.00  0.00     0.035 C 
ATOM     10  C   UNL     1      28.752  27.064  11.832  1.00  0.00    -0.023 C 
ENDBRANCH   2   4
ENDBRANCH   1   2
BRANCH   1  11
ATOM     11  C   UNL     1      30.373  23.583  13.229  1.00  0.00     0.027 C 
BRANCH  11  12
ATOM     12  C   UNL     1      30.009  22.208  13.742  1.00  0.00    -0.028 C 
ATOM     13  C   UNL     1      30.793  21.123  13.569  1.00  0.00    -0.080 C 
ATOM     14  C   UNL     1      32.115  21.211  12.846  1.00  0.00     0.039 C 
ATOM     15  C   UNL     1      30.326  19.799  14.115  1.00  0.00     0.039 C 
ENDBRANCH  11  12
ENDBRANCH   1  11
TORSDOF 4
ENDMDL
MODEL 3
REMARK VINA RESULT:    -5.225      1.576      6.629
REMARK INTER + INTRA:          -7.084
REMARK INTER:                  -6.287
REMARK INTRA:                  -0.797
REMARK UNBOUND:                -0.638
REMARK SMILES CC(C)=CCC[C@H](C)[C@H]1C=CC(C)=CC1
REMARK SMILES IDX 6 1 7 2 8 3 9 4 13 5 12 6 14 7 11 8 15 9 10 10 5 11 4 12
REMARK SMILES IDX 2 13 1 14 3 15
REMARK H PARENT
REMARK Flexibility Score: inf
ROOT
ATOM      1  C   UNL     1      30.705  27.870  12.476  1.00  0.00     0.008 C 
ENDROOT
BRANCH   1   2
ATOM      2  C   UNL     1      29.879  26.996  11.492  1.00  0.00    -0.007 C 
ATOM      3  C   UNL     1      28.431  27.521  11.433  1.00  0.00     0.008 C 
BRANCH   2   4
ATOM      4  C   UNL     1      29.952  25.469  11.807  1.00  0.00     0.018 C 
ATOM      5  C   UNL     1      30.043  21.571  13.680  1.00  0.00     0.044 C 
ATOM      6  C   UNL     1      29.916  23.006  13.261  1.00  0.00    -0.055 C 
ATOM      7  C   UNL     1      28.771  23.454  12.718  1.00  0.00    -0.023 C 
ATOM      8  C   UNL     1      31.085  23.912  13.363  1.00  0.00    -0.001 C 
ATOM      9  C   UNL     1      28.619  24.908  12.356  1.00  0.00     0.035 C 
ATOM     10  C   UNL     1      31.091  25.092  12.734  1.00  0.00    -0.023 C 
ENDBRANCH   2   4
ENDBRANCH   1   2
BRANCH   1  11
ATOM     11  C   UNL     1      32.069  28.327  11.925  1.00  0.00     0.027 C 
BRANCH  11  12
ATOM     12  C   UNL     1      32.101  28.371  10.414  1.00  0.00    -0.028 C 
ATOM     13  C   UNL     1      31.856  29.491   9.702  1.00  0.00    -0.080 C 
ATOM     14  C   UNL     1      31.533  30.801  10.377  1.00  0.00     0.039 C 
ATOM     15  C   UNL     1      31.906  29.416   8.198  1.00  0.00     0.039 C 
ENDBRANCH  11  12
ENDBRANCH   1  11
TORSDOF 4
ENDMDL
MODEL 4
REMARK VINA RESULT:    -5.173      1.275      6.875
REMARK INTER + INTRA:          -7.020
REMARK INTER:                  -6.299
REMARK INTRA:                  -0.721
REMARK UNBOUND:                -0.638
REMARK SMILES CC(C)=CCC[C@H](C)[C@H]1C=CC(C)=CC1
REMARK SMILES IDX 6 1 7 2 8 3 9 4 13 5 12 6 14 7 11 8 15 9 10 10 5 11 4 12
REMARK SMILES IDX 2 13 1 14 3 15
REMARK H PARENT
REMARK Flexibility Score: inf
ROOT
ATOM      1  C   UNL     1      30.325  25.437  10.910  1.00  0.00     0.008 C 
ENDROOT
BRANCH   1   2
ATOM      2  C   UNL     1      30.820  25.166  12.357  1.00  0.00    -0.007 C 
ATOM      3  C   UNL     1      32.125  25.946  12.607  1.00  0.00     0.008 C 
BRANCH   2   4
ATOM      4  C   UNL     1      30.954  23.647  12.693  1.00  0.00     0.018 C 
ATOM      5  C   UNL     1      31.122  19.772  14.607  1.00  0.00     0.044 C 
ATOM      6  C   UNL     1      30.946  21.195  14.164  1.00  0.00    -0.055 C 
ATOM      7  C   UNL     1      29.823  21.574  13.532  1.00  0.00    -0.023 C 
ATOM      8  C   UNL     1      32.051  22.166  14.347  1.00  0.00    -0.001 C 
ATOM      9  C   UNL     1      29.617  23.014  13.144  1.00  0.00     0.035 C 
ATOM     10  C   UNL     1      32.039  23.342  13.708  1.00  0.00    -0.023 C 
ENDBRANCH   2   4
ENDBRANCH   1   2
BRANCH   1  11
ATOM     11  C   UNL     1      29.321  26.600  10.790  1.00  0.00     0.027 C 
BRANCH  11  12
ATOM     12  C   UNL     1      29.990  27.913  10.450  1.00  0.00    -0.028 C 
ATOM     13  C   UNL     1      30.069  28.947  11.314  1.00  0.00    -0.080 C 
ATOM     14  C   UNL     1      29.491  28.861  12.705  1.00  0.00     0.039 C 
ATOM     15  C   UNL     1      30.752  30.213  10.865  1.00  0.00     0.039 C 
ENDBRANCH  11  12
ENDBRANCH   1  11
TORSDOF 4
ENDMDL
MODEL 5
REMARK VINA RESULT:    -5.146      1.046      6.874
REMARK INTER + INTRA:          -6.987
REMARK INTER:                  -6.296
REMARK INTRA:                  -0.692
REMARK UNBOUND:                -0.638
REMARK SMILES CC(C)=CCC[C@H](C)[C@H]1C=CC(C)=CC1
REMARK SMILES IDX 6 1 7 2 8 3 9 4 13 5 12 6 14 7 11 8 15 9 10 10 5 11 4 12
REMARK SMILES IDX 2 13 1 14 3 15
REMARK H PARENT
REMARK Flexibility Score: inf
ROOT
ATOM      1  C   UNL     1      30.742  25.695  10.653  1.00  0.00     0.008 C 
ENDROOT
BRANCH   1   2
ATOM      2  C   UNL     1      29.757  24.652  11.249  1.00  0.00    -0.007 C 
ATOM      3  C   UNL     1      28.554  25.384  11.876  1.00  0.00     0.008 C 
BRANCH   2   4
ATOM      4  C   UNL     1      30.435  23.653  12.238  1.00  0.00     0.018 C 
ATOM      5  C   UNL     1      31.693  20.178  14.486  1.00  0.00     0.044 C 
ATOM      6  C   UNL     1      31.156  21.209  13.538  1.00  0.00    -0.055 C 
ATOM      7  C   UNL     1      31.907  21.642  12.511  1.00  0.00    -0.023 C 
ATOM      8  C   UNL     1      29.826  21.816  13.783  1.00  0.00    -0.001 C 
ATOM      9  C   UNL     1      31.346  22.629  11.521  1.00  0.00     0.035 C 
ATOM     10  C   UNL     1      29.454  22.928  13.139  1.00  0.00    -0.023 C 
ENDBRANCH   2   4
ENDBRANCH   1   2
BRANCH   1  11
ATOM     11  C   UNL     1      31.238  26.748  11.663  1.00  0.00     0.027 C 
BRANCH  11  12
ATOM     12  C   UNL     1      31.230  28.149  11.094  1.00  0.00    -0.028 C 
ATOM     13  C   UNL     1      30.420  29.127  11.551  1.00  0.00    -0.080 C 
ATOM     14  C   UNL     1      29.454  28.887  12.685  1.00  0.00     0.039 C 
ATOM     15  C   UNL     1      30.490  30.485  10.903  1.00  0.00     0.039 C 
ENDBRANCH  11  12
ENDBRANCH   1  11
TORSDOF 4
ENDMDL
MODEL 6
REMARK VINA RESULT:    -5.091      1.028      6.832
REMARK INTER + INTRA:          -6.920
REMARK INTER:                  -6.304
REMARK INTRA:                  -0.615
REMARK UNBOUND:                -0.638
REMARK SMILES CC(C)=CCC[C@H](C)[C@H]1C=CC(C)=CC1
REMARK SMILES IDX 6 1 7 2 8 3 9 4 13 5 12 6 14 7 11 8 15 9 10 10 5 11 4 12
REMARK SMILES IDX 2 13 1 14 3 15
REMARK H PARENT
REMARK Flexibility Score: inf
ROOT
ATOM      1  C   UNL     1      29.615  24.847  10.911  1.00  0.00     0.008 C 
ENDROOT
BRANCH   1   2
ATOM      2  C   UNL     1      31.080  24.425  11.209  1.00  0.00    -0.007 C 
ATOM      3  C   UNL     1      31.810  24.134   9.883  1.00  0.00     0.008 C 
BRANCH   2   4
ATOM      4  C   UNL     1      31.191  23.246  12.227  1.00  0.00     0.018 C 
ATOM      5  C   UNL     1      30.673  19.601  14.497  1.00  0.00     0.044 C 
ATOM      6  C   UNL     1      30.700  20.748  13.531  1.00  0.00    -0.055 C 
ATOM      7  C   UNL     1      31.639  20.804  12.571  1.00  0.00    -0.023 C 
ATOM      8  C   UNL     1      29.743  21.869  13.689  1.00  0.00    -0.001 C 
ATOM      9  C   UNL     1      31.629  21.921  11.561  1.00  0.00     0.035 C 
ATOM     10  C   UNL     1      29.930  23.023  13.040  1.00  0.00    -0.023 C 
ENDBRANCH   2   4
ENDBRANCH   1   2
BRANCH   1  11
ATOM     11  C   UNL     1      29.231  26.235  11.460  1.00  0.00     0.027 C 
BRANCH  11  12
ATOM     12  C   UNL     1      30.060  27.348  10.859  1.00  0.00    -0.028 C 
ATOM     13  C   UNL     1      30.163  28.574  11.414  1.00  0.00    -0.080 C 
ATOM     14  C   UNL     1      29.451  28.923  12.697  1.00  0.00     0.039 C 
ATOM     15  C   UNL     1      31.011  29.610  10.723  1.00  0.00     0.039 C 
ENDBRANCH  11  12
ENDBRANCH   1  11
TORSDOF 4
ENDMDL
MODEL 7
REMARK VINA RESULT:    -4.856      1.375      2.232
REMARK INTER + INTRA:          -6.629
REMARK INTER:                  -5.944
REMARK INTRA:                  -0.685
REMARK UNBOUND:                -0.638
REMARK SMILES CC(C)=CCC[C@H](C)[C@H]1C=CC(C)=CC1
REMARK SMILES IDX 6 1 7 2 8 3 9 4 13 5 12 6 14 7 11 8 15 9 10 10 5 11 4 12
REMARK SMILES IDX 2 13 1 14 3 15
REMARK H PARENT
REMARK Flexibility Score: inf
ROOT
ATOM      1  C   UNL     1      31.731  25.026  12.460  1.00  0.00     0.008 C 
ENDROOT
BRANCH   1   2
ATOM      2  C   UNL     1      30.558  25.951  12.032  1.00  0.00    -0.007 C 
ATOM      3  C   UNL     1      29.832  25.330  10.823  1.00  0.00     0.008 C 
BRANCH   2   4
ATOM      4  C   UNL     1      30.994  27.428  11.777  1.00  0.00     0.018 C 
ATOM      5  C   UNL     1      31.664  31.386  10.165  1.00  0.00     0.044 C 
ATOM      6  C   UNL     1      31.244  29.996  10.541  1.00  0.00    -0.055 C 
ATOM      7  C   UNL     1      30.269  29.804  11.446  1.00  0.00    -0.023 C 
ATOM      8  C   UNL     1      31.966  28.829   9.981  1.00  0.00    -0.001 C 
ATOM      9  C   UNL     1      29.801  28.411  11.777  1.00  0.00     0.035 C 
ATOM     10  C   UNL     1      31.814  27.611  10.514  1.00  0.00    -0.023 C 
ENDBRANCH   2   4
ENDBRANCH   1   2
BRANCH   1  11
ATOM     11  C   UNL     1      31.576  24.415  13.867  1.00  0.00     0.027 C 
BRANCH  11  12
ATOM     12  C   UNL     1      31.420  22.912  13.833  1.00  0.00    -0.028 C 
ATOM     13  C   UNL     1      30.224  22.295  13.740  1.00  0.00    -0.080 C 
ATOM     14  C   UNL     1      28.936  23.077  13.655  1.00  0.00     0.039 C 
ATOM     15  C   UNL     1      30.186  20.789  13.724  1.00  0.00     0.039 C 
ENDBRANCH  11  12
ENDBRANCH   1  11
TORSDOF 4
ENDMDL
MODEL 8
REMARK VINA RESULT:    -4.634      1.676      5.577
REMARK INTER + INTRA:          -6.355
REMARK INTER:                  -4.930
REMARK INTRA:                  -1.425
REMARK UNBOUND:                -0.638
REMARK SMILES CC(C)=CCC[C@H](C)[C@H]1C=CC(C)=CC1
REMARK SMILES IDX 6 1 7 2 8 3 9 4 13 5 12 6 14 7 11 8 15 9 10 10 5 11 4 12
REMARK SMILES IDX 2 13 1 14 3 15
REMARK H PARENT
REMARK Flexibility Score: inf
ROOT
ATOM      1  C   UNL     1      31.129  26.342  12.126  1.00  0.00     0.008 C 
ENDROOT
BRANCH   1   2
ATOM      2  C   UNL     1      32.125  25.290  11.564  1.00  0.00    -0.007 C 
ATOM      3  C   UNL     1      31.896  25.126  10.049  1.00  0.00     0.008 C 
BRANCH   2   4
ATOM      4  C   UNL     1      32.085  23.929  12.328  1.00  0.00     0.018 C 
ATOM      5  C   UNL     1      30.933  20.237  14.265  1.00  0.00     0.044 C 
ATOM      6  C   UNL     1      31.093  21.509  13.486  1.00  0.00    -0.055 C 
ATOM      7  C   UNL     1      31.563  21.479  12.228  1.00  0.00    -0.023 C 
ATOM      8  C   UNL     1      30.815  22.812  14.136  1.00  0.00    -0.001 C 
ATOM      9  C   UNL     1      31.663  22.748  11.423  1.00  0.00     0.035 C 
ATOM     10  C   UNL     1      31.224  23.956  13.576  1.00  0.00    -0.023 C 
ENDBRANCH   2   4
ENDBRANCH   1   2
BRANCH   1  11
ATOM     11  C   UNL     1      29.788  26.412  11.370  1.00  0.00     0.027 C 
BRANCH  11  12
ATOM     12  C   UNL     1      28.644  25.814  12.158  1.00  0.00    -0.028 C 
ATOM     13  C   UNL     1      28.101  24.611  11.875  1.00  0.00    -0.080 C 
ATOM     14  C   UNL     1      28.612  23.763  10.737  1.00  0.00     0.039 C 
ATOM     15  C   UNL     1      26.958  24.117  12.723  1.00  0.00     0.039 C 
ENDBRANCH  11  12
ENDBRANCH   1  11
TORSDOF 4
ENDMDL
MODEL 9
REMARK VINA RESULT:    -4.310      1.802      5.144
REMARK INTER + INTRA:          -5.955
REMARK INTER:                  -4.907
REMARK INTRA:                  -1.048
REMARK UNBOUND:                -0.638
REMARK SMILES CC(C)=CCC[C@H](C)[C@H]1C=CC(C)=CC1
REMARK SMILES IDX 6 1 7 2 8 3 9 4 13 5 12 6 14 7 11 8 15 9 10 10 5 11 4 12
REMARK SMILES IDX 2 13 1 14 3 15
REMARK H PARENT
REMARK Flexibility Score: inf
ROOT
ATOM      1  C   UNL     1      29.723  26.959  10.902  1.00  0.00     0.008 C 
ENDROOT
BRANCH   1   2
ATOM      2  C   UNL     1      31.246  26.838  11.185  1.00  0.00    -0.007 C 
ATOM      3  C   UNL     1      32.031  27.602  10.101  1.00  0.00     0.008 C 
BRANCH   2   4
ATOM      4  C   UNL     1      31.731  25.363  11.350  1.00  0.00     0.018 C 
ATOM      5  C   UNL     1      32.123  21.153  12.261  1.00  0.00     0.044 C 
ATOM      6  C   UNL     1      31.731  22.575  11.990  1.00  0.00    -0.055 C 
ATOM      7  C   UNL     1      31.371  22.955  10.753  1.00  0.00    -0.023 C 
ATOM      8  C   UNL     1      31.826  23.586  13.071  1.00  0.00    -0.001 C 
ATOM      9  C   UNL     1      30.915  24.367  10.493  1.00  0.00     0.035 C 
ATOM     10  C   UNL     1      31.770  24.892  12.791  1.00  0.00    -0.023 C 
ENDBRANCH   2   4
ENDBRANCH   1   2
BRANCH   1  11
ATOM     11  C   UNL     1      28.823  26.462  12.050  1.00  0.00     0.027 C 
BRANCH  11  12
ATOM     12  C   UNL     1      27.777  25.475  11.584  1.00  0.00    -0.028 C 
ATOM     13  C   UNL     1      27.560  24.288  12.188  1.00  0.00    -0.080 C 
ATOM     14  C   UNL     1      28.357  23.859  13.396  1.00  0.00     0.039 C 
ATOM     15  C   UNL     1      26.497  23.378  11.631  1.00  0.00     0.039 C 
ENDBRANCH  11  12
ENDBRANCH   1  11
TORSDOF 4
ENDMDL
