MODEL 1
REMARK VINA RESULT:    -3.465      0.000      0.000
REMARK INTER + INTRA:          -4.115
REMARK INTER:                  -4.073
REMARK INTRA:                  -0.041
REMARK UNBOUND:                -0.041
REMARK SMILES O=C([O-])CCC(=O)[O-]
REMARK SMILES IDX 4 1 2 2 1 3 3 4 5 5 6 6 7 7 8 8
REMARK H PARENT
REMARK Flexibility Score: inf
ROOT
ATOM      1  C   UNL     1      23.750 -15.084  12.584  1.00  0.00     0.059 C 
ENDROOT
BRANCH   1   2
ATOM      2  C   UNL     1      23.241 -15.862  11.409  1.00  0.00     0.042 C 
ATOM      3  O   UNL     1      23.510 -17.088  11.296  1.00  0.00    -0.550 OA
ATOM      4  O   UNL     1      22.436 -15.244  10.462  1.00  0.00    -0.550 OA
ENDBRANCH   1   2
BRANCH   1   5
ATOM      5  C   UNL     1      23.212 -15.642  13.905  1.00  0.00     0.059 C 
BRANCH   5   6
ATOM      6  C   UNL     1      24.182 -15.434  15.028  1.00  0.00     0.042 C 
ATOM      7  O   UNL     1      24.029 -16.042  16.119  1.00  0.00    -0.550 OA
ATOM      8  O   UNL     1      25.278 -14.599  14.853  1.00  0.00    -0.550 OA
ENDBRANCH   5   6
ENDBRANCH   1   5
TORSDOF 3
ENDMDL
MODEL 2
REMARK VINA RESULT:    -3.428      0.081      4.145
REMARK INTER + INTRA:          -4.071
REMARK INTER:                  -4.026
REMARK INTRA:                  -0.044
REMARK UNBOUND:                -0.041
REMARK SMILES O=C([O-])CCC(=O)[O-]
REMARK SMILES IDX 4 1 2 2 1 3 3 4 5 5 6 6 7 7 8 8
REMARK H PARENT
REMARK Flexibility Score: inf
ROOT
ATOM      1  C   UNL     1      23.171 -15.698  13.859  1.00  0.00     0.059 C 
ENDROOT
BRANCH   1   2
ATOM      2  C   UNL     1      24.134 -15.440  14.977  1.00  0.00     0.042 C 
ATOM      3  O   UNL     1      24.003 -16.037  16.079  1.00  0.00    -0.550 OA
ATOM      4  O   UNL     1      25.201 -14.572  14.789  1.00  0.00    -0.550 OA
ENDBRANCH   1   2
BRANCH   1   5
ATOM      5  C   UNL     1      23.651 -15.072  12.546  1.00  0.00     0.059 C 
BRANCH   5   6
ATOM      6  C   UNL     1      23.219 -15.876  11.359  1.00  0.00     0.042 C 
ATOM      7  O   UNL     1      23.512 -17.098  11.281  1.00  0.00    -0.550 OA
ATOM      8  O   UNL     1      22.457 -15.285  10.359  1.00  0.00    -0.550 OA
ENDBRANCH   5   6
ENDBRANCH   1   5
TORSDOF 3
ENDMDL
MODEL 3
REMARK VINA RESULT:    -3.168     14.311     15.618
REMARK INTER + INTRA:          -3.765
REMARK INTER:                  -3.676
REMARK INTRA:                  -0.089
REMARK UNBOUND:                -0.041
REMARK SMILES O=C([O-])CCC(=O)[O-]
REMARK SMILES IDX 4 1 2 2 1 3 3 4 5 5 6 6 7 7 8 8
REMARK H PARENT
REMARK Flexibility Score: inf
ROOT
ATOM      1  C   UNL     1      24.390 -13.555  -1.371  1.00  0.00     0.059 C 
ENDROOT
BRANCH   1   2
ATOM      2  C   UNL     1      25.860 -13.687  -1.114  1.00  0.00     0.042 C 
ATOM      3  O   UNL     1      26.341 -13.358   0.003  1.00  0.00    -0.550 OA
ATOM      4  O   UNL     1      26.692 -14.211  -2.094  1.00  0.00    -0.550 OA
ENDBRANCH   1   2
BRANCH   1   5
ATOM      5  C   UNL     1      24.006 -14.112  -2.746  1.00  0.00     0.059 C 
BRANCH   5   6
ATOM      6  C   UNL     1      23.426 -15.489  -2.641  1.00  0.00     0.042 C 
ATOM      7  O   UNL     1      22.640 -15.776  -1.701  1.00  0.00    -0.550 OA
ATOM      8  O   UNL     1      23.722 -16.443  -3.607  1.00  0.00    -0.550 OA
ENDBRANCH   5   6
ENDBRANCH   1   5
TORSDOF 3
ENDMDL
MODEL 4
REMARK VINA RESULT:    -3.165     14.225     15.232
REMARK INTER + INTRA:          -3.761
REMARK INTER:                  -3.673
REMARK INTRA:                  -0.088
REMARK UNBOUND:                -0.041
REMARK SMILES O=C([O-])CCC(=O)[O-]
REMARK SMILES IDX 4 1 2 2 1 3 3 4 5 5 6 6 7 7 8 8
REMARK H PARENT
REMARK Flexibility Score: inf
ROOT
ATOM      1  C   UNL     1      24.011 -13.841  -2.576  1.00  0.00     0.059 C 
ENDROOT
BRANCH   1   2
ATOM      2  C   UNL     1      23.528 -15.256  -2.665  1.00  0.00     0.042 C 
ATOM      3  O   UNL     1      23.967 -16.022  -3.565  1.00  0.00    -0.550 OA
ATOM      4  O   UNL     1      22.624 -15.742  -1.730  1.00  0.00    -0.550 OA
ENDBRANCH   1   2
BRANCH   1   5
ATOM      5  C   UNL     1      24.478 -13.493  -1.159  1.00  0.00     0.059 C 
BRANCH   5   6
ATOM      6  C   UNL     1      25.957 -13.669  -1.006  1.00  0.00     0.042 C 
ATOM      7  O   UNL     1      26.514 -13.428   0.097  1.00  0.00    -0.550 OA
ATOM      8  O   UNL     1      26.715 -14.138  -2.071  1.00  0.00    -0.550 OA
ENDBRANCH   5   6
ENDBRANCH   1   5
TORSDOF 3
ENDMDL
MODEL 5
REMARK VINA RESULT:    -3.102     14.151     15.612
REMARK INTER + INTRA:          -3.687
REMARK INTER:                  -3.600
REMARK INTRA:                  -0.087
REMARK UNBOUND:                -0.041
REMARK SMILES O=C([O-])CCC(=O)[O-]
REMARK SMILES IDX 4 1 2 2 1 3 3 4 5 5 6 6 7 7 8 8
REMARK H PARENT
REMARK Flexibility Score: inf
ROOT
ATOM      1  C   UNL     1      24.588 -13.491  -1.194  1.00  0.00     0.059 C 
ENDROOT
BRANCH   1   2
ATOM      2  C   UNL     1      26.059 -13.668  -0.969  1.00  0.00     0.042 C 
ATOM      3  O   UNL     1      26.808 -14.021  -1.918  1.00  0.00    -0.550 OA
ATOM      4  O   UNL     1      26.608 -13.403   0.279  1.00  0.00    -0.550 OA
ENDBRANCH   1   2
BRANCH   1   5
ATOM      5  C   UNL     1      24.197 -13.814  -2.640  1.00  0.00     0.059 C 
BRANCH   5   6
ATOM      6  C   UNL     1      23.531 -15.152  -2.745  1.00  0.00     0.042 C 
ATOM      7  O   UNL     1      23.707 -15.869  -3.764  1.00  0.00    -0.550 OA
ATOM      8  O   UNL     1      22.748 -15.623  -1.699  1.00  0.00    -0.550 OA
ENDBRANCH   5   6
ENDBRANCH   1   5
TORSDOF 3
ENDMDL
MODEL 6
REMARK VINA RESULT:    -3.008     12.931     14.212
REMARK INTER + INTRA:          -3.577
REMARK INTER:                  -3.517
REMARK INTRA:                  -0.061
REMARK UNBOUND:                -0.041
REMARK SMILES O=C([O-])CCC(=O)[O-]
REMARK SMILES IDX 4 1 2 2 1 3 3 4 5 5 6 6 7 7 8 8
REMARK H PARENT
REMARK Flexibility Score: inf
ROOT
ATOM      1  C   UNL     1      27.495 -13.407   0.356  1.00  0.00     0.059 C 
ENDROOT
BRANCH   1   2
ATOM      2  C   UNL     1      28.269 -14.543   0.952  1.00  0.00     0.042 C 
ATOM      3  O   UNL     1      28.867 -14.397   2.051  1.00  0.00    -0.550 OA
ATOM      4  O   UNL     1      28.298 -15.776   0.313  1.00  0.00    -0.550 OA
ENDBRANCH   1   2
BRANCH   1   5
ATOM      5  C   UNL     1      26.789 -13.825  -0.938  1.00  0.00     0.059 C 
BRANCH   5   6
ATOM      6  C   UNL     1      25.350 -13.410  -0.941  1.00  0.00     0.042 C 
ATOM      7  O   UNL     1      24.885 -12.728   0.009  1.00  0.00    -0.550 OA
ATOM      8  O   UNL     1      24.533 -13.742  -2.014  1.00  0.00    -0.550 OA
ENDBRANCH   5   6
ENDBRANCH   1   5
TORSDOF 3
ENDMDL
MODEL 7
REMARK VINA RESULT:    -2.999     12.965     13.914
REMARK INTER + INTRA:          -3.566
REMARK INTER:                  -3.512
REMARK INTRA:                  -0.054
REMARK UNBOUND:                -0.041
REMARK SMILES O=C([O-])CCC(=O)[O-]
REMARK SMILES IDX 4 1 2 2 1 3 3 4 5 5 6 6 7 7 8 8
REMARK H PARENT
REMARK Flexibility Score: inf
ROOT
ATOM      1  C   UNL     1      26.786 -13.851  -1.012  1.00  0.00     0.059 C 
ENDROOT
BRANCH   1   2
ATOM      2  C   UNL     1      25.344 -13.451  -1.067  1.00  0.00     0.042 C 
ATOM      3  O   UNL     1      24.630 -13.781  -2.051  1.00  0.00    -0.550 OA
ATOM      4  O   UNL     1      24.777 -12.749  -0.011  1.00  0.00    -0.550 OA
ENDBRANCH   1   2
BRANCH   1   5
ATOM      5  C   UNL     1      27.424 -13.478   0.330  1.00  0.00     0.059 C 
BRANCH   5   6
ATOM      6  C   UNL     1      28.252 -14.599   0.879  1.00  0.00     0.042 C 
ATOM      7  O   UNL     1      28.806 -14.487   2.003  1.00  0.00    -0.550 OA
ATOM      8  O   UNL     1      28.378 -15.784   0.164  1.00  0.00    -0.550 OA
ENDBRANCH   5   6
ENDBRANCH   1   5
TORSDOF 3
ENDMDL
MODEL 8
REMARK VINA RESULT:    -2.831     14.112     15.182
REMARK INTER + INTRA:          -3.369
REMARK INTER:                  -3.340
REMARK INTRA:                  -0.029
REMARK UNBOUND:                -0.041
REMARK SMILES O=C([O-])CCC(=O)[O-]
REMARK SMILES IDX 4 1 2 2 1 3 3 4 5 5 6 6 7 7 8 8
REMARK H PARENT
REMARK Flexibility Score: inf
ROOT
ATOM      1  C   UNL     1      24.987 -13.479  -1.429  1.00  0.00     0.059 C 
ENDROOT
BRANCH   1   2
ATOM      2  C   UNL     1      23.920 -13.913  -2.386  1.00  0.00     0.042 C 
ATOM      3  O   UNL     1      23.537 -13.139  -3.303  1.00  0.00    -0.550 OA
ATOM      4  O   UNL     1      23.378 -15.188  -2.291  1.00  0.00    -0.550 OA
ENDBRANCH   1   2
BRANCH   1   5
ATOM      5  C   UNL     1      26.349 -14.082  -1.791  1.00  0.00     0.059 C 
BRANCH   5   6
ATOM      6  C   UNL     1      27.399 -13.716  -0.788  1.00  0.00     0.042 C 
ATOM      7  O   UNL     1      28.572 -13.457  -1.164  1.00  0.00    -0.550 OA
ATOM      8  O   UNL     1      27.071 -13.620   0.559  1.00  0.00    -0.550 OA
ENDBRANCH   5   6
ENDBRANCH   1   5
TORSDOF 3
ENDMDL
MODEL 9
REMARK VINA RESULT:    -2.625     13.717     14.360
REMARK INTER + INTRA:          -3.127
REMARK INTER:                  -3.043
REMARK INTRA:                  -0.084
REMARK UNBOUND:                -0.041
REMARK SMILES O=C([O-])CCC(=O)[O-]
REMARK SMILES IDX 4 1 2 2 1 3 3 4 5 5 6 6 7 7 8 8
REMARK H PARENT
REMARK Flexibility Score: inf
ROOT
ATOM      1  C   UNL     1      28.280 -15.149   0.764  1.00  0.00     0.059 C 
ENDROOT
BRANCH   1   2
ATOM      2  C   UNL     1      29.778 -15.107   0.769  1.00  0.00     0.042 C 
ATOM      3  O   UNL     1      30.443 -16.175   0.701  1.00  0.00    -0.550 OA
ATOM      4  O   UNL     1      30.439 -13.887   0.807  1.00  0.00    -0.550 OA
ENDBRANCH   1   2
BRANCH   1   5
ATOM      5  C   UNL     1      27.678 -13.741   0.703  1.00  0.00     0.059 C 
BRANCH   5   6
ATOM      6  C   UNL     1      26.798 -13.569  -0.497  1.00  0.00     0.042 C 
ATOM      7  O   UNL     1      27.210 -13.901  -1.639  1.00  0.00    -0.550 OA
ATOM      8  O   UNL     1      25.506 -13.080  -0.347  1.00  0.00    -0.550 OA
ENDBRANCH   5   6
ENDBRANCH   1   5
TORSDOF 3
ENDMDL
