MODEL 1
REMARK VINA RESULT:    -4.791      0.000      0.000
REMARK INTER + INTRA:          -6.958
REMARK INTER:                  -7.311
REMARK INTRA:                   0.354
REMARK UNBOUND:                 0.354
REMARK SMILES CC1=CCC[C@H](C)C(=O)C[C@H](C(C)C)C(=O)C1
REMARK SMILES IDX 8 1 9 2 6 3 7 4 5 5 4 6 3 7 2 8 1 9 10 11 11 12 15 13 16 14
REMARK SMILES IDX 17 15 12 17 13 18 14 19
REMARK H PARENT
REMARK Flexibility Score: 70.00
ROOT
ATOM      1  C   UNL     1     -11.013 -15.896  30.945  1.00  0.00     0.136 C 
ATOM      2  O   UNL     1      -9.880 -15.438  30.967  1.00  0.00    -0.299 OA
ENDROOT
BRANCH   1   3
ATOM      3  C   UNL     1     -11.622 -16.371  32.253  1.00  0.00     0.053 C 
ATOM      4  C   UNL     1     -10.814 -15.932  33.483  1.00  0.00     0.016 C 
BRANCH   3   5
ATOM      5  C   UNL     1     -13.135 -16.063  32.338  1.00  0.00     0.015 C 
BRANCH   5   6
ATOM      6  C   UNL     1     -14.066 -17.158  31.781  1.00  0.00     0.028 C 
BRANCH   6   7
ATOM      7  C   UNL     1     -13.589 -18.524  32.198  1.00  0.00    -0.028 C 
ATOM      8  C   UNL     1     -12.955 -19.395  31.381  1.00  0.00    -0.070 CG0
ATOM      9  C   UNL     1     -12.462 -20.691  31.974  1.00  0.00     0.039 C 
ATOM     10  G   UNL     1     -12.738 -19.134  29.899  1.00  0.00     0.000 G0
ENDBRANCH   6   7
ENDBRANCH   5   6
ENDBRANCH   3   5
ENDBRANCH   1   3
BRANCH   1  11
ATOM     11  C   UNL     1     -11.738 -15.947  29.616  1.00  0.00     0.087 C 
BRANCH  11  12
ATOM     12  C   UNL     1     -11.334 -17.189  28.777  1.00  0.00     0.066 C 
BRANCH  12  13
ATOM     13  C   UNL     1     -11.410 -18.453  29.627  1.00  0.00     0.140 C 
ATOM     14  O   UNL     1     -10.372 -18.943  30.049  1.00  0.00    -0.299 OA
BRANCH  13  15
ATOM     15  C   UNL     1     -12.723 -19.159  29.889  1.00  0.00     0.106 CG0
ATOM     16  G   UNL     1     -12.987 -19.387  31.370  1.00  0.00     0.000 G0
ENDBRANCH  13  15
ENDBRANCH  12  13
BRANCH  12  17
ATOM     17  C   UNL     1     -12.157 -17.340  27.455  1.00  0.00    -0.006 C 
ATOM     18  C   UNL     1     -13.184 -16.210  27.263  1.00  0.00     0.008 C 
ATOM     19  C   UNL     1     -11.226 -17.370  26.227  1.00  0.00     0.008 C 
ENDBRANCH  12  17
ENDBRANCH  11  12
ENDBRANCH   1  11
TORSDOF 1
ENDMDL
MODEL 2
REMARK VINA RESULT:    -4.604      1.925      3.755
REMARK INTER + INTRA:          -6.672
REMARK INTER:                  -6.644
REMARK INTRA:                  -0.028
REMARK UNBOUND:                 0.354
REMARK SMILES CC1=CCC[C@H](C)C(=O)C[C@H](C(C)C)C(=O)C1
REMARK SMILES IDX 8 1 9 2 6 3 7 4 5 5 4 6 3 7 2 8 1 9 10 11 11 12 15 13 16 14
REMARK SMILES IDX 17 15 12 17 13 18 14 19
REMARK H PARENT
REMARK Flexibility Score: 70.00
ROOT
ATOM      1  C   UNL     1     -13.035 -19.173  29.441  1.00  0.00     0.136 C 
ATOM      2  O   UNL     1     -13.988 -19.236  28.678  1.00  0.00    -0.299 OA
ENDROOT
BRANCH   1   3
ATOM      3  C   UNL     1     -13.189 -19.763  30.833  1.00  0.00     0.053 C 
ATOM      4  C   UNL     1     -12.495 -21.124  30.986  1.00  0.00     0.016 C 
BRANCH   3   5
ATOM      5  C   UNL     1     -12.845 -18.741  31.941  1.00  0.00     0.015 C 
BRANCH   5   6
ATOM      6  C   UNL     1     -11.387 -18.774  32.442  1.00  0.00     0.028 C 
BRANCH   6   7
ATOM      7  C   UNL     1     -10.920 -17.391  32.808  1.00  0.00    -0.028 C 
ATOM      8  C   UNL     1     -10.317 -16.535  31.952  1.00  0.00    -0.070 CG0
ATOM      9  C   UNL     1      -9.986 -15.151  32.449  1.00  0.00     0.039 C 
ATOM     10  G   UNL     1      -9.942 -16.916  30.527  1.00  0.00     0.000 G0
ENDBRANCH   6   7
ENDBRANCH   5   6
ENDBRANCH   3   5
ENDBRANCH   1   3
BRANCH   1  11
ATOM     11  C   UNL     1     -11.762 -18.522  28.943  1.00  0.00     0.087 C 
BRANCH  11  12
ATOM     12  C   UNL     1     -11.921 -16.989  28.764  1.00  0.00     0.066 C 
BRANCH  12  13
ATOM     13  C   UNL     1     -10.799 -16.250  29.485  1.00  0.00     0.140 C 
ATOM     14  O   UNL     1     -10.546 -15.099  29.158  1.00  0.00    -0.299 OA
BRANCH  13  15
ATOM     15  C   UNL     1      -9.940 -16.928  30.531  1.00  0.00     0.106 CG0
ATOM     16  G   UNL     1     -10.315 -16.535  31.951  1.00  0.00     0.000 G0
ENDBRANCH  13  15
ENDBRANCH  12  13
BRANCH  12  17
ATOM     17  C   UNL     1     -12.025 -16.546  27.266  1.00  0.00    -0.006 C 
ATOM     18  C   UNL     1     -11.179 -17.426  26.328  1.00  0.00     0.008 C 
ATOM     19  C   UNL     1     -13.488 -16.579  26.783  1.00  0.00     0.008 C 
ENDBRANCH  12  17
ENDBRANCH  11  12
ENDBRANCH   1  11
TORSDOF 1
ENDMDL
MODEL 3
REMARK VINA RESULT:    -4.505      1.754      3.861
REMARK INTER + INTRA:          -6.521
REMARK INTER:                  -6.516
REMARK INTRA:                  -0.006
REMARK UNBOUND:                 0.354
REMARK SMILES CC1=CCC[C@H](C)C(=O)C[C@H](C(C)C)C(=O)C1
REMARK SMILES IDX 8 1 9 2 6 3 7 4 5 5 4 6 3 7 2 8 1 9 10 11 11 12 15 13 16 14
REMARK SMILES IDX 17 15 12 17 13 18 14 19
REMARK H PARENT
REMARK Flexibility Score: 70.00
ROOT
ATOM      1  C   UNL     1     -13.185 -15.839  28.296  1.00  0.00     0.136 C 
ATOM      2  O   UNL     1     -13.960 -15.032  27.802  1.00  0.00    -0.299 OA
ENDROOT
BRANCH   1   3
ATOM      3  C   UNL     1     -12.927 -17.136  27.549  1.00  0.00     0.053 C 
ATOM      4  C   UNL     1     -11.433 -17.409  27.322  1.00  0.00     0.016 C 
BRANCH   3   5
ATOM      5  C   UNL     1     -13.709 -18.325  28.155  1.00  0.00     0.015 C 
BRANCH   5   6
ATOM      6  C   UNL     1     -12.908 -19.633  28.312  1.00  0.00     0.028 C 
BRANCH   6   7
ATOM      7  C   UNL     1     -12.989 -20.138  29.727  1.00  0.00    -0.028 C 
ATOM      8  C   UNL     1     -12.263 -19.648  30.758  1.00  0.00    -0.070 CG0
ATOM      9  C   UNL     1     -12.522 -20.204  32.135  1.00  0.00     0.039 C 
ATOM     10  G   UNL     1     -11.191 -18.583  30.583  1.00  0.00     0.000 G0
ENDBRANCH   6   7
ENDBRANCH   5   6
ENDBRANCH   3   5
ENDBRANCH   1   3
BRANCH   1  11
ATOM     11  C   UNL     1     -12.525 -15.485  29.613  1.00  0.00     0.087 C 
BRANCH  11  12
ATOM     12  C   UNL     1     -12.864 -16.508  30.729  1.00  0.00     0.066 C 
BRANCH  12  13
ATOM     13  C   UNL     1     -11.603 -17.233  31.187  1.00  0.00     0.140 C 
ATOM     14  O   UNL     1     -10.869 -16.685  31.998  1.00  0.00    -0.299 OA
BRANCH  13  15
ATOM     15  C   UNL     1     -11.194 -18.568  30.602  1.00  0.00     0.106 CG0
ATOM     16  G   UNL     1     -12.263 -19.637  30.766  1.00  0.00     0.000 G0
ENDBRANCH  13  15
ENDBRANCH  12  13
BRANCH  12  17
ATOM     17  C   UNL     1     -13.630 -15.877  31.939  1.00  0.00    -0.006 C 
ATOM     18  C   UNL     1     -14.665 -14.824  31.502  1.00  0.00     0.008 C 
ATOM     19  C   UNL     1     -14.352 -16.962  32.761  1.00  0.00     0.008 C 
ENDBRANCH  12  17
ENDBRANCH  11  12
ENDBRANCH   1  11
TORSDOF 1
ENDMDL
MODEL 4
REMARK VINA RESULT:    -4.409      1.606      3.649
REMARK INTER + INTRA:          -6.375
REMARK INTER:                  -6.135
REMARK INTRA:                  -0.240
REMARK UNBOUND:                 0.354
REMARK SMILES CC1=CCC[C@H](C)C(=O)C[C@H](C(C)C)C(=O)C1
REMARK SMILES IDX 8 1 9 2 6 3 7 4 5 5 4 6 3 7 2 8 1 9 10 11 11 12 15 13 16 14
REMARK SMILES IDX 17 15 12 17 13 18 14 19
REMARK H PARENT
REMARK Flexibility Score: 70.00
ROOT
ATOM      1  C   UNL     1     -12.092 -18.863  28.996  1.00  0.00     0.136 C 
ATOM      2  O   UNL     1     -10.989 -19.235  29.371  1.00  0.00    -0.299 OA
ENDROOT
BRANCH   1   3
ATOM      3  C   UNL     1     -13.314 -19.589  29.532  1.00  0.00     0.053 C 
ATOM      4  C   UNL     1     -13.659 -20.852  28.731  1.00  0.00     0.016 C 
BRANCH   3   5
ATOM      5  C   UNL     1     -13.243 -19.801  31.062  1.00  0.00     0.015 C 
BRANCH   5   6
ATOM      6  C   UNL     1     -13.492 -18.544  31.918  1.00  0.00     0.028 C 
BRANCH   6   7
ATOM      7  C   UNL     1     -12.191 -17.979  32.423  1.00  0.00    -0.028 C 
ATOM      8  C   UNL     1     -11.741 -16.733  32.151  1.00  0.00    -0.070 CG0
ATOM      9  C   UNL     1     -10.458 -16.285  32.803  1.00  0.00     0.039 C 
ATOM     10  G   UNL     1     -12.459 -15.780  31.206  1.00  0.00     0.000 G0
ENDBRANCH   6   7
ENDBRANCH   5   6
ENDBRANCH   3   5
ENDBRANCH   1   3
BRANCH   1  11
ATOM     11  C   UNL     1     -12.166 -17.697  28.033  1.00  0.00     0.087 C 
BRANCH  11  12
ATOM     12  C   UNL     1     -12.853 -16.458  28.666  1.00  0.00     0.066 C 
BRANCH  12  13
ATOM     13  C   UNL     1     -11.977 -15.868  29.766  1.00  0.00     0.140 C 
ATOM     14  O   UNL     1     -10.834 -15.530  29.493  1.00  0.00    -0.299 OA
BRANCH  13  15
ATOM     15  C   UNL     1     -12.456 -15.771  31.199  1.00  0.00     0.106 CG0
ATOM     16  G   UNL     1     -11.740 -16.738  32.129  1.00  0.00     0.000 G0
ENDBRANCH  13  15
ENDBRANCH  12  13
BRANCH  12  17
ATOM     17  C   UNL     1     -13.261 -15.371  27.618  1.00  0.00    -0.006 C 
ATOM     18  C   UNL     1     -13.978 -15.967  26.393  1.00  0.00     0.008 C 
ATOM     19  C   UNL     1     -14.180 -14.310  28.254  1.00  0.00     0.008 C 
ENDBRANCH  12  17
ENDBRANCH  11  12
ENDBRANCH   1  11
TORSDOF 1
ENDMDL
MODEL 5
REMARK VINA RESULT:    -4.340      1.994      4.603
REMARK INTER + INTRA:          -6.270
REMARK INTER:                  -6.496
REMARK INTRA:                   0.226
REMARK UNBOUND:                 0.354
REMARK SMILES CC1=CCC[C@H](C)C(=O)C[C@H](C(C)C)C(=O)C1
REMARK SMILES IDX 8 1 9 2 6 3 7 4 5 5 4 6 3 7 2 8 1 9 10 11 11 12 15 13 16 14
REMARK SMILES IDX 17 15 12 17 13 18 14 19
REMARK H PARENT
REMARK Flexibility Score: 70.00
ROOT
ATOM      1  C   UNL     1     -11.617 -17.692  32.477  1.00  0.00     0.136 C 
ATOM      2  O   UNL     1     -10.900 -16.995  33.179  1.00  0.00    -0.299 OA
ENDROOT
BRANCH   1   3
ATOM      3  C   UNL     1     -10.992 -18.885  31.773  1.00  0.00     0.053 C 
ATOM      4  C   UNL     1     -11.991 -20.024  31.525  1.00  0.00     0.016 C 
BRANCH   3   5
ATOM      5  C   UNL     1     -10.176 -18.467  30.528  1.00  0.00     0.015 C 
BRANCH   5   6
ATOM      6  C   UNL     1     -10.272 -16.977  30.143  1.00  0.00     0.028 C 
BRANCH   6   7
ATOM      7  C   UNL     1     -10.831 -16.823  28.754  1.00  0.00    -0.028 C 
ATOM      8  C   UNL     1     -12.150 -16.817  28.456  1.00  0.00    -0.070 CG0
ATOM      9  C   UNL     1     -12.553 -16.565  27.025  1.00  0.00     0.039 C 
ATOM     10  G   UNL     1     -13.235 -17.072  29.492  1.00  0.00     0.000 G0
ENDBRANCH   6   7
ENDBRANCH   5   6
ENDBRANCH   3   5
ENDBRANCH   1   3
BRANCH   1  11
ATOM     11  C   UNL     1     -13.083 -17.327  32.364  1.00  0.00     0.087 C 
BRANCH  11  12
ATOM     12  C   UNL     1     -13.286 -15.871  31.870  1.00  0.00     0.066 C 
BRANCH  12  13
ATOM     13  C   UNL     1     -13.529 -15.848  30.365  1.00  0.00     0.140 C 
ATOM     14  O   UNL     1     -14.021 -14.848  29.862  1.00  0.00    -0.299 OA
BRANCH  13  15
ATOM     15  C   UNL     1     -13.257 -17.057  29.495  1.00  0.00     0.106 CG0
ATOM     16  G   UNL     1     -12.178 -16.806  28.453  1.00  0.00     0.000 G0
ENDBRANCH  13  15
ENDBRANCH  12  13
BRANCH  12  17
ATOM     17  C   UNL     1     -14.412 -15.104  32.641  1.00  0.00    -0.006 C 
ATOM     18  C   UNL     1     -15.550 -16.032  33.104  1.00  0.00     0.008 C 
ATOM     19  C   UNL     1     -13.839 -14.379  33.874  1.00  0.00     0.008 C 
ENDBRANCH  12  17
ENDBRANCH  11  12
ENDBRANCH   1  11
TORSDOF 1
ENDMDL
MODEL 6
REMARK VINA RESULT:    -4.226      2.054      3.632
REMARK INTER + INTRA:          -6.096
REMARK INTER:                  -5.955
REMARK INTRA:                  -0.142
REMARK UNBOUND:                 0.354
REMARK SMILES CC1=CCC[C@H](C)C(=O)C[C@H](C(C)C)C(=O)C1
REMARK SMILES IDX 8 1 9 2 6 3 7 4 5 5 4 6 3 7 2 8 1 9 10 11 11 12 15 13 16 14
REMARK SMILES IDX 17 15 12 17 13 18 14 19
REMARK H PARENT
REMARK Flexibility Score: 70.00
ROOT
ATOM      1  C   UNL     1     -12.572 -19.108  29.089  1.00  0.00     0.136 C 
ATOM      2  O   UNL     1     -13.486 -19.679  28.511  1.00  0.00    -0.299 OA
ENDROOT
BRANCH   1   3
ATOM      3  C   UNL     1     -12.162 -19.615  30.460  1.00  0.00     0.053 C 
ATOM      4  C   UNL     1     -10.716 -19.250  30.825  1.00  0.00     0.016 C 
BRANCH   3   5
ATOM      5  C   UNL     1     -13.204 -19.265  31.548  1.00  0.00     0.015 C 
BRANCH   5   6
ATOM      6  C   UNL     1     -12.813 -18.110  32.491  1.00  0.00     0.028 C 
BRANCH   6   7
ATOM      7  C   UNL     1     -13.761 -16.951  32.332  1.00  0.00    -0.028 C 
ATOM      8  C   UNL     1     -13.621 -15.969  31.413  1.00  0.00    -0.070 CG0
ATOM      9  C   UNL     1     -14.704 -14.924  31.323  1.00  0.00     0.039 C 
ATOM     10  G   UNL     1     -12.418 -15.865  30.488  1.00  0.00     0.000 G0
ENDBRANCH   6   7
ENDBRANCH   5   6
ENDBRANCH   3   5
ENDBRANCH   1   3
BRANCH   1  11
ATOM     11  C   UNL     1     -11.903 -17.941  28.392  1.00  0.00     0.087 C 
BRANCH  11  12
ATOM     12  C   UNL     1     -12.912 -16.819  28.032  1.00  0.00     0.066 C 
BRANCH  12  13
ATOM     13  C   UNL     1     -12.786 -15.655  29.010  1.00  0.00     0.140 C 
ATOM     14  O   UNL     1     -12.932 -14.515  28.592  1.00  0.00    -0.299 OA
BRANCH  13  15
ATOM     15  C   UNL     1     -12.402 -15.870  30.459  1.00  0.00     0.106 CG0
ATOM     16  G   UNL     1     -13.607 -15.963  31.382  1.00  0.00     0.000 G0
ENDBRANCH  13  15
ENDBRANCH  12  13
BRANCH  12  17
ATOM     17  C   UNL     1     -12.798 -16.332  26.549  1.00  0.00    -0.006 C 
ATOM     18  C   UNL     1     -11.631 -16.995  25.796  1.00  0.00     0.008 C 
ATOM     19  C   UNL     1     -14.101 -16.612  25.776  1.00  0.00     0.008 C 
ENDBRANCH  12  17
ENDBRANCH  11  12
ENDBRANCH   1  11
TORSDOF 1
ENDMDL
MODEL 7
REMARK VINA RESULT:    -4.141      1.954      3.870
REMARK INTER + INTRA:          -5.965
REMARK INTER:                  -6.179
REMARK INTRA:                   0.213
REMARK UNBOUND:                 0.354
REMARK SMILES CC1=CCC[C@H](C)C(=O)C[C@H](C(C)C)C(=O)C1
REMARK SMILES IDX 8 1 9 2 6 3 7 4 5 5 4 6 3 7 2 8 1 9 10 11 11 12 15 13 16 14
REMARK SMILES IDX 17 15 12 17 13 18 14 19
REMARK H PARENT
REMARK Flexibility Score: 70.00
ROOT
ATOM      1  C   UNL     1     -12.349 -15.778  29.167  1.00  0.00     0.136 C 
ATOM      2  O   UNL     1     -13.259 -15.267  28.530  1.00  0.00    -0.299 OA
ENDROOT
BRANCH   1   3
ATOM      3  C   UNL     1     -11.239 -16.477  28.401  1.00  0.00     0.053 C 
ATOM      4  C   UNL     1      -9.888 -16.431  29.130  1.00  0.00     0.016 C 
BRANCH   3   5
ATOM      5  C   UNL     1     -11.658 -17.886  27.921  1.00  0.00     0.015 C 
BRANCH   5   6
ATOM      6  C   UNL     1     -13.026 -18.380  28.432  1.00  0.00     0.028 C 
BRANCH   6   7
ATOM      7  C   UNL     1     -12.872 -19.659  29.211  1.00  0.00    -0.028 C 
ATOM      8  C   UNL     1     -12.496 -19.724  30.508  1.00  0.00    -0.070 CG0
ATOM      9  C   UNL     1     -12.471 -21.078  31.171  1.00  0.00     0.039 C 
ATOM     10  G   UNL     1     -12.081 -18.502  31.313  1.00  0.00     0.000 G0
ENDBRANCH   6   7
ENDBRANCH   5   6
ENDBRANCH   3   5
ENDBRANCH   1   3
BRANCH   1  11
ATOM     11  C   UNL     1     -12.385 -15.670  30.678  1.00  0.00     0.087 C 
BRANCH  11  12
ATOM     12  C   UNL     1     -13.631 -16.367  31.284  1.00  0.00     0.066 C 
BRANCH  12  13
ATOM     13  C   UNL     1     -13.252 -17.725  31.865  1.00  0.00     0.140 C 
ATOM     14  O   UNL     1     -13.879 -18.153  32.824  1.00  0.00    -0.299 OA
BRANCH  13  15
ATOM     15  C   UNL     1     -12.070 -18.514  31.341  1.00  0.00     0.106 CG0
ATOM     16  G   UNL     1     -12.485 -19.723  30.517  1.00  0.00     0.000 G0
ENDBRANCH  13  15
ENDBRANCH  12  13
BRANCH  12  17
ATOM     17  C   UNL     1     -14.385 -15.487  32.337  1.00  0.00    -0.006 C 
ATOM     18  C   UNL     1     -13.435 -14.856  33.371  1.00  0.00     0.008 C 
ATOM     19  C   UNL     1     -15.177 -14.360  31.647  1.00  0.00     0.008 C 
ENDBRANCH  12  17
ENDBRANCH  11  12
ENDBRANCH   1  11
TORSDOF 1
ENDMDL
MODEL 8
REMARK VINA RESULT:    -3.961      1.770      3.746
REMARK INTER + INTRA:          -5.691
REMARK INTER:                  -6.481
REMARK INTRA:                   0.790
REMARK UNBOUND:                 0.354
REMARK SMILES CC1=CCC[C@H](C)C(=O)C[C@H](C(C)C)C(=O)C1
REMARK SMILES IDX 8 1 9 2 6 3 7 4 5 5 4 6 3 7 2 8 1 9 10 11 11 12 15 13 16 14
REMARK SMILES IDX 17 15 12 17 13 18 14 19
REMARK H PARENT
REMARK Flexibility Score: 70.00
ROOT
ATOM      1  C   UNL     1     -12.825 -16.506  32.258  1.00  0.00     0.136 C 
ATOM      2  O   UNL     1     -11.931 -15.831  32.746  1.00  0.00    -0.299 OA
ENDROOT
BRANCH   1   3
ATOM      3  C   UNL     1     -14.093 -15.801  31.808  1.00  0.00     0.053 C 
ATOM      4  C   UNL     1     -14.624 -14.804  32.848  1.00  0.00     0.016 C 
BRANCH   3   5
ATOM      5  C   UNL     1     -13.966 -15.226  30.378  1.00  0.00     0.015 C 
BRANCH   5   6
ATOM      6  C   UNL     1     -12.527 -15.113  29.836  1.00  0.00     0.028 C 
BRANCH   6   7
ATOM      7  C   UNL     1     -12.380 -15.890  28.555  1.00  0.00    -0.028 C 
ATOM      8  C   UNL     1     -11.423 -16.818  28.329  1.00  0.00    -0.070 CG0
ATOM      9  C   UNL     1     -11.462 -17.573  27.025  1.00  0.00     0.039 C 
ATOM     10  G   UNL     1     -10.305 -17.114  29.318  1.00  0.00     0.000 G0
ENDBRANCH   6   7
ENDBRANCH   5   6
ENDBRANCH   3   5
ENDBRANCH   1   3
BRANCH   1  11
ATOM     11  C   UNL     1     -12.604 -17.998  32.123  1.00  0.00     0.087 C 
BRANCH  11  12
ATOM     12  C   UNL     1     -12.195 -18.401  30.681  1.00  0.00     0.066 C 
BRANCH  12  13
ATOM     13  C   UNL     1     -10.728 -18.067  30.432  1.00  0.00     0.140 C 
ATOM     14  O   UNL     1      -9.883 -18.515  31.195  1.00  0.00    -0.299 OA
BRANCH  13  15
ATOM     15  C   UNL     1     -10.301 -17.132  29.321  1.00  0.00     0.106 CG0
ATOM     16  G   UNL     1     -11.416 -16.847  28.326  1.00  0.00     0.000 G0
ENDBRANCH  13  15
ENDBRANCH  12  13
BRANCH  12  17
ATOM     17  C   UNL     1     -12.505 -19.896  30.341  1.00  0.00    -0.006 C 
ATOM     18  C   UNL     1     -12.473 -20.805  31.583  1.00  0.00     0.008 C 
ATOM     19  C   UNL     1     -13.885 -20.033  29.669  1.00  0.00     0.008 C 
ENDBRANCH  12  17
ENDBRANCH  11  12
ENDBRANCH   1  11
TORSDOF 1
ENDMDL
MODEL 9
REMARK VINA RESULT:    -3.785      1.822      4.246
REMARK INTER + INTRA:          -5.423
REMARK INTER:                  -6.121
REMARK INTRA:                   0.698
REMARK UNBOUND:                 0.354
REMARK SMILES CC1=CCC[C@H](C)C(=O)C[C@H](C(C)C)C(=O)C1
REMARK SMILES IDX 8 1 9 2 6 3 7 4 5 5 4 6 3 7 2 8 1 9 10 11 11 12 15 13 16 14
REMARK SMILES IDX 17 15 12 17 13 18 14 19
REMARK H PARENT
REMARK Flexibility Score: 70.00
ROOT
ATOM      1  C   UNL     1     -11.022 -19.129  31.344  1.00  0.00     0.136 C 
ATOM      2  O   UNL     1     -10.739 -19.068  32.532  1.00  0.00    -0.299 OA
ENDROOT
BRANCH   1   3
ATOM      3  C   UNL     1     -12.070 -20.137  30.906  1.00  0.00     0.053 C 
ATOM      4  C   UNL     1     -12.518 -21.067  32.044  1.00  0.00     0.016 C 
BRANCH   3   5
ATOM      5  C   UNL     1     -13.230 -19.474  30.128  1.00  0.00     0.015 C 
BRANCH   5   6
ATOM      6  C   UNL     1     -13.134 -19.564  28.592  1.00  0.00     0.028 C 
BRANCH   6   7
ATOM      7  C   UNL     1     -13.688 -18.319  27.951  1.00  0.00    -0.028 C 
ATOM      8  C   UNL     1     -12.948 -17.238  27.616  1.00  0.00    -0.070 CG0
ATOM      9  C   UNL     1     -13.636 -16.103  26.901  1.00  0.00     0.039 C 
ATOM     10  G   UNL     1     -11.468 -17.111  27.946  1.00  0.00     0.000 G0
ENDBRANCH   6   7
ENDBRANCH   5   6
ENDBRANCH   3   5
ENDBRANCH   1   3
BRANCH   1  11
ATOM     11  C   UNL     1     -10.316 -18.186  30.391  1.00  0.00     0.087 C 
BRANCH  11  12
ATOM     12  C   UNL     1     -10.845 -16.732  30.509  1.00  0.00     0.066 C 
BRANCH  12  13
ATOM     13  C   UNL     1     -11.212 -16.186  29.134  1.00  0.00     0.140 C 
ATOM     14  O   UNL     1     -11.370 -14.980  29.001  1.00  0.00    -0.299 OA
BRANCH  13  15
ATOM     15  C   UNL     1     -11.468 -17.100  27.955  1.00  0.00     0.106 CG0
ATOM     16  G   UNL     1     -12.944 -17.222  27.610  1.00  0.00     0.000 G0
ENDBRANCH  13  15
ENDBRANCH  12  13
BRANCH  12  17
ATOM     17  C   UNL     1     -12.031 -16.582  31.518  1.00  0.00    -0.006 C 
ATOM     18  C   UNL     1     -11.652 -15.754  32.760  1.00  0.00     0.008 C 
ATOM     19  C   UNL     1     -13.249 -15.923  30.843  1.00  0.00     0.008 C 
ENDBRANCH  12  17
ENDBRANCH  11  12
ENDBRANCH   1  11
TORSDOF 1
ENDMDL
