MODEL 1
REMARK VINA RESULT:    -5.234      0.000      0.000
REMARK INTER + INTRA:         -12.857
REMARK INTER:                 -10.129
REMARK INTRA:                  -2.727
REMARK UNBOUND:                -2.727
REMARK SMILES CCCCCCCCCCCCCCCCCC(=O)[O-]
REMARK SMILES IDX 10 1 11 2 12 3 13 4 14 5 15 6 16 7 17 8 18 9 19 10 20 11
REMARK SMILES IDX 9 12 8 13 7 14 6 15 5 16 4 17 3 18 2 19 1 20
REMARK H PARENT
REMARK Flexibility Score: inf
ROOT
ATOM      1  C   UNL     1     138.929 131.015 130.365  1.00  0.00     0.000 C 
ENDROOT
BRANCH   1   2
ATOM      2  C   UNL     1     138.244 131.891 131.430  1.00  0.00     0.000 C 
BRANCH   2   3
ATOM      3  C   UNL     1     138.573 133.385 131.277  1.00  0.00     0.000 C 
BRANCH   3   4
ATOM      4  C   UNL     1     139.878 133.625 130.498  1.00  0.00     0.000 C 
BRANCH   4   5
ATOM      5  C   UNL     1     139.847 134.922 129.674  1.00  0.00     0.000 C 
BRANCH   5   6
ATOM      6  C   UNL     1     139.954 136.151 130.584  1.00  0.00     0.000 C 
BRANCH   6   7
ATOM      7  C   UNL     1     138.927 137.223 130.185  1.00  0.00     0.006 C 
BRANCH   7   8
ATOM      8  C   UNL     1     137.551 136.970 130.812  1.00  0.00     0.053 C 
BRANCH   8   9
ATOM      9  C   UNL     1     136.561 138.026 130.425  1.00  0.00     0.041 C 
ATOM     10  O   UNL     1     135.347 137.731 130.267  1.00  0.00    -0.550 OA
ATOM     11  O   UNL     1     136.986 139.330 130.206  1.00  0.00    -0.550 OA
ENDBRANCH   8   9
ENDBRANCH   7   8
ENDBRANCH   6   7
ENDBRANCH   5   6
ENDBRANCH   4   5
ENDBRANCH   3   4
ENDBRANCH   2   3
ENDBRANCH   1   2
BRANCH   1  12
ATOM     12  C   UNL     1     137.973 130.339 129.365  1.00  0.00     0.000 C 
BRANCH  12  13
ATOM     13  C   UNL     1     138.199 130.798 127.913  1.00  0.00    -0.000 C 
BRANCH  13  14
ATOM     14  C   UNL     1     137.065 131.714 127.408  1.00  0.00    -0.000 C 
BRANCH  14  15
ATOM     15  C   UNL     1     137.110 133.133 128.000  1.00  0.00    -0.000 C 
BRANCH  15  16
ATOM     16  C   UNL     1     135.721 133.786 128.090  1.00  0.00    -0.000 C 
BRANCH  16  17
ATOM     17  C   UNL     1     135.351 134.193 129.524  1.00  0.00    -0.000 C 
BRANCH  17  18
ATOM     18  C   UNL     1     134.222 133.332 130.111  1.00  0.00    -0.000 C 
BRANCH  18  19
ATOM     19  C   UNL     1     134.713 131.908 130.398  1.00  0.00    -0.003 C 
ATOM     20  C   UNL     1     133.859 130.873 129.672  1.00  0.00     0.004 C 
ENDBRANCH  18  19
ENDBRANCH  17  18
ENDBRANCH  16  17
ENDBRANCH  15  16
ENDBRANCH  14  15
ENDBRANCH  13  14
ENDBRANCH  12  13
ENDBRANCH   1  12
TORSDOF 16
ENDMDL
MODEL 2
REMARK VINA RESULT:    -5.210      2.166      4.981
REMARK INTER + INTRA:         -12.810
REMARK INTER:                 -10.286
REMARK INTRA:                  -2.524
REMARK UNBOUND:                -2.727
REMARK SMILES CCCCCCCCCCCCCCCCCC(=O)[O-]
REMARK SMILES IDX 10 1 11 2 12 3 13 4 14 5 15 6 16 7 17 8 18 9 19 10 20 11
REMARK SMILES IDX 9 12 8 13 7 14 6 15 5 16 4 17 3 18 2 19 1 20
REMARK H PARENT
REMARK Flexibility Score: inf
ROOT
ATOM      1  C   UNL     1     139.379 131.013 129.559  1.00  0.00     0.000 C 
ENDROOT
BRANCH   1   2
ATOM      2  C   UNL     1     138.433 130.439 128.489  1.00  0.00     0.000 C 
BRANCH   2   3
ATOM      3  C   UNL     1     137.103 131.205 128.392  1.00  0.00     0.000 C 
BRANCH   3   4
ATOM      4  C   UNL     1     137.020 132.085 127.134  1.00  0.00     0.000 C 
BRANCH   4   5
ATOM      5  C   UNL     1     136.562 133.519 127.442  1.00  0.00     0.000 C 
BRANCH   5   6
ATOM      6  C   UNL     1     136.132 133.652 128.908  1.00  0.00     0.000 C 
BRANCH   6   7
ATOM      7  C   UNL     1     134.629 133.950 129.016  1.00  0.00     0.006 C 
BRANCH   7   8
ATOM      8  C   UNL     1     134.145 133.975 130.471  1.00  0.00     0.053 C 
BRANCH   8   9
ATOM      9  C   UNL     1     134.491 132.708 131.193  1.00  0.00     0.041 C 
ATOM     10  O   UNL     1     133.927 131.626 130.880  1.00  0.00    -0.550 OA
ATOM     11  O   UNL     1     135.412 132.730 132.232  1.00  0.00    -0.550 OA
ENDBRANCH   8   9
ENDBRANCH   7   8
ENDBRANCH   6   7
ENDBRANCH   5   6
ENDBRANCH   4   5
ENDBRANCH   3   4
ENDBRANCH   2   3
ENDBRANCH   1   2
BRANCH   1  12
ATOM     12  C   UNL     1     138.681 131.571 130.812  1.00  0.00     0.000 C 
BRANCH  12  13
ATOM     13  C   UNL     1     138.998 133.056 131.065  1.00  0.00    -0.000 C 
BRANCH  13  14
ATOM     14  C   UNL     1     139.907 133.654 129.971  1.00  0.00    -0.000 C 
BRANCH  14  15
ATOM     15  C   UNL     1     139.452 135.040 129.484  1.00  0.00    -0.000 C 
BRANCH  15  16
ATOM     16  C   UNL     1     139.721 136.151 130.513  1.00  0.00    -0.000 C 
BRANCH  16  17
ATOM     17  C   UNL     1     138.662 137.263 130.471  1.00  0.00    -0.000 C 
BRANCH  17  18
ATOM     18  C   UNL     1     137.255 136.751 130.814  1.00  0.00    -0.000 C 
BRANCH  18  19
ATOM     19  C   UNL     1     136.180 137.694 130.260  1.00  0.00    -0.003 C 
ATOM     20  C   UNL     1     136.666 139.141 130.251  1.00  0.00     0.004 C 
ENDBRANCH  18  19
ENDBRANCH  17  18
ENDBRANCH  16  17
ENDBRANCH  15  16
ENDBRANCH  14  15
ENDBRANCH  13  14
ENDBRANCH  12  13
ENDBRANCH   1  12
TORSDOF 16
ENDMDL
MODEL 3
REMARK VINA RESULT:    -5.187      1.310      2.487
REMARK INTER + INTRA:         -12.766
REMARK INTER:                 -10.041
REMARK INTRA:                  -2.725
REMARK UNBOUND:                -2.727
REMARK SMILES CCCCCCCCCCCCCCCCCC(=O)[O-]
REMARK SMILES IDX 10 1 11 2 12 3 13 4 14 5 15 6 16 7 17 8 18 9 19 10 20 11
REMARK SMILES IDX 9 12 8 13 7 14 6 15 5 16 4 17 3 18 2 19 1 20
REMARK H PARENT
REMARK Flexibility Score: inf
ROOT
ATOM      1  C   UNL     1     138.227 130.918 127.870  1.00  0.00     0.000 C 
ENDROOT
BRANCH   1   2
ATOM      2  C   UNL     1     138.371 130.039 129.126  1.00  0.00     0.000 C 
BRANCH   2   3
ATOM      3  C   UNL     1     139.186 130.718 130.240  1.00  0.00     0.000 C 
BRANCH   3   4
ATOM      4  C   UNL     1     138.295 131.404 131.289  1.00  0.00     0.000 C 
BRANCH   4   5
ATOM      5  C   UNL     1     138.763 132.828 131.625  1.00  0.00     0.000 C 
BRANCH   5   6
ATOM      6  C   UNL     1     139.969 133.225 130.764  1.00  0.00     0.000 C 
BRANCH   6   7
ATOM      7  C   UNL     1     140.364 134.689 131.012  1.00  0.00     0.006 C 
BRANCH   7   8
ATOM      8  C   UNL     1     139.897 135.615 129.883  1.00  0.00     0.053 C 
BRANCH   8   9
ATOM      9  C   UNL     1     139.119 136.783 130.409  1.00  0.00     0.041 C 
ATOM     10  O   UNL     1     138.072 136.596 131.084  1.00  0.00    -0.550 OA
ATOM     11  O   UNL     1     139.533 138.078 130.126  1.00  0.00    -0.550 OA
ENDBRANCH   8   9
ENDBRANCH   7   8
ENDBRANCH   6   7
ENDBRANCH   5   6
ENDBRANCH   4   5
ENDBRANCH   3   4
ENDBRANCH   2   3
ENDBRANCH   1   2
BRANCH   1  12
ATOM     12  C   UNL     1     136.781 131.304 127.509  1.00  0.00     0.000 C 
BRANCH  12  13
ATOM     13  C   UNL     1     136.624 132.798 127.176  1.00  0.00    -0.000 C 
BRANCH  13  14
ATOM     14  C   UNL     1     137.304 133.704 128.223  1.00  0.00    -0.000 C 
BRANCH  14  15
ATOM     15  C   UNL     1     136.403 134.039 129.424  1.00  0.00    -0.000 C 
BRANCH  15  16
ATOM     16  C   UNL     1     134.920 134.169 129.038  1.00  0.00    -0.000 C 
BRANCH  16  17
ATOM     17  C   UNL     1     133.998 133.352 129.957  1.00  0.00    -0.000 C 
BRANCH  17  18
ATOM     18  C   UNL     1     134.698 132.125 130.558  1.00  0.00    -0.000 C 
BRANCH  18  19
ATOM     19  C   UNL     1     134.226 130.836 129.876  1.00  0.00    -0.003 C 
ATOM     20  C   UNL     1     133.017 130.243 130.595  1.00  0.00     0.004 C 
ENDBRANCH  18  19
ENDBRANCH  17  18
ENDBRANCH  16  17
ENDBRANCH  15  16
ENDBRANCH  14  15
ENDBRANCH  13  14
ENDBRANCH  12  13
ENDBRANCH   1  12
TORSDOF 16
ENDMDL
MODEL 4
REMARK VINA RESULT:    -5.154      2.981      5.591
REMARK INTER + INTRA:         -12.701
REMARK INTER:                  -9.950
REMARK INTRA:                  -2.751
REMARK UNBOUND:                -2.727
REMARK SMILES CCCCCCCCCCCCCCCCCC(=O)[O-]
REMARK SMILES IDX 10 1 11 2 12 3 13 4 14 5 15 6 16 7 17 8 18 9 19 10 20 11
REMARK SMILES IDX 9 12 8 13 7 14 6 15 5 16 4 17 3 18 2 19 1 20
REMARK H PARENT
REMARK Flexibility Score: inf
ROOT
ATOM      1  C   UNL     1     138.186 130.730 128.124  1.00  0.00     0.000 C 
ENDROOT
BRANCH   1   2
ATOM      2  C   UNL     1     136.827 131.331 127.719  1.00  0.00     0.000 C 
BRANCH   2   3
ATOM      3  C   UNL     1     136.950 132.745 127.128  1.00  0.00     0.000 C 
BRANCH   3   4
ATOM      4  C   UNL     1     136.972 133.837 128.210  1.00  0.00     0.000 C 
BRANCH   4   5
ATOM      5  C   UNL     1     135.712 133.827 129.089  1.00  0.00     0.000 C 
BRANCH   5   6
ATOM      6  C   UNL     1     136.057 133.455 130.536  1.00  0.00     0.000 C 
BRANCH   6   7
ATOM      7  C   UNL     1     135.030 132.466 131.110  1.00  0.00     0.006 C 
BRANCH   7   8
ATOM      8  C   UNL     1     134.057 131.954 130.042  1.00  0.00     0.053 C 
BRANCH   8   9
ATOM      9  C   UNL     1     133.811 130.482 130.174  1.00  0.00     0.041 C 
ATOM     10  O   UNL     1     132.728 130.062 130.663  1.00  0.00    -0.550 OA
ATOM     11  O   UNL     1     134.790 129.576 129.789  1.00  0.00    -0.550 OA
ENDBRANCH   8   9
ENDBRANCH   7   8
ENDBRANCH   6   7
ENDBRANCH   5   6
ENDBRANCH   4   5
ENDBRANCH   3   4
ENDBRANCH   2   3
ENDBRANCH   1   2
BRANCH   1  12
ATOM     12  C   UNL     1     138.224 130.089 129.523  1.00  0.00     0.000 C 
BRANCH  12  13
ATOM     13  C   UNL     1     138.739 131.049 130.610  1.00  0.00    -0.000 C 
BRANCH  13  14
ATOM     14  C   UNL     1     139.641 132.158 130.029  1.00  0.00    -0.000 C 
BRANCH  14  15
ATOM     15  C   UNL     1     139.787 133.379 130.953  1.00  0.00    -0.000 C 
BRANCH  15  16
ATOM     16  C   UNL     1     139.921 134.700 130.177  1.00  0.00    -0.000 C 
BRANCH  16  17
ATOM     17  C   UNL     1     139.435 135.912 130.988  1.00  0.00    -0.000 C 
BRANCH  17  18
ATOM     18  C   UNL     1     139.473 137.217 130.178  1.00  0.00    -0.000 C 
BRANCH  18  19
ATOM     19  C   UNL     1     138.128 137.948 130.255  1.00  0.00    -0.003 C 
ATOM     20  C   UNL     1     137.005 136.997 130.659  1.00  0.00     0.004 C 
ENDBRANCH  18  19
ENDBRANCH  17  18
ENDBRANCH  16  17
ENDBRANCH  15  16
ENDBRANCH  14  15
ENDBRANCH  13  14
ENDBRANCH  12  13
ENDBRANCH   1  12
TORSDOF 16
ENDMDL
MODEL 5
REMARK VINA RESULT:    -5.029      1.051      3.593
REMARK INTER + INTRA:         -12.461
REMARK INTER:                  -9.720
REMARK INTRA:                  -2.740
REMARK UNBOUND:                -2.727
REMARK SMILES CCCCCCCCCCCCCCCCCC(=O)[O-]
REMARK SMILES IDX 10 1 11 2 12 3 13 4 14 5 15 6 16 7 17 8 18 9 19 10 20 11
REMARK SMILES IDX 9 12 8 13 7 14 6 15 5 16 4 17 3 18 2 19 1 20
REMARK H PARENT
REMARK Flexibility Score: inf
ROOT
ATOM      1  C   UNL     1     134.585 132.591 130.695  1.00  0.00     0.000 C 
ENDROOT
BRANCH   1   2
ATOM      2  C   UNL     1     134.030 133.778 129.887  1.00  0.00     0.000 C 
BRANCH   2   3
ATOM      3  C   UNL     1     135.132 134.608 129.209  1.00  0.00     0.000 C 
BRANCH   3   4
ATOM      4  C   UNL     1     136.466 134.554 129.972  1.00  0.00     0.000 C 
BRANCH   4   5
ATOM      5  C   UNL     1     137.682 134.758 129.056  1.00  0.00     0.000 C 
BRANCH   5   6
ATOM      6  C   UNL     1     138.718 135.674 129.719  1.00  0.00     0.000 C 
BRANCH   6   7
ATOM      7  C   UNL     1     138.052 136.611 130.739  1.00  0.00     0.006 C 
BRANCH   7   8
ATOM      8  C   UNL     1     138.048 138.071 130.269  1.00  0.00     0.053 C 
BRANCH   8   9
ATOM      9  C   UNL     1     136.671 138.661 130.301  1.00  0.00     0.041 C 
ATOM     10  O   UNL     1     136.517 139.910 130.352  1.00  0.00    -0.550 OA
ATOM     11  O   UNL     1     135.559 137.829 130.308  1.00  0.00    -0.550 OA
ENDBRANCH   8   9
ENDBRANCH   7   8
ENDBRANCH   6   7
ENDBRANCH   5   6
ENDBRANCH   4   5
ENDBRANCH   3   4
ENDBRANCH   2   3
ENDBRANCH   1   2
BRANCH   1  12
ATOM     12  C   UNL     1     134.388 131.210 130.043  1.00  0.00     0.000 C 
BRANCH  12  13
ATOM     13  C   UNL     1     135.710 130.561 129.597  1.00  0.00    -0.000 C 
BRANCH  13  14
ATOM     14  C   UNL     1     136.291 131.231 128.334  1.00  0.00    -0.000 C 
BRANCH  14  15
ATOM     15  C   UNL     1     137.819 131.093 128.214  1.00  0.00    -0.000 C 
BRANCH  15  16
ATOM     16  C   UNL     1     138.379 129.928 129.046  1.00  0.00    -0.000 C 
BRANCH  16  17
ATOM     17  C   UNL     1     139.223 130.405 130.238  1.00  0.00    -0.000 C 
BRANCH  17  18
ATOM     18  C   UNL     1     139.600 131.891 130.137  1.00  0.00    -0.000 C 
BRANCH  18  19
ATOM     19  C   UNL     1     139.312 132.619 131.455  1.00  0.00    -0.003 C 
ATOM     20  C   UNL     1     138.045 132.084 132.116  1.00  0.00     0.004 C 
ENDBRANCH  18  19
ENDBRANCH  17  18
ENDBRANCH  16  17
ENDBRANCH  15  16
ENDBRANCH  14  15
ENDBRANCH  13  14
ENDBRANCH  12  13
ENDBRANCH   1  12
TORSDOF 16
ENDMDL
MODEL 6
REMARK VINA RESULT:    -5.010      0.998      3.273
REMARK INTER + INTRA:         -12.423
REMARK INTER:                  -9.908
REMARK INTRA:                  -2.515
REMARK UNBOUND:                -2.727
REMARK SMILES CCCCCCCCCCCCCCCCCC(=O)[O-]
REMARK SMILES IDX 10 1 11 2 12 3 13 4 14 5 15 6 16 7 17 8 18 9 19 10 20 11
REMARK SMILES IDX 9 12 8 13 7 14 6 15 5 16 4 17 3 18 2 19 1 20
REMARK H PARENT
REMARK Flexibility Score: inf
ROOT
ATOM      1  C   UNL     1     136.186 134.026 128.387  1.00  0.00     0.000 C 
ENDROOT
BRANCH   1   2
ATOM      2  C   UNL     1     137.687 133.881 128.696  1.00  0.00     0.000 C 
BRANCH   2   3
ATOM      3  C   UNL     1     137.975 133.709 130.197  1.00  0.00     0.000 C 
BRANCH   3   4
ATOM      4  C   UNL     1     139.472 133.822 130.528  1.00  0.00     0.000 C 
BRANCH   4   5
ATOM      5  C   UNL     1     140.109 135.103 129.966  1.00  0.00     0.000 C 
BRANCH   5   6
ATOM      6  C   UNL     1     139.870 136.290 130.907  1.00  0.00     0.000 C 
BRANCH   6   7
ATOM      7  C   UNL     1     138.963 137.341 130.248  1.00  0.00     0.006 C 
BRANCH   7   8
ATOM      8  C   UNL     1     137.513 137.243 130.736  1.00  0.00     0.053 C 
BRANCH   8   9
ATOM      9  C   UNL     1     136.697 138.419 130.292  1.00  0.00     0.041 C 
ATOM     10  O   UNL     1     135.478 138.275 130.010  1.00  0.00    -0.550 OA
ATOM     11  O   UNL     1     137.291 139.667 130.160  1.00  0.00    -0.550 OA
ENDBRANCH   8   9
ENDBRANCH   7   8
ENDBRANCH   6   7
ENDBRANCH   5   6
ENDBRANCH   4   5
ENDBRANCH   3   4
ENDBRANCH   2   3
ENDBRANCH   1   2
BRANCH   1  12
ATOM     12  C   UNL     1     135.334 134.582 129.541  1.00  0.00     0.000 C 
BRANCH  12  13
ATOM     13  C   UNL     1     134.041 133.781 129.776  1.00  0.00    -0.000 C 
BRANCH  13  14
ATOM     14  C   UNL     1     134.045 133.052 131.136  1.00  0.00    -0.000 C 
BRANCH  14  15
ATOM     15  C   UNL     1     134.085 131.519 131.012  1.00  0.00    -0.000 C 
BRANCH  15  16
ATOM     16  C   UNL     1     134.184 131.042 129.554  1.00  0.00    -0.000 C 
BRANCH  16  17
ATOM     17  C   UNL     1     135.453 130.217 129.288  1.00  0.00    -0.000 C 
BRANCH  17  18
ATOM     18  C   UNL     1     136.614 130.604 130.216  1.00  0.00    -0.000 C 
BRANCH  18  19
ATOM     19  C   UNL     1     137.897 129.857 129.830  1.00  0.00    -0.003 C 
ATOM     20  C   UNL     1     138.491 130.414 128.539  1.00  0.00     0.004 C 
ENDBRANCH  18  19
ENDBRANCH  17  18
ENDBRANCH  16  17
ENDBRANCH  15  16
ENDBRANCH  14  15
ENDBRANCH  13  14
ENDBRANCH  12  13
ENDBRANCH   1  12
TORSDOF 16
ENDMDL
MODEL 7
REMARK VINA RESULT:    -4.896      2.817      5.583
REMARK INTER + INTRA:         -12.203
REMARK INTER:                  -9.718
REMARK INTRA:                  -2.485
REMARK UNBOUND:                -2.727
REMARK SMILES CCCCCCCCCCCCCCCCCC(=O)[O-]
REMARK SMILES IDX 10 1 11 2 12 3 13 4 14 5 15 6 16 7 17 8 18 9 19 10 20 11
REMARK SMILES IDX 9 12 8 13 7 14 6 15 5 16 4 17 3 18 2 19 1 20
REMARK H PARENT
REMARK Flexibility Score: inf
ROOT
ATOM      1  C   UNL     1     137.191 131.090 127.420  1.00  0.00     0.000 C 
ENDROOT
BRANCH   1   2
ATOM      2  C   UNL     1     137.020 132.514 126.861  1.00  0.00     0.000 C 
BRANCH   2   3
ATOM      3  C   UNL     1     136.029 133.362 127.676  1.00  0.00     0.000 C 
BRANCH   3   4
ATOM      4  C   UNL     1     136.704 134.089 128.852  1.00  0.00     0.000 C 
BRANCH   4   5
ATOM      5  C   UNL     1     135.791 134.200 130.083  1.00  0.00     0.000 C 
BRANCH   5   6
ATOM      6  C   UNL     1     136.201 133.189 131.161  1.00  0.00     0.000 C 
BRANCH   6   7
ATOM      7  C   UNL     1     134.986 132.387 131.654  1.00  0.00     0.006 C 
BRANCH   7   8
ATOM      8  C   UNL     1     133.899 132.261 130.580  1.00  0.00     0.053 C 
BRANCH   8   9
ATOM      9  C   UNL     1     133.755 130.850 130.098  1.00  0.00     0.041 C 
ATOM     10  O   UNL     1     132.893 130.089 130.613  1.00  0.00    -0.550 OA
ATOM     11  O   UNL     1     134.595 130.366 129.104  1.00  0.00    -0.550 OA
ENDBRANCH   8   9
ENDBRANCH   7   8
ENDBRANCH   6   7
ENDBRANCH   5   6
ENDBRANCH   4   5
ENDBRANCH   3   4
ENDBRANCH   2   3
ENDBRANCH   1   2
BRANCH   1  12
ATOM     12  C   UNL     1     138.500 130.848 128.193  1.00  0.00     0.000 C 
BRANCH  12  13
ATOM     13  C   UNL     1     138.275 130.169 129.556  1.00  0.00    -0.000 C 
BRANCH  13  14
ATOM     14  C   UNL     1     138.940 130.946 130.711  1.00  0.00    -0.000 C 
BRANCH  14  15
ATOM     15  C   UNL     1     139.630 132.246 130.261  1.00  0.00    -0.000 C 
BRANCH  15  16
ATOM     16  C   UNL     1     139.656 133.319 131.362  1.00  0.00    -0.000 C 
BRANCH  16  17
ATOM     17  C   UNL     1     140.511 134.537 130.980  1.00  0.00    -0.000 C 
BRANCH  17  18
ATOM     18  C   UNL     1     139.892 135.360 129.840  1.00  0.00    -0.000 C 
BRANCH  18  19
ATOM     19  C   UNL     1     139.602 136.795 130.296  1.00  0.00    -0.003 C 
ATOM     20  C   UNL     1     138.152 136.948 130.747  1.00  0.00     0.004 C 
ENDBRANCH  18  19
ENDBRANCH  17  18
ENDBRANCH  16  17
ENDBRANCH  15  16
ENDBRANCH  14  15
ENDBRANCH  13  14
ENDBRANCH  12  13
ENDBRANCH   1  12
TORSDOF 16
ENDMDL
MODEL 8
REMARK VINA RESULT:    -4.807      2.444      5.380
REMARK INTER + INTRA:         -12.031
REMARK INTER:                  -9.164
REMARK INTRA:                  -2.867
REMARK UNBOUND:                -2.727
REMARK SMILES CCCCCCCCCCCCCCCCCC(=O)[O-]
REMARK SMILES IDX 10 1 11 2 12 3 13 4 14 5 15 6 16 7 17 8 18 9 19 10 20 11
REMARK SMILES IDX 9 12 8 13 7 14 6 15 5 16 4 17 3 18 2 19 1 20
REMARK H PARENT
REMARK Flexibility Score: inf
ROOT
ATOM      1  C   UNL     1     139.913 134.927 129.944  1.00  0.00     0.000 C 
ENDROOT
BRANCH   1   2
ATOM      2  C   UNL     1     140.251 133.976 131.107  1.00  0.00     0.000 C 
BRANCH   2   3
ATOM      3  C   UNL     1     139.266 132.800 131.224  1.00  0.00     0.000 C 
BRANCH   3   4
ATOM      4  C   UNL     1     139.377 131.818 130.046  1.00  0.00     0.000 C 
BRANCH   4   5
ATOM      5  C   UNL     1     138.513 130.563 130.236  1.00  0.00     0.000 C 
BRANCH   5   6
ATOM      6  C   UNL     1     137.062 130.941 130.561  1.00  0.00     0.000 C 
BRANCH   6   7
ATOM      7  C   UNL     1     136.078 129.944 129.929  1.00  0.00     0.006 C 
BRANCH   7   8
ATOM      8  C   UNL     1     134.854 130.641 129.325  1.00  0.00     0.053 C 
BRANCH   8   9
ATOM      9  C   UNL     1     133.789 130.882 130.351  1.00  0.00     0.041 C 
ATOM     10  O   UNL     1     132.872 130.035 130.525  1.00  0.00    -0.550 OA
ATOM     11  O   UNL     1     133.790 132.055 131.093  1.00  0.00    -0.550 OA
ENDBRANCH   8   9
ENDBRANCH   7   8
ENDBRANCH   6   7
ENDBRANCH   5   6
ENDBRANCH   4   5
ENDBRANCH   3   4
ENDBRANCH   2   3
ENDBRANCH   1   2
BRANCH   1  12
ATOM     12  C   UNL     1     139.997 136.426 130.285  1.00  0.00     0.000 C 
BRANCH  12  13
ATOM     13  C   UNL     1     138.651 137.154 130.129  1.00  0.00    -0.000 C 
BRANCH  13  14
ATOM     14  C   UNL     1     137.531 136.494 130.960  1.00  0.00    -0.000 C 
BRANCH  14  15
ATOM     15  C   UNL     1     136.314 136.066 130.122  1.00  0.00    -0.000 C 
BRANCH  15  16
ATOM     16  C   UNL     1     136.071 134.548 130.157  1.00  0.00    -0.000 C 
BRANCH  16  17
ATOM     17  C   UNL     1     135.759 133.967 128.769  1.00  0.00    -0.000 C 
BRANCH  17  18
ATOM     18  C   UNL     1     137.028 133.604 127.982  1.00  0.00    -0.000 C 
BRANCH  18  19
ATOM     19  C   UNL     1     136.687 132.734 126.766  1.00  0.00    -0.003 C 
ATOM     20  C   UNL     1     137.426 131.400 126.818  1.00  0.00     0.004 C 
ENDBRANCH  18  19
ENDBRANCH  17  18
ENDBRANCH  16  17
ENDBRANCH  15  16
ENDBRANCH  14  15
ENDBRANCH  13  14
ENDBRANCH  12  13
ENDBRANCH   1  12
TORSDOF 16
ENDMDL
MODEL 9
REMARK VINA RESULT:    -4.720      3.109      6.083
REMARK INTER + INTRA:         -11.861
REMARK INTER:                  -9.321
REMARK INTRA:                  -2.540
REMARK UNBOUND:                -2.727
REMARK SMILES CCCCCCCCCCCCCCCCCC(=O)[O-]
REMARK SMILES IDX 10 1 11 2 12 3 13 4 14 5 15 6 16 7 17 8 18 9 19 10 20 11
REMARK SMILES IDX 9 12 8 13 7 14 6 15 5 16 4 17 3 18 2 19 1 20
REMARK H PARENT
REMARK Flexibility Score: inf
ROOT
ATOM      1  C   UNL     1     134.651 132.611 131.177  1.00  0.00     0.000 C 
ENDROOT
BRANCH   1   2
ATOM      2  C   UNL     1     134.023 133.868 130.546  1.00  0.00     0.000 C 
BRANCH   2   3
ATOM      3  C   UNL     1     134.924 134.517 129.482  1.00  0.00     0.000 C 
BRANCH   3   4
ATOM      4  C   UNL     1     135.158 133.602 128.269  1.00  0.00     0.000 C 
BRANCH   4   5
ATOM      5  C   UNL     1     136.603 133.660 127.751  1.00  0.00     0.000 C 
BRANCH   5   6
ATOM      6  C   UNL     1     137.016 132.320 127.130  1.00  0.00     0.000 C 
BRANCH   6   7
ATOM      7  C   UNL     1     136.944 131.188 128.166  1.00  0.00     0.006 C 
BRANCH   7   8
ATOM      8  C   UNL     1     138.294 130.484 128.352  1.00  0.00     0.053 C 
BRANCH   8   9
ATOM      9  C   UNL     1     138.393 129.818 129.690  1.00  0.00     0.041 C 
ATOM     10  O   UNL     1     139.492 129.791 130.305  1.00  0.00    -0.550 OA
ATOM     11  O   UNL     1     137.280 129.200 130.243  1.00  0.00    -0.550 OA
ENDBRANCH   8   9
ENDBRANCH   7   8
ENDBRANCH   6   7
ENDBRANCH   5   6
ENDBRANCH   4   5
ENDBRANCH   3   4
ENDBRANCH   2   3
ENDBRANCH   1   2
BRANCH   1  12
ATOM     12  C   UNL     1     135.913 132.868 132.020  1.00  0.00     0.000 C 
BRANCH  12  13
ATOM     13  C   UNL     1     137.211 132.800 131.196  1.00  0.00    -0.000 C 
BRANCH  13  14
ATOM     14  C   UNL     1     138.451 132.555 132.080  1.00  0.00    -0.000 C 
BRANCH  14  15
ATOM     15  C   UNL     1     139.755 133.104 131.476  1.00  0.00    -0.000 C 
BRANCH  15  16
ATOM     16  C   UNL     1     139.618 133.456 129.985  1.00  0.00    -0.000 C 
BRANCH  16  17
ATOM     17  C   UNL     1     140.017 134.908 129.682  1.00  0.00    -0.000 C 
BRANCH  17  18
ATOM     18  C   UNL     1     140.077 135.780 130.945  1.00  0.00    -0.000 C 
BRANCH  18  19
ATOM     19  C   UNL     1     139.136 136.985 130.824  1.00  0.00    -0.003 C 
ATOM     20  C   UNL     1     137.677 136.541 130.762  1.00  0.00     0.004 C 
ENDBRANCH  18  19
ENDBRANCH  17  18
ENDBRANCH  16  17
ENDBRANCH  15  16
ENDBRANCH  14  15
ENDBRANCH  13  14
ENDBRANCH  12  13
ENDBRANCH   1  12
TORSDOF 16
ENDMDL
