MODEL 1
REMARK VINA RESULT:    -2.402      0.000      0.000
REMARK INTER + INTRA:          -2.402
REMARK INTER:                  -2.402
REMARK INTRA:                   0.000
REMARK UNBOUND:                 0.000
REMARK SMILES CC(=O)[O-]
REMARK SMILES IDX 1 1 2 2 3 3 4 4
REMARK H PARENT
REMARK Flexibility Score: inf
ROOT
ATOM      1  C   UNL     1     -97.219  32.818 -39.369  1.00  0.00     0.063 C 
ATOM      2  C   UNL     1     -98.408  32.657 -38.484  1.00  0.00     0.038 C 
ATOM      3  O   UNL     1     -98.760  33.596 -37.723  1.00  0.00    -0.550 OA
ATOM      4  O   UNL     1     -99.098  31.452 -38.457  1.00  0.00    -0.550 OA
ENDROOT
TORSDOF 0
ENDMDL
MODEL 2
REMARK VINA RESULT:    -2.207      2.012      2.323
REMARK INTER + INTRA:          -2.207
REMARK INTER:                  -2.207
REMARK INTRA:                   0.000
REMARK UNBOUND:                 0.000
REMARK SMILES CC(=O)[O-]
REMARK SMILES IDX 1 1 2 2 3 3 4 4
REMARK H PARENT
REMARK Flexibility Score: inf
ROOT
ATOM      1  C   UNL     1     -98.658  32.992 -37.968  1.00  0.00     0.063 C 
ATOM      2  C   UNL     1     -97.842  33.093 -39.212  1.00  0.00     0.038 C 
ATOM      3  O   UNL     1     -96.644  32.710 -39.214  1.00  0.00    -0.550 OA
ATOM      4  O   UNL     1     -98.386  33.661 -40.357  1.00  0.00    -0.550 OA
ENDROOT
TORSDOF 0
ENDMDL
MODEL 3
REMARK VINA RESULT:    -2.131      1.463      2.047
REMARK INTER + INTRA:          -2.131
REMARK INTER:                  -2.131
REMARK INTRA:                   0.000
REMARK UNBOUND:                 0.000
REMARK SMILES CC(=O)[O-]
REMARK SMILES IDX 1 1 2 2 3 3 4 4
REMARK H PARENT
REMARK Flexibility Score: inf
ROOT
ATOM      1  C   UNL     1     -98.371  33.272 -38.136  1.00  0.00     0.063 C 
ATOM      2  C   UNL     1     -99.298  32.187 -37.701  1.00  0.00     0.038 C 
ATOM      3  O   UNL     1     -99.568  31.237 -38.482  1.00  0.00    -0.550 OA
ATOM      4  O   UNL     1     -99.907  32.250 -36.455  1.00  0.00    -0.550 OA
ENDROOT
TORSDOF 0
ENDMDL
MODEL 4
REMARK VINA RESULT:    -1.955     13.209     13.383
REMARK INTER + INTRA:          -1.955
REMARK INTER:                  -1.955
REMARK INTRA:                   0.000
REMARK UNBOUND:                 0.000
REMARK SMILES CC(=O)[O-]
REMARK SMILES IDX 1 1 2 2 3 3 4 4
REMARK H PARENT
REMARK Flexibility Score: inf
ROOT
ATOM      1  C   UNL     1     -96.079  45.920 -39.100  1.00  0.00     0.063 C 
ATOM      2  C   UNL     1     -96.362  45.775 -37.643  1.00  0.00     0.038 C 
ATOM      3  O   UNL     1     -97.415  46.260 -37.153  1.00  0.00    -0.550 OA
ATOM      4  O   UNL     1     -95.438  45.154 -36.813  1.00  0.00    -0.550 OA
ENDROOT
TORSDOF 0
ENDMDL
MODEL 5
REMARK VINA RESULT:    -1.938     13.235     13.444
REMARK INTER + INTRA:          -1.938
REMARK INTER:                  -1.938
REMARK INTRA:                   0.000
REMARK UNBOUND:                 0.000
REMARK SMILES CC(=O)[O-]
REMARK SMILES IDX 1 1 2 2 3 3 4 4
REMARK H PARENT
REMARK Flexibility Score: inf
ROOT
ATOM      1  C   UNL     1     -96.057  45.884 -39.038  1.00  0.00     0.063 C 
ATOM      2  C   UNL     1     -96.300  45.802 -37.569  1.00  0.00     0.038 C 
ATOM      3  O   UNL     1     -95.487  45.191 -36.827  1.00  0.00    -0.550 OA
ATOM      4  O   UNL     1     -97.452  46.352 -37.022  1.00  0.00    -0.550 OA
ENDROOT
TORSDOF 0
ENDMDL
MODEL 6
REMARK VINA RESULT:    -1.923     12.827     13.149
REMARK INTER + INTRA:          -1.923
REMARK INTER:                  -1.923
REMARK INTRA:                   0.000
REMARK UNBOUND:                 0.000
REMARK SMILES CC(=O)[O-]
REMARK SMILES IDX 1 1 2 2 3 3 4 4
REMARK H PARENT
REMARK Flexibility Score: inf
ROOT
ATOM      1  C   UNL     1    -101.489  43.136 -47.444  1.00  0.00     0.063 C 
ATOM      2  C   UNL     1    -102.106  41.925 -46.830  1.00  0.00     0.038 C 
ATOM      3  O   UNL     1    -102.621  41.040 -47.561  1.00  0.00    -0.550 OA
ATOM      4  O   UNL     1    -102.163  41.798 -45.449  1.00  0.00    -0.550 OA
ENDROOT
TORSDOF 0
ENDMDL
MODEL 7
REMARK VINA RESULT:    -1.896      1.516      2.690
REMARK INTER + INTRA:          -1.896
REMARK INTER:                  -1.896
REMARK INTRA:                   0.000
REMARK UNBOUND:                 0.000
REMARK SMILES CC(=O)[O-]
REMARK SMILES IDX 1 1 2 2 3 3 4 4
REMARK H PARENT
REMARK Flexibility Score: inf
ROOT
ATOM      1  C   UNL     1     -99.811  31.965 -36.296  1.00  0.00     0.063 C 
ATOM      2  C   UNL     1     -99.268  32.264 -37.653  1.00  0.00     0.038 C 
ATOM      3  O   UNL     1     -99.365  31.411 -38.573  1.00  0.00    -0.550 OA
ATOM      4  O   UNL     1     -98.607  33.462 -37.889  1.00  0.00    -0.550 OA
ENDROOT
TORSDOF 0
ENDMDL
MODEL 8
REMARK VINA RESULT:    -1.886      8.618      9.277
REMARK INTER + INTRA:          -1.886
REMARK INTER:                  -1.886
REMARK INTRA:                   0.000
REMARK UNBOUND:                 0.000
REMARK SMILES CC(=O)[O-]
REMARK SMILES IDX 1 1 2 2 3 3 4 4
REMARK H PARENT
REMARK Flexibility Score: inf
ROOT
ATOM      1  C   UNL     1     -96.011  38.719 -33.417  1.00  0.00     0.063 C 
ATOM      2  C   UNL     1     -96.571  38.825 -32.039  1.00  0.00     0.038 C 
ATOM      3  O   UNL     1     -96.969  37.794 -31.438  1.00  0.00    -0.550 OA
ATOM      4  O   UNL     1     -96.704  40.069 -31.436  1.00  0.00    -0.550 OA
ENDROOT
TORSDOF 0
ENDMDL
MODEL 9
REMARK VINA RESULT:    -1.866     13.313     13.714
REMARK INTER + INTRA:          -1.866
REMARK INTER:                  -1.866
REMARK INTRA:                   0.000
REMARK UNBOUND:                 0.000
REMARK SMILES CC(=O)[O-]
REMARK SMILES IDX 1 1 2 2 3 3 4 4
REMARK H PARENT
REMARK Flexibility Score: inf
ROOT
ATOM      1  C   UNL     1     -94.694  46.565 -38.256  1.00  0.00     0.063 C 
ATOM      2  C   UNL     1     -95.975  46.032 -38.803  1.00  0.00     0.038 C 
ATOM      3  O   UNL     1     -96.215  46.107 -40.037  1.00  0.00    -0.550 OA
ATOM      4  O   UNL     1     -96.930  45.501 -37.947  1.00  0.00    -0.550 OA
ENDROOT
TORSDOF 0
ENDMDL
