MODEL 1
REMARK VINA RESULT:     4.161      0.000      0.000
REMARK INTER + INTRA:           4.430
REMARK INTER:                   4.526
REMARK INTRA:                  -0.096
REMARK UNBOUND:                -0.096
REMARK SMILES C=C(C)[C@@H]1CC[C@@H](C)[C@@H](O)C1
REMARK SMILES IDX 8 1 7 2 6 3 5 4 4 5 11 6 9 7 10 8 2 10 1 11 3 12
REMARK H PARENT 10 9
REMARK Flexibility Score: inf
ROOT
ATOM      1  C   UNL     1     -39.125  21.048   7.626  1.00  0.00     0.010 C 
ATOM      2  C   UNL     1     -37.818  21.573   7.019  1.00  0.00     0.015 C 
ATOM      3  C   UNL     1     -36.797  21.909   8.125  1.00  0.00     0.006 C 
ATOM      4  C   UNL     1     -35.489  22.438   7.526  1.00  0.00     0.008 C 
ATOM      5  C   UNL     1     -35.743  23.679   6.651  1.00  0.00     0.017 C 
ATOM      6  C   UNL     1     -36.757  23.369   5.530  1.00  0.00     0.040 C 
ATOM      7  C   UNL     1     -38.075  22.777   6.073  1.00  0.00     0.117 C 
ENDROOT
BRANCH   7   8
ATOM      8  O   UNL     1     -38.877  23.772   6.665  1.00  0.00    -0.393 OA
ATOM      9  H   UNL     1     -39.334  23.379   7.450  1.00  0.00     0.210 HD
ENDBRANCH   7   8
BRANCH   5  10
ATOM     10  C   UNL     1     -34.440  24.219   6.074  1.00  0.00    -0.077 C 
ATOM     11  C   UNL     1     -33.888  23.640   4.995  1.00  0.00     0.008 C 
ATOM     12  C   UNL     1     -33.736  25.402   6.693  1.00  0.00     0.039 C 
ENDBRANCH   5  10
TORSDOF 2
ENDMDL
MODEL 2
REMARK VINA RESULT:     7.134     19.111     20.902
REMARK INTER + INTRA:           7.663
REMARK INTER:                   7.754
REMARK INTRA:                  -0.090
REMARK UNBOUND:                -0.096
REMARK SMILES C=C(C)[C@@H]1CC[C@@H](C)[C@@H](O)C1
REMARK SMILES IDX 8 1 7 2 6 3 5 4 4 5 11 6 9 7 10 8 2 10 1 11 3 12
REMARK H PARENT 10 9
REMARK Flexibility Score: inf
ROOT
ATOM      1  C   UNL     1     -18.876  21.648  -7.535  1.00  0.00     0.010 C 
ATOM      2  C   UNL     1     -19.734  22.893  -7.283  1.00  0.00     0.015 C 
ATOM      3  C   UNL     1     -18.876  24.173  -7.356  1.00  0.00     0.006 C 
ATOM      4  C   UNL     1     -19.726  25.423  -7.100  1.00  0.00     0.008 C 
ATOM      5  C   UNL     1     -20.433  25.342  -5.736  1.00  0.00     0.017 C 
ATOM      6  C   UNL     1     -21.306  24.073  -5.637  1.00  0.00     0.040 C 
ATOM      7  C   UNL     1     -20.512  22.785  -5.943  1.00  0.00     0.117 C 
ENDROOT
BRANCH   7   8
ATOM      8  O   UNL     1     -19.684  22.426  -4.861  1.00  0.00    -0.393 OA
ATOM      9  H   UNL     1     -19.287  23.250  -4.483  1.00  0.00     0.210 HD
ENDBRANCH   7   8
BRANCH   5  10
ATOM     10  C   UNL     1     -21.260  26.594  -5.471  1.00  0.00    -0.077 C 
ATOM     11  C   UNL     1     -21.594  26.930  -4.214  1.00  0.00     0.008 C 
ATOM     12  C   UNL     1     -21.727  27.481  -6.600  1.00  0.00     0.039 C 
ENDBRANCH   5  10
TORSDOF 2
ENDMDL
