MODEL 1
REMARK VINA RESULT:    -5.512      0.000      0.000
REMARK INTER + INTRA:         -10.636
REMARK INTER:                  -9.380
REMARK INTRA:                  -1.257
REMARK UNBOUND:                -1.257
REMARK SMILES CCCCCCCCCCCCCC(=O)[O-]
REMARK SMILES IDX 8 1 9 2 10 3 11 4 12 5 13 6 14 7 15 8 16 9 7 10 6 11 5 12
REMARK SMILES IDX 4 13 3 14 2 15 1 16
REMARK H PARENT
REMARK Flexibility Score: inf
ROOT
ATOM      1  C   UNL     1      18.006   9.176 -19.152  1.00  0.00     0.000 C 
ENDROOT
BRANCH   1   2
ATOM      2  C   UNL     1      19.150   9.029 -20.168  1.00  0.00     0.000 C 
BRANCH   2   3
ATOM      3  C   UNL     1      19.705  10.405 -20.568  1.00  0.00     0.000 C 
BRANCH   3   4
ATOM      4  C   UNL     1      19.079  10.941 -21.866  1.00  0.00     0.000 C 
BRANCH   4   5
ATOM      5  C   UNL     1      18.625  12.406 -21.743  1.00  0.00     0.006 C 
BRANCH   5   6
ATOM      6  C   UNL     1      17.540  12.588 -20.674  1.00  0.00     0.053 C 
BRANCH   6   7
ATOM      7  C   UNL     1      17.930  13.617 -19.658  1.00  0.00     0.041 C 
ATOM      8  O   UNL     1      17.044  14.284 -19.060  1.00  0.00    -0.550 OA
ATOM      9  O   UNL     1      19.271  13.863 -19.395  1.00  0.00    -0.550 OA
ENDBRANCH   6   7
ENDBRANCH   5   6
ENDBRANCH   4   5
ENDBRANCH   3   4
ENDBRANCH   2   3
ENDBRANCH   1   2
BRANCH   1  10
ATOM     10  C   UNL     1      16.674   8.613 -19.673  1.00  0.00     0.000 C 
BRANCH  10  11
ATOM     11  C   UNL     1      16.610   8.571 -21.209  1.00  0.00    -0.000 C 
BRANCH  11  12
ATOM     12  C   UNL     1      15.608   7.531 -21.737  1.00  0.00    -0.000 C 
BRANCH  12  13
ATOM     13  C   UNL     1      15.026   6.618 -20.637  1.00  0.00    -0.000 C 
BRANCH  13  14
ATOM     14  C   UNL     1      13.487   6.599 -20.654  1.00  0.00    -0.000 C 
BRANCH  14  15
ATOM     15  C   UNL     1      12.873   7.702 -19.779  1.00  0.00    -0.003 C 
ATOM     16  C   UNL     1      13.123   7.482 -18.287  1.00  0.00     0.004 C 
ENDBRANCH  14  15
ENDBRANCH  13  14
ENDBRANCH  12  13
ENDBRANCH  11  12
ENDBRANCH  10  11
ENDBRANCH   1  10
TORSDOF 12
ENDMDL
MODEL 2
REMARK VINA RESULT:    -5.002      3.658      5.638
REMARK INTER + INTRA:          -9.767
REMARK INTER:                  -9.203
REMARK INTRA:                  -0.564
REMARK UNBOUND:                -1.257
REMARK SMILES CCCCCCCCCCCCCC(=O)[O-]
REMARK SMILES IDX 8 1 9 2 10 3 11 4 12 5 13 6 14 7 15 8 16 9 7 10 6 11 5 12
REMARK SMILES IDX 4 13 3 14 2 15 1 16
REMARK H PARENT
REMARK Flexibility Score: inf
ROOT
ATOM      1  C   UNL     1      12.698   7.872 -20.178  1.00  0.00     0.000 C 
ENDROOT
BRANCH   1   2
ATOM      2  C   UNL     1      13.999   7.136 -19.820  1.00  0.00     0.000 C 
BRANCH   2   3
ATOM      3  C   UNL     1      14.673   6.573 -21.082  1.00  0.00     0.000 C 
BRANCH   3   4
ATOM      4  C   UNL     1      15.707   7.539 -21.681  1.00  0.00     0.000 C 
BRANCH   4   5
ATOM      5  C   UNL     1      16.542   8.255 -20.606  1.00  0.00     0.006 C 
BRANCH   5   6
ATOM      6  C   UNL     1      17.176   9.550 -21.132  1.00  0.00     0.053 C 
BRANCH   6   7
ATOM      7  C   UNL     1      18.047  10.200 -20.102  1.00  0.00     0.041 C 
ATOM      8  O   UNL     1      17.662  11.248 -19.519  1.00  0.00    -0.550 OA
ATOM      9  O   UNL     1      19.297   9.670 -19.811  1.00  0.00    -0.550 OA
ENDBRANCH   6   7
ENDBRANCH   5   6
ENDBRANCH   4   5
ENDBRANCH   3   4
ENDBRANCH   2   3
ENDBRANCH   1   2
BRANCH   1  10
ATOM     10  C   UNL     1      12.022   8.510 -18.954  1.00  0.00     0.000 C 
BRANCH  10  11
ATOM     11  C   UNL     1      11.061   9.648 -19.336  1.00  0.00    -0.000 C 
BRANCH  11  12
ATOM     12  C   UNL     1      10.912  10.702 -18.226  1.00  0.00    -0.000 C 
BRANCH  12  13
ATOM     13  C   UNL     1      10.344  12.048 -18.722  1.00  0.00    -0.000 C 
BRANCH  13  14
ATOM     14  C   UNL     1       9.965  12.003 -20.213  1.00  0.00    -0.000 C 
BRANCH  14  15
ATOM     15  C   UNL     1       8.610  12.667 -20.499  1.00  0.00    -0.003 C 
ATOM     16  C   UNL     1       8.730  14.169 -20.758  1.00  0.00     0.004 C 
ENDBRANCH  14  15
ENDBRANCH  13  14
ENDBRANCH  12  13
ENDBRANCH  11  12
ENDBRANCH  10  11
ENDBRANCH   1  10
TORSDOF 12
ENDMDL
MODEL 3
REMARK VINA RESULT:    -4.912      3.145      3.754
REMARK INTER + INTRA:          -9.614
REMARK INTER:                  -8.890
REMARK INTRA:                  -0.724
REMARK UNBOUND:                -1.257
REMARK SMILES CCCCCCCCCCCCCC(=O)[O-]
REMARK SMILES IDX 8 1 9 2 10 3 11 4 12 5 13 6 14 7 15 8 16 9 7 10 6 11 5 12
REMARK SMILES IDX 4 13 3 14 2 15 1 16
REMARK H PARENT
REMARK Flexibility Score: inf
ROOT
ATOM      1  C   UNL     1      18.021  10.188 -20.234  1.00  0.00     0.000 C 
ENDROOT
BRANCH   1   2
ATOM      2  C   UNL     1      19.508   9.985 -20.562  1.00  0.00     0.000 C 
BRANCH   2   3
ATOM      3  C   UNL     1      20.108  11.253 -21.190  1.00  0.00     0.000 C 
BRANCH   3   4
ATOM      4  C   UNL     1      19.185  11.882 -22.246  1.00  0.00     0.000 C 
BRANCH   4   5
ATOM      5  C   UNL     1      19.839  11.955 -23.637  1.00  0.00     0.006 C 
BRANCH   5   6
ATOM      6  C   UNL     1      18.973  11.296 -24.719  1.00  0.00     0.053 C 
BRANCH   6   7
ATOM      7  C   UNL     1      19.649  11.308 -26.055  1.00  0.00     0.041 C 
ATOM      8  O   UNL     1      19.817  10.234 -26.690  1.00  0.00    -0.550 OA
ATOM      9  O   UNL     1      20.125  12.501 -26.583  1.00  0.00    -0.550 OA
ENDBRANCH   6   7
ENDBRANCH   5   6
ENDBRANCH   4   5
ENDBRANCH   3   4
ENDBRANCH   2   3
ENDBRANCH   1   2
BRANCH   1  10
ATOM     10  C   UNL     1      17.529   9.263 -19.109  1.00  0.00     0.000 C 
BRANCH  10  11
ATOM     11  C   UNL     1      16.585   8.162 -19.619  1.00  0.00    -0.000 C 
BRANCH  11  12
ATOM     12  C   UNL     1      16.219   8.329 -21.104  1.00  0.00    -0.000 C 
BRANCH  12  13
ATOM     13  C   UNL     1      15.304   7.211 -21.646  1.00  0.00    -0.000 C 
BRANCH  13  14
ATOM     14  C   UNL     1      14.503   6.525 -20.526  1.00  0.00    -0.000 C 
BRANCH  14  15
ATOM     15  C   UNL     1      13.215   7.283 -20.170  1.00  0.00    -0.003 C 
ATOM     16  C   UNL     1      13.023   7.449 -18.663  1.00  0.00     0.004 C 
ENDBRANCH  14  15
ENDBRANCH  13  14
ENDBRANCH  12  13
ENDBRANCH  11  12
ENDBRANCH  10  11
ENDBRANCH   1  10
TORSDOF 12
ENDMDL
MODEL 4
REMARK VINA RESULT:    -4.906      2.999      6.457
REMARK INTER + INTRA:          -9.604
REMARK INTER:                  -8.665
REMARK INTRA:                  -0.939
REMARK UNBOUND:                -1.257
REMARK SMILES CCCCCCCCCCCCCC(=O)[O-]
REMARK SMILES IDX 8 1 9 2 10 3 11 4 12 5 13 6 14 7 15 8 16 9 7 10 6 11 5 12
REMARK SMILES IDX 4 13 3 14 2 15 1 16
REMARK H PARENT
REMARK Flexibility Score: inf
ROOT
ATOM      1  C   UNL     1      17.877   9.365 -19.327  1.00  0.00     0.000 C 
ENDROOT
BRANCH   1   2
ATOM      2  C   UNL     1      16.731   8.413 -19.702  1.00  0.00     0.000 C 
BRANCH   2   3
ATOM      3  C   UNL     1      16.392   8.528 -21.196  1.00  0.00     0.000 C 
BRANCH   3   4
ATOM      4  C   UNL     1      15.663   7.286 -21.734  1.00  0.00     0.000 C 
BRANCH   4   5
ATOM      5  C   UNL     1      14.792   6.601 -20.666  1.00  0.00     0.006 C 
BRANCH   5   6
ATOM      6  C   UNL     1      13.328   7.057 -20.735  1.00  0.00     0.053 C 
BRANCH   6   7
ATOM      7  C   UNL     1      12.864   7.632 -19.433  1.00  0.00     0.041 C 
ATOM      8  O   UNL     1      13.348   7.213 -18.348  1.00  0.00    -0.550 OA
ATOM      9  O   UNL     1      11.874   8.605 -19.414  1.00  0.00    -0.550 OA
ENDBRANCH   6   7
ENDBRANCH   5   6
ENDBRANCH   4   5
ENDBRANCH   3   4
ENDBRANCH   2   3
ENDBRANCH   1   2
BRANCH   1  10
ATOM     10  C   UNL     1      19.153   9.108 -20.144  1.00  0.00     0.000 C 
BRANCH  10  11
ATOM     11  C   UNL     1      19.674  10.376 -20.841  1.00  0.00    -0.000 C 
BRANCH  11  12
ATOM     12  C   UNL     1      18.549  11.221 -21.464  1.00  0.00    -0.000 C 
BRANCH  12  13
ATOM     13  C   UNL     1      18.636  12.721 -21.114  1.00  0.00    -0.000 C 
BRANCH  13  14
ATOM     14  C   UNL     1      17.528  13.154 -20.139  1.00  0.00    -0.000 C 
BRANCH  14  15
ATOM     15  C   UNL     1      17.765  14.556 -19.559  1.00  0.00    -0.003 C 
ATOM     16  C   UNL     1      19.232  14.815 -19.216  1.00  0.00     0.004 C 
ENDBRANCH  14  15
ENDBRANCH  13  14
ENDBRANCH  12  13
ENDBRANCH  11  12
ENDBRANCH  10  11
ENDBRANCH   1  10
TORSDOF 12
ENDMDL
MODEL 5
REMARK VINA RESULT:    -4.810      3.337      6.783
REMARK INTER + INTRA:          -9.441
REMARK INTER:                  -8.701
REMARK INTRA:                  -0.739
REMARK UNBOUND:                -1.257
REMARK SMILES CCCCCCCCCCCCCC(=O)[O-]
REMARK SMILES IDX 8 1 9 2 10 3 11 4 12 5 13 6 14 7 15 8 16 9 7 10 6 11 5 12
REMARK SMILES IDX 4 13 3 14 2 15 1 16
REMARK H PARENT
REMARK Flexibility Score: inf
ROOT
ATOM      1  C   UNL     1      17.940   9.509 -19.397  1.00  0.00     0.000 C 
ENDROOT
BRANCH   1   2
ATOM      2  C   UNL     1      16.747   8.598 -19.727  1.00  0.00     0.000 C 
BRANCH   2   3
ATOM      3  C   UNL     1      16.453   8.607 -21.235  1.00  0.00     0.000 C 
BRANCH   3   4
ATOM      4  C   UNL     1      15.692   7.354 -21.697  1.00  0.00     0.000 C 
BRANCH   4   5
ATOM      5  C   UNL     1      14.818   6.748 -20.585  1.00  0.00     0.006 C 
BRANCH   5   6
ATOM      6  C   UNL     1      13.345   7.154 -20.721  1.00  0.00     0.053 C 
BRANCH   6   7
ATOM      7  C   UNL     1      12.810   7.738 -19.450  1.00  0.00     0.041 C 
ATOM      8  O   UNL     1      11.891   8.599 -19.487  1.00  0.00    -0.550 OA
ATOM      9  O   UNL     1      13.349   7.359 -18.228  1.00  0.00    -0.550 OA
ENDBRANCH   6   7
ENDBRANCH   5   6
ENDBRANCH   4   5
ENDBRANCH   3   4
ENDBRANCH   2   3
ENDBRANCH   1   2
BRANCH   1  10
ATOM     10  C   UNL     1      18.987   9.546 -20.522  1.00  0.00     0.000 C 
BRANCH  10  11
ATOM     11  C   UNL     1      19.377  10.979 -20.919  1.00  0.00    -0.000 C 
BRANCH  11  12
ATOM     12  C   UNL     1      18.752  11.421 -22.254  1.00  0.00    -0.000 C 
BRANCH  12  13
ATOM     13  C   UNL     1      19.789  11.679 -23.367  1.00  0.00    -0.000 C 
BRANCH  13  14
ATOM     14  C   UNL     1      19.156  11.640 -24.769  1.00  0.00    -0.000 C 
BRANCH  14  15
ATOM     15  C   UNL     1      20.125  11.119 -25.841  1.00  0.00    -0.003 C 
ATOM     16  C   UNL     1      19.450  10.182 -26.843  1.00  0.00     0.004 C 
ENDBRANCH  14  15
ENDBRANCH  13  14
ENDBRANCH  12  13
ENDBRANCH  11  12
ENDBRANCH  10  11
ENDBRANCH   1  10
TORSDOF 12
ENDMDL
MODEL 6
REMARK VINA RESULT:    -4.801      4.189      6.888
REMARK INTER + INTRA:          -9.425
REMARK INTER:                  -8.832
REMARK INTRA:                  -0.593
REMARK UNBOUND:                -1.257
REMARK SMILES CCCCCCCCCCCCCC(=O)[O-]
REMARK SMILES IDX 8 1 9 2 10 3 11 4 12 5 13 6 14 7 15 8 16 9 7 10 6 11 5 12
REMARK SMILES IDX 4 13 3 14 2 15 1 16
REMARK H PARENT
REMARK Flexibility Score: inf
ROOT
ATOM      1  C   UNL     1      13.334   7.457 -18.935  1.00  0.00     0.000 C 
ENDROOT
BRANCH   1   2
ATOM      2  C   UNL     1      11.979   8.091 -18.583  1.00  0.00     0.000 C 
BRANCH   2   3
ATOM      3  C   UNL     1      11.595   9.166 -19.613  1.00  0.00     0.000 C 
BRANCH   3   4
ATOM      4  C   UNL     1      10.856  10.355 -18.979  1.00  0.00     0.000 C 
BRANCH   4   5
ATOM      5  C   UNL     1      10.652  11.519 -19.964  1.00  0.00     0.006 C 
BRANCH   5   6
ATOM      6  C   UNL     1       9.612  12.528 -19.459  1.00  0.00     0.053 C 
BRANCH   6   7
ATOM      7  C   UNL     1       8.796  13.093 -20.581  1.00  0.00     0.041 C 
ATOM      8  O   UNL     1       8.936  14.297 -20.922  1.00  0.00    -0.550 OA
ATOM      9  O   UNL     1       7.856  12.300 -21.226  1.00  0.00    -0.550 OA
ENDBRANCH   6   7
ENDBRANCH   5   6
ENDBRANCH   4   5
ENDBRANCH   3   4
ENDBRANCH   2   3
ENDBRANCH   1   2
BRANCH   1  10
ATOM     10  C   UNL     1      13.515   7.244 -20.446  1.00  0.00     0.000 C 
BRANCH  10  11
ATOM     11  C   UNL     1      14.900   6.680 -20.802  1.00  0.00    -0.000 C 
BRANCH  11  12
ATOM     12  C   UNL     1      15.620   7.503 -21.885  1.00  0.00    -0.000 C 
BRANCH  12  13
ATOM     13  C   UNL     1      16.450   8.676 -21.321  1.00  0.00    -0.000 C 
BRANCH  13  14
ATOM     14  C   UNL     1      16.811   8.471 -19.840  1.00  0.00    -0.000 C 
BRANCH  14  15
ATOM     15  C   UNL     1      17.949   9.392 -19.376  1.00  0.00    -0.003 C 
ATOM     16  C   UNL     1      19.310   8.983 -19.941  1.00  0.00     0.004 C 
ENDBRANCH  14  15
ENDBRANCH  13  14
ENDBRANCH  12  13
ENDBRANCH  11  12
ENDBRANCH  10  11
ENDBRANCH   1  10
TORSDOF 12
ENDMDL
MODEL 7
REMARK VINA RESULT:    -4.670      2.408      4.101
REMARK INTER + INTRA:          -9.202
REMARK INTER:                  -8.451
REMARK INTRA:                  -0.751
REMARK UNBOUND:                -1.257
REMARK SMILES CCCCCCCCCCCCCC(=O)[O-]
REMARK SMILES IDX 8 1 9 2 10 3 11 4 12 5 13 6 14 7 15 8 16 9 7 10 6 11 5 12
REMARK SMILES IDX 4 13 3 14 2 15 1 16
REMARK H PARENT
REMARK Flexibility Score: inf
ROOT
ATOM      1  C   UNL     1      14.897   6.559 -20.500  1.00  0.00     0.000 C 
ENDROOT
BRANCH   1   2
ATOM      2  C   UNL     1      15.032   7.649 -21.576  1.00  0.00     0.000 C 
BRANCH   2   3
ATOM      3  C   UNL     1      16.273   8.519 -21.320  1.00  0.00     0.000 C 
BRANCH   3   4
ATOM      4  C   UNL     1      16.787   8.405 -19.876  1.00  0.00     0.000 C 
BRANCH   4   5
ATOM      5  C   UNL     1      17.771   9.529 -19.507  1.00  0.00     0.006 C 
BRANCH   5   6
ATOM      6  C   UNL     1      18.015  10.491 -20.677  1.00  0.00     0.053 C 
BRANCH   6   7
ATOM      7  C   UNL     1      17.970  11.922 -20.238  1.00  0.00     0.041 C 
ATOM      8  O   UNL     1      16.863  12.491 -20.047  1.00  0.00    -0.550 OA
ATOM      9  O   UNL     1      19.149  12.637 -20.072  1.00  0.00    -0.550 OA
ENDBRANCH   6   7
ENDBRANCH   5   6
ENDBRANCH   4   5
ENDBRANCH   3   4
ENDBRANCH   2   3
ENDBRANCH   1   2
BRANCH   1  10
ATOM     10  C   UNL     1      13.644   6.737 -19.629  1.00  0.00     0.000 C 
BRANCH  10  11
ATOM     11  C   UNL     1      12.723   7.857 -20.139  1.00  0.00    -0.000 C 
BRANCH  11  12
ATOM     12  C   UNL     1      11.951   8.559 -19.009  1.00  0.00    -0.000 C 
BRANCH  12  13
ATOM     13  C   UNL     1      11.125   9.772 -19.483  1.00  0.00    -0.000 C 
BRANCH  13  14
ATOM     14  C   UNL     1      10.797  10.737 -18.330  1.00  0.00    -0.000 C 
BRANCH  14  15
ATOM     15  C   UNL     1      10.370  12.127 -18.825  1.00  0.00    -0.003 C 
ATOM     16  C   UNL     1       9.845  12.109 -20.260  1.00  0.00     0.004 C 
ENDBRANCH  14  15
ENDBRANCH  13  14
ENDBRANCH  12  13
ENDBRANCH  11  12
ENDBRANCH  10  11
ENDBRANCH   1  10
TORSDOF 12
ENDMDL
MODEL 8
REMARK VINA RESULT:    -4.535      4.991      7.250
REMARK INTER + INTRA:          -8.973
REMARK INTER:                  -8.437
REMARK INTRA:                  -0.536
REMARK UNBOUND:                -1.257
REMARK SMILES CCCCCCCCCCCCCC(=O)[O-]
REMARK SMILES IDX 8 1 9 2 10 3 11 4 12 5 13 6 14 7 15 8 16 9 7 10 6 11 5 12
REMARK SMILES IDX 4 13 3 14 2 15 1 16
REMARK H PARENT
REMARK Flexibility Score: inf
ROOT
ATOM      1  C   UNL     1      11.799   9.037 -19.379  1.00  0.00     0.000 C 
ENDROOT
BRANCH   1   2
ATOM      2  C   UNL     1      12.569   8.300 -18.272  1.00  0.00     0.000 C 
BRANCH   2   3
ATOM      3  C   UNL     1      13.340   7.102 -18.848  1.00  0.00     0.000 C 
BRANCH   3   4
ATOM      4  C   UNL     1      13.592   7.232 -20.359  1.00  0.00     0.000 C 
BRANCH   4   5
ATOM      5  C   UNL     1      14.892   6.541 -20.805  1.00  0.00     0.006 C 
BRANCH   5   6
ATOM      6  C   UNL     1      15.600   7.310 -21.928  1.00  0.00     0.053 C 
BRANCH   6   7
ATOM      7  C   UNL     1      16.248   8.561 -21.421  1.00  0.00     0.041 C 
ATOM      8  O   UNL     1      16.242   9.607 -22.123  1.00  0.00    -0.550 OA
ATOM      9  O   UNL     1      16.891   8.563 -20.190  1.00  0.00    -0.550 OA
ENDBRANCH   6   7
ENDBRANCH   5   6
ENDBRANCH   4   5
ENDBRANCH   3   4
ENDBRANCH   2   3
ENDBRANCH   1   2
BRANCH   1  10
ATOM     10  C   UNL     1      10.729   9.991 -18.823  1.00  0.00     0.000 C 
BRANCH  10  11
ATOM     11  C   UNL     1      10.675  11.326 -19.583  1.00  0.00    -0.000 C 
BRANCH  11  12
ATOM     12  C   UNL     1      10.385  12.525 -18.664  1.00  0.00    -0.000 C 
BRANCH  12  13
ATOM     13  C   UNL     1       9.307  13.481 -19.216  1.00  0.00    -0.000 C 
BRANCH  13  14
ATOM     14  C   UNL     1       9.333  14.851 -18.516  1.00  0.00    -0.000 C 
BRANCH  14  15
ATOM     15  C   UNL     1       9.713  14.749 -17.031  1.00  0.00    -0.003 C 
ATOM     16  C   UNL     1       8.941  15.734 -16.154  1.00  0.00     0.004 C 
ENDBRANCH  14  15
ENDBRANCH  13  14
ENDBRANCH  12  13
ENDBRANCH  11  12
ENDBRANCH  10  11
ENDBRANCH   1  10
TORSDOF 12
ENDMDL
MODEL 9
REMARK VINA RESULT:    -4.429      1.187      2.492
REMARK INTER + INTRA:          -8.793
REMARK INTER:                  -7.892
REMARK INTRA:                  -0.901
REMARK UNBOUND:                -1.257
REMARK SMILES CCCCCCCCCCCCCC(=O)[O-]
REMARK SMILES IDX 8 1 9 2 10 3 11 4 12 5 13 6 14 7 15 8 16 9 7 10 6 11 5 12
REMARK SMILES IDX 4 13 3 14 2 15 1 16
REMARK H PARENT
REMARK Flexibility Score: inf
ROOT
ATOM      1  C   UNL     1      19.478  10.577 -20.291  1.00  0.00     0.000 C 
ENDROOT
BRANCH   1   2
ATOM      2  C   UNL     1      19.277  11.051 -21.739  1.00  0.00     0.000 C 
BRANCH   2   3
ATOM      3  C   UNL     1      18.479  12.364 -21.778  1.00  0.00     0.000 C 
BRANCH   3   4
ATOM      4  C   UNL     1      18.504  13.111 -20.434  1.00  0.00     0.000 C 
BRANCH   4   5
ATOM      5  C   UNL     1      17.383  14.159 -20.318  1.00  0.00     0.006 C 
BRANCH   5   6
ATOM      6  C   UNL     1      17.925  15.549 -19.962  1.00  0.00     0.053 C 
BRANCH   6   7
ATOM      7  C   UNL     1      18.194  15.681 -18.495  1.00  0.00     0.041 C 
ATOM      8  O   UNL     1      17.250  15.924 -17.698  1.00  0.00    -0.550 OA
ATOM      9  O   UNL     1      19.492  15.570 -18.012  1.00  0.00    -0.550 OA
ENDBRANCH   6   7
ENDBRANCH   5   6
ENDBRANCH   4   5
ENDBRANCH   3   4
ENDBRANCH   2   3
ENDBRANCH   1   2
BRANCH   1  10
ATOM     10  C   UNL     1      19.249   9.066 -20.125  1.00  0.00     0.000 C 
BRANCH  10  11
ATOM     11  C   UNL     1      18.150   8.744 -19.099  1.00  0.00    -0.000 C 
BRANCH  11  12
ATOM     12  C   UNL     1      16.739   8.752 -19.713  1.00  0.00    -0.000 C 
BRANCH  12  13
ATOM     13  C   UNL     1      16.721   8.453 -21.227  1.00  0.00    -0.000 C 
BRANCH  13  14
ATOM     14  C   UNL     1      15.425   7.748 -21.662  1.00  0.00    -0.000 C 
BRANCH  14  15
ATOM     15  C   UNL     1      14.850   6.838 -20.566  1.00  0.00    -0.003 C 
ATOM     16  C   UNL     1      13.442   7.250 -20.134  1.00  0.00     0.004 C 
ENDBRANCH  14  15
ENDBRANCH  13  14
ENDBRANCH  12  13
ENDBRANCH  11  12
ENDBRANCH  10  11
ENDBRANCH   1  10
TORSDOF 12
ENDMDL
