MODEL 1
REMARK VINA RESULT:    -3.664      0.000      0.000
REMARK INTER + INTRA:          -5.340
REMARK INTER:                  -4.949
REMARK INTRA:                  -0.391
REMARK UNBOUND:                -0.391
REMARK SMILES CCCCCCCC(=O)[O-]
REMARK SMILES IDX 5 1 6 2 7 3 8 4 9 5 10 6 4 7 3 8 2 9 1 10
REMARK H PARENT
REMARK Flexibility Score: inf
ROOT
ATOM      1  C   UNL     1     -10.598  -0.184 -41.543  1.00  0.00     0.000 C 
ENDROOT
BRANCH   1   2
ATOM      2  C   UNL     1     -11.904  -0.161 -40.733  1.00  0.00     0.006 C 
BRANCH   2   3
ATOM      3  C   UNL     1     -11.986  -1.304 -39.713  1.00  0.00     0.053 C 
BRANCH   3   4
ATOM      4  C   UNL     1     -13.354  -1.912 -39.721  1.00  0.00     0.041 C 
ATOM      5  O   UNL     1     -13.540  -3.058 -39.233  1.00  0.00    -0.550 OA
ATOM      6  O   UNL     1     -14.413  -1.234 -40.310  1.00  0.00    -0.550 OA
ENDBRANCH   3   4
ENDBRANCH   2   3
ENDBRANCH   1   2
BRANCH   1   7
ATOM      7  C   UNL     1      -9.831  -1.507 -41.392  1.00  0.00     0.000 C 
BRANCH   7   8
ATOM      8  C   UNL     1      -8.317  -1.269 -41.417  1.00  0.00    -0.000 C 
BRANCH   8   9
ATOM      9  C   UNL     1      -7.693  -1.555 -40.046  1.00  0.00    -0.003 C 
ATOM     10  C   UNL     1      -8.605  -2.438 -39.199  1.00  0.00     0.004 C 
ENDBRANCH   8   9
ENDBRANCH   7   8
ENDBRANCH   1   7
TORSDOF 6
ENDMDL
MODEL 2
REMARK VINA RESULT:    -3.659      8.205      9.682
REMARK INTER + INTRA:          -5.334
REMARK INTER:                  -4.697
REMARK INTRA:                  -0.638
REMARK UNBOUND:                -0.391
REMARK SMILES CCCCCCCC(=O)[O-]
REMARK SMILES IDX 5 1 6 2 7 3 8 4 9 5 10 6 4 7 3 8 2 9 1 10
REMARK H PARENT
REMARK Flexibility Score: inf
ROOT
ATOM      1  C   UNL     1     -16.586   6.859 -41.306  1.00  0.00     0.000 C 
ENDROOT
BRANCH   1   2
ATOM      2  C   UNL     1     -17.077   5.783 -40.323  1.00  0.00     0.006 C 
BRANCH   2   3
ATOM      3  C   UNL     1     -16.507   4.393 -40.635  1.00  0.00     0.053 C 
BRANCH   3   4
ATOM      4  C   UNL     1     -17.616   3.416 -40.867  1.00  0.00     0.041 C 
ATOM      5  O   UNL     1     -18.529   3.678 -41.695  1.00  0.00    -0.550 OA
ATOM      6  O   UNL     1     -17.668   2.237 -40.135  1.00  0.00    -0.550 OA
ENDBRANCH   3   4
ENDBRANCH   2   3
ENDBRANCH   1   2
BRANCH   1   7
ATOM      7  C   UNL     1     -17.714   7.413 -42.189  1.00  0.00     0.000 C 
BRANCH   7   8
ATOM      8  C   UNL     1     -17.722   6.729 -43.562  1.00  0.00    -0.000 C 
BRANCH   8   9
ATOM      9  C   UNL     1     -16.330   6.192 -43.916  1.00  0.00    -0.003 C 
ATOM     10  C   UNL     1     -16.409   4.759 -44.434  1.00  0.00     0.004 C 
ENDBRANCH   8   9
ENDBRANCH   7   8
ENDBRANCH   1   7
TORSDOF 6
ENDMDL
MODEL 3
REMARK VINA RESULT:    -3.598      2.980      4.824
REMARK INTER + INTRA:          -5.251
REMARK INTER:                  -4.904
REMARK INTRA:                  -0.347
REMARK UNBOUND:                -0.391
REMARK SMILES CCCCCCCC(=O)[O-]
REMARK SMILES IDX 5 1 6 2 7 3 8 4 9 5 10 6 4 7 3 8 2 9 1 10
REMARK H PARENT
REMARK Flexibility Score: inf
ROOT
ATOM      1  C   UNL     1     -10.876  -0.752 -39.002  1.00  0.00     0.000 C 
ENDROOT
BRANCH   1   2
ATOM      2  C   UNL     1     -10.261  -0.053 -40.225  1.00  0.00     0.006 C 
BRANCH   2   3
ATOM      3  C   UNL     1     -10.341  -0.907 -41.497  1.00  0.00     0.053 C 
BRANCH   3   4
ATOM      4  C   UNL     1      -9.034  -1.590 -41.749  1.00  0.00     0.041 C 
ATOM      5  O   UNL     1      -7.990  -1.195 -41.166  1.00  0.00    -0.550 OA
ATOM      6  O   UNL     1      -8.958  -2.631 -42.666  1.00  0.00    -0.550 OA
ENDBRANCH   3   4
ENDBRANCH   2   3
ENDBRANCH   1   2
BRANCH   1   7
ATOM      7  C   UNL     1     -11.598  -2.058 -39.369  1.00  0.00     0.000 C 
BRANCH   7   8
ATOM      8  C   UNL     1     -13.043  -2.048 -38.854  1.00  0.00    -0.000 C 
BRANCH   8   9
ATOM      9  C   UNL     1     -14.032  -2.342 -39.988  1.00  0.00    -0.003 C 
ATOM     10  C   UNL     1     -14.717  -1.064 -40.465  1.00  0.00     0.004 C 
ENDBRANCH   8   9
ENDBRANCH   7   8
ENDBRANCH   1   7
TORSDOF 6
ENDMDL
MODEL 4
REMARK VINA RESULT:    -3.579      2.651      3.534
REMARK INTER + INTRA:          -5.226
REMARK INTER:                  -4.964
REMARK INTRA:                  -0.262
REMARK UNBOUND:                -0.391
REMARK SMILES CCCCCCCC(=O)[O-]
REMARK SMILES IDX 5 1 6 2 7 3 8 4 9 5 10 6 4 7 3 8 2 9 1 10
REMARK H PARENT
REMARK Flexibility Score: inf
ROOT
ATOM      1  C   UNL     1     -10.688  -0.674 -38.411  1.00  0.00     0.000 C 
ENDROOT
BRANCH   1   2
ATOM      2  C   UNL     1     -11.155  -1.594 -39.551  1.00  0.00     0.006 C 
BRANCH   2   3
ATOM      3  C   UNL     1     -12.377  -1.040 -40.294  1.00  0.00     0.053 C 
BRANCH   3   4
ATOM      4  C   UNL     1     -13.609  -1.799 -39.912  1.00  0.00     0.041 C 
ATOM      5  O   UNL     1     -13.516  -2.851 -39.226  1.00  0.00    -0.550 OA
ATOM      6  O   UNL     1     -14.854  -1.372 -40.353  1.00  0.00    -0.550 OA
ENDBRANCH   3   4
ENDBRANCH   2   3
ENDBRANCH   1   2
BRANCH   1   7
ATOM      7  C   UNL     1      -9.605  -1.322 -37.534  1.00  0.00     0.000 C 
BRANCH   7   8
ATOM      8  C   UNL     1      -9.630  -0.741 -36.115  1.00  0.00    -0.000 C 
BRANCH   8   9
ATOM      9  C   UNL     1     -10.940   0.012 -35.852  1.00  0.00    -0.003 C 
ATOM     10  C   UNL     1     -10.670   1.409 -35.302  1.00  0.00     0.004 C 
ENDBRANCH   8   9
ENDBRANCH   7   8
ENDBRANCH   1   7
TORSDOF 6
ENDMDL
MODEL 5
REMARK VINA RESULT:    -3.576      2.689      4.714
REMARK INTER + INTRA:          -5.222
REMARK INTER:                  -4.809
REMARK INTRA:                  -0.412
REMARK UNBOUND:                -0.391
REMARK SMILES CCCCCCCC(=O)[O-]
REMARK SMILES IDX 5 1 6 2 7 3 8 4 9 5 10 6 4 7 3 8 2 9 1 10
REMARK H PARENT
REMARK Flexibility Score: inf
ROOT
ATOM      1  C   UNL     1     -10.421  -0.006 -41.321  1.00  0.00     0.000 C 
ENDROOT
BRANCH   1   2
ATOM      2  C   UNL     1      -9.737  -1.307 -41.770  1.00  0.00     0.006 C 
BRANCH   2   3
ATOM      3  C   UNL     1      -8.236  -1.325 -41.452  1.00  0.00     0.053 C 
BRANCH   3   4
ATOM      4  C   UNL     1      -8.016  -1.490 -39.982  1.00  0.00     0.041 C 
ATOM      5  O   UNL     1      -7.486  -0.563 -39.313  1.00  0.00    -0.550 OA
ATOM      6  O   UNL     1      -8.351  -2.685 -39.358  1.00  0.00    -0.550 OA
ENDBRANCH   3   4
ENDBRANCH   2   3
ENDBRANCH   1   2
BRANCH   1   7
ATOM      7  C   UNL     1     -11.801  -0.250 -40.690  1.00  0.00     0.000 C 
BRANCH   7   8
ATOM      8  C   UNL     1     -11.805  -1.542 -39.865  1.00  0.00    -0.000 C 
BRANCH   8   9
ATOM      9  C   UNL     1     -13.235  -2.050 -39.646  1.00  0.00    -0.003 C 
ATOM     10  C   UNL     1     -14.254  -1.130 -40.314  1.00  0.00     0.004 C 
ENDBRANCH   8   9
ENDBRANCH   7   8
ENDBRANCH   1   7
TORSDOF 6
ENDMDL
MODEL 6
REMARK VINA RESULT:    -3.509      8.829     10.144
REMARK INTER + INTRA:          -5.132
REMARK INTER:                  -4.485
REMARK INTRA:                  -0.647
REMARK UNBOUND:                -0.391
REMARK SMILES CCCCCCCC(=O)[O-]
REMARK SMILES IDX 5 1 6 2 7 3 8 4 9 5 10 6 4 7 3 8 2 9 1 10
REMARK H PARENT
REMARK Flexibility Score: inf
ROOT
ATOM      1  C   UNL     1     -17.750   4.764 -41.978  1.00  0.00     0.000 C 
ENDROOT
BRANCH   1   2
ATOM      2  C   UNL     1     -18.705   5.927 -41.663  1.00  0.00     0.006 C 
BRANCH   2   3
ATOM      3  C   UNL     1     -18.116   7.294 -42.036  1.00  0.00     0.053 C 
BRANCH   3   4
ATOM      4  C   UNL     1     -17.506   7.943 -40.833  1.00  0.00     0.041 C 
ATOM      5  O   UNL     1     -17.885   7.617 -39.677  1.00  0.00    -0.550 OA
ATOM      6  O   UNL     1     -16.555   8.943 -40.990  1.00  0.00    -0.550 OA
ENDBRANCH   3   4
ENDBRANCH   2   3
ENDBRANCH   1   2
BRANCH   1   7
ATOM      7  C   UNL     1     -17.083   4.189 -40.719  1.00  0.00     0.000 C 
BRANCH   7   8
ATOM      8  C   UNL     1     -15.653   4.720 -40.566  1.00  0.00    -0.000 C 
BRANCH   8   9
ATOM      9  C   UNL     1     -15.107   5.225 -41.906  1.00  0.00    -0.003 C 
ATOM     10  C   UNL     1     -14.128   6.378 -41.703  1.00  0.00     0.004 C 
ENDBRANCH   8   9
ENDBRANCH   7   8
ENDBRANCH   1   7
TORSDOF 6
ENDMDL
MODEL 7
REMARK VINA RESULT:    -3.430      3.551      4.820
REMARK INTER + INTRA:          -5.024
REMARK INTER:                  -4.581
REMARK INTRA:                  -0.444
REMARK UNBOUND:                -0.391
REMARK SMILES CCCCCCCC(=O)[O-]
REMARK SMILES IDX 5 1 6 2 7 3 8 4 9 5 10 6 4 7 3 8 2 9 1 10
REMARK H PARENT
REMARK Flexibility Score: inf
ROOT
ATOM      1  C   UNL     1     -10.535   0.250 -39.479  1.00  0.00     0.000 C 
ENDROOT
BRANCH   1   2
ATOM      2  C   UNL     1     -10.965   0.498 -40.934  1.00  0.00     0.006 C 
BRANCH   2   3
ATOM      3  C   UNL     1     -11.966   1.653 -41.066  1.00  0.00     0.053 C 
BRANCH   3   4
ATOM      4  C   UNL     1     -11.384   2.755 -41.894  1.00  0.00     0.041 C 
ATOM      5  O   UNL     1     -12.136   3.492 -42.586  1.00  0.00    -0.550 OA
ATOM      6  O   UNL     1     -10.008   2.938 -41.939  1.00  0.00    -0.550 OA
ENDBRANCH   3   4
ENDBRANCH   2   3
ENDBRANCH   1   2
BRANCH   1   7
ATOM      7  C   UNL     1     -10.961  -1.133 -38.964  1.00  0.00     0.000 C 
BRANCH   7   8
ATOM      8  C   UNL     1     -11.897  -1.825 -39.962  1.00  0.00    -0.000 C 
BRANCH   8   9
ATOM      9  C   UNL     1     -13.293  -2.023 -39.361  1.00  0.00    -0.003 C 
ATOM     10  C   UNL     1     -14.369  -1.412 -40.255  1.00  0.00     0.004 C 
ENDBRANCH   8   9
ENDBRANCH   7   8
ENDBRANCH   1   7
TORSDOF 6
ENDMDL
MODEL 8
REMARK VINA RESULT:    -3.427      2.925      4.516
REMARK INTER + INTRA:          -5.020
REMARK INTER:                  -4.391
REMARK INTRA:                  -0.629
REMARK UNBOUND:                -0.391
REMARK SMILES CCCCCCCC(=O)[O-]
REMARK SMILES IDX 5 1 6 2 7 3 8 4 9 5 10 6 4 7 3 8 2 9 1 10
REMARK H PARENT
REMARK Flexibility Score: inf
ROOT
ATOM      1  C   UNL     1     -10.893  -1.533 -39.101  1.00  0.00     0.000 C 
ENDROOT
BRANCH   1   2
ATOM      2  C   UNL     1      -9.946  -2.654 -39.560  1.00  0.00     0.006 C 
BRANCH   2   3
ATOM      3  C   UNL     1      -8.521  -2.151 -39.827  1.00  0.00     0.053 C 
BRANCH   3   4
ATOM      4  C   UNL     1      -8.449  -1.475 -41.160  1.00  0.00     0.041 C 
ATOM      5  O   UNL     1      -9.069  -1.953 -42.147  1.00  0.00    -0.550 OA
ATOM      6  O   UNL     1      -7.658  -0.345 -41.324  1.00  0.00    -0.550 OA
ENDBRANCH   3   4
ENDBRANCH   2   3
ENDBRANCH   1   2
BRANCH   1   7
ATOM      7  C   UNL     1     -12.182  -1.470 -39.935  1.00  0.00     0.000 C 
BRANCH   7   8
ATOM      8  C   UNL     1     -12.217  -0.200 -40.794  1.00  0.00    -0.000 C 
BRANCH   8   9
ATOM      9  C   UNL     1     -11.157   0.806 -40.330  1.00  0.00    -0.003 C 
ATOM     10  C   UNL     1     -10.671   1.669 -41.492  1.00  0.00     0.004 C 
ENDBRANCH   8   9
ENDBRANCH   7   8
ENDBRANCH   1   7
TORSDOF 6
ENDMDL
MODEL 9
REMARK VINA RESULT:    -3.332      8.898     10.352
REMARK INTER + INTRA:          -4.892
REMARK INTER:                  -4.218
REMARK INTRA:                  -0.674
REMARK UNBOUND:                -0.391
REMARK SMILES CCCCCCCC(=O)[O-]
REMARK SMILES IDX 5 1 6 2 7 3 8 4 9 5 10 6 4 7 3 8 2 9 1 10
REMARK H PARENT
REMARK Flexibility Score: inf
ROOT
ATOM      1  C   UNL     1     -17.844   7.419 -42.008  1.00  0.00     0.000 C 
ENDROOT
BRANCH   1   2
ATOM      2  C   UNL     1     -18.066   7.093 -43.494  1.00  0.00     0.006 C 
BRANCH   2   3
ATOM      3  C   UNL     1     -16.751   6.984 -44.277  1.00  0.00     0.053 C 
BRANCH   3   4
ATOM      4  C   UNL     1     -16.098   5.663 -44.016  1.00  0.00     0.041 C 
ATOM      5  O   UNL     1     -15.061   5.600 -43.304  1.00  0.00    -0.550 OA
ATOM      6  O   UNL     1     -16.606   4.509 -44.598  1.00  0.00    -0.550 OA
ENDBRANCH   3   4
ENDBRANCH   2   3
ENDBRANCH   1   2
BRANCH   1   7
ATOM      7  C   UNL     1     -18.340   6.302 -41.077  1.00  0.00     0.000 C 
BRANCH   7   8
ATOM      8  C   UNL     1     -17.167   5.634 -40.350  1.00  0.00    -0.000 C 
BRANCH   8   9
ATOM      9  C   UNL     1     -17.037   4.160 -40.755  1.00  0.00    -0.003 C 
ATOM     10  C   UNL     1     -18.264   3.693 -41.531  1.00  0.00     0.004 C 
ENDBRANCH   8   9
ENDBRANCH   7   8
ENDBRANCH   1   7
TORSDOF 6
ENDMDL
