MODEL 1
REMARK VINA RESULT:    -5.060      0.000      0.000
REMARK INTER + INTRA:          -5.208
REMARK INTER:                  -5.208
REMARK INTRA:                   0.000
REMARK UNBOUND:                 0.000
REMARK SMILES Nc1ncnc2nc[nH]c12
REMARK SMILES IDX 8 1 7 2 6 3 5 4 4 5 3 6 2 7 10 8 9 9 1 11
REMARK H PARENT 9 10 1 12 1 13
REMARK Flexibility Score: inf
ROOT
ATOM      1  C   UNL     1       7.004   8.716  22.451  1.00  0.00     0.199 A 
ATOM      2  N   UNL     1       6.671   8.726  21.131  1.00  0.00    -0.217 NA
ATOM      3  C   UNL     1       7.870   8.839  20.535  1.00  0.00     0.182 A 
ATOM      4  N   UNL     1       8.108   8.895  19.203  1.00  0.00    -0.215 NA
ATOM      5  C   UNL     1       9.404   9.012  18.784  1.00  0.00     0.226 A 
ATOM      6  N   UNL     1      10.428   9.070  19.694  1.00  0.00    -0.217 NA
ATOM      7  C   UNL     1      10.190   9.013  21.039  1.00  0.00     0.152 A 
ATOM      8  C   UNL     1       8.865   8.895  21.449  1.00  0.00     0.127 A 
ATOM      9  N   UNL     1       8.338   8.818  22.678  1.00  0.00    -0.340 N 
ATOM     10  H   UNL     1       8.826   8.833  23.600  1.00  0.00     0.168 HD
ENDROOT
BRANCH   7  11
ATOM     11  N   UNL     1      11.272   9.075  21.969  1.00  0.00    -0.382 N 
ATOM     12  H   UNL     1      11.723   9.982  22.218  1.00  0.00     0.158 HD
ATOM     13  H   UNL     1      11.628   8.200  22.416  1.00  0.00     0.158 HD
ENDBRANCH   7  11
TORSDOF 1
ENDMDL
MODEL 2
REMARK VINA RESULT:    -4.781      1.195      3.201
REMARK INTER + INTRA:          -4.921
REMARK INTER:                  -4.921
REMARK INTRA:                   0.000
REMARK UNBOUND:                 0.000
REMARK SMILES Nc1ncnc2nc[nH]c12
REMARK SMILES IDX 8 1 7 2 6 3 5 4 4 5 3 6 2 7 10 8 9 9 1 11
REMARK H PARENT 9 10 1 12 1 13
REMARK Flexibility Score: inf
ROOT
ATOM      1  C   UNL     1      10.076   9.070  21.191  1.00  0.00     0.199 A 
ATOM      2  N   UNL     1       9.387   9.192  20.023  1.00  0.00    -0.217 NA
ATOM      3  C   UNL     1       8.116   9.018  20.422  1.00  0.00     0.182 A 
ATOM      4  N   UNL     1       7.013   9.044  19.637  1.00  0.00    -0.215 NA
ATOM      5  C   UNL     1       5.796   8.845  20.228  1.00  0.00     0.226 A 
ATOM      6  N   UNL     1       5.706   8.627  21.579  1.00  0.00    -0.217 NA
ATOM      7  C   UNL     1       6.818   8.600  22.373  1.00  0.00     0.152 A 
ATOM      8  C   UNL     1       8.049   8.804  21.755  1.00  0.00     0.127 A 
ATOM      9  N   UNL     1       9.286   8.833  22.269  1.00  0.00    -0.340 N 
ATOM     10  H   UNL     1       9.584   8.704  23.259  1.00  0.00     0.168 HD
ENDROOT
BRANCH   7  11
ATOM     11  N   UNL     1       6.700   8.371  23.777  1.00  0.00    -0.382 N 
ATOM     12  H   UNL     1       6.642   7.405  24.168  1.00  0.00     0.158 HD
ATOM     13  H   UNL     1       6.669   9.180  24.438  1.00  0.00     0.158 HD
ENDBRANCH   7  11
TORSDOF 1
ENDMDL
MODEL 3
REMARK VINA RESULT:    -4.659      1.194      3.019
REMARK INTER + INTRA:          -4.795
REMARK INTER:                  -4.795
REMARK INTRA:                   0.000
REMARK UNBOUND:                 0.000
REMARK SMILES Nc1ncnc2nc[nH]c12
REMARK SMILES IDX 8 1 7 2 6 3 5 4 4 5 3 6 2 7 10 8 9 9 1 11
REMARK H PARENT 9 10 1 12 1 13
REMARK Flexibility Score: inf
ROOT
ATOM      1  C   UNL     1       7.446   9.225  18.489  1.00  0.00     0.199 A 
ATOM      2  N   UNL     1       6.264   9.050  19.141  1.00  0.00    -0.217 NA
ATOM      3  C   UNL     1       6.661   8.883  20.414  1.00  0.00     0.182 A 
ATOM      4  N   UNL     1       5.864   8.670  21.487  1.00  0.00    -0.215 NA
ATOM      5  C   UNL     1       6.457   8.522  22.711  1.00  0.00     0.226 A 
ATOM      6  N   UNL     1       7.821   8.591  22.837  1.00  0.00    -0.217 NA
ATOM      7  C   UNL     1       8.627   8.806  21.755  1.00  0.00     0.152 A 
ATOM      8  C   UNL     1       8.008   8.954  20.516  1.00  0.00     0.127 A 
ATOM      9  N   UNL     1       8.531   9.172  19.303  1.00  0.00    -0.340 N 
ATOM     10  H   UNL     1       9.533   9.276  19.033  1.00  0.00     0.168 HD
ENDROOT
BRANCH   7  11
ATOM     11  N   UNL     1      10.044   8.874  21.910  1.00  0.00    -0.382 N 
ATOM     12  H   UNL     1      10.481   9.411  22.691  1.00  0.00     0.158 HD
ATOM     13  H   UNL     1      10.669   8.380  21.233  1.00  0.00     0.158 HD
ENDBRANCH   7  11
TORSDOF 1
ENDMDL
MODEL 4
REMARK VINA RESULT:    -4.643      3.163      4.783
REMARK INTER + INTRA:          -4.779
REMARK INTER:                  -4.779
REMARK INTRA:                   0.000
REMARK UNBOUND:                 0.000
REMARK SMILES Nc1ncnc2nc[nH]c12
REMARK SMILES IDX 8 1 7 2 6 3 5 4 4 5 3 6 2 7 10 8 9 9 1 11
REMARK H PARENT 9 10 1 12 1 13
REMARK Flexibility Score: inf
ROOT
ATOM      1  C   UNL     1       4.227   9.447  20.808  1.00  0.00     0.199 A 
ATOM      2  N   UNL     1       3.421   9.162  21.867  1.00  0.00    -0.217 NA
ATOM      3  C   UNL     1       4.304   8.776  22.803  1.00  0.00     0.182 A 
ATOM      4  N   UNL     1       4.021   8.379  24.066  1.00  0.00    -0.215 NA
ATOM      5  C   UNL     1       5.061   8.020  24.878  1.00  0.00     0.226 A 
ATOM      6  N   UNL     1       6.352   8.064  24.416  1.00  0.00    -0.217 NA
ATOM      7  C   UNL     1       6.640   8.465  23.141  1.00  0.00     0.152 A 
ATOM      8  C   UNL     1       5.569   8.826  22.328  1.00  0.00     0.127 A 
ATOM      9  N   UNL     1       5.546   9.252  21.058  1.00  0.00    -0.340 N 
ATOM     10  H   UNL     1       6.346   9.401  20.405  1.00  0.00     0.168 HD
ENDROOT
BRANCH   7  11
ATOM     11  N   UNL     1       7.991   8.503  22.682  1.00  0.00    -0.382 N 
ATOM     12  H   UNL     1       8.261   8.113  21.752  1.00  0.00     0.158 HD
ATOM     13  H   UNL     1       8.735   8.927  23.281  1.00  0.00     0.158 HD
ENDBRANCH   7  11
TORSDOF 1
ENDMDL
MODEL 5
REMARK VINA RESULT:    -4.556      2.526      5.420
REMARK INTER + INTRA:          -4.689
REMARK INTER:                  -4.689
REMARK INTRA:                   0.000
REMARK UNBOUND:                 0.000
REMARK SMILES Nc1ncnc2nc[nH]c12
REMARK SMILES IDX 8 1 7 2 6 3 5 4 4 5 3 6 2 7 10 8 9 9 1 11
REMARK H PARENT 9 10 1 12 1 13
REMARK Flexibility Score: inf
ROOT
ATOM      1  C   UNL     1       7.187   8.873  21.214  1.00  0.00     0.199 A 
ATOM      2  N   UNL     1       7.672   8.545  22.444  1.00  0.00    -0.217 NA
ATOM      3  C   UNL     1       6.551   8.463  23.180  1.00  0.00     0.182 A 
ATOM      4  N   UNL     1       6.470   8.160  24.497  1.00  0.00    -0.215 NA
ATOM      5  C   UNL     1       5.232   8.124  25.076  1.00  0.00     0.226 A 
ATOM      6  N   UNL     1       4.109   8.389  24.335  1.00  0.00    -0.217 NA
ATOM      7  C   UNL     1       4.188   8.695  23.005  1.00  0.00     0.152 A 
ATOM      8  C   UNL     1       5.456   8.727  22.431  1.00  0.00     0.127 A 
ATOM      9  N   UNL     1       5.836   8.991  21.174  1.00  0.00    -0.340 N 
ATOM     10  H   UNL     1       5.244   9.233  20.351  1.00  0.00     0.168 HD
ENDROOT
BRANCH   7  11
ATOM     11  N   UNL     1       3.005   8.967  22.253  1.00  0.00    -0.382 N 
ATOM     12  H   UNL     1       2.210   9.502  22.665  1.00  0.00     0.158 HD
ATOM     13  H   UNL     1       2.922   8.628  21.268  1.00  0.00     0.158 HD
ENDBRANCH   7  11
TORSDOF 1
ENDMDL
MODEL 6
REMARK VINA RESULT:    -4.460      1.151      2.670
REMARK INTER + INTRA:          -4.590
REMARK INTER:                  -4.590
REMARK INTRA:                   0.000
REMARK UNBOUND:                 0.000
REMARK SMILES Nc1ncnc2nc[nH]c12
REMARK SMILES IDX 8 1 7 2 6 3 5 4 4 5 3 6 2 7 10 8 9 9 1 11
REMARK H PARENT 9 10 1 12 1 13
REMARK Flexibility Score: inf
ROOT
ATOM      1  C   UNL     1       6.100   8.853  19.301  1.00  0.00     0.199 A 
ATOM      2  N   UNL     1       6.379   8.934  20.631  1.00  0.00    -0.217 NA
ATOM      3  C   UNL     1       7.723   8.924  20.642  1.00  0.00     0.182 A 
ATOM      4  N   UNL     1       8.523   8.987  21.733  1.00  0.00    -0.215 NA
ATOM      5  C   UNL     1       9.876   8.964  21.542  1.00  0.00     0.226 A 
ATOM      6  N   UNL     1      10.400   8.881  20.277  1.00  0.00    -0.217 NA
ATOM      7  C   UNL     1       9.594   8.818  19.175  1.00  0.00     0.152 A 
ATOM      8  C   UNL     1       8.219   8.841  19.386  1.00  0.00     0.127 A 
ATOM      9  N   UNL     1       7.203   8.795  18.514  1.00  0.00    -0.340 N 
ATOM     10  H   UNL     1       7.239   8.729  17.474  1.00  0.00     0.168 HD
ENDROOT
BRANCH   7  11
ATOM     11  N   UNL     1      10.162   8.731  17.867  1.00  0.00    -0.382 N 
ATOM     12  H   UNL     1      10.616   7.855  17.528  1.00  0.00     0.158 HD
ATOM     13  H   UNL     1      10.129   9.557  17.228  1.00  0.00     0.158 HD
ENDBRANCH   7  11
TORSDOF 1
ENDMDL
MODEL 7
REMARK VINA RESULT:    -4.456      3.057      4.687
REMARK INTER + INTRA:          -4.586
REMARK INTER:                  -4.586
REMARK INTRA:                   0.000
REMARK UNBOUND:                 0.000
REMARK SMILES Nc1ncnc2nc[nH]c12
REMARK SMILES IDX 8 1 7 2 6 3 5 4 4 5 3 6 2 7 10 8 9 9 1 11
REMARK H PARENT 9 10 1 12 1 13
REMARK Flexibility Score: inf
ROOT
ATOM      1  C   UNL     1       2.977   8.783  21.723  1.00  0.00     0.199 A 
ATOM      2  N   UNL     1       4.070   8.706  20.915  1.00  0.00    -0.217 NA
ATOM      3  C   UNL     1       5.081   8.696  21.801  1.00  0.00     0.182 A 
ATOM      4  N   UNL     1       6.403   8.628  21.517  1.00  0.00    -0.215 NA
ATOM      5  C   UNL     1       7.287   8.629  22.560  1.00  0.00     0.226 A 
ATOM      6  N   UNL     1       6.837   8.698  23.854  1.00  0.00    -0.217 NA
ATOM      7  C   UNL     1       5.503   8.766  24.142  1.00  0.00     0.152 A 
ATOM      8  C   UNL     1       4.616   8.764  23.069  1.00  0.00     0.127 A 
ATOM      9  N   UNL     1       3.278   8.820  23.046  1.00  0.00    -0.340 N 
ATOM     10  H   UNL     1       2.613   8.880  23.847  1.00  0.00     0.168 HD
ENDROOT
BRANCH   7  11
ATOM     11  N   UNL     1       5.058   8.836  25.497  1.00  0.00    -0.382 N 
ATOM     12  H   UNL     1       4.174   8.373  25.804  1.00  0.00     0.158 HD
ATOM     13  H   UNL     1       5.619   9.360  26.205  1.00  0.00     0.158 HD
ENDBRANCH   7  11
TORSDOF 1
ENDMDL
MODEL 8
REMARK VINA RESULT:    -4.347      3.485      5.189
REMARK INTER + INTRA:          -4.474
REMARK INTER:                  -4.474
REMARK INTRA:                   0.000
REMARK UNBOUND:                 0.000
REMARK SMILES Nc1ncnc2nc[nH]c12
REMARK SMILES IDX 8 1 7 2 6 3 5 4 4 5 3 6 2 7 10 8 9 9 1 11
REMARK H PARENT 9 10 1 12 1 13
REMARK Flexibility Score: inf
ROOT
ATOM      1  C   UNL     1       6.816   8.135  23.302  1.00  0.00     0.199 A 
ATOM      2  N   UNL     1       5.736   7.446  23.763  1.00  0.00    -0.217 NA
ATOM      3  C   UNL     1       4.788   7.768  22.867  1.00  0.00     0.182 A 
ATOM      4  N   UNL     1       3.503   7.341  22.862  1.00  0.00    -0.215 NA
ATOM      5  C   UNL     1       2.682   7.781  21.861  1.00  0.00     0.226 A 
ATOM      6  N   UNL     1       3.155   8.629  20.894  1.00  0.00    -0.217 NA
ATOM      7  C   UNL     1       4.452   9.060  20.897  1.00  0.00     0.152 A 
ATOM      8  C   UNL     1       5.275   8.604  21.923  1.00  0.00     0.127 A 
ATOM      9  N   UNL     1       6.566   8.853  22.178  1.00  0.00    -0.340 N 
ATOM     10  H   UNL     1       7.232   9.455  21.647  1.00  0.00     0.168 HD
ENDROOT
BRANCH   7  11
ATOM     11  N   UNL     1       4.923   9.943  19.878  1.00  0.00    -0.382 N 
ATOM     12  H   UNL     1       5.933  10.199  19.805  1.00  0.00     0.158 HD
ATOM     13  H   UNL     1       4.254  10.349  19.187  1.00  0.00     0.158 HD
ENDBRANCH   7  11
TORSDOF 1
ENDMDL
MODEL 9
REMARK VINA RESULT:    -4.340      4.533      5.657
REMARK INTER + INTRA:          -4.467
REMARK INTER:                  -4.467
REMARK INTRA:                   0.000
REMARK UNBOUND:                 0.000
REMARK SMILES Nc1ncnc2nc[nH]c12
REMARK SMILES IDX 8 1 7 2 6 3 5 4 4 5 3 6 2 7 10 8 9 9 1 11
REMARK H PARENT 9 10 1 12 1 13
REMARK Flexibility Score: inf
ROOT
ATOM      1  C   UNL     1       6.503   8.318  24.078  1.00  0.00     0.199 A 
ATOM      2  N   UNL     1       5.590   9.235  23.656  1.00  0.00    -0.217 NA
ATOM      3  C   UNL     1       4.670   8.465  23.051  1.00  0.00     0.182 A 
ATOM      4  N   UNL     1       3.533   8.887  22.449  1.00  0.00    -0.215 NA
ATOM      5  C   UNL     1       2.715   7.948  21.885  1.00  0.00     0.226 A 
ATOM      6  N   UNL     1       3.046   6.618  21.931  1.00  0.00    -0.217 NA
ATOM      7  C   UNL     1       4.194   6.190  22.538  1.00  0.00     0.152 A 
ATOM      8  C   UNL     1       5.015   7.159  23.108  1.00  0.00     0.127 A 
ATOM      9  N   UNL     1       6.180   7.039  23.758  1.00  0.00    -0.340 N 
ATOM     10  H   UNL     1       6.722   6.174  23.973  1.00  0.00     0.168 HD
ENDROOT
BRANCH   7  11
ATOM     11  N   UNL     1       4.518   4.800  22.575  1.00  0.00    -0.382 N 
ATOM     12  H   UNL     1       5.389   4.433  22.132  1.00  0.00     0.158 HD
ATOM     13  H   UNL     1       3.878   4.126  23.052  1.00  0.00     0.158 HD
ENDBRANCH   7  11
TORSDOF 1
ENDMDL
