MODEL 1
REMARK VINA RESULT:    -2.714      0.000      0.000
REMARK INTER + INTRA:          -2.547
REMARK INTER:                  -3.825
REMARK INTRA:                   1.278
REMARK UNBOUND:                 1.278
REMARK SMILES CC1=CCC(=C(C)C)C(=O)CC(C)=CCC1
REMARK SMILES IDX 12 1 14 2 13 3 15 4 16 5 2 6 1 7 3 8 11 10 9 11 10 12 5 13
REMARK SMILES IDX 6 14 7 15 8 16 4 17
REMARK H PARENT
REMARK Flexibility Score: 60.00
ROOT
ATOM      1  C   UNL     1      26.679 -10.858   8.149  1.00  0.00    -0.070 C 
ATOM      2  C   UNL     1      25.902 -11.846   8.655  1.00  0.00    -0.027 C 
ATOM      3  C   UNL     1      27.067  -9.735   9.079  1.00  0.00     0.039 C 
ENDROOT
BRANCH   2   4
ATOM      4  C   UNL     1      25.313 -13.003   7.884  1.00  0.00     0.032 C 
BRANCH   4   5
ATOM      5  C   UNL     1      23.788 -13.124   8.074  1.00  0.00     0.034 C 
BRANCH   5   6
ATOM      6  C   UNL     1      23.019 -12.280   7.077  1.00  0.00    -0.077 C 
ATOM      7  C   UNL     1      21.771 -11.575   7.546  1.00  0.00     0.039 C 
ATOM      8  C   UNL     1      23.402 -12.100   5.792  1.00  0.00    -0.023 CG0
ATOM      9  G   UNL     1      24.634 -12.690   5.148  1.00  0.00     0.000 G0
ENDBRANCH   5   6
ENDBRANCH   4   5
ENDBRANCH   2   4
BRANCH   1  10
ATOM     10  C   UNL     1      27.118 -10.789   6.696  1.00  0.00     0.111 C 
BRANCH  10  11
ATOM     11  C   UNL     1      25.944 -10.584   5.770  1.00  0.00     0.163 C 
ATOM     12  O   UNL     1      25.286  -9.513   5.875  1.00  0.00    -0.294 OA
BRANCH  11  13
ATOM     13  C   UNL     1      25.583 -11.581   4.714  1.00  0.00    -0.002 C 
ATOM     14  C   UNL     1      26.040 -11.466   3.431  1.00  0.00    -0.069 C 
ATOM     15  C   UNL     1      25.701 -12.499   2.379  1.00  0.00     0.039 C 
ATOM     16  C   UNL     1      26.875 -10.284   2.990  1.00  0.00     0.039 C 
BRANCH  13  17
ATOM     17  C   UNL     1      24.625 -12.689   5.111  1.00  0.00     0.066 CG0
ATOM     18  G   UNL     1      23.406 -12.097   5.777  1.00  0.00     0.000 G0
ENDBRANCH  13  17
ENDBRANCH  11  13
ENDBRANCH  10  11
ENDBRANCH   1  10
TORSDOF 0
ENDMDL
MODEL 2
REMARK VINA RESULT:    -2.339      1.517      3.886
REMARK INTER + INTRA:          -2.019
REMARK INTER:                  -3.856
REMARK INTRA:                   1.837
REMARK UNBOUND:                 1.278
REMARK SMILES CC1=CCC(=C(C)C)C(=O)CC(C)=CCC1
REMARK SMILES IDX 12 1 14 2 13 3 15 4 16 5 2 6 1 7 3 8 11 10 9 11 10 12 5 13
REMARK SMILES IDX 6 14 7 15 8 16 4 17
REMARK H PARENT
REMARK Flexibility Score: 60.00
ROOT
ATOM      1  C   UNL     1      24.653 -11.021   3.255  1.00  0.00    -0.070 C 
ATOM      2  C   UNL     1      23.638 -11.913   3.341  1.00  0.00    -0.027 C 
ATOM      3  C   UNL     1      25.226 -10.749   1.885  1.00  0.00     0.039 C 
ENDROOT
BRANCH   2   4
ATOM      4  C   UNL     1      22.992 -12.412   4.611  1.00  0.00     0.032 C 
BRANCH   4   5
ATOM      5  C   UNL     1      22.938 -11.333   5.710  1.00  0.00     0.034 C 
BRANCH   5   6
ATOM      6  C   UNL     1      22.830 -11.935   7.097  1.00  0.00    -0.077 C 
ATOM      7  C   UNL     1      21.503 -11.859   7.809  1.00  0.00     0.039 C 
ATOM      8  C   UNL     1      23.851 -12.561   7.725  1.00  0.00    -0.023 CG0
ATOM      9  G   UNL     1      25.238 -12.768   7.165  1.00  0.00     0.000 G0
ENDBRANCH   5   6
ENDBRANCH   4   5
ENDBRANCH   2   4
BRANCH   1  10
ATOM     10  C   UNL     1      25.282 -10.338   4.458  1.00  0.00     0.111 C 
BRANCH  10  11
ATOM     11  C   UNL     1      26.116 -11.299   5.269  1.00  0.00     0.163 C 
ATOM     12  O   UNL     1      27.041 -11.923   4.682  1.00  0.00    -0.294 OA
BRANCH  11  13
ATOM     13  C   UNL     1      25.906 -11.485   6.739  1.00  0.00    -0.002 C 
ATOM     14  C   UNL     1      26.341 -10.561   7.650  1.00  0.00    -0.069 C 
ATOM     15  C   UNL     1      26.091 -10.738   9.131  1.00  0.00     0.039 C 
ATOM     16  C   UNL     1      27.122  -9.338   7.225  1.00  0.00     0.039 C 
BRANCH  13  17
ATOM     17  C   UNL     1      25.255 -12.781   7.185  1.00  0.00     0.066 CG0
ATOM     18  G   UNL     1      23.872 -12.502   7.721  1.00  0.00     0.000 G0
ENDBRANCH  13  17
ENDBRANCH  11  13
ENDBRANCH  10  11
ENDBRANCH   1  10
TORSDOF 0
ENDMDL
MODEL 3
REMARK VINA RESULT:    -2.210      1.851      4.752
REMARK INTER + INTRA:          -1.837
REMARK INTER:                  -3.197
REMARK INTRA:                   1.360
REMARK UNBOUND:                 1.278
REMARK SMILES CC1=CCC(=C(C)C)C(=O)CC(C)=CCC1
REMARK SMILES IDX 12 1 14 2 13 3 15 4 16 5 2 6 1 7 3 8 11 10 9 11 10 12 5 13
REMARK SMILES IDX 6 14 7 15 8 16 4 17
REMARK H PARENT
REMARK Flexibility Score: 60.00
ROOT
ATOM      1  C   UNL     1      23.714 -11.519   4.017  1.00  0.00    -0.070 C 
ATOM      2  C   UNL     1      24.749 -12.218   3.493  1.00  0.00    -0.027 C 
ATOM      3  C   UNL     1      22.947 -10.611   3.087  1.00  0.00     0.039 C 
ENDROOT
BRANCH   2   4
ATOM      4  C   UNL     1      25.711 -13.097   4.256  1.00  0.00     0.032 C 
BRANCH   4   5
ATOM      5  C   UNL     1      27.068 -12.411   4.506  1.00  0.00     0.034 C 
BRANCH   5   6
ATOM      6  C   UNL     1      27.013 -10.920   4.236  1.00  0.00    -0.077 C 
ATOM      7  C   UNL     1      27.105 -10.447   2.806  1.00  0.00     0.039 C 
ATOM      8  C   UNL     1      26.860  -9.987   5.202  1.00  0.00    -0.023 CG0
ATOM      9  G   UNL     1      26.715 -10.263   6.680  1.00  0.00     0.000 G0
ENDBRANCH   5   6
ENDBRANCH   4   5
ENDBRANCH   2   4
BRANCH   1  10
ATOM     10  C   UNL     1      23.332 -11.550   5.488  1.00  0.00     0.111 C 
BRANCH  10  11
ATOM     11  C   UNL     1      24.203 -10.630   6.307  1.00  0.00     0.163 C 
ATOM     12  O   UNL     1      23.807  -9.448   6.494  1.00  0.00    -0.294 OA
BRANCH  11  13
ATOM     13  C   UNL     1      25.478 -11.098   6.937  1.00  0.00    -0.002 C 
ATOM     14  C   UNL     1      25.516 -12.194   7.753  1.00  0.00    -0.069 C 
ATOM     15  C   UNL     1      26.815 -12.683   8.355  1.00  0.00     0.039 C 
ATOM     16  C   UNL     1      24.260 -12.951   8.124  1.00  0.00     0.039 C 
BRANCH  13  17
ATOM     17  C   UNL     1      26.717 -10.258   6.690  1.00  0.00     0.066 CG0
ATOM     18  G   UNL     1      26.857  -9.973   5.214  1.00  0.00     0.000 G0
ENDBRANCH  13  17
ENDBRANCH  11  13
ENDBRANCH  10  11
ENDBRANCH   1  10
TORSDOF 0
ENDMDL
MODEL 4
REMARK VINA RESULT:    -1.602      1.816      3.873
REMARK INTER + INTRA:          -0.979
REMARK INTER:                  -3.447
REMARK INTRA:                   2.467
REMARK UNBOUND:                 1.278
REMARK SMILES CC1=CCC(=C(C)C)C(=O)CC(C)=CCC1
REMARK SMILES IDX 12 1 14 2 13 3 15 4 16 5 2 6 1 7 3 8 11 10 9 11 10 12 5 13
REMARK SMILES IDX 6 14 7 15 8 16 4 17
REMARK H PARENT
REMARK Flexibility Score: 60.00
ROOT
ATOM      1  C   UNL     1      23.877 -12.625   7.227  1.00  0.00    -0.070 C 
ATOM      2  C   UNL     1      22.849 -11.808   6.895  1.00  0.00    -0.027 C 
ATOM      3  C   UNL     1      23.944 -13.115   8.653  1.00  0.00     0.039 C 
ENDROOT
BRANCH   2   4
ATOM      4  C   UNL     1      22.646 -11.122   5.566  1.00  0.00     0.032 C 
BRANCH   4   5
ATOM      5  C   UNL     1      23.945 -10.499   5.018  1.00  0.00     0.034 C 
BRANCH   5   6
ATOM      6  C   UNL     1      24.586 -11.362   3.950  1.00  0.00    -0.077 C 
ATOM      7  C   UNL     1      23.688 -12.074   2.969  1.00  0.00     0.039 C 
ATOM      8  C   UNL     1      25.923 -11.513   3.808  1.00  0.00    -0.023 CG0
ATOM      9  G   UNL     1      26.980 -10.858   4.664  1.00  0.00     0.000 G0
ENDBRANCH   5   6
ENDBRANCH   4   5
ENDBRANCH   2   4
BRANCH   1  10
ATOM     10  C   UNL     1      24.990 -13.015   6.268  1.00  0.00     0.111 C 
BRANCH  10  11
ATOM     11  C   UNL     1      26.297 -12.358   6.637  1.00  0.00     0.163 C 
ATOM     12  O   UNL     1      27.114 -13.014   7.338  1.00  0.00    -0.294 OA
BRANCH  11  13
ATOM     13  C   UNL     1      26.661 -10.990   6.152  1.00  0.00    -0.002 C 
ATOM     14  C   UNL     1      26.623  -9.900   6.977  1.00  0.00    -0.069 C 
ATOM     15  C   UNL     1      27.029  -8.528   6.489  1.00  0.00     0.039 C 
ATOM     16  C   UNL     1      26.141 -10.007   8.407  1.00  0.00     0.039 C 
BRANCH  13  17
ATOM     17  C   UNL     1      27.002 -10.848   4.680  1.00  0.00     0.066 CG0
ATOM     18  G   UNL     1      25.940 -11.518   3.841  1.00  0.00     0.000 G0
ENDBRANCH  13  17
ENDBRANCH  11  13
ENDBRANCH  10  11
ENDBRANCH   1  10
TORSDOF 0
ENDMDL
MODEL 5
REMARK VINA RESULT:    -0.614      1.704      3.894
REMARK INTER + INTRA:           0.413
REMARK INTER:                  -2.164
REMARK INTRA:                   2.577
REMARK UNBOUND:                 1.278
REMARK SMILES CC1=CCC(=C(C)C)C(=O)CC(C)=CCC1
REMARK SMILES IDX 12 1 14 2 13 3 15 4 16 5 2 6 1 7 3 8 11 10 9 11 10 12 5 13
REMARK SMILES IDX 6 14 7 15 8 16 4 17
REMARK H PARENT
REMARK Flexibility Score: 60.00
ROOT
ATOM      1  C   UNL     1      26.113  -9.598   6.447  1.00  0.00    -0.070 C 
ATOM      2  C   UNL     1      26.189  -9.384   5.112  1.00  0.00    -0.027 C 
ATOM      3  C   UNL     1      25.183  -8.715   7.241  1.00  0.00     0.039 C 
ENDROOT
BRANCH   2   4
ATOM      4  C   UNL     1      27.125 -10.073   4.148  1.00  0.00     0.032 C 
BRANCH   4   5
ATOM      5  C   UNL     1      26.496 -10.275   2.755  1.00  0.00     0.034 C 
BRANCH   5   6
ATOM      6  C   UNL     1      25.126 -10.919   2.835  1.00  0.00    -0.077 C 
ATOM      7  C   UNL     1      24.034 -10.393   1.937  1.00  0.00     0.039 C 
ATOM      8  C   UNL     1      24.831 -11.958   3.648  1.00  0.00    -0.023 CG0
ATOM      9  G   UNL     1      25.793 -12.642   4.590  1.00  0.00     0.000 G0
ENDBRANCH   5   6
ENDBRANCH   4   5
ENDBRANCH   2   4
BRANCH   1  10
ATOM     10  C   UNL     1      26.956 -10.624   7.187  1.00  0.00     0.111 C 
BRANCH  10  11
ATOM     11  C   UNL     1      26.400 -12.018   7.027  1.00  0.00     0.163 C 
ATOM     12  O   UNL     1      26.833 -12.921   7.794  1.00  0.00    -0.294 OA
BRANCH  11  13
ATOM     13  C   UNL     1      25.328 -12.335   6.033  1.00  0.00    -0.002 C 
ATOM     14  C   UNL     1      24.013 -12.424   6.397  1.00  0.00    -0.069 C 
ATOM     15  C   UNL     1      22.931 -12.706   5.379  1.00  0.00     0.039 C 
ATOM     16  C   UNL     1      23.579 -12.279   7.839  1.00  0.00     0.039 C 
BRANCH  13  17
ATOM     17  C   UNL     1      25.771 -12.628   4.611  1.00  0.00     0.066 CG0
ATOM     18  G   UNL     1      24.833 -11.959   3.634  1.00  0.00     0.000 G0
ENDBRANCH  13  17
ENDBRANCH  11  13
ENDBRANCH  10  11
ENDBRANCH   1  10
TORSDOF 0
ENDMDL
MODEL 6
REMARK VINA RESULT:    -0.397      1.619      2.064
REMARK INTER + INTRA:           0.718
REMARK INTER:                  -1.661
REMARK INTRA:                   2.379
REMARK UNBOUND:                 1.278
REMARK SMILES CC1=CCC(=C(C)C)C(=O)CC(C)=CCC1
REMARK SMILES IDX 12 1 14 2 13 3 15 4 16 5 2 6 1 7 3 8 11 10 9 11 10 12 5 13
REMARK SMILES IDX 6 14 7 15 8 16 4 17
REMARK H PARENT
REMARK Flexibility Score: 60.00
ROOT
ATOM      1  C   UNL     1      25.892 -12.242   7.906  1.00  0.00    -0.070 C 
ATOM      2  C   UNL     1      25.589 -10.941   8.128  1.00  0.00    -0.027 C 
ATOM      3  C   UNL     1      26.794 -12.926   8.903  1.00  0.00     0.039 C 
ENDROOT
BRANCH   2   4
ATOM      4  C   UNL     1      24.798 -10.039   7.212  1.00  0.00     0.032 C 
BRANCH   4   5
ATOM      5  C   UNL     1      23.278 -10.145   7.445  1.00  0.00     0.034 C 
BRANCH   5   6
ATOM      6  C   UNL     1      22.715 -11.462   6.950  1.00  0.00    -0.077 C 
ATOM      7  C   UNL     1      21.879 -12.285   7.898  1.00  0.00     0.039 C 
ATOM      8  C   UNL     1      22.897 -11.932   5.695  1.00  0.00    -0.023 CG0
ATOM      9  G   UNL     1      23.669 -11.240   4.598  1.00  0.00     0.000 G0
ENDBRANCH   5   6
ENDBRANCH   4   5
ENDBRANCH   2   4
BRANCH   1  10
ATOM     10  C   UNL     1      25.431 -13.020   6.684  1.00  0.00     0.111 C 
BRANCH  10  11
ATOM     11  C   UNL     1      25.891 -12.367   5.404  1.00  0.00     0.163 C 
ATOM     12  O   UNL     1      27.119 -12.113   5.276  1.00  0.00    -0.294 OA
BRANCH  11  13
ATOM     13  C   UNL     1      24.946 -12.069   4.282  1.00  0.00    -0.002 C 
ATOM     14  C   UNL     1      25.214 -12.448   2.996  1.00  0.00    -0.069 C 
ATOM     15  C   UNL     1      24.236 -12.177   1.875  1.00  0.00     0.039 C 
ATOM     16  C   UNL     1      26.515 -13.125   2.625  1.00  0.00     0.039 C 
BRANCH  13  17
ATOM     17  C   UNL     1      23.708 -11.260   4.621  1.00  0.00     0.066 CG0
ATOM     18  G   UNL     1      22.928 -11.950   5.715  1.00  0.00     0.000 G0
ENDBRANCH  13  17
ENDBRANCH  11  13
ENDBRANCH  10  11
ENDBRANCH   1  10
TORSDOF 0
ENDMDL
