MODEL 1
REMARK VINA RESULT:    -4.003      0.000      0.000
REMARK INTER + INTRA:          -5.278
REMARK INTER:                  -5.173
REMARK INTRA:                  -0.105
REMARK UNBOUND:                -0.105
REMARK SMILES CCCCCCC(=O)[O-]
REMARK SMILES IDX 5 1 6 2 7 3 8 4 9 5 4 6 3 7 2 8 1 9
REMARK H PARENT
REMARK Flexibility Score: inf
ROOT
ATOM      1  C   UNL     1     -18.581  -1.012  28.778  1.00  0.00     0.006 C 
ENDROOT
BRANCH   1   2
ATOM      2  C   UNL     1     -18.508   0.344  28.062  1.00  0.00     0.053 C 
BRANCH   2   3
ATOM      3  C   UNL     1     -19.764   0.635  27.297  1.00  0.00     0.041 C 
ATOM      4  O   UNL     1     -20.001   0.035  26.215  1.00  0.00    -0.550 OA
ATOM      5  O   UNL     1     -20.657   1.590  27.765  1.00  0.00    -0.550 OA
ENDBRANCH   2   3
ENDBRANCH   1   2
BRANCH   1   6
ATOM      6  C   UNL     1     -18.511  -0.865  30.308  1.00  0.00     0.000 C 
BRANCH   6   7
ATOM      7  C   UNL     1     -17.150  -1.292  30.882  1.00  0.00    -0.000 C 
BRANCH   7   8
ATOM      8  C   UNL     1     -17.098  -1.197  32.413  1.00  0.00    -0.003 C 
ATOM      9  C   UNL     1     -17.614  -2.481  33.060  1.00  0.00     0.004 C 
ENDBRANCH   7   8
ENDBRANCH   6   7
ENDBRANCH   1   6
TORSDOF 5
ENDMDL
MODEL 2
REMARK VINA RESULT:    -3.995      3.309      5.332
REMARK INTER + INTRA:          -5.267
REMARK INTER:                  -5.131
REMARK INTRA:                  -0.137
REMARK UNBOUND:                -0.105
REMARK SMILES CCCCCCC(=O)[O-]
REMARK SMILES IDX 5 1 6 2 7 3 8 4 9 5 4 6 3 7 2 8 1 9
REMARK H PARENT
REMARK Flexibility Score: inf
ROOT
ATOM      1  C   UNL     1     -18.504  -0.649  29.922  1.00  0.00     0.006 C 
ENDROOT
BRANCH   1   2
ATOM      2  C   UNL     1     -17.576  -1.741  30.473  1.00  0.00     0.053 C 
BRANCH   2   3
ATOM      3  C   UNL     1     -16.747  -1.240  31.617  1.00  0.00     0.041 C 
ATOM      4  O   UNL     1     -17.173  -1.338  32.799  1.00  0.00    -0.550 OA
ATOM      5  O   UNL     1     -15.517  -0.643  31.376  1.00  0.00    -0.550 OA
ENDBRANCH   2   3
ENDBRANCH   1   2
BRANCH   1   6
ATOM      6  C   UNL     1     -18.536  -0.637  28.384  1.00  0.00     0.000 C 
BRANCH   6   7
ATOM      7  C   UNL     1     -18.392   0.778  27.801  1.00  0.00    -0.000 C 
BRANCH   7   8
ATOM      8  C   UNL     1     -19.576   1.172  26.906  1.00  0.00    -0.003 C 
ATOM      9  C   UNL     1     -20.863   1.290  27.719  1.00  0.00     0.004 C 
ENDBRANCH   7   8
ENDBRANCH   6   7
ENDBRANCH   1   6
TORSDOF 5
ENDMDL
MODEL 3
REMARK VINA RESULT:    -3.941      0.769      1.305
REMARK INTER + INTRA:          -5.198
REMARK INTER:                  -5.081
REMARK INTRA:                  -0.117
REMARK UNBOUND:                -0.105
REMARK SMILES CCCCCCC(=O)[O-]
REMARK SMILES IDX 5 1 6 2 7 3 8 4 9 5 4 6 3 7 2 8 1 9
REMARK H PARENT
REMARK Flexibility Score: inf
ROOT
ATOM      1  C   UNL     1     -18.478   0.328  28.210  1.00  0.00     0.006 C 
ENDROOT
BRANCH   1   2
ATOM      2  C   UNL     1     -19.050   0.276  26.787  1.00  0.00     0.053 C 
BRANCH   2   3
ATOM      3  C   UNL     1     -20.455   0.794  26.734  1.00  0.00     0.041 C 
ATOM      4  O   UNL     1     -21.155   0.624  25.700  1.00  0.00    -0.550 OA
ATOM      5  O   UNL     1     -20.983   1.487  27.815  1.00  0.00    -0.550 OA
ENDBRANCH   2   3
ENDBRANCH   1   2
BRANCH   1   6
ATOM      6  C   UNL     1     -18.544  -1.041  28.911  1.00  0.00     0.000 C 
BRANCH   6   7
ATOM      7  C   UNL     1     -18.411  -0.930  30.438  1.00  0.00    -0.000 C 
BRANCH   7   8
ATOM      8  C   UNL     1     -17.027  -1.363  30.944  1.00  0.00    -0.003 C 
ATOM      9  C   UNL     1     -16.940  -1.256  32.464  1.00  0.00     0.004 C 
ENDBRANCH   7   8
ENDBRANCH   6   7
ENDBRANCH   1   6
TORSDOF 5
ENDMDL
MODEL 4
REMARK VINA RESULT:    -3.821      3.910      5.806
REMARK INTER + INTRA:          -5.042
REMARK INTER:                  -4.932
REMARK INTRA:                  -0.110
REMARK UNBOUND:                -0.105
REMARK SMILES CCCCCCC(=O)[O-]
REMARK SMILES IDX 5 1 6 2 7 3 8 4 9 5 4 6 3 7 2 8 1 9
REMARK H PARENT
REMARK Flexibility Score: inf
ROOT
ATOM      1  C   UNL     1     -17.317  -1.823  30.815  1.00  0.00     0.006 C 
ENDROOT
BRANCH   1   2
ATOM      2  C   UNL     1     -16.950  -1.491  32.267  1.00  0.00     0.053 C 
BRANCH   2   3
ATOM      3  C   UNL     1     -17.319  -2.603  33.202  1.00  0.00     0.041 C 
ATOM      4  O   UNL     1     -18.530  -2.892  33.396  1.00  0.00    -0.550 OA
ATOM      5  O   UNL     1     -16.328  -3.301  33.878  1.00  0.00    -0.550 OA
ENDBRANCH   2   3
ENDBRANCH   1   2
BRANCH   1   6
ATOM      6  C   UNL     1     -18.485  -0.963  30.301  1.00  0.00     0.000 C 
BRANCH   6   7
ATOM      7  C   UNL     1     -18.624  -1.010  28.770  1.00  0.00    -0.000 C 
BRANCH   7   8
ATOM      8  C   UNL     1     -18.445   0.369  28.119  1.00  0.00    -0.003 C 
ATOM      9  C   UNL     1     -19.182   0.445  26.783  1.00  0.00     0.004 C 
ENDBRANCH   7   8
ENDBRANCH   6   7
ENDBRANCH   1   6
TORSDOF 5
ENDMDL
MODEL 5
REMARK VINA RESULT:    -3.818     15.524     16.662
REMARK INTER + INTRA:          -5.039
REMARK INTER:                  -4.698
REMARK INTRA:                  -0.341
REMARK UNBOUND:                -0.105
REMARK SMILES CCCCCCC(=O)[O-]
REMARK SMILES IDX 5 1 6 2 7 3 8 4 9 5 4 6 3 7 2 8 1 9
REMARK H PARENT
REMARK Flexibility Score: inf
ROOT
ATOM      1  C   UNL     1      -7.514   8.295  25.678  1.00  0.00     0.006 C 
ENDROOT
BRANCH   1   2
ATOM      2  C   UNL     1      -6.030   8.229  26.065  1.00  0.00     0.053 C 
BRANCH   2   3
ATOM      3  C   UNL     1      -5.362   7.013  25.499  1.00  0.00     0.041 C 
ATOM      4  O   UNL     1      -4.917   7.024  24.320  1.00  0.00    -0.550 OA
ATOM      5  O   UNL     1      -5.255   5.858  26.263  1.00  0.00    -0.550 OA
ENDBRANCH   2   3
ENDBRANCH   1   2
BRANCH   1   6
ATOM      6  C   UNL     1      -7.841   9.549  24.848  1.00  0.00     0.000 C 
BRANCH   6   7
ATOM      7  C   UNL     1      -7.471   9.389  23.365  1.00  0.00    -0.000 C 
BRANCH   7   8
ATOM      8  C   UNL     1      -6.346  10.340  22.930  1.00  0.00    -0.003 C 
ATOM      9  C   UNL     1      -6.477  11.695  23.620  1.00  0.00     0.004 C 
ENDBRANCH   7   8
ENDBRANCH   6   7
ENDBRANCH   1   6
TORSDOF 5
ENDMDL
MODEL 6
REMARK VINA RESULT:    -3.803     14.165     14.851
REMARK INTER + INTRA:          -5.019
REMARK INTER:                  -4.813
REMARK INTRA:                  -0.207
REMARK UNBOUND:                -0.105
REMARK SMILES CCCCCCC(=O)[O-]
REMARK SMILES IDX 5 1 6 2 7 3 8 4 9 5 4 6 3 7 2 8 1 9
REMARK H PARENT
REMARK Flexibility Score: inf
ROOT
ATOM      1  C   UNL     1      -5.788   4.887  31.025  1.00  0.00     0.006 C 
ENDROOT
BRANCH   1   2
ATOM      2  C   UNL     1      -5.351   6.128  30.235  1.00  0.00     0.053 C 
BRANCH   2   3
ATOM      3  C   UNL     1      -6.374   7.221  30.307  1.00  0.00     0.041 C 
ATOM      4  O   UNL     1      -6.124   8.284  30.934  1.00  0.00    -0.550 OA
ATOM      5  O   UNL     1      -7.614   7.054  29.703  1.00  0.00    -0.550 OA
ENDBRANCH   2   3
ENDBRANCH   1   2
BRANCH   1   6
ATOM      6  C   UNL     1      -4.621   4.252  31.802  1.00  0.00     0.000 C 
BRANCH   6   7
ATOM      7  C   UNL     1      -3.957   5.236  32.778  1.00  0.00    -0.000 C 
BRANCH   7   8
ATOM      8  C   UNL     1      -4.263   4.909  34.247  1.00  0.00    -0.003 C 
ATOM      9  C   UNL     1      -4.660   3.443  34.410  1.00  0.00     0.004 C 
ENDBRANCH   7   8
ENDBRANCH   6   7
ENDBRANCH   1   6
TORSDOF 5
ENDMDL
MODEL 7
REMARK VINA RESULT:    -3.718     15.477     16.590
REMARK INTER + INTRA:          -4.909
REMARK INTER:                  -4.509
REMARK INTRA:                  -0.400
REMARK UNBOUND:                -0.105
REMARK SMILES CCCCCCC(=O)[O-]
REMARK SMILES IDX 5 1 6 2 7 3 8 4 9 5 4 6 3 7 2 8 1 9
REMARK H PARENT
REMARK Flexibility Score: inf
ROOT
ATOM      1  C   UNL     1      -5.948   7.553  24.710  1.00  0.00     0.006 C 
ENDROOT
BRANCH   1   2
ATOM      2  C   UNL     1      -6.685   8.671  25.459  1.00  0.00     0.053 C 
BRANCH   2   3
ATOM      3  C   UNL     1      -8.165   8.610  25.232  1.00  0.00     0.041 C 
ATOM      4  O   UNL     1      -8.642   8.847  24.091  1.00  0.00    -0.550 OA
ATOM      5  O   UNL     1      -9.019   8.318  26.288  1.00  0.00    -0.550 OA
ENDBRANCH   2   3
ENDBRANCH   1   2
BRANCH   1   6
ATOM      6  C   UNL     1      -5.240   8.071  23.446  1.00  0.00     0.000 C 
BRANCH   6   7
ATOM      7  C   UNL     1      -4.951   9.579  23.507  1.00  0.00    -0.000 C 
BRANCH   7   8
ATOM      8  C   UNL     1      -5.532  10.341  22.306  1.00  0.00    -0.003 C 
ATOM      9  C   UNL     1      -6.531  11.402  22.761  1.00  0.00     0.004 C 
ENDBRANCH   7   8
ENDBRANCH   6   7
ENDBRANCH   1   6
TORSDOF 5
ENDMDL
MODEL 8
REMARK VINA RESULT:    -3.690      1.820      3.297
REMARK INTER + INTRA:          -4.873
REMARK INTER:                  -4.653
REMARK INTRA:                  -0.220
REMARK UNBOUND:                -0.105
REMARK SMILES CCCCCCC(=O)[O-]
REMARK SMILES IDX 5 1 6 2 7 3 8 4 9 5 4 6 3 7 2 8 1 9
REMARK H PARENT
REMARK Flexibility Score: inf
ROOT
ATOM      1  C   UNL     1     -20.017   1.182  26.520  1.00  0.00     0.006 C 
ENDROOT
BRANCH   1   2
ATOM      2  C   UNL     1     -21.180   0.305  26.036  1.00  0.00     0.053 C 
BRANCH   2   3
ATOM      3  C   UNL     1     -22.334   0.335  26.993  1.00  0.00     0.041 C 
ATOM      4  O   UNL     1     -22.134   0.532  28.221  1.00  0.00    -0.550 OA
ATOM      5  O   UNL     1     -23.626   0.120  26.532  1.00  0.00    -0.550 OA
ENDBRANCH   2   3
ENDBRANCH   1   2
BRANCH   1   6
ATOM      6  C   UNL     1     -18.782   0.347  26.902  1.00  0.00     0.000 C 
BRANCH   6   7
ATOM      7  C   UNL     1     -18.514   0.347  28.416  1.00  0.00    -0.000 C 
BRANCH   7   8
ATOM      8  C   UNL     1     -18.534  -1.065  29.019  1.00  0.00    -0.003 C 
ATOM      9  C   UNL     1     -18.422  -1.013  30.541  1.00  0.00     0.004 C 
ENDBRANCH   7   8
ENDBRANCH   6   7
ENDBRANCH   1   6
TORSDOF 5
ENDMDL
MODEL 9
REMARK VINA RESULT:    -3.676     14.955     15.947
REMARK INTER + INTRA:          -4.856
REMARK INTER:                  -4.598
REMARK INTRA:                  -0.257
REMARK UNBOUND:                -0.105
REMARK SMILES CCCCCCC(=O)[O-]
REMARK SMILES IDX 5 1 6 2 7 3 8 4 9 5 4 6 3 7 2 8 1 9
REMARK H PARENT
REMARK Flexibility Score: inf
ROOT
ATOM      1  C   UNL     1      -5.365   4.224  31.629  1.00  0.00     0.006 C 
ENDROOT
BRANCH   1   2
ATOM      2  C   UNL     1      -4.096   4.118  32.486  1.00  0.00     0.053 C 
BRANCH   2   3
ATOM      3  C   UNL     1      -4.409   4.169  33.951  1.00  0.00     0.041 C 
ATOM      4  O   UNL     1      -4.589   3.103  34.598  1.00  0.00    -0.550 OA
ATOM      5  O   UNL     1      -4.529   5.393  34.594  1.00  0.00    -0.550 OA
ENDBRANCH   2   3
ENDBRANCH   1   2
BRANCH   1   6
ATOM      6  C   UNL     1      -5.642   5.669  31.180  1.00  0.00     0.000 C 
BRANCH   6   7
ATOM      7  C   UNL     1      -4.375   6.390  30.693  1.00  0.00    -0.000 C 
BRANCH   7   8
ATOM      8  C   UNL     1      -4.556   7.030  29.308  1.00  0.00    -0.003 C 
ATOM      9  C   UNL     1      -5.750   6.425  28.575  1.00  0.00     0.004 C 
ENDBRANCH   7   8
ENDBRANCH   6   7
ENDBRANCH   1   6
TORSDOF 5
ENDMDL
