MODEL 1
REMARK VINA RESULT:    -3.553      0.000      0.000
REMARK INTER + INTRA:          -4.579
REMARK INTER:                  -4.383
REMARK INTRA:                  -0.196
REMARK UNBOUND:                -0.196
REMARK SMILES CCCCCC(=O)[O-]
REMARK SMILES IDX 4 1 5 2 6 3 7 4 8 5 3 6 2 7 1 8
REMARK H PARENT
REMARK Flexibility Score: inf
ROOT
ATOM      1  C   UNL     1      36.105  -0.958   4.623  1.00  0.00     0.006 C 
ENDROOT
BRANCH   1   2
ATOM      2  C   UNL     1      36.157  -0.763   6.144  1.00  0.00     0.053 C 
BRANCH   2   3
ATOM      3  C   UNL     1      36.954   0.447   6.523  1.00  0.00     0.041 C 
ATOM      4  O   UNL     1      36.556   1.595   6.194  1.00  0.00    -0.550 OA
ATOM      5  O   UNL     1      38.119   0.309   7.268  1.00  0.00    -0.550 OA
ENDBRANCH   2   3
ENDBRANCH   1   2
BRANCH   1   6
ATOM      6  C   UNL     1      34.691  -0.752   4.057  1.00  0.00     0.000 C 
BRANCH   6   7
ATOM      7  C   UNL     1      34.698   0.280   2.925  1.00  0.00    -0.003 C 
ATOM      8  C   UNL     1      34.331   1.668   3.443  1.00  0.00     0.004 C 
ENDBRANCH   6   7
ENDBRANCH   1   6
TORSDOF 4
ENDMDL
MODEL 2
REMARK VINA RESULT:    -3.510      4.333      5.682
REMARK INTER + INTRA:          -4.526
REMARK INTER:                  -4.314
REMARK INTRA:                  -0.212
REMARK UNBOUND:                -0.196
REMARK SMILES CCCCCC(=O)[O-]
REMARK SMILES IDX 4 1 5 2 6 3 7 4 8 5 3 6 2 7 1 8
REMARK H PARENT
REMARK Flexibility Score: inf
ROOT
ATOM      1  C   UNL     1      34.803   3.385   7.648  1.00  0.00     0.006 C 
ENDROOT
BRANCH   1   2
ATOM      2  C   UNL     1      33.510   3.851   6.963  1.00  0.00     0.053 C 
BRANCH   2   3
ATOM      3  C   UNL     1      33.638   3.844   5.470  1.00  0.00     0.041 C 
ATOM      4  O   UNL     1      32.622   3.664   4.749  1.00  0.00    -0.550 OA
ATOM      5  O   UNL     1      34.874   4.070   4.876  1.00  0.00    -0.550 OA
ENDBRANCH   2   3
ENDBRANCH   1   2
BRANCH   1   6
ATOM      6  C   UNL     1      35.519   4.531   8.379  1.00  0.00     0.000 C 
BRANCH   6   7
ATOM      7  C   UNL     1      37.007   4.566   8.019  1.00  0.00    -0.003 C 
ATOM      8  C   UNL     1      37.422   3.306   7.264  1.00  0.00     0.004 C 
ENDBRANCH   6   7
ENDBRANCH   1   6
TORSDOF 4
ENDMDL
MODEL 3
REMARK VINA RESULT:    -3.495     19.850     20.698
REMARK INTER + INTRA:          -4.508
REMARK INTER:                  -4.400
REMARK INTRA:                  -0.108
REMARK UNBOUND:                -0.196
REMARK SMILES CCCCCC(=O)[O-]
REMARK SMILES IDX 4 1 5 2 6 3 7 4 8 5 3 6 2 7 1 8
REMARK H PARENT
REMARK Flexibility Score: inf
ROOT
ATOM      1  C   UNL     1      46.243  12.760  -5.985  1.00  0.00     0.006 C 
ENDROOT
BRANCH   1   2
ATOM      2  C   UNL     1      45.779  13.467  -7.266  1.00  0.00     0.053 C 
BRANCH   2   3
ATOM      3  C   UNL     1      45.453  12.489  -8.354  1.00  0.00     0.041 C 
ATOM      4  O   UNL     1      44.473  11.708  -8.230  1.00  0.00    -0.550 OA
ATOM      5  O   UNL     1      46.212  12.464  -9.517  1.00  0.00    -0.550 OA
ENDBRANCH   2   3
ENDBRANCH   1   2
BRANCH   1   6
ATOM      6  C   UNL     1      47.585  12.037  -6.173  1.00  0.00     0.000 C 
BRANCH   6   7
ATOM      7  C   UNL     1      48.436  12.120  -4.902  1.00  0.00    -0.003 C 
ATOM      8  C   UNL     1      49.885  11.732  -5.182  1.00  0.00     0.004 C 
ENDBRANCH   6   7
ENDBRANCH   1   6
TORSDOF 4
ENDMDL
MODEL 4
REMARK VINA RESULT:    -3.489     19.759     20.347
REMARK INTER + INTRA:          -4.501
REMARK INTER:                  -4.393
REMARK INTRA:                  -0.108
REMARK UNBOUND:                -0.196
REMARK SMILES CCCCCC(=O)[O-]
REMARK SMILES IDX 4 1 5 2 6 3 7 4 8 5 3 6 2 7 1 8
REMARK H PARENT
REMARK Flexibility Score: inf
ROOT
ATOM      1  C   UNL     1      48.510  11.996  -4.987  1.00  0.00     0.006 C 
ENDROOT
BRANCH   1   2
ATOM      2  C   UNL     1      49.966  11.643  -5.322  1.00  0.00     0.053 C 
BRANCH   2   3
ATOM      3  C   UNL     1      50.095  10.240  -5.831  1.00  0.00     0.041 C 
ATOM      4  O   UNL     1      49.882   9.266  -5.063  1.00  0.00    -0.550 OA
ATOM      5  O   UNL     1      50.418  10.009  -7.163  1.00  0.00    -0.550 OA
ENDBRANCH   2   3
ENDBRANCH   1   2
BRANCH   1   6
ATOM      6  C   UNL     1      47.592  11.910  -6.215  1.00  0.00     0.000 C 
BRANCH   6   7
ATOM      7  C   UNL     1      46.289  12.681  -5.982  1.00  0.00    -0.003 C 
ATOM      8  C   UNL     1      45.837  13.397  -7.252  1.00  0.00     0.004 C 
ENDBRANCH   6   7
ENDBRANCH   1   6
TORSDOF 4
ENDMDL
MODEL 5
REMARK VINA RESULT:    -3.480      4.138      5.467
REMARK INTER + INTRA:          -4.490
REMARK INTER:                  -4.323
REMARK INTRA:                  -0.167
REMARK UNBOUND:                -0.196
REMARK SMILES CCCCCC(=O)[O-]
REMARK SMILES IDX 4 1 5 2 6 3 7 4 8 5 3 6 2 7 1 8
REMARK H PARENT
REMARK Flexibility Score: inf
ROOT
ATOM      1  C   UNL     1      36.832   4.341   7.922  1.00  0.00     0.006 C 
ENDROOT
BRANCH   1   2
ATOM      2  C   UNL     1      35.359   4.350   8.352  1.00  0.00     0.053 C 
BRANCH   2   3
ATOM      3  C   UNL     1      34.459   4.810   7.246  1.00  0.00     0.041 C 
ATOM      4  O   UNL     1      33.514   4.076   6.853  1.00  0.00    -0.550 OA
ATOM      5  O   UNL     1      34.643   6.062   6.673  1.00  0.00    -0.550 OA
ENDBRANCH   2   3
ENDBRANCH   1   2
BRANCH   1   6
ATOM      6  C   UNL     1      37.118   3.286   6.844  1.00  0.00     0.000 C 
BRANCH   6   7
ATOM      7  C   UNL     1      36.687   1.892   7.312  1.00  0.00    -0.003 C 
ATOM      8  C   UNL     1      37.758   0.850   7.000  1.00  0.00     0.004 C 
ENDBRANCH   6   7
ENDBRANCH   1   6
TORSDOF 4
ENDMDL
MODEL 6
REMARK VINA RESULT:    -3.472      2.639      3.800
REMARK INTER + INTRA:          -4.480
REMARK INTER:                  -4.396
REMARK INTRA:                  -0.084
REMARK UNBOUND:                -0.196
REMARK SMILES CCCCCC(=O)[O-]
REMARK SMILES IDX 4 1 5 2 6 3 7 4 8 5 3 6 2 7 1 8
REMARK H PARENT
REMARK Flexibility Score: inf
ROOT
ATOM      1  C   UNL     1      33.959   1.979   4.970  1.00  0.00     0.006 C 
ENDROOT
BRANCH   1   2
ATOM      2  C   UNL     1      33.513   3.401   5.335  1.00  0.00     0.053 C 
BRANCH   2   3
ATOM      3  C   UNL     1      33.757   3.708   6.781  1.00  0.00     0.041 C 
ATOM      4  O   UNL     1      33.890   4.901   7.161  1.00  0.00    -0.550 OA
ATOM      5  O   UNL     1      33.806   2.679   7.713  1.00  0.00    -0.550 OA
ENDBRANCH   2   3
ENDBRANCH   1   2
BRANCH   1   6
ATOM      6  C   UNL     1      34.349   1.852   3.490  1.00  0.00     0.000 C 
BRANCH   6   7
ATOM      7  C   UNL     1      34.612   0.390   3.115  1.00  0.00    -0.003 C 
ATOM      8  C   UNL     1      34.627  -0.503   4.353  1.00  0.00     0.004 C 
ENDBRANCH   6   7
ENDBRANCH   1   6
TORSDOF 4
ENDMDL
MODEL 7
REMARK VINA RESULT:    -3.470      1.804      2.600
REMARK INTER + INTRA:          -4.478
REMARK INTER:                  -4.333
REMARK INTRA:                  -0.144
REMARK UNBOUND:                -0.196
REMARK SMILES CCCCCC(=O)[O-]
REMARK SMILES IDX 4 1 5 2 6 3 7 4 8 5 3 6 2 7 1 8
REMARK H PARENT
REMARK Flexibility Score: inf
ROOT
ATOM      1  C   UNL     1      34.634   0.326   3.173  1.00  0.00     0.006 C 
ENDROOT
BRANCH   1   2
ATOM      2  C   UNL     1      34.634  -0.532   4.446  1.00  0.00     0.053 C 
BRANCH   2   3
ATOM      3  C   UNL     1      36.025  -0.831   4.915  1.00  0.00     0.041 C 
ATOM      4  O   UNL     1      36.920  -1.142   4.085  1.00  0.00    -0.550 OA
ATOM      5  O   UNL     1      36.341  -0.733   6.265  1.00  0.00    -0.550 OA
ENDBRANCH   2   3
ENDBRANCH   1   2
BRANCH   1   6
ATOM      6  C   UNL     1      34.700   1.829   3.485  1.00  0.00     0.000 C 
BRANCH   6   7
ATOM      7  C   UNL     1      33.913   2.160   4.757  1.00  0.00    -0.003 C 
ATOM      8  C   UNL     1      33.155   3.477   4.610  1.00  0.00     0.004 C 
ENDBRANCH   6   7
ENDBRANCH   1   6
TORSDOF 4
ENDMDL
MODEL 8
REMARK VINA RESULT:    -3.465     21.110     21.809
REMARK INTER + INTRA:          -4.472
REMARK INTER:                  -4.280
REMARK INTRA:                  -0.192
REMARK UNBOUND:                -0.196
REMARK SMILES CCCCCC(=O)[O-]
REMARK SMILES IDX 4 1 5 2 6 3 7 4 8 5 3 6 2 7 1 8
REMARK H PARENT
REMARK Flexibility Score: inf
ROOT
ATOM      1  C   UNL     1      50.092  10.970  -7.125  1.00  0.00     0.006 C 
ENDROOT
BRANCH   1   2
ATOM      2  C   UNL     1      50.009  11.945  -8.307  1.00  0.00     0.053 C 
BRANCH   2   3
ATOM      3  C   UNL     1      48.668  11.899  -8.974  1.00  0.00     0.041 C 
ATOM      4  O   UNL     1      47.617  11.955  -8.283  1.00  0.00    -0.550 OA
ATOM      5  O   UNL     1      48.580  11.829 -10.358  1.00  0.00    -0.550 OA
ENDBRANCH   2   3
ENDBRANCH   1   2
BRANCH   1   6
ATOM      6  C   UNL     1      50.412  11.683  -5.803  1.00  0.00     0.000 C 
BRANCH   6   7
ATOM      7  C   UNL     1      49.391  11.316  -4.721  1.00  0.00    -0.003 C 
ATOM      8  C   UNL     1      48.189  12.256  -4.755  1.00  0.00     0.004 C 
ENDBRANCH   6   7
ENDBRANCH   1   6
TORSDOF 4
ENDMDL
MODEL 9
REMARK VINA RESULT:    -3.457     20.683     21.230
REMARK INTER + INTRA:          -4.461
REMARK INTER:                  -4.236
REMARK INTRA:                  -0.225
REMARK UNBOUND:                -0.196
REMARK SMILES CCCCCC(=O)[O-]
REMARK SMILES IDX 4 1 5 2 6 3 7 4 8 5 3 6 2 7 1 8
REMARK H PARENT
REMARK Flexibility Score: inf
ROOT
ATOM      1  C   UNL     1      50.376  10.060  -6.629  1.00  0.00     0.006 C 
ENDROOT
BRANCH   1   2
ATOM      2  C   UNL     1      49.807  11.476  -6.465  1.00  0.00     0.053 C 
BRANCH   2   3
ATOM      3  C   UNL     1      49.414  12.075  -7.781  1.00  0.00     0.041 C 
ATOM      4  O   UNL     1      48.236  11.948  -8.206  1.00  0.00    -0.550 OA
ATOM      5  O   UNL     1      50.339  12.799  -8.521  1.00  0.00    -0.550 OA
ENDBRANCH   2   3
ENDBRANCH   1   2
BRANCH   1   6
ATOM      6  C   UNL     1      49.297   8.978  -6.474  1.00  0.00     0.000 C 
BRANCH   6   7
ATOM      7  C   UNL     1      49.027   8.277  -7.809  1.00  0.00    -0.003 C 
ATOM      8  C   UNL     1      47.551   8.365  -8.189  1.00  0.00     0.004 C 
ENDBRANCH   6   7
ENDBRANCH   1   6
TORSDOF 4
ENDMDL
