MODEL 1
REMARK VINA RESULT:    -4.098      0.000      0.000
REMARK INTER + INTRA:          -4.934
REMARK INTER:                  -4.817
REMARK INTRA:                  -0.117
REMARK UNBOUND:                -0.117
REMARK SMILES C=C[C@]1(C)CC[C@@H](C(=C)C)C[C@H]1C(=C)C
REMARK SMILES IDX 7 1 6 2 5 3 3 4 12 5 11 6 4 7 8 8 10 9 9 10 13 11 14 12
REMARK SMILES IDX 15 13 2 14 1 15
REMARK H PARENT
REMARK Flexibility Score: inf
ROOT
ATOM      1  C   UNL     1     136.880 138.575 123.542  1.00  0.00     0.015 C 
ATOM      2  C   UNL     1     136.707 137.979 122.135  1.00  0.00     0.009 C 
ATOM      3  C   UNL     1     137.850 137.009 121.804  1.00  0.00     0.012 C 
ATOM      4  C   UNL     1     137.986 135.847 122.835  1.00  0.00    -0.008 C 
ATOM      5  C   UNL     1     138.097 136.464 124.280  1.00  0.00     0.024 C 
ATOM      6  C   UNL     1     136.959 137.462 124.602  1.00  0.00     0.017 C 
ATOM      7  C   UNL     1     136.785 134.876 122.699  1.00  0.00     0.016 C 
ENDROOT
BRANCH   1   8
ATOM      8  C   UNL     1     135.773 139.571 123.864  1.00  0.00    -0.077 C 
ATOM      9  C   UNL     1     135.666 140.162 125.246  1.00  0.00     0.039 C 
ATOM     10  C   UNL     1     134.875 139.945 122.935  1.00  0.00     0.008 C 
ENDBRANCH   1   8
BRANCH   5  11
ATOM     11  C   UNL     1     138.267 135.430 125.399  1.00  0.00    -0.077 C 
ATOM     12  C   UNL     1     137.214 134.880 126.030  1.00  0.00     0.008 C 
ATOM     13  C   UNL     1     139.649 135.044 125.864  1.00  0.00     0.039 C 
ENDBRANCH   5  11
BRANCH   4  14
ATOM     14  C   UNL     1     139.272 135.082 122.519  1.00  0.00    -0.028 C 
ATOM     15  C   UNL     1     140.497 135.589 122.716  1.00  0.00     0.004 C 
ENDBRANCH   4  14
TORSDOF 3
ENDMDL
