MODEL 1
REMARK VINA RESULT:     1.621      0.000      0.000
REMARK INTER + INTRA:           3.657
REMARK INTER:                   2.237
REMARK INTRA:                   1.420
REMARK UNBOUND:                 1.420
REMARK SMILES O=C([O-])[C@H]1O[C@H](Oc2cc3oc(-c4ccccc4)cc(=O)c3c(O)c2O)[C@H](O)[C@H](O)[C@H]1O
REMARK SMILES IDX 7 1 6 2 4 3 31 4 5 5 29 6 27 7 2 8 1 9 3 10 32 11 30 13
REMARK SMILES IDX 28 15 8 17 25 18 9 19 23 20 10 21 22 22 11 23 20 24 12 25
REMARK SMILES IDX 19 26 21 27 26 28 24 30 13 32 14 33 18 34 15 35 17 36 16 37
REMARK H PARENT 32 12 30 14 28 16 26 29 24 31
REMARK Flexibility Score: inf
ROOT
ATOM      1  O   UNL     1       6.169  11.141   5.570  1.00  0.00    -0.458 OA
ENDROOT
BRANCH   1   2
ATOM      2  C   UNL     1       6.933  12.338   5.382  1.00  0.00     0.339 C 
ATOM      3  C   UNL     1       8.066  12.125   7.431  1.00  0.00     0.199 C 
ATOM      4  C   UNL     1       9.441  11.895   6.763  1.00  0.00     0.180 C 
ATOM      5  O   UNL     1       7.235  12.953   6.629  1.00  0.00    -0.328 OA
ATOM      6  C   UNL     1       9.242  11.239   5.385  1.00  0.00     0.181 C 
ATOM      7  C   UNL     1       8.219  12.058   4.568  1.00  0.00     0.214 C 
BRANCH   3   8
ATOM      8  C   UNL     1       8.244  12.768   8.776  1.00  0.00     0.073 C 
ATOM      9  O   UNL     1       7.240  13.009   9.499  1.00  0.00    -0.547 OA
ATOM     10  O   UNL     1       9.518  13.052   9.255  1.00  0.00    -0.547 OA
ENDBRANCH   3   8
BRANCH   4  11
ATOM     11  O   UNL     1      10.110  13.124   6.618  1.00  0.00    -0.387 OA
ATOM     12  H   UNL     1       9.925  13.651   7.439  1.00  0.00     0.211 HD
ENDBRANCH   4  11
BRANCH   6  13
ATOM     13  O   UNL     1       8.800   9.915   5.563  1.00  0.00    -0.387 OA
ATOM     14  H   UNL     1       9.438   9.325   5.082  1.00  0.00     0.211 HD
ENDBRANCH   6  13
BRANCH   7  15
ATOM     15  O   UNL     1       7.933  11.450   3.331  1.00  0.00    -0.384 OA
ATOM     16  H   UNL     1       6.977  11.185   3.328  1.00  0.00     0.211 HD
ENDBRANCH   7  15
ENDBRANCH   1   2
BRANCH   1  17
ATOM     17  C   UNL     1       5.430  10.859   6.728  1.00  0.00     0.172 A 
ATOM     18  C   UNL     1       5.998  10.198   7.836  1.00  0.00     0.201 A 
ATOM     19  C   UNL     1       4.106  11.292   6.780  1.00  0.00     0.098 A 
ATOM     20  C   UNL     1       5.192   9.890   8.962  1.00  0.00     0.176 A 
ATOM     21  C   UNL     1       3.312  11.030   7.894  1.00  0.00     0.146 A 
ATOM     22  C   UNL     1       3.842  10.322   8.996  1.00  0.00     0.111 A 
ATOM     23  O   UNL     1       2.051  11.451   7.900  1.00  0.00    -0.456 OA
ATOM     24  C   UNL     1       2.980  10.076  10.086  1.00  0.00     0.197 A 
ATOM     25  C   UNL     1       1.217  11.245   8.917  1.00  0.00     0.138 A 
ATOM     26  C   UNL     1       1.665  10.539  10.044  1.00  0.00     0.100 A 
ATOM     27  O   UNL     1       3.369   9.442  11.104  1.00  0.00    -0.289 OA
BRANCH  18  28
ATOM     28  O   UNL     1       7.364   9.908   7.811  1.00  0.00    -0.502 OA
ATOM     29  H   UNL     1       7.759   9.008   8.046  1.00  0.00     0.293 HD
ENDBRANCH  18  28
BRANCH  20  30
ATOM     30  O   UNL     1       5.704   9.160  10.042  1.00  0.00    -0.504 OA
ATOM     31  H   UNL     1       6.141   9.574  10.851  1.00  0.00     0.293 HD
ENDBRANCH  20  30
BRANCH  25  32
ATOM     32  C   UNL     1      -0.172  11.757   8.817  1.00  0.00     0.017 A 
ATOM     33  C   UNL     1      -0.664  12.630   9.807  1.00  0.00     0.012 A 
ATOM     34  C   UNL     1      -1.029  11.369   7.767  1.00  0.00     0.012 A 
ATOM     35  C   UNL     1      -1.971  13.122   9.734  1.00  0.00     0.001 A 
ATOM     36  C   UNL     1      -2.336  11.863   7.701  1.00  0.00     0.001 A 
ATOM     37  C   UNL     1      -2.805  12.742   8.681  1.00  0.00     0.000 A 
ENDBRANCH  25  32
ENDBRANCH   1  17
TORSDOF 9
ENDMDL
