MODEL 1
REMARK VINA RESULT:    -4.444      0.000      0.000
REMARK INTER + INTRA:          -7.745
REMARK INTER:                  -7.042
REMARK INTRA:                  -0.703
REMARK UNBOUND:                -0.703
REMARK SMILES CCCCCCCCCCCC(=O)[O-]
REMARK SMILES IDX 7 1 8 2 9 3 10 4 11 5 12 6 13 7 14 8 6 9 5 10 4 11 3 12 2 13
REMARK SMILES IDX 1 14
REMARK H PARENT
REMARK Flexibility Score: inf
ROOT
ATOM      1  C   UNL     1      33.929  25.916  71.264  1.00  0.00     0.000 C 
ENDROOT
BRANCH   1   2
ATOM      2  C   UNL     1      32.623  26.660  70.961  1.00  0.00     0.000 C 
BRANCH   2   3
ATOM      3  C   UNL     1      31.407  25.757  71.204  1.00  0.00     0.000 C 
BRANCH   3   4
ATOM      4  C   UNL     1      31.638  24.356  70.620  1.00  0.00     0.006 C 
BRANCH   4   5
ATOM      5  C   UNL     1      30.514  23.930  69.666  1.00  0.00     0.053 C 
BRANCH   5   6
ATOM      6  C   UNL     1      30.856  24.223  68.237  1.00  0.00     0.041 C 
ATOM      7  O   UNL     1      32.019  24.595  67.929  1.00  0.00    -0.550 OA
ATOM      8  O   UNL     1      29.902  24.054  67.243  1.00  0.00    -0.550 OA
ENDBRANCH   5   6
ENDBRANCH   4   5
ENDBRANCH   3   4
ENDBRANCH   2   3
ENDBRANCH   1   2
BRANCH   1   9
ATOM      9  C   UNL     1      34.894  25.990  70.075  1.00  0.00     0.000 C 
BRANCH   9  10
ATOM     10  C   UNL     1      35.217  24.587  69.541  1.00  0.00    -0.000 C 
BRANCH  10  11
ATOM     11  C   UNL     1      36.718  24.259  69.597  1.00  0.00    -0.000 C 
BRANCH  11  12
ATOM     12  C   UNL     1      37.228  24.068  71.036  1.00  0.00    -0.000 C 
BRANCH  12  13
ATOM     13  C   UNL     1      38.762  24.064  71.121  1.00  0.00    -0.003 C 
ATOM     14  C   UNL     1      39.280  24.422  72.514  1.00  0.00     0.004 C 
ENDBRANCH  12  13
ENDBRANCH  11  12
ENDBRANCH  10  11
ENDBRANCH   9  10
ENDBRANCH   1   9
TORSDOF 10
ENDMDL
MODEL 2
REMARK VINA RESULT:    -4.149      3.543      5.274
REMARK INTER + INTRA:          -7.277
REMARK INTER:                  -6.595
REMARK INTRA:                  -0.682
REMARK UNBOUND:                -0.703
REMARK SMILES CCCCCCCCCCCC(=O)[O-]
REMARK SMILES IDX 7 1 8 2 9 3 10 4 11 5 12 6 13 7 14 8 6 9 5 10 4 11 3 12 2 13
REMARK SMILES IDX 1 14
REMARK H PARENT
REMARK Flexibility Score: inf
ROOT
ATOM      1  C   UNL     1      32.937  24.191  67.896  1.00  0.00     0.000 C 
ENDROOT
BRANCH   1   2
ATOM      2  C   UNL     1      33.164  24.240  66.381  1.00  0.00     0.000 C 
BRANCH   2   3
ATOM      3  C   UNL     1      32.016  24.974  65.676  1.00  0.00     0.000 C 
BRANCH   3   4
ATOM      4  C   UNL     1      32.361  25.251  64.205  1.00  0.00     0.006 C 
BRANCH   4   5
ATOM      5  C   UNL     1      31.114  25.530  63.358  1.00  0.00     0.053 C 
BRANCH   5   6
ATOM      6  C   UNL     1      31.029  26.969  62.950  1.00  0.00     0.041 C 
ATOM      7  O   UNL     1      29.907  27.531  62.844  1.00  0.00    -0.550 OA
ATOM      8  O   UNL     1      32.188  27.698  62.718  1.00  0.00    -0.550 OA
ENDBRANCH   5   6
ENDBRANCH   4   5
ENDBRANCH   3   4
ENDBRANCH   2   3
ENDBRANCH   1   2
BRANCH   1   9
ATOM      9  C   UNL     1      31.458  24.408  68.240  1.00  0.00     0.000 C 
BRANCH   9  10
ATOM     10  C   UNL     1      31.294  24.860  69.698  1.00  0.00    -0.000 C 
BRANCH  10  11
ATOM     11  C   UNL     1      32.617  24.839  70.481  1.00  0.00    -0.000 C 
BRANCH  11  12
ATOM     12  C   UNL     1      33.014  26.228  71.009  1.00  0.00    -0.000 C 
BRANCH  12  13
ATOM     13  C   UNL     1      34.529  26.473  70.941  1.00  0.00    -0.003 C 
ATOM     14  C   UNL     1      35.326  25.194  70.680  1.00  0.00     0.004 C 
ENDBRANCH  12  13
ENDBRANCH  11  12
ENDBRANCH  10  11
ENDBRANCH   9  10
ENDBRANCH   1   9
TORSDOF 10
ENDMDL
MODEL 3
REMARK VINA RESULT:    -4.119      2.989      4.572
REMARK INTER + INTRA:          -7.230
REMARK INTER:                  -6.477
REMARK INTRA:                  -0.753
REMARK UNBOUND:                -0.703
REMARK SMILES CCCCCCCCCCCC(=O)[O-]
REMARK SMILES IDX 7 1 8 2 9 3 10 4 11 5 12 6 13 7 14 8 6 9 5 10 4 11 3 12 2 13
REMARK SMILES IDX 1 14
REMARK H PARENT
REMARK Flexibility Score: inf
ROOT
ATOM      1  C   UNL     1      31.381  24.376  68.086  1.00  0.00     0.000 C 
ENDROOT
BRANCH   1   2
ATOM      2  C   UNL     1      32.831  23.937  67.847  1.00  0.00     0.000 C 
BRANCH   2   3
ATOM      3  C   UNL     1      33.281  24.278  66.421  1.00  0.00     0.000 C 
BRANCH   3   4
ATOM      4  C   UNL     1      32.122  24.868  65.605  1.00  0.00     0.006 C 
BRANCH   4   5
ATOM      5  C   UNL     1      32.435  24.919  64.104  1.00  0.00     0.053 C 
BRANCH   5   6
ATOM      6  C   UNL     1      31.731  26.055  63.427  1.00  0.00     0.041 C 
ATOM      7  O   UNL     1      32.394  26.998  62.922  1.00  0.00    -0.550 OA
ATOM      8  O   UNL     1      30.346  26.055  63.324  1.00  0.00    -0.550 OA
ENDBRANCH   5   6
ENDBRANCH   4   5
ENDBRANCH   3   4
ENDBRANCH   2   3
ENDBRANCH   1   2
BRANCH   1   9
ATOM      9  C   UNL     1      31.146  24.725  69.561  1.00  0.00     0.000 C 
BRANCH   9  10
ATOM     10  C   UNL     1      32.465  24.700  70.348  1.00  0.00    -0.000 C 
BRANCH  10  11
ATOM     11  C   UNL     1      32.794  26.052  71.001  1.00  0.00    -0.000 C 
BRANCH  11  12
ATOM     12  C   UNL     1      34.304  26.340  71.035  1.00  0.00    -0.000 C 
BRANCH  12  13
ATOM     13  C   UNL     1      35.087  25.500  70.014  1.00  0.00    -0.003 C 
ATOM     14  C   UNL     1      36.082  24.543  70.671  1.00  0.00     0.004 C 
ENDBRANCH  12  13
ENDBRANCH  11  12
ENDBRANCH  10  11
ENDBRANCH   9  10
ENDBRANCH   1   9
TORSDOF 10
ENDMDL
MODEL 4
REMARK VINA RESULT:    -4.043      2.589      4.228
REMARK INTER + INTRA:          -7.109
REMARK INTER:                  -6.313
REMARK INTRA:                  -0.795
REMARK UNBOUND:                -0.703
REMARK SMILES CCCCCCCCCCCC(=O)[O-]
REMARK SMILES IDX 7 1 8 2 9 3 10 4 11 5 12 6 13 7 14 8 6 9 5 10 4 11 3 12 2 13
REMARK SMILES IDX 1 14
REMARK H PARENT
REMARK Flexibility Score: inf
ROOT
ATOM      1  C   UNL     1      31.772  24.304  69.879  1.00  0.00     0.000 C 
ENDROOT
BRANCH   1   2
ATOM      2  C   UNL     1      31.103  24.537  68.518  1.00  0.00     0.000 C 
BRANCH   2   3
ATOM      3  C   UNL     1      32.086  24.277  67.370  1.00  0.00     0.000 C 
BRANCH   3   4
ATOM      4  C   UNL     1      31.439  24.584  66.012  1.00  0.00     0.006 C 
BRANCH   4   5
ATOM      5  C   UNL     1      32.449  25.136  64.998  1.00  0.00     0.053 C 
BRANCH   5   6
ATOM      6  C   UNL     1      31.774  25.642  63.759  1.00  0.00     0.041 C 
ATOM      7  O   UNL     1      30.526  25.537  63.632  1.00  0.00    -0.550 OA
ATOM      8  O   UNL     1      32.519  26.257  62.762  1.00  0.00    -0.550 OA
ENDBRANCH   5   6
ENDBRANCH   4   5
ENDBRANCH   3   4
ENDBRANCH   2   3
ENDBRANCH   1   2
BRANCH   1   9
ATOM      9  C   UNL     1      31.300  25.337  70.909  1.00  0.00     0.000 C 
BRANCH   9  10
ATOM     10  C   UNL     1      32.308  26.488  71.034  1.00  0.00    -0.000 C 
BRANCH  10  11
ATOM     11  C   UNL     1      33.727  26.003  71.372  1.00  0.00    -0.000 C 
BRANCH  11  12
ATOM     12  C   UNL     1      34.721  26.233  70.220  1.00  0.00    -0.000 C 
BRANCH  12  13
ATOM     13  C   UNL     1      35.444  24.945  69.800  1.00  0.00    -0.003 C 
ATOM     14  C   UNL     1      35.435  23.876  70.892  1.00  0.00     0.004 C 
ENDBRANCH  12  13
ENDBRANCH  11  12
ENDBRANCH  10  11
ENDBRANCH   9  10
ENDBRANCH   1   9
TORSDOF 10
ENDMDL
MODEL 5
REMARK VINA RESULT:    -4.033      4.021      7.354
REMARK INTER + INTRA:          -7.093
REMARK INTER:                  -6.431
REMARK INTRA:                  -0.661
REMARK UNBOUND:                -0.703
REMARK SMILES CCCCCCCCCCCC(=O)[O-]
REMARK SMILES IDX 7 1 8 2 9 3 10 4 11 5 12 6 13 7 14 8 6 9 5 10 4 11 3 12 2 13
REMARK SMILES IDX 1 14
REMARK H PARENT
REMARK Flexibility Score: inf
ROOT
ATOM      1  C   UNL     1      31.402  24.582  65.899  1.00  0.00     0.000 C 
ENDROOT
BRANCH   1   2
ATOM      2  C   UNL     1      31.590  24.559  67.421  1.00  0.00     0.000 C 
BRANCH   2   3
ATOM      3  C   UNL     1      33.036  24.206  67.792  1.00  0.00     0.000 C 
BRANCH   3   4
ATOM      4  C   UNL     1      33.284  24.410  69.293  1.00  0.00     0.006 C 
BRANCH   4   5
ATOM      5  C   UNL     1      32.013  24.835  70.040  1.00  0.00     0.053 C 
BRANCH   5   6
ATOM      6  C   UNL     1      32.254  26.024  70.919  1.00  0.00     0.041 C 
ATOM      7  O   UNL     1      33.381  26.585  70.927  1.00  0.00    -0.550 OA
ATOM      8  O   UNL     1      31.227  26.532  71.703  1.00  0.00    -0.550 OA
ENDBRANCH   5   6
ENDBRANCH   4   5
ENDBRANCH   3   4
ENDBRANCH   2   3
ENDBRANCH   1   2
BRANCH   1   9
ATOM      9  C   UNL     1      32.754  24.589  65.177  1.00  0.00     0.000 C 
BRANCH   9  10
ATOM     10  C   UNL     1      32.640  25.269  63.805  1.00  0.00    -0.000 C 
BRANCH  10  11
ATOM     11  C   UNL     1      31.194  25.652  63.449  1.00  0.00    -0.000 C 
BRANCH  11  12
ATOM     12  C   UNL     1      31.070  27.109  62.970  1.00  0.00    -0.000 C 
BRANCH  12  13
ATOM     13  C   UNL     1      29.609  27.576  62.882  1.00  0.00    -0.003 C 
ATOM     14  C   UNL     1      28.609  26.450  63.143  1.00  0.00     0.004 C 
ENDBRANCH  12  13
ENDBRANCH  11  12
ENDBRANCH  10  11
ENDBRANCH   9  10
ENDBRANCH   1   9
TORSDOF 10
ENDMDL
MODEL 6
REMARK VINA RESULT:    -3.982      2.873      6.184
REMARK INTER + INTRA:          -7.013
REMARK INTER:                  -6.241
REMARK INTRA:                  -0.772
REMARK UNBOUND:                -0.703
REMARK SMILES CCCCCCCCCCCC(=O)[O-]
REMARK SMILES IDX 7 1 8 2 9 3 10 4 11 5 12 6 13 7 14 8 6 9 5 10 4 11 3 12 2 13
REMARK SMILES IDX 1 14
REMARK H PARENT
REMARK Flexibility Score: inf
ROOT
ATOM      1  C   UNL     1      32.045  26.098  70.967  1.00  0.00     0.000 C 
ENDROOT
BRANCH   1   2
ATOM      2  C   UNL     1      33.404  26.142  71.676  1.00  0.00     0.000 C 
BRANCH   2   3
ATOM      3  C   UNL     1      34.513  26.581  70.712  1.00  0.00     0.000 C 
BRANCH   3   4
ATOM      4  C   UNL     1      34.991  25.403  69.851  1.00  0.00     0.006 C 
BRANCH   4   5
ATOM      5  C   UNL     1      35.575  24.264  70.697  1.00  0.00     0.053 C 
BRANCH   5   6
ATOM      6  C   UNL     1      37.066  24.185  70.570  1.00  0.00     0.041 C 
ATOM      7  O   UNL     1      37.610  24.275  69.438  1.00  0.00    -0.550 OA
ATOM      8  O   UNL     1      37.856  24.046  71.704  1.00  0.00    -0.550 OA
ENDBRANCH   5   6
ENDBRANCH   4   5
ENDBRANCH   3   4
ENDBRANCH   2   3
ENDBRANCH   1   2
BRANCH   1   9
ATOM      9  C   UNL     1      31.450  24.685  71.000  1.00  0.00     0.000 C 
BRANCH   9  10
ATOM     10  C   UNL     1      30.793  24.334  69.658  1.00  0.00    -0.000 C 
BRANCH  10  11
ATOM     11  C   UNL     1      31.707  24.620  68.455  1.00  0.00    -0.000 C 
BRANCH  11  12
ATOM     12  C   UNL     1      31.016  24.345  67.108  1.00  0.00    -0.000 C 
BRANCH  12  13
ATOM     13  C   UNL     1      31.874  24.774  65.908  1.00  0.00    -0.003 C 
ATOM     14  C   UNL     1      31.129  24.665  64.577  1.00  0.00     0.004 C 
ENDBRANCH  12  13
ENDBRANCH  11  12
ENDBRANCH  10  11
ENDBRANCH   9  10
ENDBRANCH   1   9
TORSDOF 10
ENDMDL
MODEL 7
REMARK VINA RESULT:    -3.894      2.370      3.074
REMARK INTER + INTRA:          -6.873
REMARK INTER:                  -6.368
REMARK INTRA:                  -0.505
REMARK UNBOUND:                -0.703
REMARK SMILES CCCCCCCCCCCC(=O)[O-]
REMARK SMILES IDX 7 1 8 2 9 3 10 4 11 5 12 6 13 7 14 8 6 9 5 10 4 11 3 12 2 13
REMARK SMILES IDX 1 14
REMARK H PARENT
REMARK Flexibility Score: inf
ROOT
ATOM      1  C   UNL     1      33.185  24.520  69.944  1.00  0.00     0.000 C 
ENDROOT
BRANCH   1   2
ATOM      2  C   UNL     1      33.033  24.070  68.486  1.00  0.00     0.000 C 
BRANCH   2   3
ATOM      3  C   UNL     1      31.731  24.605  67.878  1.00  0.00     0.000 C 
BRANCH   3   4
ATOM      4  C   UNL     1      31.566  24.131  66.427  1.00  0.00     0.006 C 
BRANCH   4   5
ATOM      5  C   UNL     1      32.393  24.970  65.444  1.00  0.00     0.053 C 
BRANCH   5   6
ATOM      6  C   UNL     1      31.634  25.260  64.185  1.00  0.00     0.041 C 
ATOM      7  O   UNL     1      30.631  24.563  63.876  1.00  0.00    -0.550 OA
ATOM      8  O   UNL     1      32.013  26.319  63.370  1.00  0.00    -0.550 OA
ENDBRANCH   5   6
ENDBRANCH   4   5
ENDBRANCH   3   4
ENDBRANCH   2   3
ENDBRANCH   1   2
BRANCH   1   9
ATOM      9  C   UNL     1      34.512  25.258  70.157  1.00  0.00     0.000 C 
BRANCH   9  10
ATOM     10  C   UNL     1      35.501  24.950  69.023  1.00  0.00    -0.000 C 
BRANCH  10  11
ATOM     11  C   UNL     1      36.623  23.992  69.456  1.00  0.00    -0.000 C 
BRANCH  11  12
ATOM     12  C   UNL     1      37.105  24.257  70.893  1.00  0.00    -0.000 C 
BRANCH  12  13
ATOM     13  C   UNL     1      38.618  24.045  71.054  1.00  0.00    -0.003 C 
ATOM     14  C   UNL     1      39.120  24.395  72.455  1.00  0.00     0.004 C 
ENDBRANCH  12  13
ENDBRANCH  11  12
ENDBRANCH  10  11
ENDBRANCH   9  10
ENDBRANCH   1   9
TORSDOF 10
ENDMDL
MODEL 8
REMARK VINA RESULT:    -3.873      3.431      6.751
REMARK INTER + INTRA:          -6.840
REMARK INTER:                  -6.430
REMARK INTRA:                  -0.410
REMARK UNBOUND:                -0.703
REMARK SMILES CCCCCCCCCCCC(=O)[O-]
REMARK SMILES IDX 7 1 8 2 9 3 10 4 11 5 12 6 13 7 14 8 6 9 5 10 4 11 3 12 2 13
REMARK SMILES IDX 1 14
REMARK H PARENT
REMARK Flexibility Score: inf
ROOT
ATOM      1  C   UNL     1      33.671  24.282  67.693  1.00  0.00     0.000 C 
ENDROOT
BRANCH   1   2
ATOM      2  C   UNL     1      35.106  24.225  68.231  1.00  0.00     0.000 C 
BRANCH   2   3
ATOM      3  C   UNL     1      35.333  25.291  69.310  1.00  0.00     0.000 C 
BRANCH   3   4
ATOM      4  C   UNL     1      34.490  24.996  70.559  1.00  0.00     0.006 C 
BRANCH   4   5
ATOM      5  C   UNL     1      33.610  26.187  70.961  1.00  0.00     0.053 C 
BRANCH   5   6
ATOM      6  C   UNL     1      32.156  25.826  70.969  1.00  0.00     0.041 C 
ATOM      7  O   UNL     1      31.755  24.804  70.352  1.00  0.00    -0.550 OA
ATOM      8  O   UNL     1      31.250  26.598  71.683  1.00  0.00    -0.550 OA
ENDBRANCH   5   6
ENDBRANCH   4   5
ENDBRANCH   3   4
ENDBRANCH   2   3
ENDBRANCH   1   2
BRANCH   1   9
ATOM      9  C   UNL     1      33.639  24.034  66.180  1.00  0.00     0.000 C 
BRANCH   9  10
ATOM     10  C   UNL     1      32.434  24.733  65.535  1.00  0.00    -0.000 C 
BRANCH  10  11
ATOM     11  C   UNL     1      32.680  25.105  64.063  1.00  0.00    -0.000 C 
BRANCH  11  12
ATOM     12  C   UNL     1      31.639  26.101  63.523  1.00  0.00    -0.000 C 
BRANCH  12  13
ATOM     13  C   UNL     1      30.227  25.499  63.459  1.00  0.00    -0.003 C 
ATOM     14  C   UNL     1      29.159  26.529  63.091  1.00  0.00     0.004 C 
ENDBRANCH  12  13
ENDBRANCH  11  12
ENDBRANCH  10  11
ENDBRANCH   9  10
ENDBRANCH   1   9
TORSDOF 10
ENDMDL
MODEL 9
REMARK VINA RESULT:    -3.824      3.740      5.361
REMARK INTER + INTRA:          -6.762
REMARK INTER:                  -6.105
REMARK INTRA:                  -0.657
REMARK UNBOUND:                -0.703
REMARK SMILES CCCCCCCCCCCC(=O)[O-]
REMARK SMILES IDX 7 1 8 2 9 3 10 4 11 5 12 6 13 7 14 8 6 9 5 10 4 11 3 12 2 13
REMARK SMILES IDX 1 14
REMARK H PARENT
REMARK Flexibility Score: inf
ROOT
ATOM      1  C   UNL     1      32.818  23.992  67.710  1.00  0.00     0.000 C 
ENDROOT
BRANCH   1   2
ATOM      2  C   UNL     1      31.837  24.240  66.557  1.00  0.00     0.000 C 
BRANCH   2   3
ATOM      3  C   UNL     1      32.585  24.559  65.257  1.00  0.00     0.000 C 
BRANCH   3   4
ATOM      4  C   UNL     1      31.660  25.253  64.247  1.00  0.00     0.006 C 
BRANCH   4   5
ATOM      5  C   UNL     1      32.443  25.963  63.134  1.00  0.00     0.053 C 
BRANCH   5   6
ATOM      6  C   UNL     1      31.769  27.229  62.700  1.00  0.00     0.041 C 
ATOM      7  O   UNL     1      32.448  28.269  62.498  1.00  0.00    -0.550 OA
ATOM      8  O   UNL     1      30.397  27.251  62.487  1.00  0.00    -0.550 OA
ENDBRANCH   5   6
ENDBRANCH   4   5
ENDBRANCH   3   4
ENDBRANCH   2   3
ENDBRANCH   1   2
BRANCH   1   9
ATOM      9  C   UNL     1      34.257  23.875  67.193  1.00  0.00     0.000 C 
BRANCH   9  10
ATOM     10  C   UNL     1      35.257  24.418  68.225  1.00  0.00    -0.000 C 
BRANCH  10  11
ATOM     11  C   UNL     1      34.675  24.471  69.647  1.00  0.00    -0.000 C 
BRANCH  11  12
ATOM     12  C   UNL     1      34.855  25.848  70.308  1.00  0.00    -0.000 C 
BRANCH  12  13
ATOM     13  C   UNL     1      33.736  26.170  71.311  1.00  0.00    -0.003 C 
ATOM     14  C   UNL     1      32.338  25.949  70.731  1.00  0.00     0.004 C 
ENDBRANCH  12  13
ENDBRANCH  11  12
ENDBRANCH  10  11
ENDBRANCH   9  10
ENDBRANCH   1   9
TORSDOF 10
ENDMDL
