MODEL 1
REMARK VINA RESULT:    -6.014      0.000      0.000
REMARK INTER + INTRA:         -16.453
REMARK INTER:                 -12.694
REMARK INTRA:                  -3.759
REMARK UNBOUND:                -3.759
REMARK SMILES CCC(=O)CCCCC[C@@H]1NC(=O)[C@@H]2CCCCN2C(=O)[C@@H]([C@H](C)CC)NC(=O)[C@@H](Cc2cn(OC)c3ccccc23)NC1=O
REMARK SMILES IDX 9 1 10 2 44 3 43 4 45 6 30 7 28 8 27 9 29 11 22 12 23 14
REMARK SMILES IDX 24 15 25 16 26 17 31 18 32 19 33 20 42 21 34 22 37 23 41 24
REMARK SMILES IDX 38 25 40 26 39 27 35 28 36 29 11 30 12 31 13 33 14 34 19 35
REMARK SMILES IDX 15 36 18 37 16 38 17 39 20 40 21 41 8 43 7 44 6 45 5 46 3 47
REMARK SMILES IDX 4 48 2 49 1 50
REMARK H PARENT 43 5 27 10 11 32
REMARK Flexibility Score: 80.00
ROOT
ATOM      1  C   UNL     1      22.845 -35.291  25.358  1.00  0.00     0.035 C 
ENDROOT
BRANCH   1   2
ATOM      2  C   UNL     1      22.733 -34.208  24.262  1.00  0.00     0.171 C 
BRANCH   2   3
ATOM      3  C   UNL     1      21.390 -33.526  24.303  1.00  0.00     0.243 C 
ATOM      4  N   UNL     1      20.779 -33.083  23.083  1.00  0.00    -0.342 N 
ATOM      5  H   UNL     1      21.188 -33.410  22.178  1.00  0.00     0.164 HD
ATOM      6  O   UNL     1      20.861 -33.238  25.412  1.00  0.00    -0.273 OA
BRANCH   4   7
ATOM      7  C   UNL     1      19.780 -32.009  23.070  1.00  0.00     0.175 C 
BRANCH   7   8
ATOM      8  C   UNL     1      20.398 -30.742  23.599  1.00  0.00     0.243 C 
ATOM      9  N   UNL     1      21.461 -30.102  22.874  1.00  0.00    -0.342 N 
ATOM     10  H   UNL     1      21.887 -30.620  22.076  1.00  0.00     0.164 HD
ATOM     11  O   UNL     1      19.967 -30.243  24.674  1.00  0.00    -0.273 OA
BRANCH   9  12
ATOM     12  C   UNL     1      21.938 -28.746  23.174  1.00  0.00     0.174 CG0
ATOM     13  G   UNL     1      23.280 -28.789  23.873  1.00  0.00     0.000 G0
BRANCH  12  14
ATOM     14  C   UNL     1      21.906 -27.869  21.882  1.00  0.00     0.018 C 
ATOM     15  C   UNL     1      21.802 -26.356  22.159  1.00  0.00     0.010 C 
BRANCH  14  16
ATOM     16  C   UNL     1      20.891 -28.374  20.809  1.00  0.00     0.002 C 
ATOM     17  C   UNL     1      19.550 -27.631  20.746  1.00  0.00     0.004 C 
ENDBRANCH  14  16
ENDBRANCH  12  14
ENDBRANCH   9  12
ENDBRANCH   7   8
BRANCH   7  18
ATOM     18  C   UNL     1      19.248 -31.765  21.647  1.00  0.00     0.073 C 
BRANCH  18  19
ATOM     19  C   UNL     1      17.862 -32.310  21.477  1.00  0.00    -0.016 A 
ATOM     20  C   UNL     1      16.678 -31.690  21.867  1.00  0.00     0.134 A 
ATOM     21  C   UNL     1      17.487 -33.484  20.846  1.00  0.00     0.006 A 
ATOM     22  N   UNL     1      15.621 -32.455  21.505  1.00  0.00    -0.191 N 
ATOM     23  C   UNL     1      16.116 -33.539  20.886  1.00  0.00     0.087 A 
ATOM     24  C   UNL     1      18.244 -34.485  20.237  1.00  0.00     0.011 A 
ATOM     25  C   UNL     1      15.408 -34.600  20.324  1.00  0.00     0.030 A 
ATOM     26  C   UNL     1      17.557 -35.570  19.664  1.00  0.00     0.001 A 
ATOM     27  C   UNL     1      16.145 -35.628  19.708  1.00  0.00     0.002 A 
BRANCH  22  28
ATOM     28  O   UNL     1      14.279 -32.186  21.699  1.00  0.00    -0.417 OA
ATOM     29  C   UNL     1      13.455 -31.648  20.673  1.00  0.00     0.313 C 
ENDBRANCH  22  28
ENDBRANCH  18  19
ENDBRANCH   7  18
ENDBRANCH   4   7
ENDBRANCH   2   3
BRANCH   2  30
ATOM     30  N   UNL     1      23.773 -33.188  24.428  1.00  0.00    -0.343 N 
ATOM     31  C   UNL     1      24.072 -32.239  23.392  1.00  0.00     0.243 C 
ATOM     32  H   UNL     1      24.176 -33.064  25.376  1.00  0.00     0.164 HD
ATOM     33  O   UNL     1      23.813 -32.534  22.193  1.00  0.00    -0.273 OA
BRANCH  31  34
ATOM     34  C   UNL     1      24.694 -30.888  23.681  1.00  0.00     0.174 C 
ATOM     35  N   UNL     1      23.801 -30.016  24.470  1.00  0.00    -0.329 N 
ATOM     36  C   UNL     1      26.102 -30.983  24.312  1.00  0.00     0.035 C 
ATOM     37  C   UNL     1      23.773 -30.136  25.933  1.00  0.00     0.120 C 
ATOM     38  C   UNL     1      26.105 -31.091  25.845  1.00  0.00     0.004 C 
ATOM     39  C   UNL     1      25.193 -30.045  26.491  1.00  0.00     0.022 C 
BRANCH  35  40
ATOM     40  C   UNL     1      23.308 -28.792  23.893  1.00  0.00     0.246 CG0
ATOM     41  O   UNL     1      23.933 -27.721  24.121  1.00  0.00    -0.272 OA
ATOM     42  G   UNL     1      21.972 -28.727  23.184  1.00  0.00     0.000 G0
ENDBRANCH  35  40
ENDBRANCH  31  34
ENDBRANCH   2  30
ENDBRANCH   1   2
BRANCH   1  43
ATOM     43  C   UNL     1      21.924 -36.505  25.125  1.00  0.00     0.003 C 
BRANCH  43  44
ATOM     44  C   UNL     1      20.857 -36.661  26.222  1.00  0.00     0.001 C 
BRANCH  44  45
ATOM     45  C   UNL     1      19.473 -37.010  25.649  1.00  0.00     0.008 C 
BRANCH  45  46
ATOM     46  C   UNL     1      18.483 -35.835  25.730  1.00  0.00     0.075 C 
BRANCH  46  47
ATOM     47  C   UNL     1      18.052 -35.331  24.374  1.00  0.00     0.132 C 
ATOM     48  O   UNL     1      18.708 -35.584  23.372  1.00  0.00    -0.300 OA
BRANCH  47  49
ATOM     49  C   UNL     1      16.817 -34.480  24.249  1.00  0.00     0.072 C 
ATOM     50  C   UNL     1      16.989 -33.160  24.992  1.00  0.00     0.012 C 
ENDBRANCH  47  49
ENDBRANCH  46  47
ENDBRANCH  45  46
ENDBRANCH  44  45
ENDBRANCH  43  44
ENDBRANCH   1  43
TORSDOF 12
ENDMDL
MODEL 2
REMARK VINA RESULT:    -6.003      3.162      8.215
REMARK INTER + INTRA:         -16.429
REMARK INTER:                 -12.779
REMARK INTRA:                  -3.650
REMARK UNBOUND:                -3.759
REMARK SMILES CCC(=O)CCCCC[C@@H]1NC(=O)[C@@H]2CCCCN2C(=O)[C@@H]([C@H](C)CC)NC(=O)[C@@H](Cc2cn(OC)c3ccccc23)NC1=O
REMARK SMILES IDX 9 1 10 2 44 3 43 4 45 6 30 7 28 8 27 9 29 11 22 12 23 14
REMARK SMILES IDX 24 15 25 16 26 17 31 18 32 19 33 20 42 21 34 22 37 23 41 24
REMARK SMILES IDX 38 25 40 26 39 27 35 28 36 29 11 30 12 31 13 33 14 34 19 35
REMARK SMILES IDX 15 36 18 37 16 38 17 39 20 40 21 41 8 43 7 44 6 45 5 46 3 47
REMARK SMILES IDX 4 48 2 49 1 50
REMARK H PARENT 43 5 27 10 11 32
REMARK Flexibility Score: 80.00
ROOT
ATOM      1  C   UNL     1      18.771 -30.347  26.497  1.00  0.00     0.035 C 
ENDROOT
BRANCH   1   2
ATOM      2  C   UNL     1      18.864 -31.009  25.104  1.00  0.00     0.171 C 
BRANCH   2   3
ATOM      3  C   UNL     1      19.269 -32.458  25.214  1.00  0.00     0.243 C 
ATOM      4  N   UNL     1      20.131 -33.032  24.223  1.00  0.00    -0.342 N 
ATOM      5  H   UNL     1      20.612 -32.389  23.553  1.00  0.00     0.164 HD
ATOM      6  O   UNL     1      18.755 -33.191  26.104  1.00  0.00    -0.273 OA
BRANCH   4   7
ATOM      7  C   UNL     1      20.156 -34.477  23.971  1.00  0.00     0.175 C 
BRANCH   7   8
ATOM      8  C   UNL     1      18.775 -34.945  23.594  1.00  0.00     0.243 C 
ATOM      9  N   UNL     1      18.110 -34.381  22.451  1.00  0.00    -0.342 N 
ATOM     10  H   UNL     1      18.542 -33.545  22.001  1.00  0.00     0.164 HD
ATOM     11  O   UNL     1      18.214 -35.840  24.282  1.00  0.00    -0.273 OA
BRANCH   9  12
ATOM     12  C   UNL     1      16.891 -34.952  21.866  1.00  0.00     0.174 CG0
ATOM     13  G   UNL     1      15.795 -33.911  21.781  1.00  0.00     0.000 G0
BRANCH  12  14
ATOM     14  C   UNL     1      17.226 -35.655  20.512  1.00  0.00     0.018 C 
ATOM     15  C   UNL     1      17.518 -37.163  20.649  1.00  0.00     0.010 C 
BRANCH  14  16
ATOM     16  C   UNL     1      18.287 -34.894  19.657  1.00  0.00     0.002 C 
ATOM     17  C   UNL     1      17.742 -33.832  18.693  1.00  0.00     0.004 C 
ENDBRANCH  14  16
ENDBRANCH  12  14
ENDBRANCH   9  12
ENDBRANCH   7   8
BRANCH   7  18
ATOM     18  C   UNL     1      21.141 -34.825  22.841  1.00  0.00     0.073 C 
BRANCH  18  19
ATOM     19  C   UNL     1      22.507 -35.132  23.378  1.00  0.00    -0.016 A 
ATOM     20  C   UNL     1      22.909 -36.320  23.982  1.00  0.00     0.134 A 
ATOM     21  C   UNL     1      23.637 -34.335  23.318  1.00  0.00     0.006 A 
ATOM     22  N   UNL     1      24.225 -36.252  24.292  1.00  0.00    -0.191 N 
ATOM     23  C   UNL     1      24.662 -35.049  23.886  1.00  0.00     0.087 A 
ATOM     24  C   UNL     1      23.835 -33.055  22.797  1.00  0.00     0.011 A 
ATOM     25  C   UNL     1      25.953 -34.532  23.977  1.00  0.00     0.030 A 
ATOM     26  C   UNL     1      25.128 -32.507  22.878  1.00  0.00     0.001 A 
ATOM     27  C   UNL     1      26.182 -33.242  23.467  1.00  0.00     0.002 A 
BRANCH  22  28
ATOM     28  O   UNL     1      25.003 -37.228  24.888  1.00  0.00    -0.417 OA
ATOM     29  C   UNL     1      25.304 -37.216  26.278  1.00  0.00     0.313 C 
ENDBRANCH  22  28
ENDBRANCH  18  19
ENDBRANCH   7  18
ENDBRANCH   4   7
ENDBRANCH   2   3
BRANCH   2  30
ATOM     30  N   UNL     1      17.577 -30.942  24.407  1.00  0.00    -0.343 N 
ATOM     31  C   UNL     1      17.493 -30.960  22.972  1.00  0.00     0.243 C 
ATOM     32  H   UNL     1      16.716 -31.047  24.977  1.00  0.00     0.164 HD
ATOM     33  O   UNL     1      18.479 -30.562  22.294  1.00  0.00    -0.273 OA
BRANCH  31  34
ATOM     34  C   UNL     1      16.258 -31.436  22.236  1.00  0.00     0.174 C 
ATOM     35  N   UNL     1      15.803 -32.761  22.700  1.00  0.00    -0.329 N 
ATOM     36  C   UNL     1      15.106 -30.404  22.238  1.00  0.00     0.035 C 
ATOM     37  C   UNL     1      14.939 -32.862  23.882  1.00  0.00     0.120 C 
ATOM     38  C   UNL     1      14.173 -30.497  23.456  1.00  0.00     0.004 C 
ATOM     39  C   UNL     1      13.732 -31.938  23.726  1.00  0.00     0.022 C 
BRANCH  35  40
ATOM     40  C   UNL     1      15.820 -33.879  21.792  1.00  0.00     0.246 CG0
ATOM     41  O   UNL     1      14.835 -34.049  21.023  1.00  0.00    -0.272 OA
ATOM     42  G   UNL     1      16.890 -34.948  21.864  1.00  0.00     0.000 G0
ENDBRANCH  35  40
ENDBRANCH  31  34
ENDBRANCH   2  30
ENDBRANCH   1   2
BRANCH   1  43
ATOM     43  C   UNL     1      20.075 -29.658  26.944  1.00  0.00     0.003 C 
BRANCH  43  44
ATOM     44  C   UNL     1      20.681 -30.293  28.208  1.00  0.00     0.001 C 
BRANCH  44  45
ATOM     45  C   UNL     1      22.177 -29.974  28.364  1.00  0.00     0.008 C 
BRANCH  45  46
ATOM     46  C   UNL     1      22.834 -29.545  27.040  1.00  0.00     0.075 C 
BRANCH  46  47
ATOM     47  C   UNL     1      23.167 -30.711  26.141  1.00  0.00     0.132 C 
ATOM     48  O   UNL     1      22.934 -30.665  24.940  1.00  0.00    -0.300 OA
BRANCH  47  49
ATOM     49  C   UNL     1      23.763 -31.962  26.728  1.00  0.00     0.072 C 
ATOM     50  C   UNL     1      22.851 -33.161  26.496  1.00  0.00     0.012 C 
ENDBRANCH  47  49
ENDBRANCH  46  47
ENDBRANCH  45  46
ENDBRANCH  44  45
ENDBRANCH  43  44
ENDBRANCH   1  43
TORSDOF 12
ENDMDL
MODEL 3
REMARK VINA RESULT:    -5.738      2.763      8.634
REMARK INTER + INTRA:         -15.871
REMARK INTER:                 -12.790
REMARK INTRA:                  -3.081
REMARK UNBOUND:                -3.759
REMARK SMILES CCC(=O)CCCCC[C@@H]1NC(=O)[C@@H]2CCCCN2C(=O)[C@@H]([C@H](C)CC)NC(=O)[C@@H](Cc2cn(OC)c3ccccc23)NC1=O
REMARK SMILES IDX 9 1 10 2 44 3 43 4 45 6 30 7 28 8 27 9 29 11 22 12 23 14
REMARK SMILES IDX 24 15 25 16 26 17 31 18 32 19 33 20 42 21 34 22 37 23 41 24
REMARK SMILES IDX 38 25 40 26 39 27 35 28 36 29 11 30 12 31 13 33 14 34 19 35
REMARK SMILES IDX 15 36 18 37 16 38 17 39 20 40 21 41 8 43 7 44 6 45 5 46 3 47
REMARK SMILES IDX 4 48 2 49 1 50
REMARK H PARENT 43 5 27 10 11 32
REMARK Flexibility Score: 80.00
ROOT
ATOM      1  C   UNL     1      16.588 -29.277  21.732  1.00  0.00     0.035 C 
ENDROOT
BRANCH   1   2
ATOM      2  C   UNL     1      17.533 -30.396  22.223  1.00  0.00     0.171 C 
BRANCH   2   3
ATOM      3  C   UNL     1      17.297 -30.712  23.678  1.00  0.00     0.243 C 
ATOM      4  N   UNL     1      18.397 -31.116  24.506  1.00  0.00    -0.342 N 
ATOM      5  H   UNL     1      19.366 -30.999  24.131  1.00  0.00     0.164 HD
ATOM      6  O   UNL     1      16.122 -30.738  24.137  1.00  0.00    -0.273 OA
BRANCH   4   7
ATOM      7  C   UNL     1      18.191 -31.900  25.728  1.00  0.00     0.175 C 
BRANCH   7   8
ATOM      8  C   UNL     1      17.777 -33.300  25.362  1.00  0.00     0.243 C 
ATOM      9  N   UNL     1      18.385 -33.961  24.239  1.00  0.00    -0.342 N 
ATOM     10  H   UNL     1      18.988 -33.391  23.608  1.00  0.00     0.164 HD
ATOM     11  O   UNL     1      16.904 -33.891  26.054  1.00  0.00    -0.273 OA
BRANCH   9  12
ATOM     12  C   UNL     1      18.234 -35.396  23.971  1.00  0.00     0.174 CG0
ATOM     13  G   UNL     1      18.090 -35.655  22.486  1.00  0.00     0.000 G0
BRANCH  12  14
ATOM     14  C   UNL     1      19.386 -36.194  24.662  1.00  0.00     0.018 C 
ATOM     15  C   UNL     1      18.933 -36.998  25.896  1.00  0.00     0.010 C 
BRANCH  14  16
ATOM     16  C   UNL     1      20.671 -35.344  24.914  1.00  0.00     0.002 C 
ATOM     17  C   UNL     1      21.923 -36.122  25.338  1.00  0.00     0.004 C 
ENDBRANCH  14  16
ENDBRANCH  12  14
ENDBRANCH   9  12
ENDBRANCH   7   8
BRANCH   7  18
ATOM     18  C   UNL     1      19.474 -31.949  26.577  1.00  0.00     0.073 C 
BRANCH  18  19
ATOM     19  C   UNL     1      20.466 -30.916  26.134  1.00  0.00    -0.016 A 
ATOM     20  C   UNL     1      20.660 -29.661  26.704  1.00  0.00     0.134 A 
ATOM     21  C   UNL     1      21.417 -31.031  25.134  1.00  0.00     0.006 A 
ATOM     22  N   UNL     1      21.676 -29.025  26.073  1.00  0.00    -0.191 N 
ATOM     23  C   UNL     1      22.132 -29.860  25.126  1.00  0.00     0.087 A 
ATOM     24  C   UNL     1      21.706 -32.074  24.254  1.00  0.00     0.011 A 
ATOM     25  C   UNL     1      23.183 -29.648  24.234  1.00  0.00     0.030 A 
ATOM     26  C   UNL     1      22.760 -31.888  23.341  1.00  0.00     0.001 A 
ATOM     27  C   UNL     1      23.494 -30.680  23.330  1.00  0.00     0.002 A 
BRANCH  22  28
ATOM     28  O   UNL     1      22.186 -27.769  26.348  1.00  0.00    -0.417 OA
ATOM     29  C   UNL     1      21.439 -26.580  26.124  1.00  0.00     0.313 C 
ENDBRANCH  22  28
ENDBRANCH  18  19
ENDBRANCH   7  18
ENDBRANCH   4   7
ENDBRANCH   2   3
BRANCH   2  30
ATOM     30  N   UNL     1      17.334 -31.624  21.448  1.00  0.00    -0.343 N 
ATOM     31  C   UNL     1      18.443 -32.391  20.950  1.00  0.00     0.243 C 
ATOM     32  H   UNL     1      16.374 -32.015  21.406  1.00  0.00     0.164 HD
ATOM     33  O   UNL     1      19.547 -31.816  20.749  1.00  0.00    -0.273 OA
BRANCH  31  34
ATOM     34  C   UNL     1      18.337 -33.872  20.650  1.00  0.00     0.174 C 
ATOM     35  N   UNL     1      17.502 -34.587  21.635  1.00  0.00    -0.329 N 
ATOM     36  C   UNL     1      17.895 -34.175  19.199  1.00  0.00     0.035 C 
ATOM     37  C   UNL     1      16.044 -34.615  21.469  1.00  0.00     0.120 C 
ATOM     38  C   UNL     1      16.372 -34.228  18.999  1.00  0.00     0.004 C 
ATOM     39  C   UNL     1      15.688 -35.092  20.062  1.00  0.00     0.022 C 
BRANCH  35  40
ATOM     40  C   UNL     1      18.095 -35.596  22.474  1.00  0.00     0.246 CG0
ATOM     41  O   UNL     1      18.369 -36.718  21.970  1.00  0.00    -0.272 OA
ATOM     42  G   UNL     1      18.225 -35.410  23.971  1.00  0.00     0.000 G0
ENDBRANCH  35  40
ENDBRANCH  31  34
ENDBRANCH   2  30
ENDBRANCH   1   2
BRANCH   1  43
ATOM     43  C   UNL     1      17.320 -28.100  21.058  1.00  0.00     0.003 C 
BRANCH  43  44
ATOM     44  C   UNL     1      18.828 -28.354  20.890  1.00  0.00     0.001 C 
BRANCH  44  45
ATOM     45  C   UNL     1      19.591 -27.089  20.461  1.00  0.00     0.008 C 
BRANCH  45  46
ATOM     46  C   UNL     1      21.072 -27.118  20.882  1.00  0.00     0.075 C 
BRANCH  46  47
ATOM     47  C   UNL     1      21.673 -25.740  21.021  1.00  0.00     0.132 C 
ATOM     48  O   UNL     1      20.965 -24.765  21.239  1.00  0.00    -0.300 OA
BRANCH  47  49
ATOM     49  C   UNL     1      23.156 -25.552  20.861  1.00  0.00     0.072 C 
ATOM     50  C   UNL     1      23.763 -26.679  20.033  1.00  0.00     0.012 C 
ENDBRANCH  47  49
ENDBRANCH  46  47
ENDBRANCH  45  46
ENDBRANCH  44  45
ENDBRANCH  43  44
ENDBRANCH   1  43
TORSDOF 12
ENDMDL
MODEL 4
REMARK VINA RESULT:    -5.716      2.646      9.131
REMARK INTER + INTRA:         -15.823
REMARK INTER:                 -13.236
REMARK INTRA:                  -2.587
REMARK UNBOUND:                -3.759
REMARK SMILES CCC(=O)CCCCC[C@@H]1NC(=O)[C@@H]2CCCCN2C(=O)[C@@H]([C@H](C)CC)NC(=O)[C@@H](Cc2cn(OC)c3ccccc23)NC1=O
REMARK SMILES IDX 9 1 10 2 44 3 43 4 45 6 30 7 28 8 27 9 29 11 22 12 23 14
REMARK SMILES IDX 24 15 25 16 26 17 31 18 32 19 33 20 42 21 34 22 37 23 41 24
REMARK SMILES IDX 38 25 40 26 39 27 35 28 36 29 11 30 12 31 13 33 14 34 19 35
REMARK SMILES IDX 15 36 18 37 16 38 17 39 20 40 21 41 8 43 7 44 6 45 5 46 3 47
REMARK SMILES IDX 4 48 2 49 1 50
REMARK H PARENT 43 5 27 10 11 32
REMARK Flexibility Score: 80.00
ROOT
ATOM      1  C   UNL     1      20.678 -28.863  20.868  1.00  0.00     0.035 C 
ENDROOT
BRANCH   1   2
ATOM      2  C   UNL     1      20.272 -30.267  21.369  1.00  0.00     0.171 C 
BRANCH   2   3
ATOM      3  C   UNL     1      20.854 -30.552  22.730  1.00  0.00     0.243 C 
ATOM      4  N   UNL     1      21.240 -31.889  23.073  1.00  0.00    -0.342 N 
ATOM      5  H   UNL     1      21.287 -32.601  22.309  1.00  0.00     0.164 HD
ATOM      6  O   UNL     1      20.889 -29.642  23.605  1.00  0.00    -0.273 OA
BRANCH   4   7
ATOM      7  C   UNL     1      21.323 -32.331  24.469  1.00  0.00     0.175 C 
BRANCH   7   8
ATOM      8  C   UNL     1      19.935 -32.539  25.014  1.00  0.00     0.243 C 
ATOM      9  N   UNL     1      18.953 -33.239  24.233  1.00  0.00    -0.342 N 
ATOM     10  H   UNL     1      19.182 -33.450  23.237  1.00  0.00     0.164 HD
ATOM     11  O   UNL     1      19.647 -32.104  26.161  1.00  0.00    -0.273 OA
BRANCH   9  12
ATOM     12  C   UNL     1      17.674 -33.708  24.780  1.00  0.00     0.174 CG0
ATOM     13  G   UNL     1      16.511 -33.008  24.109  1.00  0.00     0.000 G0
BRANCH  12  14
ATOM     14  C   UNL     1      17.610 -35.268  24.730  1.00  0.00     0.018 C 
ATOM     15  C   UNL     1      17.152 -35.914  26.053  1.00  0.00     0.010 C 
BRANCH  14  16
ATOM     16  C   UNL     1      18.891 -35.927  24.130  1.00  0.00     0.002 C 
ATOM     17  C   UNL     1      19.253 -37.317  24.671  1.00  0.00     0.004 C 
ENDBRANCH  14  16
ENDBRANCH  12  14
ENDBRANCH   9  12
ENDBRANCH   7   8
BRANCH   7  18
ATOM     18  C   UNL     1      22.123 -33.641  24.589  1.00  0.00     0.073 C 
BRANCH  18  19
ATOM     19  C   UNL     1      23.541 -33.383  25.002  1.00  0.00    -0.016 A 
ATOM     20  C   UNL     1      24.678 -33.979  24.465  1.00  0.00     0.134 A 
ATOM     21  C   UNL     1      23.996 -32.467  25.935  1.00  0.00     0.006 A 
ATOM     22  N   UNL     1      25.785 -33.463  25.051  1.00  0.00    -0.191 N 
ATOM     23  C   UNL     1      25.366 -32.546  25.938  1.00  0.00     0.087 A 
ATOM     24  C   UNL     1      23.310 -31.573  26.758  1.00  0.00     0.011 A 
ATOM     25  C   UNL     1      26.145 -31.741  26.768  1.00  0.00     0.030 A 
ATOM     26  C   UNL     1      24.071 -30.749  27.608  1.00  0.00     0.001 A 
ATOM     27  C   UNL     1      25.482 -30.834  27.614  1.00  0.00     0.002 A 
BRANCH  22  28
ATOM     28  O   UNL     1      27.105 -33.779  24.788  1.00  0.00    -0.417 OA
ATOM     29  C   UNL     1      27.654 -33.722  23.478  1.00  0.00     0.313 C 
ENDBRANCH  22  28
ENDBRANCH  18  19
ENDBRANCH   7  18
ENDBRANCH   4   7
ENDBRANCH   2   3
BRANCH   2  30
ATOM     30  N   UNL     1      18.814 -30.386  21.458  1.00  0.00    -0.343 N 
ATOM     31  C   UNL     1      18.141 -31.630  21.197  1.00  0.00     0.243 C 
ATOM     32  H   UNL     1      18.291 -29.592  21.873  1.00  0.00     0.164 HD
ATOM     33  O   UNL     1      18.694 -32.484  20.452  1.00  0.00    -0.273 OA
BRANCH  31  34
ATOM     34  C   UNL     1      16.782 -31.957  21.782  1.00  0.00     0.174 C 
ATOM     35  N   UNL     1      16.757 -31.827  23.252  1.00  0.00    -0.329 N 
ATOM     36  C   UNL     1      15.624 -31.174  21.121  1.00  0.00     0.035 C 
ATOM     37  C   UNL     1      16.524 -30.513  23.864  1.00  0.00     0.120 C 
ATOM     38  C   UNL     1      15.345 -29.801  21.751  1.00  0.00     0.004 C 
ATOM     39  C   UNL     1      15.262 -29.882  23.278  1.00  0.00     0.022 C 
BRANCH  35  40
ATOM     40  C   UNL     1      16.520 -32.991  24.067  1.00  0.00     0.246 CG0
ATOM     41  O   UNL     1      15.329 -33.330  24.306  1.00  0.00    -0.272 OA
ATOM     42  G   UNL     1      17.646 -33.701  24.789  1.00  0.00     0.000 G0
ENDBRANCH  35  40
ENDBRANCH  31  34
ENDBRANCH   2  30
ENDBRANCH   1   2
BRANCH   1  43
ATOM     43  C   UNL     1      19.515 -27.852  20.845  1.00  0.00     0.003 C 
BRANCH  43  44
ATOM     44  C   UNL     1      19.956 -26.446  20.405  1.00  0.00     0.001 C 
BRANCH  44  45
ATOM     45  C   UNL     1      19.916 -25.430  21.559  1.00  0.00     0.008 C 
BRANCH  45  46
ATOM     46  C   UNL     1      21.282 -24.768  21.815  1.00  0.00     0.075 C 
BRANCH  46  47
ATOM     47  C   UNL     1      22.428 -25.750  21.790  1.00  0.00     0.132 C 
ATOM     48  O   UNL     1      22.555 -26.590  22.672  1.00  0.00    -0.300 OA
BRANCH  47  49
ATOM     49  C   UNL     1      23.450 -25.681  20.688  1.00  0.00     0.072 C 
ATOM     50  C   UNL     1      22.947 -24.822  19.533  1.00  0.00     0.012 C 
ENDBRANCH  47  49
ENDBRANCH  46  47
ENDBRANCH  45  46
ENDBRANCH  44  45
ENDBRANCH  43  44
ENDBRANCH   1  43
TORSDOF 12
ENDMDL
MODEL 5
REMARK VINA RESULT:    -5.645      1.196      2.061
REMARK INTER + INTRA:         -15.674
REMARK INTER:                 -11.858
REMARK INTRA:                  -3.816
REMARK UNBOUND:                -3.759
REMARK SMILES CCC(=O)CCCCC[C@@H]1NC(=O)[C@@H]2CCCCN2C(=O)[C@@H]([C@H](C)CC)NC(=O)[C@@H](Cc2cn(OC)c3ccccc23)NC1=O
REMARK SMILES IDX 9 1 10 2 44 3 43 4 45 6 30 7 28 8 27 9 29 11 22 12 23 14
REMARK SMILES IDX 24 15 25 16 26 17 31 18 32 19 33 20 42 21 34 22 37 23 41 24
REMARK SMILES IDX 38 25 40 26 39 27 35 28 36 29 11 30 12 31 13 33 14 34 19 35
REMARK SMILES IDX 15 36 18 37 16 38 17 39 20 40 21 41 8 43 7 44 6 45 5 46 3 47
REMARK SMILES IDX 4 48 2 49 1 50
REMARK H PARENT 43 5 27 10 11 32
REMARK Flexibility Score: 80.00
ROOT
ATOM      1  C   UNL     1      22.617 -35.650  24.867  1.00  0.00     0.035 C 
ENDROOT
BRANCH   1   2
ATOM      2  C   UNL     1      22.624 -34.350  24.033  1.00  0.00     0.171 C 
BRANCH   2   3
ATOM      3  C   UNL     1      21.350 -33.568  24.228  1.00  0.00     0.243 C 
ATOM      4  N   UNL     1      20.829 -32.777  23.152  1.00  0.00    -0.342 N 
ATOM      5  H   UNL     1      21.237 -32.909  22.198  1.00  0.00     0.164 HD
ATOM      6  O   UNL     1      20.811 -33.513  25.369  1.00  0.00    -0.273 OA
BRANCH   4   7
ATOM      7  C   UNL     1      19.937 -31.639  23.397  1.00  0.00     0.175 C 
BRANCH   7   8
ATOM      8  C   UNL     1      20.670 -30.586  24.184  1.00  0.00     0.243 C 
ATOM      9  N   UNL     1      21.776 -29.883  23.592  1.00  0.00    -0.342 N 
ATOM     10  H   UNL     1      22.143 -30.234  22.681  1.00  0.00     0.164 HD
ATOM     11  O   UNL     1      20.301 -30.320  25.360  1.00  0.00    -0.273 OA
BRANCH   9  12
ATOM     12  C   UNL     1      22.374 -28.680  24.182  1.00  0.00     0.174 CG0
ATOM     13  G   UNL     1      23.667 -29.015  24.896  1.00  0.00     0.000 G0
BRANCH  12  14
ATOM     14  C   UNL     1      22.499 -27.559  23.101  1.00  0.00     0.018 C 
ATOM     15  C   UNL     1      21.763 -26.255  23.469  1.00  0.00     0.010 C 
BRANCH  14  16
ATOM     16  C   UNL     1      22.199 -28.053  21.651  1.00  0.00     0.002 C 
ATOM     17  C   UNL     1      21.186 -27.223  20.852  1.00  0.00     0.004 C 
ENDBRANCH  14  16
ENDBRANCH  12  14
ENDBRANCH   9  12
ENDBRANCH   7   8
BRANCH   7  18
ATOM     18  C   UNL     1      19.435 -31.033  22.074  1.00  0.00     0.073 C 
BRANCH  18  19
ATOM     19  C   UNL     1      18.169 -31.691  21.613  1.00  0.00    -0.016 A 
ATOM     20  C   UNL     1      18.056 -32.653  20.614  1.00  0.00     0.134 A 
ATOM     21  C   UNL     1      16.896 -31.527  22.129  1.00  0.00     0.006 A 
ATOM     22  N   UNL     1      16.767 -33.054  20.509  1.00  0.00    -0.191 N 
ATOM     23  C   UNL     1      16.069 -32.370  21.430  1.00  0.00     0.087 A 
ATOM     24  C   UNL     1      16.416 -30.716  23.158  1.00  0.00     0.011 A 
ATOM     25  C   UNL     1      14.706 -32.458  21.709  1.00  0.00     0.030 A 
ATOM     26  C   UNL     1      15.044 -30.782  23.460  1.00  0.00     0.001 A 
ATOM     27  C   UNL     1      14.192 -31.648  22.738  1.00  0.00     0.002 A 
BRANCH  22  28
ATOM     28  O   UNL     1      16.244 -34.001  19.648  1.00  0.00    -0.417 OA
ATOM     29  C   UNL     1      16.520 -35.389  19.786  1.00  0.00     0.313 C 
ENDBRANCH  22  28
ENDBRANCH  18  19
ENDBRANCH   7  18
ENDBRANCH   4   7
ENDBRANCH   2   3
BRANCH   2  30
ATOM     30  N   UNL     1      23.752 -33.495  24.411  1.00  0.00    -0.343 N 
ATOM     31  C   UNL     1      24.107 -32.331  23.644  1.00  0.00     0.243 C 
ATOM     32  H   UNL     1      24.188 -33.656  25.338  1.00  0.00     0.164 HD
ATOM     33  O   UNL     1      23.794 -32.280  22.424  1.00  0.00    -0.273 OA
BRANCH  31  34
ATOM     34  C   UNL     1      24.852 -31.157  24.247  1.00  0.00     0.174 C 
ATOM     35  N   UNL     1      24.019 -30.390  25.193  1.00  0.00    -0.329 N 
ATOM     36  C   UNL     1      26.212 -31.547  24.870  1.00  0.00     0.035 C 
ATOM     37  C   UNL     1      23.910 -30.829  26.590  1.00  0.00     0.120 C 
ATOM     38  C   UNL     1      26.132 -31.995  26.338  1.00  0.00     0.004 C 
ATOM     39  C   UNL     1      25.304 -31.024  27.184  1.00  0.00     0.022 C 
BRANCH  35  40
ATOM     40  C   UNL     1      23.683 -29.021  24.899  1.00  0.00     0.246 CG0
ATOM     41  O   UNL     1      24.401 -28.104  25.380  1.00  0.00    -0.272 OA
ATOM     42  G   UNL     1      22.396 -28.651  24.190  1.00  0.00     0.000 G0
ENDBRANCH  35  40
ENDBRANCH  31  34
ENDBRANCH   2  30
ENDBRANCH   1   2
BRANCH   1  43
ATOM     43  C   UNL     1      22.317 -36.916  24.040  1.00  0.00     0.003 C 
BRANCH  43  44
ATOM     44  C   UNL     1      21.091 -36.753  23.124  1.00  0.00     0.001 C 
BRANCH  44  45
ATOM     45  C   UNL     1      19.829 -37.404  23.713  1.00  0.00     0.008 C 
BRANCH  45  46
ATOM     46  C   UNL     1      19.066 -36.465  24.665  1.00  0.00     0.075 C 
BRANCH  46  47
ATOM     47  C   UNL     1      18.210 -35.456  23.940  1.00  0.00     0.132 C 
ATOM     48  O   UNL     1      18.541 -35.024  22.843  1.00  0.00    -0.300 OA
BRANCH  47  49
ATOM     49  C   UNL     1      16.948 -34.946  24.581  1.00  0.00     0.072 C 
ATOM     50  C   UNL     1      17.213 -33.662  25.359  1.00  0.00     0.012 C 
ENDBRANCH  47  49
ENDBRANCH  46  47
ENDBRANCH  45  46
ENDBRANCH  44  45
ENDBRANCH  43  44
ENDBRANCH   1  43
TORSDOF 12
ENDMDL
MODEL 6
REMARK VINA RESULT:    -5.641      2.656      8.907
REMARK INTER + INTRA:         -15.665
REMARK INTER:                 -12.816
REMARK INTRA:                  -2.849
REMARK UNBOUND:                -3.759
REMARK SMILES CCC(=O)CCCCC[C@@H]1NC(=O)[C@@H]2CCCCN2C(=O)[C@@H]([C@H](C)CC)NC(=O)[C@@H](Cc2cn(OC)c3ccccc23)NC1=O
REMARK SMILES IDX 9 1 10 2 44 3 43 4 45 6 30 7 28 8 27 9 29 11 22 12 23 14
REMARK SMILES IDX 24 15 25 16 26 17 31 18 32 19 33 20 42 21 34 22 37 23 41 24
REMARK SMILES IDX 38 25 40 26 39 27 35 28 36 29 11 30 12 31 13 33 14 34 19 35
REMARK SMILES IDX 15 36 18 37 16 38 17 39 20 40 21 41 8 43 7 44 6 45 5 46 3 47
REMARK SMILES IDX 4 48 2 49 1 50
REMARK H PARENT 43 5 27 10 11 32
REMARK Flexibility Score: 80.00
ROOT
ATOM      1  C   UNL     1      20.693 -28.971  20.854  1.00  0.00     0.035 C 
ENDROOT
BRANCH   1   2
ATOM      2  C   UNL     1      20.292 -30.367  21.382  1.00  0.00     0.171 C 
BRANCH   2   3
ATOM      3  C   UNL     1      20.868 -30.620  22.752  1.00  0.00     0.243 C 
ATOM      4  N   UNL     1      21.281 -31.944  23.117  1.00  0.00    -0.342 N 
ATOM      5  H   UNL     1      21.350 -32.665  22.363  1.00  0.00     0.164 HD
ATOM      6  O   UNL     1      20.875 -29.697  23.614  1.00  0.00    -0.273 OA
BRANCH   4   7
ATOM      7  C   UNL     1      21.361 -32.364  24.520  1.00  0.00     0.175 C 
BRANCH   7   8
ATOM      8  C   UNL     1      19.972 -32.572  25.062  1.00  0.00     0.243 C 
ATOM      9  N   UNL     1      18.981 -33.244  24.265  1.00  0.00    -0.342 N 
ATOM     10  H   UNL     1      19.207 -33.431  23.264  1.00  0.00     0.164 HD
ATOM     11  O   UNL     1      19.690 -32.165  26.221  1.00  0.00    -0.273 OA
BRANCH   9  12
ATOM     12  C   UNL     1      17.700 -33.715  24.803  1.00  0.00     0.174 CG0
ATOM     13  G   UNL     1      16.540 -33.044  24.098  1.00  0.00     0.000 G0
BRANCH  12  14
ATOM     14  C   UNL     1      17.654 -35.276  24.788  1.00  0.00     0.018 C 
ATOM     15  C   UNL     1      17.281 -35.900  26.148  1.00  0.00     0.010 C 
BRANCH  14  16
ATOM     16  C   UNL     1      18.908 -35.932  24.128  1.00  0.00     0.002 C 
ATOM     17  C   UNL     1      18.739 -36.401  22.678  1.00  0.00     0.004 C 
ENDBRANCH  14  16
ENDBRANCH  12  14
ENDBRANCH   9  12
ENDBRANCH   7   8
BRANCH   7  18
ATOM     18  C   UNL     1      22.169 -33.666  24.662  1.00  0.00     0.073 C 
BRANCH  18  19
ATOM     19  C   UNL     1      23.644 -33.407  24.602  1.00  0.00    -0.016 A 
ATOM     20  C   UNL     1      24.368 -32.562  25.438  1.00  0.00     0.134 A 
ATOM     21  C   UNL     1      24.572 -34.000  23.764  1.00  0.00     0.006 A 
ATOM     22  N   UNL     1      25.683 -32.622  25.120  1.00  0.00    -0.191 N 
ATOM     23  C   UNL     1      25.801 -33.495  24.107  1.00  0.00     0.087 A 
ATOM     24  C   UNL     1      24.425 -34.945  22.748  1.00  0.00     0.011 A 
ATOM     25  C   UNL     1      26.967 -33.896  23.455  1.00  0.00     0.030 A 
ATOM     26  C   UNL     1      25.584 -35.367  22.071  1.00  0.00     0.001 A 
ATOM     27  C   UNL     1      26.849 -34.843  22.422  1.00  0.00     0.002 A 
BRANCH  22  28
ATOM     28  O   UNL     1      26.729 -31.945  25.721  1.00  0.00    -0.417 OA
ATOM     29  C   UNL     1      26.765 -31.689  27.119  1.00  0.00     0.313 C 
ENDBRANCH  22  28
ENDBRANCH  18  19
ENDBRANCH   7  18
ENDBRANCH   4   7
ENDBRANCH   2   3
BRANCH   2  30
ATOM     30  N   UNL     1      18.834 -30.494  21.465  1.00  0.00    -0.343 N 
ATOM     31  C   UNL     1      18.168 -31.738  21.192  1.00  0.00     0.243 C 
ATOM     32  H   UNL     1      18.306 -29.705  21.885  1.00  0.00     0.164 HD
ATOM     33  O   UNL     1      18.727 -32.584  20.443  1.00  0.00    -0.273 OA
BRANCH  31  34
ATOM     34  C   UNL     1      16.809 -32.076  21.770  1.00  0.00     0.174 C 
ATOM     35  N   UNL     1      16.757 -31.885  23.233  1.00  0.00    -0.329 N 
ATOM     36  C   UNL     1      15.642 -31.353  21.058  1.00  0.00     0.035 C 
ATOM     37  C   UNL     1      16.480 -30.553  23.783  1.00  0.00     0.120 C 
ATOM     38  C   UNL     1      15.317 -29.962  21.625  1.00  0.00     0.004 C 
ATOM     39  C   UNL     1      15.211 -29.981  23.152  1.00  0.00     0.022 C 
BRANCH  35  40
ATOM     40  C   UNL     1      16.536 -33.019  24.093  1.00  0.00     0.246 CG0
ATOM     41  O   UNL     1      15.351 -33.347  24.370  1.00  0.00    -0.272 OA
ATOM     42  G   UNL     1      17.677 -33.705  24.815  1.00  0.00     0.000 G0
ENDBRANCH  35  40
ENDBRANCH  31  34
ENDBRANCH   2  30
ENDBRANCH   1   2
BRANCH   1  43
ATOM     43  C   UNL     1      19.491 -28.060  20.537  1.00  0.00     0.003 C 
BRANCH  43  44
ATOM     44  C   UNL     1      19.881 -26.576  20.427  1.00  0.00     0.001 C 
BRANCH  44  45
ATOM     45  C   UNL     1      20.131 -25.932  21.801  1.00  0.00     0.008 C 
BRANCH  45  46
ATOM     46  C   UNL     1      21.202 -24.828  21.752  1.00  0.00     0.075 C 
BRANCH  46  47
ATOM     47  C   UNL     1      22.585 -25.360  21.462  1.00  0.00     0.132 C 
ATOM     48  O   UNL     1      23.030 -26.321  22.075  1.00  0.00    -0.300 OA
BRANCH  47  49
ATOM     49  C   UNL     1      23.445 -24.684  20.429  1.00  0.00     0.072 C 
ATOM     50  C   UNL     1      23.076 -25.149  19.024  1.00  0.00     0.012 C 
ENDBRANCH  47  49
ENDBRANCH  46  47
ENDBRANCH  45  46
ENDBRANCH  44  45
ENDBRANCH  43  44
ENDBRANCH   1  43
TORSDOF 12
ENDMDL
MODEL 7
REMARK VINA RESULT:    -5.619      2.399      6.326
REMARK INTER + INTRA:         -15.618
REMARK INTER:                 -12.790
REMARK INTRA:                  -2.829
REMARK UNBOUND:                -3.759
REMARK SMILES CCC(=O)CCCCC[C@@H]1NC(=O)[C@@H]2CCCCN2C(=O)[C@@H]([C@H](C)CC)NC(=O)[C@@H](Cc2cn(OC)c3ccccc23)NC1=O
REMARK SMILES IDX 9 1 10 2 44 3 43 4 45 6 30 7 28 8 27 9 29 11 22 12 23 14
REMARK SMILES IDX 24 15 25 16 26 17 31 18 32 19 33 20 42 21 34 22 37 23 41 24
REMARK SMILES IDX 38 25 40 26 39 27 35 28 36 29 11 30 12 31 13 33 14 34 19 35
REMARK SMILES IDX 15 36 18 37 16 38 17 39 20 40 21 41 8 43 7 44 6 45 5 46 3 47
REMARK SMILES IDX 4 48 2 49 1 50
REMARK H PARENT 43 5 27 10 11 32
REMARK Flexibility Score: 80.00
ROOT
ATOM      1  C   UNL     1      23.579 -28.451  23.725  1.00  0.00     0.035 C 
ENDROOT
BRANCH   1   2
ATOM      2  C   UNL     1      22.759 -29.639  24.274  1.00  0.00     0.171 C 
BRANCH   2   3
ATOM      3  C   UNL     1      21.535 -29.894  23.430  1.00  0.00     0.243 C 
ATOM      4  N   UNL     1      20.311 -30.299  24.057  1.00  0.00    -0.342 N 
ATOM      5  H   UNL     1      20.240 -30.225  25.097  1.00  0.00     0.164 HD
ATOM      6  O   UNL     1      21.620 -29.870  22.171  1.00  0.00    -0.273 OA
BRANCH   4   7
ATOM      7  C   UNL     1      19.276 -31.032  23.320  1.00  0.00     0.175 C 
BRANCH   7   8
ATOM      8  C   UNL     1      19.871 -32.283  22.729  1.00  0.00     0.243 C 
ATOM      9  N   UNL     1      20.477 -33.266  23.585  1.00  0.00    -0.342 N 
ATOM     10  H   UNL     1      20.628 -33.013  24.585  1.00  0.00     0.164 HD
ATOM     11  O   UNL     1      19.824 -32.464  21.482  1.00  0.00    -0.273 OA
BRANCH   9  12
ATOM     12  C   UNL     1      20.843 -34.613  23.130  1.00  0.00     0.174 CG0
ATOM     13  G   UNL     1      22.310 -34.887  23.383  1.00  0.00     0.000 G0
BRANCH  12  14
ATOM     14  C   UNL     1      19.869 -35.669  23.744  1.00  0.00     0.018 C 
ATOM     15  C   UNL     1      19.186 -36.569  22.695  1.00  0.00     0.010 C 
BRANCH  14  16
ATOM     16  C   UNL     1      18.876 -35.069  24.788  1.00  0.00     0.002 C 
ATOM     17  C   UNL     1      17.893 -36.058  25.429  1.00  0.00     0.004 C 
ENDBRANCH  14  16
ENDBRANCH  12  14
ENDBRANCH   9  12
ENDBRANCH   7   8
BRANCH   7  18
ATOM     18  C   UNL     1      18.102 -31.409  24.241  1.00  0.00     0.073 C 
BRANCH  18  19
ATOM     19  C   UNL     1      16.794 -31.364  23.509  1.00  0.00    -0.016 A 
ATOM     20  C   UNL     1      15.901 -30.297  23.481  1.00  0.00     0.134 A 
ATOM     21  C   UNL     1      16.258 -32.331  22.676  1.00  0.00     0.006 A 
ATOM     22  N   UNL     1      14.854 -30.598  22.676  1.00  0.00    -0.191 N 
ATOM     23  C   UNL     1      15.077 -31.830  22.190  1.00  0.00     0.087 A 
ATOM     24  C   UNL     1      16.728 -33.591  22.306  1.00  0.00     0.011 A 
ATOM     25  C   UNL     1      14.281 -32.557  21.305  1.00  0.00     0.030 A 
ATOM     26  C   UNL     1      15.945 -34.349  21.416  1.00  0.00     0.001 A 
ATOM     27  C   UNL     1      14.726 -33.834  20.919  1.00  0.00     0.002 A 
BRANCH  22  28
ATOM     28  O   UNL     1      13.765 -29.802  22.373  1.00  0.00    -0.417 OA
ATOM     29  C   UNL     1      12.536 -29.892  23.083  1.00  0.00     0.313 C 
ENDBRANCH  22  28
ENDBRANCH  18  19
ENDBRANCH   7  18
ENDBRANCH   4   7
ENDBRANCH   2   3
BRANCH   2  30
ATOM     30  N   UNL     1      23.565 -30.862  24.298  1.00  0.00    -0.343 N 
ATOM     31  C   UNL     1      23.262 -31.949  25.189  1.00  0.00     0.243 C 
ATOM     32  H   UNL     1      24.262 -30.993  23.540  1.00  0.00     0.164 HD
ATOM     33  O   UNL     1      22.635 -31.712  26.256  1.00  0.00    -0.273 OA
BRANCH  31  34
ATOM     34  C   UNL     1      23.672 -33.378  24.897  1.00  0.00     0.174 C 
ATOM     35  N   UNL     1      23.283 -33.808  23.540  1.00  0.00    -0.329 N 
ATOM     36  C   UNL     1      25.166 -33.658  25.178  1.00  0.00     0.035 C 
ATOM     37  C   UNL     1      24.153 -33.497  22.400  1.00  0.00     0.120 C 
ATOM     38  C   UNL     1      26.101 -33.358  23.996  1.00  0.00     0.004 C 
ATOM     39  C   UNL     1      25.579 -33.963  22.690  1.00  0.00     0.022 C 
BRANCH  35  40
ATOM     40  C   UNL     1      22.328 -34.874  23.376  1.00  0.00     0.246 CG0
ATOM     41  O   UNL     1      22.753 -36.056  23.272  1.00  0.00    -0.272 OA
ATOM     42  G   UNL     1      20.858 -34.597  23.140  1.00  0.00     0.000 G0
ENDBRANCH  35  40
ENDBRANCH  31  34
ENDBRANCH   2  30
ENDBRANCH   1   2
BRANCH   1  43
ATOM     43  C   UNL     1      23.377 -27.142  24.512  1.00  0.00     0.003 C 
BRANCH  43  44
ATOM     44  C   UNL     1      22.538 -26.106  23.742  1.00  0.00     0.001 C 
BRANCH  44  45
ATOM     45  C   UNL     1      23.023 -25.918  22.295  1.00  0.00     0.008 C 
BRANCH  45  46
ATOM     46  C   UNL     1      22.351 -24.724  21.594  1.00  0.00     0.075 C 
BRANCH  46  47
ATOM     47  C   UNL     1      21.762 -25.083  20.251  1.00  0.00     0.132 C 
ATOM     48  O   UNL     1      22.452 -25.076  19.240  1.00  0.00    -0.300 OA
BRANCH  47  49
ATOM     49  C   UNL     1      20.300 -25.422  20.142  1.00  0.00     0.072 C 
ATOM     50  C   UNL     1      20.031 -26.837  20.642  1.00  0.00     0.012 C 
ENDBRANCH  47  49
ENDBRANCH  46  47
ENDBRANCH  45  46
ENDBRANCH  44  45
ENDBRANCH  43  44
ENDBRANCH   1  43
TORSDOF 12
ENDMDL
MODEL 8
REMARK VINA RESULT:    -5.485      2.411      6.845
REMARK INTER + INTRA:         -15.338
REMARK INTER:                 -13.083
REMARK INTRA:                  -2.255
REMARK UNBOUND:                -3.759
REMARK SMILES CCC(=O)CCCCC[C@@H]1NC(=O)[C@@H]2CCCCN2C(=O)[C@@H]([C@H](C)CC)NC(=O)[C@@H](Cc2cn(OC)c3ccccc23)NC1=O
REMARK SMILES IDX 9 1 10 2 44 3 43 4 45 6 30 7 28 8 27 9 29 11 22 12 23 14
REMARK SMILES IDX 24 15 25 16 26 17 31 18 32 19 33 20 42 21 34 22 37 23 41 24
REMARK SMILES IDX 38 25 40 26 39 27 35 28 36 29 11 30 12 31 13 33 14 34 19 35
REMARK SMILES IDX 15 36 18 37 16 38 17 39 20 40 21 41 8 43 7 44 6 45 5 46 3 47
REMARK SMILES IDX 4 48 2 49 1 50
REMARK H PARENT 43 5 27 10 11 32
REMARK Flexibility Score: 80.00
ROOT
ATOM      1  C   UNL     1      21.858 -28.269  22.052  1.00  0.00     0.035 C 
ENDROOT
BRANCH   1   2
ATOM      2  C   UNL     1      21.232 -29.344  22.968  1.00  0.00     0.171 C 
BRANCH   2   3
ATOM      3  C   UNL     1      20.095 -30.054  22.279  1.00  0.00     0.243 C 
ATOM      4  N   UNL     1      18.964 -30.495  23.043  1.00  0.00    -0.342 N 
ATOM      5  H   UNL     1      18.866 -30.149  24.024  1.00  0.00     0.164 HD
ATOM      6  O   UNL     1      20.191 -30.365  21.059  1.00  0.00    -0.273 OA
BRANCH   4   7
ATOM      7  C   UNL     1      18.104 -31.589  22.580  1.00  0.00     0.175 C 
BRANCH   7   8
ATOM      8  C   UNL     1      18.864 -32.887  22.643  1.00  0.00     0.243 C 
ATOM      9  N   UNL     1      19.755 -33.147  23.740  1.00  0.00    -0.342 N 
ATOM     10  H   UNL     1      19.973 -32.358  24.387  1.00  0.00     0.164 HD
ATOM     11  O   UNL     1      18.702 -33.745  21.734  1.00  0.00    -0.273 OA
BRANCH   9  12
ATOM     12  C   UNL     1      20.329 -34.469  24.015  1.00  0.00     0.174 CG0
ATOM     13  G   UNL     1      21.771 -34.349  24.461  1.00  0.00     0.000 G0
BRANCH  12  14
ATOM     14  C   UNL     1      19.408 -35.259  24.999  1.00  0.00     0.018 C 
ATOM     15  C   UNL     1      19.119 -36.706  24.554  1.00  0.00     0.010 C 
BRANCH  14  16
ATOM     16  C   UNL     1      18.128 -34.473  25.422  1.00  0.00     0.002 C 
ATOM     17  C   UNL     1      16.923 -35.324  25.846  1.00  0.00     0.004 C 
ENDBRANCH  14  16
ENDBRANCH  12  14
ENDBRANCH   9  12
ENDBRANCH   7   8
BRANCH   7  18
ATOM     18  C   UNL     1      16.833 -31.696  23.442  1.00  0.00     0.073 C 
BRANCH  18  19
ATOM     19  C   UNL     1      15.593 -31.642  22.601  1.00  0.00    -0.016 A 
ATOM     20  C   UNL     1      15.342 -32.386  21.452  1.00  0.00     0.134 A 
ATOM     21  C   UNL     1      14.444 -30.906  22.836  1.00  0.00     0.006 A 
ATOM     22  N   UNL     1      14.098 -32.111  20.992  1.00  0.00    -0.191 N 
ATOM     23  C   UNL     1      13.558 -31.216  21.835  1.00  0.00     0.087 A 
ATOM     24  C   UNL     1      14.116 -30.011  23.855  1.00  0.00     0.011 A 
ATOM     25  C   UNL     1      12.286 -30.649  21.779  1.00  0.00     0.030 A 
ATOM     26  C   UNL     1      12.839 -29.420  23.823  1.00  0.00     0.001 A 
ATOM     27  C   UNL     1      11.929 -29.737  22.789  1.00  0.00     0.002 A 
BRANCH  22  28
ATOM     28  O   UNL     1      13.469 -32.651  19.885  1.00  0.00    -0.417 OA
ATOM     29  C   UNL     1      14.109 -33.588  19.028  1.00  0.00     0.313 C 
ENDBRANCH  22  28
ENDBRANCH  18  19
ENDBRANCH   7  18
ENDBRANCH   4   7
ENDBRANCH   2   3
BRANCH   2  30
ATOM     30  N   UNL     1      22.231 -30.343  23.356  1.00  0.00    -0.343 N 
ATOM     31  C   UNL     1      22.354 -30.800  24.714  1.00  0.00     0.243 C 
ATOM     32  H   UNL     1      22.739 -30.835  22.597  1.00  0.00     0.164 HD
ATOM     33  O   UNL     1      21.968 -30.051  25.652  1.00  0.00    -0.273 OA
BRANCH  31  34
ATOM     34  C   UNL     1      22.937 -32.153  25.067  1.00  0.00     0.174 C 
ATOM     35  N   UNL     1      22.591 -33.190  24.074  1.00  0.00    -0.329 N 
ATOM     36  C   UNL     1      24.457 -32.113  25.344  1.00  0.00     0.035 C 
ATOM     37  C   UNL     1      23.405 -33.337  22.861  1.00  0.00     0.120 C 
ATOM     38  C   UNL     1      25.335 -32.282  24.095  1.00  0.00     0.004 C 
ATOM     39  C   UNL     1      24.880 -33.465  23.236  1.00  0.00     0.022 C 
BRANCH  35  40
ATOM     40  C   UNL     1      21.776 -34.310  24.468  1.00  0.00     0.246 CG0
ATOM     41  O   UNL     1      22.318 -35.266  25.086  1.00  0.00    -0.272 OA
ATOM     42  G   UNL     1      20.343 -34.455  24.002  1.00  0.00     0.000 G0
ENDBRANCH  35  40
ENDBRANCH  31  34
ENDBRANCH   2  30
ENDBRANCH   1   2
BRANCH   1  43
ATOM     43  C   UNL     1      23.118 -27.607  22.644  1.00  0.00     0.003 C 
BRANCH  43  44
ATOM     44  C   UNL     1      23.774 -26.603  21.680  1.00  0.00     0.001 C 
BRANCH  44  45
ATOM     45  C   UNL     1      23.066 -26.553  20.315  1.00  0.00     0.008 C 
BRANCH  45  46
ATOM     46  C   UNL     1      22.178 -25.306  20.153  1.00  0.00     0.075 C 
BRANCH  46  47
ATOM     47  C   UNL     1      22.412 -24.271  21.227  1.00  0.00     0.132 C 
ATOM     48  O   UNL     1      23.469 -23.656  21.287  1.00  0.00    -0.300 OA
BRANCH  47  49
ATOM     49  C   UNL     1      21.348 -24.010  22.258  1.00  0.00     0.072 C 
ATOM     50  C   UNL     1      20.010 -24.594  21.821  1.00  0.00     0.012 C 
ENDBRANCH  47  49
ENDBRANCH  46  47
ENDBRANCH  45  46
ENDBRANCH  44  45
ENDBRANCH  43  44
ENDBRANCH   1  43
TORSDOF 12
ENDMDL
MODEL 9
REMARK VINA RESULT:    -5.249      2.346      7.361
REMARK INTER + INTRA:         -14.838
REMARK INTER:                 -11.544
REMARK INTRA:                  -3.294
REMARK UNBOUND:                -3.759
REMARK SMILES CCC(=O)CCCCC[C@@H]1NC(=O)[C@@H]2CCCCN2C(=O)[C@@H]([C@H](C)CC)NC(=O)[C@@H](Cc2cn(OC)c3ccccc23)NC1=O
REMARK SMILES IDX 9 1 10 2 44 3 43 4 45 6 30 7 28 8 27 9 29 11 22 12 23 14
REMARK SMILES IDX 24 15 25 16 26 17 31 18 32 19 33 20 42 21 34 22 37 23 41 24
REMARK SMILES IDX 38 25 40 26 39 27 35 28 36 29 11 30 12 31 13 33 14 34 19 35
REMARK SMILES IDX 15 36 18 37 16 38 17 39 20 40 21 41 8 43 7 44 6 45 5 46 3 47
REMARK SMILES IDX 4 48 2 49 1 50
REMARK H PARENT 43 5 27 10 11 32
REMARK Flexibility Score: 80.00
ROOT
ATOM      1  C   UNL     1      16.575 -30.839  23.913  1.00  0.00     0.035 C 
ENDROOT
BRANCH   1   2
ATOM      2  C   UNL     1      18.015 -31.158  23.451  1.00  0.00     0.171 C 
BRANCH   2   3
ATOM      3  C   UNL     1      19.033 -30.623  24.427  1.00  0.00     0.243 C 
ATOM      4  N   UNL     1      20.273 -30.093  23.941  1.00  0.00    -0.342 N 
ATOM      5  H   UNL     1      20.366 -29.914  22.915  1.00  0.00     0.164 HD
ATOM      6  O   UNL     1      18.846 -30.752  25.668  1.00  0.00    -0.273 OA
BRANCH   4   7
ATOM      7  C   UNL     1      21.469 -30.035  24.789  1.00  0.00     0.175 C 
BRANCH   7   8
ATOM      8  C   UNL     1      21.823 -31.423  25.253  1.00  0.00     0.243 C 
ATOM      9  N   UNL     1      22.148 -32.443  24.293  1.00  0.00    -0.342 N 
ATOM     10  H   UNL     1      21.976 -32.234  23.285  1.00  0.00     0.164 HD
ATOM     11  O   UNL     1      21.843 -31.679  26.487  1.00  0.00    -0.273 OA
BRANCH   9  12
ATOM     12  C   UNL     1      22.748 -33.731  24.658  1.00  0.00     0.174 CG0
ATOM     13  G   UNL     1      21.822 -34.876  24.308  1.00  0.00     0.000 G0
BRANCH  12  14
ATOM     14  C   UNL     1      24.182 -33.845  24.050  1.00  0.00     0.018 C 
ATOM     15  C   UNL     1      25.312 -33.668  25.084  1.00  0.00     0.010 C 
BRANCH  14  16
ATOM     16  C   UNL     1      24.383 -32.991  22.759  1.00  0.00     0.002 C 
ATOM     17  C   UNL     1      25.165 -33.662  21.621  1.00  0.00     0.004 C 
ENDBRANCH  14  16
ENDBRANCH  12  14
ENDBRANCH   9  12
ENDBRANCH   7   8
BRANCH   7  18
ATOM     18  C   UNL     1      22.660 -29.430  24.025  1.00  0.00     0.073 C 
BRANCH  18  19
ATOM     19  C   UNL     1      22.507 -27.948  23.853  1.00  0.00    -0.016 A 
ATOM     20  C   UNL     1      22.808 -26.973  24.799  1.00  0.00     0.134 A 
ATOM     21  C   UNL     1      22.111 -27.266  22.716  1.00  0.00     0.006 A 
ATOM     22  N   UNL     1      22.593 -25.744  24.272  1.00  0.00    -0.191 N 
ATOM     23  C   UNL     1      22.173 -25.927  23.010  1.00  0.00     0.087 A 
ATOM     24  C   UNL     1      21.720 -27.724  21.457  1.00  0.00     0.011 A 
ATOM     25  C   UNL     1      21.844 -24.953  22.069  1.00  0.00     0.030 A 
ATOM     26  C   UNL     1      21.379 -26.763  20.487  1.00  0.00     0.001 A 
ATOM     27  C   UNL     1      21.439 -25.384  20.792  1.00  0.00     0.002 A 
BRANCH  22  28
ATOM     28  O   UNL     1      22.785 -24.518  24.883  1.00  0.00    -0.417 OA
ATOM     29  C   UNL     1      22.228 -24.206  26.154  1.00  0.00     0.313 C 
ENDBRANCH  22  28
ENDBRANCH  18  19
ENDBRANCH   7  18
ENDBRANCH   4   7
ENDBRANCH   2   3
BRANCH   2  30
ATOM     30  N   UNL     1      18.213 -32.604  23.326  1.00  0.00    -0.343 N 
ATOM     31  C   UNL     1      19.256 -33.155  22.504  1.00  0.00     0.243 C 
ATOM     32  H   UNL     1      17.686 -33.220  23.974  1.00  0.00     0.164 HD
ATOM     33  O   UNL     1      19.698 -32.478  21.536  1.00  0.00    -0.273 OA
BRANCH  31  34
ATOM     34  C   UNL     1      19.847 -34.528  22.751  1.00  0.00     0.174 C 
ATOM     35  N   UNL     1      20.387 -34.669  24.118  1.00  0.00    -0.329 N 
ATOM     36  C   UNL     1      18.884 -35.684  22.396  1.00  0.00     0.035 C 
ATOM     37  C   UNL     1      19.490 -35.034  25.221  1.00  0.00     0.120 C 
ATOM     38  C   UNL     1      17.944 -36.101  23.537  1.00  0.00     0.004 C 
ATOM     39  C   UNL     1      18.700 -36.290  24.856  1.00  0.00     0.022 C 
BRANCH  35  40
ATOM     40  C   UNL     1      21.798 -34.887  24.308  1.00  0.00     0.246 CG0
ATOM     41  O   UNL     1      22.228 -36.071  24.344  1.00  0.00    -0.272 OA
ATOM     42  G   UNL     1      22.740 -33.751  24.648  1.00  0.00     0.000 G0
ENDBRANCH  35  40
ENDBRANCH  31  34
ENDBRANCH   2  30
ENDBRANCH   1   2
BRANCH   1  43
ATOM     43  C   UNL     1      15.649 -30.369  22.774  1.00  0.00     0.003 C 
BRANCH  43  44
ATOM     44  C   UNL     1      14.193 -30.830  22.961  1.00  0.00     0.001 C 
BRANCH  44  45
ATOM     45  C   UNL     1      13.711 -31.732  21.813  1.00  0.00     0.008 C 
BRANCH  45  46
ATOM     46  C   UNL     1      14.872 -32.313  20.986  1.00  0.00     0.075 C 
BRANCH  46  47
ATOM     47  C   UNL     1      15.259 -33.708  21.412  1.00  0.00     0.132 C 
ATOM     48  O   UNL     1      15.504 -33.962  22.584  1.00  0.00    -0.300 OA
BRANCH  47  49
ATOM     49  C   UNL     1      15.380 -34.798  20.382  1.00  0.00     0.072 C 
ATOM     50  C   UNL     1      16.585 -34.563  19.478  1.00  0.00     0.012 C 
ENDBRANCH  47  49
ENDBRANCH  46  47
ENDBRANCH  45  46
ENDBRANCH  44  45
ENDBRANCH  43  44
ENDBRANCH   1  43
TORSDOF 12
ENDMDL
