MODEL 1
REMARK VINA RESULT:    -6.146      0.000      0.000
REMARK INTER + INTRA:          -7.654
REMARK INTER:                  -7.583
REMARK INTRA:                  -0.071
REMARK UNBOUND:                -0.071
REMARK SMILES COc1cc(-c2oc3cc(O)cc(O)c3c(=O)c2O)ccc1O
REMARK SMILES IDX 6 1 18 2 16 3 17 4 15 5 13 6 12 7 10 8 9 9 8 10 7 11 5 12
REMARK SMILES IDX 3 13 22 14 4 15 21 16 20 17 2 18 1 19 23 20 19 22 14 24
REMARK SMILES IDX 11 26
REMARK H PARENT 23 21 19 23 14 25 11 27
REMARK Flexibility Score: inf
ROOT
ATOM      1  C   UNL     1     -12.499  -2.723 -18.689  1.00  0.00     0.180 A 
ATOM      2  C   UNL     1     -12.508  -3.979 -18.058  1.00  0.00     0.208 A 
ATOM      3  C   UNL     1     -13.684  -4.418 -17.430  1.00  0.00     0.238 A 
ATOM      4  O   UNL     1     -13.668  -5.519 -16.820  1.00  0.00    -0.285 OA
ATOM      5  C   UNL     1     -14.842  -3.603 -17.455  1.00  0.00     0.111 A 
ATOM      6  C   UNL     1     -16.100  -3.966 -16.886  1.00  0.00     0.134 A 
ATOM      7  C   UNL     1     -17.140  -3.028 -16.855  1.00  0.00     0.093 A 
ATOM      8  C   UNL     1     -16.987  -1.765 -17.431  1.00  0.00     0.123 A 
ATOM      9  C   UNL     1     -15.783  -1.424 -18.042  1.00  0.00     0.094 A 
ATOM     10  C   UNL     1     -14.715  -2.324 -18.056  1.00  0.00     0.146 A 
ATOM     11  O   UNL     1     -13.581  -1.955 -18.639  1.00  0.00    -0.452 OA
ENDROOT
BRANCH   1  12
ATOM     12  C   UNL     1     -11.304  -2.202 -19.393  1.00  0.00     0.025 A 
ATOM     13  C   UNL     1      -9.784  -0.343 -19.857  1.00  0.00     0.161 A 
ATOM     14  C   UNL     1      -9.076  -1.159 -20.758  1.00  0.00     0.157 A 
ATOM     15  C   UNL     1     -10.902  -0.873 -19.183  1.00  0.00     0.062 A 
ATOM     16  C   UNL     1      -9.488  -2.475 -20.983  1.00  0.00     0.051 A 
ATOM     17  C   UNL     1     -10.597  -2.994 -20.313  1.00  0.00     0.016 A 
BRANCH  13  18
ATOM     18  O   UNL     1      -9.352   0.978 -19.656  1.00  0.00    -0.493 OA
ATOM     19  C   UNL     1     -10.108   2.136 -19.995  1.00  0.00     0.278 C 
ENDBRANCH  13  18
BRANCH  14  20
ATOM     20  O   UNL     1      -7.962  -0.676 -21.445  1.00  0.00    -0.504 OA
ATOM     21  H   UNL     1      -7.543   0.221 -21.231  1.00  0.00     0.293 HD
ENDBRANCH  14  20
ENDBRANCH   1  12
BRANCH   2  22
ATOM     22  O   UNL     1     -11.347  -4.757 -18.027  1.00  0.00    -0.502 OA
ATOM     23  H   UNL     1     -11.213  -5.508 -17.359  1.00  0.00     0.293 HD
ENDBRANCH   2  22
BRANCH   6  24
ATOM     24  O   UNL     1     -16.386  -5.232 -16.368  1.00  0.00    -0.507 OA
ATOM     25  H   UNL     1     -15.797  -6.044 -16.475  1.00  0.00     0.293 HD
ENDBRANCH   6  24
BRANCH   8  26
ATOM     26  O   UNL     1     -18.032  -0.843 -17.410  1.00  0.00    -0.508 OA
ATOM     27  H   UNL     1     -17.866   0.149 -17.537  1.00  0.00     0.293 HD
ENDBRANCH   8  26
TORSDOF 6
ENDMDL
MODEL 2
REMARK VINA RESULT:    -6.058      3.883      6.520
REMARK INTER + INTRA:          -7.546
REMARK INTER:                  -7.369
REMARK INTRA:                  -0.177
REMARK UNBOUND:                -0.071
REMARK SMILES COc1cc(-c2oc3cc(O)cc(O)c3c(=O)c2O)ccc1O
REMARK SMILES IDX 6 1 18 2 16 3 17 4 15 5 13 6 12 7 10 8 9 9 8 10 7 11 5 12
REMARK SMILES IDX 3 13 22 14 4 15 21 16 20 17 2 18 1 19 23 20 19 22 14 24
REMARK SMILES IDX 11 26
REMARK H PARENT 23 21 19 23 14 25 11 27
REMARK Flexibility Score: inf
ROOT
ATOM      1  C   UNL     1     -16.755  -1.893 -16.605  1.00  0.00     0.180 A 
ATOM      2  C   UNL     1     -17.795  -2.815 -16.811  1.00  0.00     0.208 A 
ATOM      3  C   UNL     1     -17.475  -4.160 -17.052  1.00  0.00     0.238 A 
ATOM      4  O   UNL     1     -18.410  -4.971 -17.290  1.00  0.00    -0.285 OA
ATOM      5  C   UNL     1     -16.120  -4.571 -17.066  1.00  0.00     0.111 A 
ATOM      6  C   UNL     1     -15.683  -5.916 -17.259  1.00  0.00     0.134 A 
ATOM      7  C   UNL     1     -14.314  -6.186 -17.384  1.00  0.00     0.093 A 
ATOM      8  C   UNL     1     -13.366  -5.169 -17.258  1.00  0.00     0.123 A 
ATOM      9  C   UNL     1     -13.780  -3.863 -17.009  1.00  0.00     0.094 A 
ATOM     10  C   UNL     1     -15.140  -3.556 -16.916  1.00  0.00     0.146 A 
ATOM     11  O   UNL     1     -15.493  -2.296 -16.689  1.00  0.00    -0.452 OA
ENDROOT
BRANCH   1  12
ATOM     12  C   UNL     1     -17.014  -0.462 -16.322  1.00  0.00     0.025 A 
ATOM     13  C   UNL     1     -16.602   1.891 -16.848  1.00  0.00     0.161 A 
ATOM     14  C   UNL     1     -17.433   2.266 -15.777  1.00  0.00     0.157 A 
ATOM     15  C   UNL     1     -16.393   0.522 -17.108  1.00  0.00     0.062 A 
ATOM     16  C   UNL     1     -18.034   1.288 -14.981  1.00  0.00     0.051 A 
ATOM     17  C   UNL     1     -17.823  -0.067 -15.244  1.00  0.00     0.016 A 
BRANCH  13  18
ATOM     18  O   UNL     1     -16.004   2.896 -17.626  1.00  0.00    -0.493 OA
ATOM     19  C   UNL     1     -14.621   3.230 -17.590  1.00  0.00     0.278 C 
ENDBRANCH  13  18
BRANCH  14  20
ATOM     20  O   UNL     1     -17.669   3.609 -15.484  1.00  0.00    -0.504 OA
ATOM     21  H   UNL     1     -18.299   3.898 -14.744  1.00  0.00     0.293 HD
ENDBRANCH  14  20
ENDBRANCH   1  12
BRANCH   2  22
ATOM     22  O   UNL     1     -19.125  -2.385 -16.815  1.00  0.00    -0.502 OA
ATOM     23  H   UNL     1     -19.390  -1.436 -16.577  1.00  0.00     0.293 HD
ENDBRANCH   2  22
BRANCH   6  24
ATOM     24  O   UNL     1     -16.543  -7.017 -17.307  1.00  0.00    -0.507 OA
ATOM     25  H   UNL     1     -16.405  -7.876 -16.797  1.00  0.00     0.293 HD
ENDBRANCH   6  24
BRANCH   8  26
ATOM     26  O   UNL     1     -12.005  -5.448 -17.368  1.00  0.00    -0.508 OA
ATOM     27  H   UNL     1     -11.638  -6.000 -18.134  1.00  0.00     0.293 HD
ENDBRANCH   8  26
TORSDOF 6
ENDMDL
MODEL 3
REMARK VINA RESULT:    -6.051      2.075      2.786
REMARK INTER + INTRA:          -7.538
REMARK INTER:                  -7.187
REMARK INTRA:                  -0.351
REMARK UNBOUND:                -0.071
REMARK SMILES COc1cc(-c2oc3cc(O)cc(O)c3c(=O)c2O)ccc1O
REMARK SMILES IDX 6 1 18 2 16 3 17 4 15 5 13 6 12 7 10 8 9 9 8 10 7 11 5 12
REMARK SMILES IDX 3 13 22 14 4 15 21 16 20 17 2 18 1 19 23 20 19 22 14 24
REMARK SMILES IDX 11 26
REMARK H PARENT 23 21 19 23 14 25 11 27
REMARK Flexibility Score: inf
ROOT
ATOM      1  C   UNL     1     -14.382  -3.461 -17.540  1.00  0.00     0.180 A 
ATOM      2  C   UNL     1     -14.758  -4.776 -17.866  1.00  0.00     0.208 A 
ATOM      3  C   UNL     1     -15.994  -5.263 -17.412  1.00  0.00     0.238 A 
ATOM      4  O   UNL     1     -16.301  -6.458 -17.662  1.00  0.00    -0.285 OA
ATOM      5  C   UNL     1     -16.846  -4.425 -16.653  1.00  0.00     0.111 A 
ATOM      6  C   UNL     1     -18.138  -4.800 -16.176  1.00  0.00     0.134 A 
ATOM      7  C   UNL     1     -18.838  -3.937 -15.324  1.00  0.00     0.093 A 
ATOM      8  C   UNL     1     -18.321  -2.685 -14.985  1.00  0.00     0.123 A 
ATOM      9  C   UNL     1     -17.087  -2.285 -15.494  1.00  0.00     0.094 A 
ATOM     10  C   UNL     1     -16.349  -3.139 -16.316  1.00  0.00     0.146 A 
ATOM     11  O   UNL     1     -15.173  -2.723 -16.771  1.00  0.00    -0.452 OA
ENDROOT
BRANCH   1  12
ATOM     12  C   UNL     1     -13.105  -2.869 -18.001  1.00  0.00     0.025 A 
ATOM     13  C   UNL     1     -11.899  -1.450 -19.587  1.00  0.00     0.161 A 
ATOM     14  C   UNL     1     -10.691  -1.774 -18.944  1.00  0.00     0.157 A 
ATOM     15  C   UNL     1     -13.102  -2.010 -19.111  1.00  0.00     0.062 A 
ATOM     16  C   UNL     1     -10.691  -2.645 -17.852  1.00  0.00     0.051 A 
ATOM     17  C   UNL     1     -11.885  -3.196 -17.385  1.00  0.00     0.016 A 
BRANCH  13  18
ATOM     18  O   UNL     1     -11.868  -0.578 -20.687  1.00  0.00    -0.493 OA
ATOM     19  C   UNL     1     -11.861  -0.994 -22.049  1.00  0.00     0.278 C 
ENDBRANCH  13  18
BRANCH  14  20
ATOM     20  O   UNL     1      -9.477  -1.242 -19.380  1.00  0.00    -0.504 OA
ATOM     21  H   UNL     1      -8.852  -0.743 -18.757  1.00  0.00     0.293 HD
ENDBRANCH  14  20
ENDBRANCH   1  12
BRANCH   2  22
ATOM     22  O   UNL     1     -13.893  -5.593 -18.598  1.00  0.00    -0.502 OA
ATOM     23  H   UNL     1     -13.102  -6.066 -18.175  1.00  0.00     0.293 HD
ENDBRANCH   2  22
BRANCH   6  24
ATOM     24  O   UNL     1     -18.785  -5.988 -16.530  1.00  0.00    -0.507 OA
ATOM     25  H   UNL     1     -18.982  -6.275 -17.476  1.00  0.00     0.293 HD
ENDBRANCH   6  24
BRANCH   8  26
ATOM     26  O   UNL     1     -19.030  -1.825 -14.149  1.00  0.00    -0.508 OA
ATOM     27  H   UNL     1     -18.599  -1.400 -13.336  1.00  0.00     0.293 HD
ENDBRANCH   8  26
TORSDOF 6
ENDMDL
MODEL 4
REMARK VINA RESULT:    -5.810      1.904      7.262
REMARK INTER + INTRA:          -7.240
REMARK INTER:                  -7.119
REMARK INTRA:                  -0.121
REMARK UNBOUND:                -0.071
REMARK SMILES COc1cc(-c2oc3cc(O)cc(O)c3c(=O)c2O)ccc1O
REMARK SMILES IDX 6 1 18 2 16 3 17 4 15 5 13 6 12 7 10 8 9 9 8 10 7 11 5 12
REMARK SMILES IDX 3 13 22 14 4 15 21 16 20 17 2 18 1 19 23 20 19 22 14 24
REMARK SMILES IDX 11 26
REMARK H PARENT 23 21 19 23 14 25 11 27
REMARK Flexibility Score: inf
ROOT
ATOM      1  C   UNL     1     -14.317  -3.661 -17.447  1.00  0.00     0.180 A 
ATOM      2  C   UNL     1     -13.663  -4.905 -17.449  1.00  0.00     0.208 A 
ATOM      3  C   UNL     1     -12.477  -5.050 -18.185  1.00  0.00     0.238 A 
ATOM      4  O   UNL     1     -11.926  -6.181 -18.227  1.00  0.00    -0.285 OA
ATOM      5  C   UNL     1     -11.950  -3.945 -18.897  1.00  0.00     0.111 A 
ATOM      6  C   UNL     1     -10.734  -3.967 -19.642  1.00  0.00     0.134 A 
ATOM      7  C   UNL     1     -10.375  -2.854 -20.414  1.00  0.00     0.093 A 
ATOM      8  C   UNL     1     -11.157  -1.697 -20.413  1.00  0.00     0.123 A 
ATOM      9  C   UNL     1     -12.315  -1.644 -19.640  1.00  0.00     0.094 A 
ATOM     10  C   UNL     1     -12.717  -2.751 -18.890  1.00  0.00     0.146 A 
ATOM     11  O   UNL     1     -13.833  -2.663 -18.176  1.00  0.00    -0.452 OA
ENDROOT
BRANCH   1  12
ATOM     12  C   UNL     1     -15.559  -3.424 -16.675  1.00  0.00     0.025 A 
ATOM     13  C   UNL     1     -17.892  -4.002 -16.221  1.00  0.00     0.161 A 
ATOM     14  C   UNL     1     -17.955  -2.964 -15.274  1.00  0.00     0.157 A 
ATOM     15  C   UNL     1     -16.690  -4.220 -16.923  1.00  0.00     0.062 A 
ATOM     16  C   UNL     1     -16.837  -2.159 -15.042  1.00  0.00     0.051 A 
ATOM     17  C   UNL     1     -15.649  -2.380 -15.740  1.00  0.00     0.016 A 
BRANCH  13  18
ATOM     18  O   UNL     1     -19.034  -4.790 -16.439  1.00  0.00    -0.493 OA
ATOM     19  C   UNL     1     -19.125  -6.180 -16.143  1.00  0.00     0.278 C 
ENDBRANCH  13  18
BRANCH  14  20
ATOM     20  O   UNL     1     -19.124  -2.714 -14.555  1.00  0.00    -0.504 OA
ATOM     21  H   UNL     1     -19.213  -2.944 -13.572  1.00  0.00     0.293 HD
ENDBRANCH  14  20
ENDBRANCH   1  12
BRANCH   2  22
ATOM     22  O   UNL     1     -14.213  -5.988 -16.758  1.00  0.00    -0.502 OA
ATOM     23  H   UNL     1     -13.739  -6.881 -16.679  1.00  0.00     0.293 HD
ENDBRANCH   2  22
BRANCH   6  24
ATOM     24  O   UNL     1      -9.835  -5.039 -19.638  1.00  0.00    -0.507 OA
ATOM     25  H   UNL     1     -10.084  -5.999 -19.818  1.00  0.00     0.293 HD
ENDBRANCH   6  24
BRANCH   8  26
ATOM     26  O   UNL     1     -10.786  -0.588 -21.171  1.00  0.00    -0.508 OA
ATOM     27  H   UNL     1      -9.901  -0.555 -21.664  1.00  0.00     0.293 HD
ENDBRANCH   8  26
TORSDOF 6
ENDMDL
MODEL 5
REMARK VINA RESULT:    -5.796      0.843      2.048
REMARK INTER + INTRA:          -7.223
REMARK INTER:                  -7.045
REMARK INTRA:                  -0.178
REMARK UNBOUND:                -0.071
REMARK SMILES COc1cc(-c2oc3cc(O)cc(O)c3c(=O)c2O)ccc1O
REMARK SMILES IDX 6 1 18 2 16 3 17 4 15 5 13 6 12 7 10 8 9 9 8 10 7 11 5 12
REMARK SMILES IDX 3 13 22 14 4 15 21 16 20 17 2 18 1 19 23 20 19 22 14 24
REMARK SMILES IDX 11 26
REMARK H PARENT 23 21 19 23 14 25 11 27
REMARK Flexibility Score: inf
ROOT
ATOM      1  C   UNL     1     -12.612  -2.757 -18.608  1.00  0.00     0.180 A 
ATOM      2  C   UNL     1     -12.636  -4.033 -18.019  1.00  0.00     0.208 A 
ATOM      3  C   UNL     1     -13.822  -4.485 -17.422  1.00  0.00     0.238 A 
ATOM      4  O   UNL     1     -13.821  -5.607 -16.849  1.00  0.00    -0.285 OA
ATOM      5  C   UNL     1     -14.976  -3.663 -17.434  1.00  0.00     0.111 A 
ATOM      6  C   UNL     1     -16.243  -4.037 -16.894  1.00  0.00     0.134 A 
ATOM      7  C   UNL     1     -17.278  -3.094 -16.845  1.00  0.00     0.093 A 
ATOM      8  C   UNL     1     -17.110  -1.814 -17.376  1.00  0.00     0.123 A 
ATOM      9  C   UNL     1     -15.896  -1.460 -17.960  1.00  0.00     0.094 A 
ATOM     10  C   UNL     1     -14.834  -2.366 -17.990  1.00  0.00     0.146 A 
ATOM     11  O   UNL     1     -13.689  -1.984 -18.546  1.00  0.00    -0.452 OA
ENDROOT
BRANCH   1  12
ATOM     12  C   UNL     1     -11.405  -2.220 -19.278  1.00  0.00     0.025 A 
ATOM     13  C   UNL     1      -9.695  -2.435 -21.014  1.00  0.00     0.161 A 
ATOM     14  C   UNL     1      -9.078  -1.264 -20.538  1.00  0.00     0.157 A 
ATOM     15  C   UNL     1     -10.856  -2.909 -20.371  1.00  0.00     0.062 A 
ATOM     16  C   UNL     1      -9.612  -0.589 -19.437  1.00  0.00     0.051 A 
ATOM     17  C   UNL     1     -10.762  -1.064 -18.806  1.00  0.00     0.016 A 
BRANCH  13  18
ATOM     18  O   UNL     1      -9.132  -3.097 -22.117  1.00  0.00    -0.493 OA
ATOM     19  C   UNL     1      -8.741  -4.466 -22.125  1.00  0.00     0.278 C 
ENDBRANCH  13  18
BRANCH  14  20
ATOM     20  O   UNL     1      -7.928  -0.757 -21.144  1.00  0.00    -0.504 OA
ATOM     21  H   UNL     1      -7.892   0.175 -21.540  1.00  0.00     0.293 HD
ENDBRANCH  14  20
ENDBRANCH   1  12
BRANCH   2  22
ATOM     22  O   UNL     1     -11.480  -4.819 -17.999  1.00  0.00    -0.502 OA
ATOM     23  H   UNL     1     -11.348  -5.576 -17.338  1.00  0.00     0.293 HD
ENDBRANCH   2  22
BRANCH   6  24
ATOM     24  O   UNL     1     -16.543  -5.318 -16.422  1.00  0.00    -0.507 OA
ATOM     25  H   UNL     1     -16.960  -6.051 -16.975  1.00  0.00     0.293 HD
ENDBRANCH   6  24
BRANCH   8  26
ATOM     26  O   UNL     1     -18.150  -0.886 -17.337  1.00  0.00    -0.508 OA
ATOM     27  H   UNL     1     -18.031   0.058 -17.685  1.00  0.00     0.293 HD
ENDBRANCH   8  26
TORSDOF 6
ENDMDL
MODEL 6
REMARK VINA RESULT:    -5.778      3.346      6.514
REMARK INTER + INTRA:          -7.201
REMARK INTER:                  -7.032
REMARK INTRA:                  -0.169
REMARK UNBOUND:                -0.071
REMARK SMILES COc1cc(-c2oc3cc(O)cc(O)c3c(=O)c2O)ccc1O
REMARK SMILES IDX 6 1 18 2 16 3 17 4 15 5 13 6 12 7 10 8 9 9 8 10 7 11 5 12
REMARK SMILES IDX 3 13 22 14 4 15 21 16 20 17 2 18 1 19 23 20 19 22 14 24
REMARK SMILES IDX 11 26
REMARK H PARENT 23 21 19 23 14 25 11 27
REMARK Flexibility Score: inf
ROOT
ATOM      1  C   UNL     1     -16.242  -2.704 -16.928  1.00  0.00     0.180 A 
ATOM      2  C   UNL     1     -17.055  -3.839 -17.092  1.00  0.00     0.208 A 
ATOM      3  C   UNL     1     -16.465  -5.046 -17.500  1.00  0.00     0.238 A 
ATOM      4  O   UNL     1     -17.207  -6.044 -17.697  1.00  0.00    -0.285 OA
ATOM      5  C   UNL     1     -15.068  -5.108 -17.723  1.00  0.00     0.111 A 
ATOM      6  C   UNL     1     -14.360  -6.288 -18.098  1.00  0.00     0.134 A 
ATOM      7  C   UNL     1     -12.999  -6.204 -18.419  1.00  0.00     0.093 A 
ATOM      8  C   UNL     1     -12.308  -4.994 -18.313  1.00  0.00     0.123 A 
ATOM      9  C   UNL     1     -12.978  -3.850 -17.889  1.00  0.00     0.094 A 
ATOM     10  C   UNL     1     -14.344  -3.894 -17.598  1.00  0.00     0.146 A 
ATOM     11  O   UNL     1     -14.947  -2.778 -17.207  1.00  0.00    -0.452 OA
ENDROOT
BRANCH   1  12
ATOM     12  C   UNL     1     -16.787  -1.402 -16.477  1.00  0.00     0.025 A 
ATOM     13  C   UNL     1     -17.008   1.011 -16.810  1.00  0.00     0.161 A 
ATOM     14  C   UNL     1     -17.753   1.098 -15.621  1.00  0.00     0.157 A 
ATOM     15  C   UNL     1     -16.523  -0.245 -17.227  1.00  0.00     0.062 A 
ATOM     16  C   UNL     1     -17.998  -0.050 -14.863  1.00  0.00     0.051 A 
ATOM     17  C   UNL     1     -17.515  -1.291 -15.281  1.00  0.00     0.016 A 
BRANCH  13  18
ATOM     18  O   UNL     1     -16.771   2.182 -17.548  1.00  0.00    -0.493 OA
ATOM     19  C   UNL     1     -15.526   2.874 -17.587  1.00  0.00     0.278 C 
ENDBRANCH  13  18
BRANCH  14  20
ATOM     20  O   UNL     1     -18.254   2.319 -15.171  1.00  0.00    -0.504 OA
ATOM     21  H   UNL     1     -18.163   2.618 -14.207  1.00  0.00     0.293 HD
ENDBRANCH  14  20
ENDBRANCH   1  12
BRANCH   2  22
ATOM     22  O   UNL     1     -18.434  -3.750 -16.888  1.00  0.00    -0.502 OA
ATOM     23  H   UNL     1     -18.879  -4.058 -16.030  1.00  0.00     0.293 HD
ENDBRANCH   2  22
BRANCH   6  24
ATOM     24  O   UNL     1     -14.934  -7.562 -18.145  1.00  0.00    -0.507 OA
ATOM     25  H   UNL     1     -14.485  -8.381 -18.526  1.00  0.00     0.293 HD
ENDBRANCH   6  24
BRANCH   8  26
ATOM     26  O   UNL     1     -10.950  -4.922 -18.619  1.00  0.00    -0.508 OA
ATOM     27  H   UNL     1     -10.269  -4.610 -17.937  1.00  0.00     0.293 HD
ENDBRANCH   8  26
TORSDOF 6
ENDMDL
MODEL 7
REMARK VINA RESULT:    -5.685      1.594      6.950
REMARK INTER + INTRA:          -7.086
REMARK INTER:                  -6.819
REMARK INTRA:                  -0.267
REMARK UNBOUND:                -0.071
REMARK SMILES COc1cc(-c2oc3cc(O)cc(O)c3c(=O)c2O)ccc1O
REMARK SMILES IDX 6 1 18 2 16 3 17 4 15 5 13 6 12 7 10 8 9 9 8 10 7 11 5 12
REMARK SMILES IDX 3 13 22 14 4 15 21 16 20 17 2 18 1 19 23 20 19 22 14 24
REMARK SMILES IDX 11 26
REMARK H PARENT 23 21 19 23 14 25 11 27
REMARK Flexibility Score: inf
ROOT
ATOM      1  C   UNL     1     -11.248  -2.355 -19.470  1.00  0.00     0.180 A 
ATOM      2  C   UNL     1     -10.265  -2.874 -20.330  1.00  0.00     0.208 A 
ATOM      3  C   UNL     1      -9.401  -1.987 -20.991  1.00  0.00     0.238 A 
ATOM      4  O   UNL     1      -8.559  -2.454 -21.801  1.00  0.00    -0.285 OA
ATOM      5  C   UNL     1      -9.519  -0.593 -20.771  1.00  0.00     0.111 A 
ATOM      6  C   UNL     1      -8.671   0.395 -21.355  1.00  0.00     0.134 A 
ATOM      7  C   UNL     1      -8.961   1.752 -21.170  1.00  0.00     0.093 A 
ATOM      8  C   UNL     1     -10.030   2.156 -20.367  1.00  0.00     0.123 A 
ATOM      9  C   UNL     1     -10.827   1.200 -19.744  1.00  0.00     0.094 A 
ATOM     10  C   UNL     1     -10.585  -0.162 -19.939  1.00  0.00     0.146 A 
ATOM     11  O   UNL     1     -11.376  -1.041 -19.335  1.00  0.00    -0.452 OA
ENDROOT
BRANCH   1  12
ATOM     12  C   UNL     1     -12.180  -3.229 -18.720  1.00  0.00     0.025 A 
ATOM     13  C   UNL     1     -14.474  -3.924 -18.232  1.00  0.00     0.161 A 
ATOM     14  C   UNL     1     -13.986  -4.827 -17.271  1.00  0.00     0.157 A 
ATOM     15  C   UNL     1     -13.562  -3.123 -18.948  1.00  0.00     0.062 A 
ATOM     16  C   UNL     1     -12.613  -4.918 -17.029  1.00  0.00     0.051 A 
ATOM     17  C   UNL     1     -11.715  -4.122 -17.741  1.00  0.00     0.016 A 
BRANCH  13  18
ATOM     18  O   UNL     1     -15.860  -3.849 -18.449  1.00  0.00    -0.493 OA
ATOM     19  C   UNL     1     -16.687  -2.772 -18.020  1.00  0.00     0.278 C 
ENDBRANCH  13  18
BRANCH  14  20
ATOM     20  O   UNL     1     -14.852  -5.641 -16.540  1.00  0.00    -0.504 OA
ATOM     21  H   UNL     1     -15.573  -5.259 -15.939  1.00  0.00     0.293 HD
ENDBRANCH  14  20
ENDBRANCH   1  12
BRANCH   2  22
ATOM     22  O   UNL     1     -10.180  -4.251 -20.550  1.00  0.00    -0.502 OA
ATOM     23  H   UNL     1     -10.203  -4.657 -21.479  1.00  0.00     0.293 HD
ENDBRANCH   2  22
BRANCH   6  24
ATOM     24  O   UNL     1      -7.524   0.098 -22.098  1.00  0.00    -0.507 OA
ATOM     25  H   UNL     1      -7.463   0.140 -23.103  1.00  0.00     0.293 HD
ENDBRANCH   6  24
BRANCH   8  26
ATOM     26  O   UNL     1     -10.304   3.509 -20.176  1.00  0.00    -0.508 OA
ATOM     27  H   UNL     1     -11.246   3.875 -20.247  1.00  0.00     0.293 HD
ENDBRANCH   8  26
TORSDOF 6
ENDMDL
MODEL 8
REMARK VINA RESULT:    -5.653      1.885      3.762
REMARK INTER + INTRA:          -7.046
REMARK INTER:                  -6.989
REMARK INTRA:                  -0.057
REMARK UNBOUND:                -0.071
REMARK SMILES COc1cc(-c2oc3cc(O)cc(O)c3c(=O)c2O)ccc1O
REMARK SMILES IDX 6 1 18 2 16 3 17 4 15 5 13 6 12 7 10 8 9 9 8 10 7 11 5 12
REMARK SMILES IDX 3 13 22 14 4 15 21 16 20 17 2 18 1 19 23 20 19 22 14 24
REMARK SMILES IDX 11 26
REMARK H PARENT 23 21 19 23 14 25 11 27
REMARK Flexibility Score: inf
ROOT
ATOM      1  C   UNL     1     -14.859  -3.342 -18.108  1.00  0.00     0.180 A 
ATOM      2  C   UNL     1     -15.415  -2.075 -17.860  1.00  0.00     0.208 A 
ATOM      3  C   UNL     1     -16.634  -1.989 -17.170  1.00  0.00     0.238 A 
ATOM      4  O   UNL     1     -17.153  -0.854 -17.000  1.00  0.00    -0.285 OA
ATOM      5  C   UNL     1     -17.275  -3.169 -16.722  1.00  0.00     0.111 A 
ATOM      6  C   UNL     1     -18.492  -3.198 -15.978  1.00  0.00     0.134 A 
ATOM      7  C   UNL     1     -19.104  -4.427 -15.700  1.00  0.00     0.093 A 
ATOM      8  C   UNL     1     -18.506  -5.630 -16.082  1.00  0.00     0.123 A 
ATOM      9  C   UNL     1     -17.287  -5.614 -16.756  1.00  0.00     0.094 A 
ATOM     10  C   UNL     1     -16.672  -4.403 -17.080  1.00  0.00     0.146 A 
ATOM     11  O   UNL     1     -15.516  -4.432 -17.732  1.00  0.00    -0.452 OA
ENDROOT
BRANCH   1  12
ATOM     12  C   UNL     1     -13.565  -3.512 -18.808  1.00  0.00     0.025 A 
ATOM     13  C   UNL     1     -11.207  -2.904 -19.043  1.00  0.00     0.161 A 
ATOM     14  C   UNL     1     -11.105  -3.763 -20.151  1.00  0.00     0.157 A 
ATOM     15  C   UNL     1     -12.445  -2.780 -18.381  1.00  0.00     0.062 A 
ATOM     16  C   UNL     1     -12.224  -4.476 -20.589  1.00  0.00     0.051 A 
ATOM     17  C   UNL     1     -13.447  -4.349 -19.930  1.00  0.00     0.016 A 
BRANCH  13  18
ATOM     18  O   UNL     1     -10.068  -2.193 -18.630  1.00  0.00    -0.493 OA
ATOM     19  C   UNL     1      -9.746  -0.870 -19.046  1.00  0.00     0.278 C 
ENDBRANCH  13  18
BRANCH  14  20
ATOM     20  O   UNL     1      -9.899  -3.918 -20.835  1.00  0.00    -0.504 OA
ATOM     21  H   UNL     1      -9.634  -4.795 -21.269  1.00  0.00     0.293 HD
ENDBRANCH  14  20
ENDBRANCH   1  12
BRANCH   2  22
ATOM     22  O   UNL     1     -14.776  -0.924 -18.330  1.00  0.00    -0.502 OA
ATOM     23  H   UNL     1     -13.812  -0.706 -18.107  1.00  0.00     0.293 HD
ENDBRANCH   2  22
BRANCH   6  24
ATOM     24  O   UNL     1     -19.123  -2.058 -15.470  1.00  0.00    -0.507 OA
ATOM     25  H   UNL     1     -19.397  -1.934 -14.507  1.00  0.00     0.293 HD
ENDBRANCH   6  24
BRANCH   8  26
ATOM     26  O   UNL     1     -19.113  -6.850 -15.789  1.00  0.00    -0.508 OA
ATOM     27  H   UNL     1     -20.049  -6.897 -15.404  1.00  0.00     0.293 HD
ENDBRANCH   8  26
TORSDOF 6
ENDMDL
MODEL 9
REMARK VINA RESULT:    -5.629      3.651      6.568
REMARK INTER + INTRA:          -7.017
REMARK INTER:                  -6.616
REMARK INTRA:                  -0.400
REMARK UNBOUND:                -0.071
REMARK SMILES COc1cc(-c2oc3cc(O)cc(O)c3c(=O)c2O)ccc1O
REMARK SMILES IDX 6 1 18 2 16 3 17 4 15 5 13 6 12 7 10 8 9 9 8 10 7 11 5 12
REMARK SMILES IDX 3 13 22 14 4 15 21 16 20 17 2 18 1 19 23 20 19 22 14 24
REMARK SMILES IDX 11 26
REMARK H PARENT 23 21 19 23 14 25 11 27
REMARK Flexibility Score: inf
ROOT
ATOM      1  C   UNL     1     -14.564  -3.765 -17.892  1.00  0.00     0.180 A 
ATOM      2  C   UNL     1     -13.274  -3.974 -17.373  1.00  0.00     0.208 A 
ATOM      3  C   UNL     1     -12.543  -5.095 -17.795  1.00  0.00     0.238 A 
ATOM      4  O   UNL     1     -11.411  -5.305 -17.285  1.00  0.00    -0.285 OA
ATOM      5  C   UNL     1     -13.103  -5.986 -18.742  1.00  0.00     0.111 A 
ATOM      6  C   UNL     1     -12.436  -7.131 -19.270  1.00  0.00     0.134 A 
ATOM      7  C   UNL     1     -13.135  -8.015 -20.104  1.00  0.00     0.093 A 
ATOM      8  C   UNL     1     -14.455  -7.758 -20.479  1.00  0.00     0.123 A 
ATOM      9  C   UNL     1     -15.095  -6.610 -20.017  1.00  0.00     0.094 A 
ATOM     10  C   UNL     1     -14.437  -5.730 -19.155  1.00  0.00     0.146 A 
ATOM     11  O   UNL     1     -15.087  -4.653 -18.728  1.00  0.00    -0.452 OA
ENDROOT
BRANCH   1  12
ATOM     12  C   UNL     1     -15.387  -2.593 -17.513  1.00  0.00     0.025 A 
ATOM     13  C   UNL     1     -17.047  -1.584 -16.028  1.00  0.00     0.161 A 
ATOM     14  C   UNL     1     -17.010  -0.409 -16.800  1.00  0.00     0.157 A 
ATOM     15  C   UNL     1     -16.236  -2.675 -16.398  1.00  0.00     0.062 A 
ATOM     16  C   UNL     1     -16.181  -0.335 -17.922  1.00  0.00     0.051 A 
ATOM     17  C   UNL     1     -15.380  -1.418 -18.283  1.00  0.00     0.016 A 
BRANCH  13  18
ATOM     18  O   UNL     1     -17.896  -1.633 -14.909  1.00  0.00    -0.493 OA
ATOM     19  C   UNL     1     -18.994  -2.528 -14.768  1.00  0.00     0.278 C 
ENDBRANCH  13  18
BRANCH  14  20
ATOM     20  O   UNL     1     -17.795   0.696 -16.470  1.00  0.00    -0.504 OA
ATOM     21  H   UNL     1     -18.165   1.325 -17.173  1.00  0.00     0.293 HD
ENDBRANCH  14  20
ENDBRANCH   1  12
BRANCH   2  22
ATOM     22  O   UNL     1     -12.750  -3.094 -16.423  1.00  0.00    -0.502 OA
ATOM     23  H   UNL     1     -13.179  -2.200 -16.213  1.00  0.00     0.293 HD
ENDBRANCH   2  22
BRANCH   6  24
ATOM     24  O   UNL     1     -11.091  -7.430 -19.032  1.00  0.00    -0.507 OA
ATOM     25  H   UNL     1     -10.364  -7.400 -19.730  1.00  0.00     0.293 HD
ENDBRANCH   6  24
BRANCH   8  26
ATOM     26  O   UNL     1     -15.138  -8.633 -21.321  1.00  0.00    -0.508 OA
ATOM     27  H   UNL     1     -15.329  -9.590 -21.047  1.00  0.00     0.293 HD
ENDBRANCH   8  26
TORSDOF 6
ENDMDL
