MODEL 1
REMARK VINA RESULT:    -4.555      0.000      0.000
REMARK INTER + INTRA:          -6.073
REMARK INTER:                  -5.886
REMARK INTRA:                  -0.188
REMARK UNBOUND:                -0.188
REMARK SMILES CCO[C@H]1O[C@@H](CO)[C@H](O)[C@H](O)[C@H]1O
REMARK SMILES IDX 4 1 13 2 11 3 9 4 6 5 5 6 3 7 2 8 1 9 14 10 12 12 7 14 8 15
REMARK SMILES IDX 10 17
REMARK H PARENT 14 11 12 13 8 16 10 18
REMARK Flexibility Score: inf
ROOT
ATOM      1  C   UNL     1      38.069  -4.465  23.162  1.00  0.00     0.281 C 
ATOM      2  C   UNL     1      37.983  -5.793  22.383  1.00  0.00     0.202 C 
ATOM      3  C   UNL     1      38.947  -5.782  21.177  1.00  0.00     0.179 C 
ATOM      4  C   UNL     1      40.348  -5.260  21.577  1.00  0.00     0.177 C 
ATOM      5  C   UNL     1      40.239  -3.990  22.455  1.00  0.00     0.178 C 
ATOM      6  O   UNL     1      39.407  -4.236  23.576  1.00  0.00    -0.341 OA
ENDROOT
BRANCH   1   7
ATOM      7  O   UNL     1      37.238  -4.559  24.304  1.00  0.00    -0.350 OA
BRANCH   7   8
ATOM      8  C   UNL     1      35.895  -4.290  23.957  1.00  0.00     0.160 C 
ATOM      9  C   UNL     1      35.672  -2.786  23.954  1.00  0.00     0.035 C 
ENDBRANCH   7   8
ENDBRANCH   1   7
BRANCH   2  10
ATOM     10  O   UNL     1      38.325  -6.865  23.227  1.00  0.00    -0.385 OA
ATOM     11  H   UNL     1      37.956  -6.658  24.125  1.00  0.00     0.211 HD
ENDBRANCH   2  10
BRANCH   3  12
ATOM     12  O   UNL     1      38.403  -5.060  20.096  1.00  0.00    -0.387 OA
ATOM     13  H   UNL     1      37.417  -5.054  20.188  1.00  0.00     0.211 HD
ENDBRANCH   3  12
BRANCH   5  14
ATOM     14  C   UNL     1      41.626  -3.568  22.965  1.00  0.00     0.191 C 
BRANCH  14  15
ATOM     15  O   UNL     1      41.788  -2.180  22.845  1.00  0.00    -0.394 OA
ATOM     16  H   UNL     1      41.403  -1.776  23.665  1.00  0.00     0.210 HD
ENDBRANCH  14  15
ENDBRANCH   5  14
BRANCH   4  17
ATOM     17  O   UNL     1      41.108  -4.985  20.427  1.00  0.00    -0.387 OA
ATOM     18  H   UNL     1      40.749  -5.562  19.703  1.00  0.00     0.211 HD
ENDBRANCH   4  17
TORSDOF 7
ENDMDL
MODEL 2
REMARK VINA RESULT:    -4.344     14.359     16.637
REMARK INTER + INTRA:          -5.802
REMARK INTER:                  -5.452
REMARK INTRA:                  -0.350
REMARK UNBOUND:                -0.188
REMARK SMILES CCO[C@H]1O[C@@H](CO)[C@H](O)[C@H](O)[C@H]1O
REMARK SMILES IDX 4 1 13 2 11 3 9 4 6 5 5 6 3 7 2 8 1 9 14 10 12 12 7 14 8 15
REMARK SMILES IDX 10 17
REMARK H PARENT 14 11 12 13 8 16 10 18
REMARK Flexibility Score: inf
ROOT
ATOM      1  C   UNL     1      48.771   1.689  33.931  1.00  0.00     0.281 C 
ATOM      2  C   UNL     1      50.271   1.906  34.220  1.00  0.00     0.202 C 
ATOM      3  C   UNL     1      50.942   0.583  34.644  1.00  0.00     0.179 C 
ATOM      4  C   UNL     1      50.541  -0.582  33.706  1.00  0.00     0.177 C 
ATOM      5  C   UNL     1      49.018  -0.574  33.430  1.00  0.00     0.178 C 
ATOM      6  O   UNL     1      48.614   0.691  32.935  1.00  0.00    -0.341 OA
ENDROOT
BRANCH   1   7
ATOM      7  O   UNL     1      48.224   2.907  33.461  1.00  0.00    -0.350 OA
BRANCH   7   8
ATOM      8  C   UNL     1      46.994   3.173  34.104  1.00  0.00     0.160 C 
ATOM      9  C   UNL     1      47.266   3.791  35.466  1.00  0.00     0.035 C 
ENDBRANCH   7   8
ENDBRANCH   1   7
BRANCH   2  10
ATOM     10  O   UNL     1      50.914   2.392  33.068  1.00  0.00    -0.385 OA
ATOM     11  H   UNL     1      51.888   2.409  33.262  1.00  0.00     0.211 HD
ENDBRANCH   2  10
BRANCH   3  12
ATOM     12  O   UNL     1      50.677   0.287  35.996  1.00  0.00    -0.387 OA
ATOM     13  H   UNL     1      51.451   0.581  36.539  1.00  0.00     0.211 HD
ENDBRANCH   3  12
BRANCH   5  14
ATOM     14  C   UNL     1      48.655  -1.641  32.385  1.00  0.00     0.191 C 
BRANCH  14  15
ATOM     15  O   UNL     1      48.321  -2.848  33.016  1.00  0.00    -0.394 OA
ATOM     16  H   UNL     1      47.465  -2.693  33.492  1.00  0.00     0.210 HD
ENDBRANCH  14  15
ENDBRANCH   5  14
BRANCH   4  17
ATOM     17  O   UNL     1      50.920  -1.811  34.272  1.00  0.00    -0.387 OA
ATOM     18  H   UNL     1      50.104  -2.376  34.301  1.00  0.00     0.211 HD
ENDBRANCH   4  17
TORSDOF 7
ENDMDL
MODEL 3
REMARK VINA RESULT:    -4.235      2.037      3.653
REMARK INTER + INTRA:          -5.661
REMARK INTER:                  -5.264
REMARK INTRA:                  -0.397
REMARK UNBOUND:                -0.188
REMARK SMILES CCO[C@H]1O[C@@H](CO)[C@H](O)[C@H](O)[C@H]1O
REMARK SMILES IDX 4 1 13 2 11 3 9 4 6 5 5 6 3 7 2 8 1 9 14 10 12 12 7 14 8 15
REMARK SMILES IDX 10 17
REMARK H PARENT 14 11 12 13 8 16 10 18
REMARK Flexibility Score: inf
ROOT
ATOM      1  C   UNL     1      37.916  -5.923  23.924  1.00  0.00     0.281 C 
ATOM      2  C   UNL     1      38.106  -4.434  23.571  1.00  0.00     0.202 C 
ATOM      3  C   UNL     1      39.192  -4.264  22.488  1.00  0.00     0.179 C 
ATOM      4  C   UNL     1      38.996  -5.270  21.328  1.00  0.00     0.177 C 
ATOM      5  C   UNL     1      38.697  -6.690  21.866  1.00  0.00     0.178 C 
ATOM      6  O   UNL     1      37.593  -6.657  22.754  1.00  0.00    -0.341 OA
ENDROOT
BRANCH   1   7
ATOM      7  O   UNL     1      36.852  -6.033  24.852  1.00  0.00    -0.350 OA
BRANCH   7   8
ATOM      8  C   UNL     1      36.835  -7.323  25.429  1.00  0.00     0.160 C 
ATOM      9  C   UNL     1      38.159  -7.571  26.134  1.00  0.00     0.035 C 
ENDBRANCH   7   8
ENDBRANCH   1   7
BRANCH   2  10
ATOM     10  O   UNL     1      36.898  -3.899  23.091  1.00  0.00    -0.385 OA
ATOM     11  H   UNL     1      37.114  -3.032  22.656  1.00  0.00     0.211 HD
ENDBRANCH   2  10
BRANCH   3  12
ATOM     12  O   UNL     1      40.484  -4.345  23.044  1.00  0.00    -0.387 OA
ATOM     13  H   UNL     1      40.640  -5.277  23.342  1.00  0.00     0.211 HD
ENDBRANCH   3  12
BRANCH   5  14
ATOM     14  C   UNL     1      38.361  -7.645  20.710  1.00  0.00     0.191 C 
BRANCH  14  15
ATOM     15  O   UNL     1      39.533  -8.209  20.186  1.00  0.00    -0.394 OA
ATOM     16  H   UNL     1      39.885  -8.828  20.877  1.00  0.00     0.210 HD
ENDBRANCH  14  15
ENDBRANCH   5  14
BRANCH   4  17
ATOM     17  O   UNL     1      40.141  -5.297  20.513  1.00  0.00    -0.387 OA
ATOM     18  H   UNL     1      40.832  -5.811  21.007  1.00  0.00     0.211 HD
ENDBRANCH   4  17
TORSDOF 7
ENDMDL
MODEL 4
REMARK VINA RESULT:    -4.199     14.768     16.658
REMARK INTER + INTRA:          -5.613
REMARK INTER:                  -5.182
REMARK INTRA:                  -0.431
REMARK UNBOUND:                -0.188
REMARK SMILES CCO[C@H]1O[C@@H](CO)[C@H](O)[C@H](O)[C@H]1O
REMARK SMILES IDX 4 1 13 2 11 3 9 4 6 5 5 6 3 7 2 8 1 9 14 10 12 12 7 14 8 15
REMARK SMILES IDX 10 17
REMARK H PARENT 14 11 12 13 8 16 10 18
REMARK Flexibility Score: inf
ROOT
ATOM      1  C   UNL     1      48.972   1.955  32.109  1.00  0.00     0.281 C 
ATOM      2  C   UNL     1      49.586   2.965  33.099  1.00  0.00     0.202 C 
ATOM      3  C   UNL     1      49.801   2.313  34.481  1.00  0.00     0.179 C 
ATOM      4  C   UNL     1      50.465   0.921  34.353  1.00  0.00     0.177 C 
ATOM      5  C   UNL     1      49.800   0.087  33.232  1.00  0.00     0.178 C 
ATOM      6  O   UNL     1      49.805   0.810  32.013  1.00  0.00    -0.341 OA
ENDROOT
BRANCH   1   7
ATOM      7  O   UNL     1      48.880   2.571  30.838  1.00  0.00    -0.350 OA
BRANCH   7   8
ATOM      8  C   UNL     1      49.543   1.791  29.864  1.00  0.00     0.160 C 
ATOM      9  C   UNL     1      50.497   2.678  29.080  1.00  0.00     0.035 C 
ENDBRANCH   7   8
ENDBRANCH   1   7
BRANCH   2  10
ATOM     10  O   UNL     1      50.826   3.417  32.613  1.00  0.00    -0.385 OA
ATOM     11  H   UNL     1      51.532   2.945  33.128  1.00  0.00     0.211 HD
ENDBRANCH   2  10
BRANCH   3  12
ATOM     12  O   UNL     1      48.597   2.258  35.212  1.00  0.00    -0.387 OA
ATOM     13  H   UNL     1      47.850   2.486  34.602  1.00  0.00     0.211 HD
ENDBRANCH   3  12
BRANCH   5  14
ATOM     14  C   UNL     1      50.560  -1.231  33.017  1.00  0.00     0.191 C 
BRANCH  14  15
ATOM     15  O   UNL     1      50.261  -2.140  34.042  1.00  0.00    -0.394 OA
ATOM     16  H   UNL     1      50.688  -3.000  33.793  1.00  0.00     0.210 HD
ENDBRANCH  14  15
ENDBRANCH   5  14
BRANCH   4  17
ATOM     17  O   UNL     1      50.384   0.232  35.576  1.00  0.00    -0.387 OA
ATOM     18  H   UNL     1      49.517  -0.251  35.574  1.00  0.00     0.211 HD
ENDBRANCH   4  17
TORSDOF 7
ENDMDL
MODEL 5
REMARK VINA RESULT:    -4.194      1.840      3.577
REMARK INTER + INTRA:          -5.608
REMARK INTER:                  -5.275
REMARK INTRA:                  -0.333
REMARK UNBOUND:                -0.188
REMARK SMILES CCO[C@H]1O[C@@H](CO)[C@H](O)[C@H](O)[C@H]1O
REMARK SMILES IDX 4 1 13 2 11 3 9 4 6 5 5 6 3 7 2 8 1 9 14 10 12 12 7 14 8 15
REMARK SMILES IDX 10 17
REMARK H PARENT 14 11 12 13 8 16 10 18
REMARK Flexibility Score: inf
ROOT
ATOM      1  C   UNL     1      38.217  -5.064  23.104  1.00  0.00     0.281 C 
ATOM      2  C   UNL     1      39.699  -4.776  23.424  1.00  0.00     0.202 C 
ATOM      3  C   UNL     1      40.557  -6.042  23.219  1.00  0.00     0.179 C 
ATOM      4  C   UNL     1      40.222  -6.743  21.880  1.00  0.00     0.177 C 
ATOM      5  C   UNL     1      38.692  -6.839  21.670  1.00  0.00     0.178 C 
ATOM      6  O   UNL     1      38.099  -5.556  21.779  1.00  0.00    -0.341 OA
ENDROOT
BRANCH   1   7
ATOM      7  O   UNL     1      37.490  -3.855  23.219  1.00  0.00    -0.350 OA
BRANCH   7   8
ATOM      8  C   UNL     1      36.298  -4.067  23.949  1.00  0.00     0.160 C 
ATOM      9  C   UNL     1      35.470  -2.792  23.932  1.00  0.00     0.035 C 
ENDBRANCH   7   8
ENDBRANCH   1   7
BRANCH   2  10
ATOM     10  O   UNL     1      40.180  -3.760  22.580  1.00  0.00    -0.385 OA
ATOM     11  H   UNL     1      41.151  -3.925  22.448  1.00  0.00     0.211 HD
ENDBRANCH   2  10
BRANCH   3  12
ATOM     12  O   UNL     1      40.443  -6.919  24.317  1.00  0.00    -0.387 OA
ATOM     13  H   UNL     1      40.735  -6.439  25.133  1.00  0.00     0.211 HD
ENDBRANCH   3  12
BRANCH   5  14
ATOM     14  C   UNL     1      38.374  -7.402  20.276  1.00  0.00     0.191 C 
BRANCH  14  15
ATOM     15  O   UNL     1      38.384  -8.804  20.301  1.00  0.00    -0.394 OA
ATOM     16  H   UNL     1      38.493  -9.071  21.250  1.00  0.00     0.210 HD
ENDBRANCH  14  15
ENDBRANCH   5  14
BRANCH   4  17
ATOM     17  O   UNL     1      40.792  -8.027  21.851  1.00  0.00    -0.387 OA
ATOM     18  H   UNL     1      40.094  -8.642  21.505  1.00  0.00     0.211 HD
ENDBRANCH   4  17
TORSDOF 7
ENDMDL
MODEL 6
REMARK VINA RESULT:    -4.177      2.269      4.751
REMARK INTER + INTRA:          -5.585
REMARK INTER:                  -5.250
REMARK INTRA:                  -0.335
REMARK UNBOUND:                -0.188
REMARK SMILES CCO[C@H]1O[C@@H](CO)[C@H](O)[C@H](O)[C@H]1O
REMARK SMILES IDX 4 1 13 2 11 3 9 4 6 5 5 6 3 7 2 8 1 9 14 10 12 12 7 14 8 15
REMARK SMILES IDX 10 17
REMARK H PARENT 14 11 12 13 8 16 10 18
REMARK Flexibility Score: inf
ROOT
ATOM      1  C   UNL     1      38.253  -5.626  23.203  1.00  0.00     0.281 C 
ATOM      2  C   UNL     1      38.874  -5.789  24.606  1.00  0.00     0.202 C 
ATOM      3  C   UNL     1      38.761  -4.476  25.408  1.00  0.00     0.179 C 
ATOM      4  C   UNL     1      37.341  -3.869  25.305  1.00  0.00     0.177 C 
ATOM      5  C   UNL     1      36.829  -3.895  23.845  1.00  0.00     0.178 C 
ATOM      6  O   UNL     1      36.901  -5.211  23.322  1.00  0.00    -0.341 OA
ENDROOT
BRANCH   1   7
ATOM      7  O   UNL     1      38.299  -6.877  22.543  1.00  0.00    -0.350 OA
BRANCH   7   8
ATOM      8  C   UNL     1      38.809  -6.723  21.234  1.00  0.00     0.160 C 
ATOM      9  C   UNL     1      38.563  -8.002  20.449  1.00  0.00     0.035 C 
ENDBRANCH   7   8
ENDBRANCH   1   7
BRANCH   2  10
ATOM     10  O   UNL     1      38.207  -6.809  25.308  1.00  0.00    -0.385 OA
ATOM     11  H   UNL     1      38.534  -7.674  24.946  1.00  0.00     0.211 HD
ENDBRANCH   2  10
BRANCH   3  12
ATOM     12  O   UNL     1      39.757  -3.556  25.024  1.00  0.00    -0.387 OA
ATOM     13  H   UNL     1      40.202  -3.216  25.841  1.00  0.00     0.211 HD
ENDBRANCH   3  12
BRANCH   5  14
ATOM     14  C   UNL     1      35.367  -3.427  23.778  1.00  0.00     0.191 C 
BRANCH  14  15
ATOM     15  O   UNL     1      35.304  -2.027  23.726  1.00  0.00    -0.394 OA
ATOM     16  H   UNL     1      35.205  -1.711  24.661  1.00  0.00     0.210 HD
ENDBRANCH  14  15
ENDBRANCH   5  14
BRANCH   4  17
ATOM     17  O   UNL     1      37.342  -2.550  25.790  1.00  0.00    -0.387 OA
ATOM     18  H   UNL     1      36.475  -2.415  26.254  1.00  0.00     0.211 HD
ENDBRANCH   4  17
TORSDOF 7
ENDMDL
MODEL 7
REMARK VINA RESULT:    -4.049      1.981      4.799
REMARK INTER + INTRA:          -5.420
REMARK INTER:                  -5.030
REMARK INTRA:                  -0.390
REMARK UNBOUND:                -0.188
REMARK SMILES CCO[C@H]1O[C@@H](CO)[C@H](O)[C@H](O)[C@H]1O
REMARK SMILES IDX 4 1 13 2 11 3 9 4 6 5 5 6 3 7 2 8 1 9 14 10 12 12 7 14 8 15
REMARK SMILES IDX 10 17
REMARK H PARENT 14 11 12 13 8 16 10 18
REMARK Flexibility Score: inf
ROOT
ATOM      1  C   UNL     1      39.721  -6.911  22.545  1.00  0.00     0.281 C 
ATOM      2  C   UNL     1      40.211  -5.478  22.253  1.00  0.00     0.202 C 
ATOM      3  C   UNL     1      39.022  -4.497  22.190  1.00  0.00     0.179 C 
ATOM      4  C   UNL     1      38.049  -4.709  23.376  1.00  0.00     0.177 C 
ATOM      5  C   UNL     1      37.762  -6.213  23.598  1.00  0.00     0.178 C 
ATOM      6  O   UNL     1      38.977  -6.928  23.752  1.00  0.00    -0.341 OA
ENDROOT
BRANCH   1   7
ATOM      7  O   UNL     1      40.851  -7.753  22.682  1.00  0.00    -0.350 OA
BRANCH   7   8
ATOM      8  C   UNL     1      41.398  -8.052  21.414  1.00  0.00     0.160 C 
ATOM      9  C   UNL     1      40.355  -8.776  20.578  1.00  0.00     0.035 C 
ENDBRANCH   7   8
ENDBRANCH   1   7
BRANCH   2  10
ATOM     10  O   UNL     1      41.092  -5.059  23.266  1.00  0.00    -0.385 OA
ATOM     11  H   UNL     1      41.753  -5.788  23.398  1.00  0.00     0.211 HD
ENDBRANCH   2  10
BRANCH   3  12
ATOM     12  O   UNL     1      38.363  -4.574  20.946  1.00  0.00    -0.387 OA
ATOM     13  H   UNL     1      38.155  -3.654  20.644  1.00  0.00     0.211 HD
ENDBRANCH   3  12
BRANCH   5  14
ATOM     14  C   UNL     1      36.916  -6.418  24.864  1.00  0.00     0.191 C 
BRANCH  14  15
ATOM     15  O   UNL     1      35.552  -6.281  24.567  1.00  0.00    -0.394 OA
ATOM     16  H   UNL     1      35.055  -6.556  25.381  1.00  0.00     0.210 HD
ENDBRANCH  14  15
ENDBRANCH   5  14
BRANCH   4  17
ATOM     17  O   UNL     1      36.847  -4.020  23.143  1.00  0.00    -0.387 OA
ATOM     18  H   UNL     1      36.564  -3.636  24.014  1.00  0.00     0.211 HD
ENDBRANCH   4  17
TORSDOF 7
ENDMDL
MODEL 8
REMARK VINA RESULT:    -4.040     14.383     16.496
REMARK INTER + INTRA:          -5.409
REMARK INTER:                  -5.023
REMARK INTRA:                  -0.386
REMARK UNBOUND:                -0.188
REMARK SMILES CCO[C@H]1O[C@@H](CO)[C@H](O)[C@H](O)[C@H]1O
REMARK SMILES IDX 4 1 13 2 11 3 9 4 6 5 5 6 3 7 2 8 1 9 14 10 12 12 7 14 8 15
REMARK SMILES IDX 10 17
REMARK H PARENT 14 11 12 13 8 16 10 18
REMARK Flexibility Score: inf
ROOT
ATOM      1  C   UNL     1      33.387  -0.970  35.954  1.00  0.00     0.281 C 
ATOM      2  C   UNL     1      32.588  -2.178  35.423  1.00  0.00     0.202 C 
ATOM      3  C   UNL     1      31.921  -2.944  36.584  1.00  0.00     0.179 C 
ATOM      4  C   UNL     1      31.217  -1.980  37.569  1.00  0.00     0.177 C 
ATOM      5  C   UNL     1      32.117  -0.766  37.899  1.00  0.00     0.178 C 
ATOM      6  O   UNL     1      32.533  -0.122  36.706  1.00  0.00    -0.341 OA
ENDROOT
BRANCH   1   7
ATOM      7  O   UNL     1      33.903  -0.251  34.849  1.00  0.00    -0.350 OA
BRANCH   7   8
ATOM      8  C   UNL     1      34.606   0.892  35.292  1.00  0.00     0.160 C 
ATOM      9  C   UNL     1      35.953   0.464  35.851  1.00  0.00     0.035 C 
ENDBRANCH   7   8
ENDBRANCH   1   7
BRANCH   2  10
ATOM     10  O   UNL     1      31.589  -1.737  34.537  1.00  0.00    -0.385 OA
ATOM     11  H   UNL     1      31.074  -1.030  35.006  1.00  0.00     0.211 HD
ENDBRANCH   2  10
BRANCH   3  12
ATOM     12  O   UNL     1      32.845  -3.785  37.238  1.00  0.00    -0.387 OA
ATOM     13  H   UNL     1      33.652  -3.866  36.669  1.00  0.00     0.211 HD
ENDBRANCH   3  12
BRANCH   5  14
ATOM     14  C   UNL     1      31.354   0.254  38.758  1.00  0.00     0.191 C 
BRANCH  14  15
ATOM     15  O   UNL     1      31.258  -0.197  40.082  1.00  0.00    -0.394 OA
ATOM     16  H   UNL     1      30.421   0.184  40.453  1.00  0.00     0.210 HD
ENDBRANCH  14  15
ENDBRANCH   5  14
BRANCH   4  17
ATOM     17  O   UNL     1      30.876  -2.660  38.751  1.00  0.00    -0.387 OA
ATOM     18  H   UNL     1      31.593  -2.465  39.409  1.00  0.00     0.211 HD
ENDBRANCH   4  17
TORSDOF 7
ENDMDL
MODEL 9
REMARK VINA RESULT:    -3.960     13.487     15.344
REMARK INTER + INTRA:          -5.305
REMARK INTER:                  -5.007
REMARK INTRA:                  -0.298
REMARK UNBOUND:                -0.188
REMARK SMILES CCO[C@H]1O[C@@H](CO)[C@H](O)[C@H](O)[C@H]1O
REMARK SMILES IDX 4 1 13 2 11 3 9 4 6 5 5 6 3 7 2 8 1 9 14 10 12 12 7 14 8 15
REMARK SMILES IDX 10 17
REMARK H PARENT 14 11 12 13 8 16 10 18
REMARK Flexibility Score: inf
ROOT
ATOM      1  C   UNL     1      49.162   2.684  32.343  1.00  0.00     0.281 C 
ATOM      2  C   UNL     1      48.647   1.279  31.967  1.00  0.00     0.202 C 
ATOM      3  C   UNL     1      48.311   1.207  30.462  1.00  0.00     0.179 C 
ATOM      4  C   UNL     1      49.437   1.827  29.600  1.00  0.00     0.177 C 
ATOM      5  C   UNL     1      49.912   3.175  30.192  1.00  0.00     0.178 C 
ATOM      6  O   UNL     1      50.290   3.011  31.548  1.00  0.00    -0.341 OA
ENDROOT
BRANCH   1   7
ATOM      7  O   UNL     1      49.540   2.673  33.707  1.00  0.00    -0.350 OA
BRANCH   7   8
ATOM      8  C   UNL     1      48.405   2.495  34.531  1.00  0.00     0.160 C 
ATOM      9  C   UNL     1      48.127   3.786  35.283  1.00  0.00     0.035 C 
ENDBRANCH   7   8
ENDBRANCH   1   7
BRANCH   2  10
ATOM     10  O   UNL     1      49.630   0.317  32.259  1.00  0.00    -0.385 OA
ATOM     11  H   UNL     1      49.923  -0.074  31.394  1.00  0.00     0.211 HD
ENDBRANCH   2  10
BRANCH   3  12
ATOM     12  O   UNL     1      47.056   1.789  30.192  1.00  0.00    -0.387 OA
ATOM     13  H   UNL     1      46.647   1.310  29.427  1.00  0.00     0.211 HD
ENDBRANCH   3  12
BRANCH   5  14
ATOM     14  C   UNL     1      51.125   3.708  29.413  1.00  0.00     0.191 C 
BRANCH  14  15
ATOM     15  O   UNL     1      50.738   4.121  28.129  1.00  0.00    -0.394 OA
ATOM     16  H   UNL     1      50.891   5.100  28.088  1.00  0.00     0.210 HD
ENDBRANCH  14  15
ENDBRANCH   5  14
BRANCH   4  17
ATOM     17  O   UNL     1      48.988   2.014  28.281  1.00  0.00    -0.387 OA
ATOM     18  H   UNL     1      49.397   1.292  27.736  1.00  0.00     0.211 HD
ENDBRANCH   4  17
TORSDOF 7
ENDMDL
