MODEL 1
REMARK VINA RESULT:    -5.992      0.000      0.000
REMARK INTER + INTRA:         -11.878
REMARK INTER:                 -10.545
REMARK INTRA:                  -1.333
REMARK UNBOUND:                -1.333
REMARK SMILES CCCCCCC=CCCCCCCCC(=O)[O-]
REMARK SMILES IDX 10 1 11 2 12 3 13 4 14 5 15 6 16 7 17 8 18 9 9 10 8 11 7 12
REMARK SMILES IDX 6 13 5 14 4 15 3 16 2 17 1 18
REMARK H PARENT
REMARK Flexibility Score: inf
ROOT
ATOM      1  C   UNL     1       3.736 -56.709 -29.466  1.00  0.00     0.004 C 
ENDROOT
BRANCH   1   2
ATOM      2  C   UNL     1       3.170 -55.860 -28.315  1.00  0.00     0.000 C 
BRANCH   2   3
ATOM      3  C   UNL     1       4.188 -55.651 -27.181  1.00  0.00     0.000 C 
BRANCH   3   4
ATOM      4  C   UNL     1       3.721 -56.252 -25.846  1.00  0.00     0.000 C 
BRANCH   4   5
ATOM      5  C   UNL     1       4.418 -57.584 -25.514  1.00  0.00     0.006 C 
BRANCH   5   6
ATOM      6  C   UNL     1       5.837 -57.652 -26.096  1.00  0.00     0.053 C 
BRANCH   6   7
ATOM      7  C   UNL     1       6.843 -58.053 -25.060  1.00  0.00     0.041 C 
ATOM      8  O   UNL     1       6.545 -58.020 -23.838  1.00  0.00    -0.550 OA
ATOM      9  O   UNL     1       8.121 -58.439 -25.447  1.00  0.00    -0.550 OA
ENDBRANCH   6   7
ENDBRANCH   5   6
ENDBRANCH   4   5
ENDBRANCH   3   4
ENDBRANCH   2   3
ENDBRANCH   1   2
BRANCH   1  10
ATOM     10  C   UNL     1       5.120 -56.227 -29.925  1.00  0.00     0.027 C 
BRANCH  10  11
ATOM     11  C   UNL     1       5.010 -55.416 -31.191  1.00  0.00    -0.031 C 
ATOM     12  C   UNL     1       6.057 -55.003 -31.928  1.00  0.00    -0.031 C 
BRANCH  12  13
ATOM     13  C   UNL     1       7.497 -55.360 -31.652  1.00  0.00     0.027 C 
BRANCH  13  14
ATOM     14  C   UNL     1       8.442 -54.160 -31.836  1.00  0.00     0.004 C 
BRANCH  14  15
ATOM     15  C   UNL     1       9.774 -54.281 -31.072  1.00  0.00     0.000 C 
BRANCH  15  16
ATOM     16  C   UNL     1       9.613 -54.079 -29.556  1.00  0.00    -0.000 C 
BRANCH  16  17
ATOM     17  C   UNL     1       9.884 -55.364 -28.758  1.00  0.00    -0.003 C 
ATOM     18  C   UNL     1       8.611 -56.164 -28.479  1.00  0.00     0.004 C 
ENDBRANCH  16  17
ENDBRANCH  15  16
ENDBRANCH  14  15
ENDBRANCH  13  14
ENDBRANCH  12  13
ENDBRANCH  10  11
ENDBRANCH   1  10
TORSDOF 13
ENDMDL
MODEL 2
REMARK VINA RESULT:    -5.928      1.211      2.783
REMARK INTER + INTRA:         -11.767
REMARK INTER:                 -10.424
REMARK INTRA:                  -1.343
REMARK UNBOUND:                -1.333
REMARK SMILES CCCCCCC=CCCCCCCCC(=O)[O-]
REMARK SMILES IDX 10 1 11 2 12 3 13 4 14 5 15 6 16 7 17 8 18 9 9 10 8 11 7 12
REMARK SMILES IDX 6 13 5 14 4 15 3 16 2 17 1 18
REMARK H PARENT
REMARK Flexibility Score: inf
ROOT
ATOM      1  C   UNL     1       3.957 -55.389 -26.835  1.00  0.00     0.004 C 
ENDROOT
BRANCH   1   2
ATOM      2  C   UNL     1       3.304 -56.396 -25.872  1.00  0.00     0.000 C 
BRANCH   2   3
ATOM      3  C   UNL     1       4.333 -57.317 -25.196  1.00  0.00     0.000 C 
BRANCH   3   4
ATOM      4  C   UNL     1       5.514 -57.665 -26.116  1.00  0.00     0.000 C 
BRANCH   4   5
ATOM      5  C   UNL     1       6.780 -58.067 -25.337  1.00  0.00     0.006 C 
BRANCH   5   6
ATOM      6  C   UNL     1       6.452 -58.569 -23.925  1.00  0.00     0.053 C 
BRANCH   6   7
ATOM      7  C   UNL     1       7.425 -58.048 -22.910  1.00  0.00     0.041 C 
ATOM      8  O   UNL     1       8.575 -57.678 -23.264  1.00  0.00    -0.550 OA
ATOM      9  O   UNL     1       7.067 -57.996 -21.568  1.00  0.00    -0.550 OA
ENDBRANCH   6   7
ENDBRANCH   5   6
ENDBRANCH   4   5
ENDBRANCH   3   4
ENDBRANCH   2   3
ENDBRANCH   1   2
BRANCH   1  10
ATOM     10  C   UNL     1       3.166 -55.227 -28.141  1.00  0.00     0.027 C 
BRANCH  10  11
ATOM     11  C   UNL     1       3.349 -56.431 -29.029  1.00  0.00    -0.031 C 
ATOM     12  C   UNL     1       4.331 -56.568 -29.939  1.00  0.00    -0.031 C 
BRANCH  12  13
ATOM     13  C   UNL     1       5.451 -55.579 -30.150  1.00  0.00     0.027 C 
BRANCH  13  14
ATOM     14  C   UNL     1       6.691 -55.910 -29.301  1.00  0.00     0.004 C 
BRANCH  14  15
ATOM     15  C   UNL     1       7.985 -56.095 -30.115  1.00  0.00     0.000 C 
BRANCH  15  16
ATOM     16  C   UNL     1       8.078 -55.135 -31.313  1.00  0.00    -0.000 C 
BRANCH  16  17
ATOM     17  C   UNL     1       9.288 -54.193 -31.220  1.00  0.00    -0.003 C 
ATOM     18  C   UNL     1       9.661 -53.854 -29.776  1.00  0.00     0.004 C 
ENDBRANCH  16  17
ENDBRANCH  15  16
ENDBRANCH  14  15
ENDBRANCH  13  14
ENDBRANCH  12  13
ENDBRANCH  10  11
ENDBRANCH   1  10
TORSDOF 13
ENDMDL
MODEL 3
REMARK VINA RESULT:    -5.905      3.217      6.469
REMARK INTER + INTRA:         -11.726
REMARK INTER:                 -10.574
REMARK INTRA:                  -1.152
REMARK UNBOUND:                -1.333
REMARK SMILES CCCCCCC=CCCCCCCCC(=O)[O-]
REMARK SMILES IDX 10 1 11 2 12 3 13 4 14 5 15 6 16 7 17 8 18 9 9 10 8 11 7 12
REMARK SMILES IDX 6 13 5 14 4 15 3 16 2 17 1 18
REMARK H PARENT
REMARK Flexibility Score: inf
ROOT
ATOM      1  C   UNL     1       6.884 -56.120 -30.440  1.00  0.00     0.004 C 
ENDROOT
BRANCH   1   2
ATOM      2  C   UNL     1       7.234 -55.800 -28.977  1.00  0.00     0.000 C 
BRANCH   2   3
ATOM      3  C   UNL     1       8.732 -55.517 -28.779  1.00  0.00     0.000 C 
BRANCH   3   4
ATOM      4  C   UNL     1       9.545 -55.682 -30.073  1.00  0.00     0.000 C 
BRANCH   4   5
ATOM      5  C   UNL     1       9.830 -54.341 -30.775  1.00  0.00     0.006 C 
BRANCH   5   6
ATOM      6  C   UNL     1       9.489 -54.390 -32.270  1.00  0.00     0.053 C 
BRANCH   6   7
ATOM      7  C   UNL     1      10.240 -55.479 -32.976  1.00  0.00     0.041 C 
ATOM      8  O   UNL     1      11.466 -55.344 -33.229  1.00  0.00    -0.550 OA
ATOM      9  O   UNL     1       9.576 -56.633 -33.375  1.00  0.00    -0.550 OA
ENDBRANCH   6   7
ENDBRANCH   5   6
ENDBRANCH   4   5
ENDBRANCH   3   4
ENDBRANCH   2   3
ENDBRANCH   1   2
BRANCH   1  10
ATOM     10  C   UNL     1       5.539 -55.517 -30.869  1.00  0.00     0.027 C 
BRANCH  10  11
ATOM     11  C   UNL     1       4.412 -56.483 -30.607  1.00  0.00    -0.031 C 
ATOM     12  C   UNL     1       3.538 -56.381 -29.588  1.00  0.00    -0.031 C 
BRANCH  12  13
ATOM     13  C   UNL     1       3.495 -55.238 -28.604  1.00  0.00     0.027 C 
BRANCH  13  14
ATOM     14  C   UNL     1       3.038 -55.689 -27.205  1.00  0.00     0.004 C 
BRANCH  14  15
ATOM     15  C   UNL     1       4.183 -56.145 -26.282  1.00  0.00     0.000 C 
BRANCH  15  16
ATOM     16  C   UNL     1       4.899 -57.405 -26.797  1.00  0.00    -0.000 C 
BRANCH  16  17
ATOM     17  C   UNL     1       6.063 -57.833 -25.889  1.00  0.00    -0.003 C 
ATOM     18  C   UNL     1       5.641 -58.007 -24.430  1.00  0.00     0.004 C 
ENDBRANCH  16  17
ENDBRANCH  15  16
ENDBRANCH  14  15
ENDBRANCH  13  14
ENDBRANCH  12  13
ENDBRANCH  10  11
ENDBRANCH   1  10
TORSDOF 13
ENDMDL
MODEL 4
REMARK VINA RESULT:    -5.830      1.401      2.201
REMARK INTER + INTRA:         -11.593
REMARK INTER:                 -10.548
REMARK INTRA:                  -1.045
REMARK UNBOUND:                -1.333
REMARK SMILES CCCCCCC=CCCCCCCCC(=O)[O-]
REMARK SMILES IDX 10 1 11 2 12 3 13 4 14 5 15 6 16 7 17 8 18 9 9 10 8 11 7 12
REMARK SMILES IDX 6 13 5 14 4 15 3 16 2 17 1 18
REMARK H PARENT
REMARK Flexibility Score: inf
ROOT
ATOM      1  C   UNL     1       3.490 -55.260 -28.346  1.00  0.00     0.004 C 
ENDROOT
BRANCH   1   2
ATOM      2  C   UNL     1       3.468 -55.515 -26.829  1.00  0.00     0.000 C 
BRANCH   2   3
ATOM      3  C   UNL     1       4.554 -56.509 -26.383  1.00  0.00     0.000 C 
BRANCH   3   4
ATOM      4  C   UNL     1       4.194 -57.235 -25.077  1.00  0.00     0.000 C 
BRANCH   4   5
ATOM      5  C   UNL     1       5.142 -58.407 -24.765  1.00  0.00     0.006 C 
BRANCH   5   6
ATOM      6  C   UNL     1       6.616 -58.019 -24.941  1.00  0.00     0.053 C 
BRANCH   6   7
ATOM      7  C   UNL     1       7.444 -58.427 -23.760  1.00  0.00     0.041 C 
ATOM      8  O   UNL     1       7.117 -59.429 -23.071  1.00  0.00    -0.550 OA
ATOM      9  O   UNL     1       8.564 -57.683 -23.407  1.00  0.00    -0.550 OA
ENDBRANCH   6   7
ENDBRANCH   5   6
ENDBRANCH   4   5
ENDBRANCH   3   4
ENDBRANCH   2   3
ENDBRANCH   1   2
BRANCH   1  10
ATOM     10  C   UNL     1       4.150 -56.407 -29.125  1.00  0.00     0.027 C 
BRANCH  10  11
ATOM     11  C   UNL     1       4.801 -55.893 -30.383  1.00  0.00    -0.031 C 
ATOM     12  C   UNL     1       6.128 -55.738 -30.549  1.00  0.00    -0.031 C 
BRANCH  12  13
ATOM     13  C   UNL     1       7.173 -56.138 -29.537  1.00  0.00     0.027 C 
BRANCH  13  14
ATOM     14  C   UNL     1       8.299 -55.097 -29.418  1.00  0.00     0.004 C 
BRANCH  14  15
ATOM     15  C   UNL     1       9.600 -55.485 -30.144  1.00  0.00     0.000 C 
BRANCH  15  16
ATOM     16  C   UNL     1       9.807 -54.706 -31.454  1.00  0.00    -0.000 C 
BRANCH  16  17
ATOM     17  C   UNL     1       9.011 -55.302 -32.626  1.00  0.00    -0.003 C 
ATOM     18  C   UNL     1       9.777 -56.405 -33.358  1.00  0.00     0.004 C 
ENDBRANCH  16  17
ENDBRANCH  15  16
ENDBRANCH  14  15
ENDBRANCH  13  14
ENDBRANCH  12  13
ENDBRANCH  10  11
ENDBRANCH   1  10
TORSDOF 13
ENDMDL
MODEL 5
REMARK VINA RESULT:    -5.811      2.510      3.174
REMARK INTER + INTRA:         -11.559
REMARK INTER:                 -10.171
REMARK INTRA:                  -1.389
REMARK UNBOUND:                -1.333
REMARK SMILES CCCCCCC=CCCCCCCCC(=O)[O-]
REMARK SMILES IDX 10 1 11 2 12 3 13 4 14 5 15 6 16 7 17 8 18 9 9 10 8 11 7 12
REMARK SMILES IDX 6 13 5 14 4 15 3 16 2 17 1 18
REMARK H PARENT
REMARK Flexibility Score: inf
ROOT
ATOM      1  C   UNL     1       6.521 -55.955 -28.815  1.00  0.00     0.004 C 
ENDROOT
BRANCH   1   2
ATOM      2  C   UNL     1       5.267 -56.695 -28.320  1.00  0.00     0.000 C 
BRANCH   2   3
ATOM      3  C   UNL     1       4.436 -55.852 -27.336  1.00  0.00     0.000 C 
BRANCH   3   4
ATOM      4  C   UNL     1       3.076 -55.431 -27.916  1.00  0.00     0.000 C 
BRANCH   4   5
ATOM      5  C   UNL     1       2.270 -54.535 -26.958  1.00  0.00     0.006 C 
BRANCH   5   6
ATOM      6  C   UNL     1       2.815 -54.590 -25.524  1.00  0.00     0.053 C 
BRANCH   6   7
ATOM      7  C   UNL     1       1.976 -55.466 -24.644  1.00  0.00     0.041 C 
ATOM      8  O   UNL     1       0.890 -55.942 -25.070  1.00  0.00    -0.550 OA
ATOM      9  O   UNL     1       2.383 -55.737 -23.343  1.00  0.00    -0.550 OA
ENDBRANCH   6   7
ENDBRANCH   5   6
ENDBRANCH   4   5
ENDBRANCH   3   4
ENDBRANCH   2   3
ENDBRANCH   1   2
BRANCH   1  10
ATOM     10  C   UNL     1       6.864 -56.292 -30.273  1.00  0.00     0.027 C 
BRANCH  10  11
ATOM     11  C   UNL     1       6.347 -55.224 -31.203  1.00  0.00    -0.031 C 
ATOM     12  C   UNL     1       7.038 -54.710 -32.237  1.00  0.00    -0.031 C 
BRANCH  12  13
ATOM     13  C   UNL     1       8.401 -55.182 -32.679  1.00  0.00     0.027 C 
BRANCH  13  14
ATOM     14  C   UNL     1       9.534 -54.308 -32.113  1.00  0.00     0.004 C 
BRANCH  14  15
ATOM     15  C   UNL     1      10.057 -54.761 -30.738  1.00  0.00     0.000 C 
BRANCH  15  16
ATOM     16  C   UNL     1       9.740 -53.755 -29.618  1.00  0.00    -0.000 C 
BRANCH  16  17
ATOM     17  C   UNL     1      10.094 -54.296 -28.223  1.00  0.00    -0.003 C 
ATOM     18  C   UNL     1      10.208 -55.820 -28.193  1.00  0.00     0.004 C 
ENDBRANCH  16  17
ENDBRANCH  15  16
ENDBRANCH  14  15
ENDBRANCH  13  14
ENDBRANCH  12  13
ENDBRANCH  10  11
ENDBRANCH   1  10
TORSDOF 13
ENDMDL
MODEL 6
REMARK VINA RESULT:    -5.756      3.450      7.012
REMARK INTER + INTRA:         -11.463
REMARK INTER:                 -10.471
REMARK INTRA:                  -0.992
REMARK UNBOUND:                -1.333
REMARK SMILES CCCCCCC=CCCCCCCCC(=O)[O-]
REMARK SMILES IDX 10 1 11 2 12 3 13 4 14 5 15 6 16 7 17 8 18 9 9 10 8 11 7 12
REMARK SMILES IDX 6 13 5 14 4 15 3 16 2 17 1 18
REMARK H PARENT
REMARK Flexibility Score: inf
ROOT
ATOM      1  C   UNL     1       6.650 -56.246 -30.339  1.00  0.00     0.004 C 
ENDROOT
BRANCH   1   2
ATOM      2  C   UNL     1       7.161 -55.924 -28.925  1.00  0.00     0.000 C 
BRANCH   2   3
ATOM      3  C   UNL     1       8.674 -55.646 -28.895  1.00  0.00     0.000 C 
BRANCH   3   4
ATOM      4  C   UNL     1       9.037 -54.269 -29.474  1.00  0.00     0.000 C 
BRANCH   4   5
ATOM      5  C   UNL     1      10.078 -54.353 -30.606  1.00  0.00     0.006 C 
BRANCH   5   6
ATOM      6  C   UNL     1       9.421 -54.512 -31.983  1.00  0.00     0.053 C 
BRANCH   6   7
ATOM      7  C   UNL     1      10.131 -55.528 -32.825  1.00  0.00     0.041 C 
ATOM      8  O   UNL     1      11.196 -55.224 -33.424  1.00  0.00    -0.550 OA
ATOM      9  O   UNL     1       9.602 -56.806 -32.965  1.00  0.00    -0.550 OA
ENDBRANCH   6   7
ENDBRANCH   5   6
ENDBRANCH   4   5
ENDBRANCH   3   4
ENDBRANCH   2   3
ENDBRANCH   1   2
BRANCH   1  10
ATOM     10  C   UNL     1       5.278 -55.619 -30.625  1.00  0.00     0.027 C 
BRANCH  10  11
ATOM     11  C   UNL     1       4.168 -56.534 -30.177  1.00  0.00    -0.031 C 
ATOM     12  C   UNL     1       3.357 -56.297 -29.129  1.00  0.00    -0.031 C 
BRANCH  12  13
ATOM     13  C   UNL     1       3.375 -55.039 -28.297  1.00  0.00     0.027 C 
BRANCH  13  14
ATOM     14  C   UNL     1       2.872 -55.281 -26.863  1.00  0.00     0.004 C 
BRANCH  14  15
ATOM     15  C   UNL     1       1.492 -54.667 -26.564  1.00  0.00     0.000 C 
BRANCH  15  16
ATOM     16  C   UNL     1       1.553 -53.543 -25.515  1.00  0.00    -0.000 C 
BRANCH  16  17
ATOM     17  C   UNL     1       2.862 -52.741 -25.588  1.00  0.00    -0.003 C 
ATOM     18  C   UNL     1       3.302 -52.205 -24.225  1.00  0.00     0.004 C 
ENDBRANCH  16  17
ENDBRANCH  15  16
ENDBRANCH  14  15
ENDBRANCH  13  14
ENDBRANCH  12  13
ENDBRANCH  10  11
ENDBRANCH   1  10
TORSDOF 13
ENDMDL
MODEL 7
REMARK VINA RESULT:    -5.727      3.311      7.155
REMARK INTER + INTRA:         -11.413
REMARK INTER:                 -10.038
REMARK INTRA:                  -1.375
REMARK UNBOUND:                -1.333
REMARK SMILES CCCCCCC=CCCCCCCCC(=O)[O-]
REMARK SMILES IDX 10 1 11 2 12 3 13 4 14 5 15 6 16 7 17 8 18 9 9 10 8 11 7 12
REMARK SMILES IDX 6 13 5 14 4 15 3 16 2 17 1 18
REMARK H PARENT
REMARK Flexibility Score: inf
ROOT
ATOM      1  C   UNL     1       4.544 -56.318 -30.778  1.00  0.00     0.004 C 
ENDROOT
BRANCH   1   2
ATOM      2  C   UNL     1       5.801 -55.500 -30.440  1.00  0.00     0.000 C 
BRANCH   2   3
ATOM      3  C   UNL     1       6.856 -56.326 -29.684  1.00  0.00     0.000 C 
BRANCH   3   4
ATOM      4  C   UNL     1       8.118 -55.514 -29.350  1.00  0.00     0.000 C 
BRANCH   4   5
ATOM      5  C   UNL     1       8.573 -54.613 -30.513  1.00  0.00     0.006 C 
BRANCH   5   6
ATOM      6  C   UNL     1       9.891 -55.097 -31.134  1.00  0.00     0.053 C 
BRANCH   6   7
ATOM      7  C   UNL     1       9.756 -55.336 -32.607  1.00  0.00     0.041 C 
ATOM      8  O   UNL     1       8.616 -55.396 -33.140  1.00  0.00    -0.550 OA
ATOM      9  O   UNL     1      10.891 -55.517 -33.388  1.00  0.00    -0.550 OA
ENDBRANCH   6   7
ENDBRANCH   5   6
ENDBRANCH   4   5
ENDBRANCH   3   4
ENDBRANCH   2   3
ENDBRANCH   1   2
BRANCH   1  10
ATOM     10  C   UNL     1       3.830 -56.844 -29.524  1.00  0.00     0.027 C 
BRANCH  10  11
ATOM     11  C   UNL     1       3.424 -55.704 -28.625  1.00  0.00    -0.031 C 
ATOM     12  C   UNL     1       3.780 -55.586 -27.332  1.00  0.00    -0.031 C 
BRANCH  12  13
ATOM     13  C   UNL     1       4.711 -56.527 -26.608  1.00  0.00     0.027 C 
BRANCH  13  14
ATOM     14  C   UNL     1       4.151 -56.968 -25.244  1.00  0.00     0.004 C 
BRANCH  14  15
ATOM     15  C   UNL     1       2.959 -56.130 -24.748  1.00  0.00     0.000 C 
BRANCH  15  16
ATOM     16  C   UNL     1       1.715 -56.983 -24.444  1.00  0.00    -0.000 C 
BRANCH  16  17
ATOM     17  C   UNL     1       0.407 -56.188 -24.584  1.00  0.00    -0.003 C 
ATOM     18  C   UNL     1       0.479 -55.123 -25.679  1.00  0.00     0.004 C 
ENDBRANCH  16  17
ENDBRANCH  15  16
ENDBRANCH  14  15
ENDBRANCH  13  14
ENDBRANCH  12  13
ENDBRANCH  10  11
ENDBRANCH   1  10
TORSDOF 13
ENDMDL
MODEL 8
REMARK VINA RESULT:    -5.726      1.316      2.653
REMARK INTER + INTRA:         -11.411
REMARK INTER:                 -10.132
REMARK INTRA:                  -1.279
REMARK UNBOUND:                -1.333
REMARK SMILES CCCCCCC=CCCCCCCCC(=O)[O-]
REMARK SMILES IDX 10 1 11 2 12 3 13 4 14 5 15 6 16 7 17 8 18 9 9 10 8 11 7 12
REMARK SMILES IDX 6 13 5 14 4 15 3 16 2 17 1 18
REMARK H PARENT
REMARK Flexibility Score: inf
ROOT
ATOM      1  C   UNL     1       4.463 -56.235 -30.529  1.00  0.00     0.004 C 
ENDROOT
BRANCH   1   2
ATOM      2  C   UNL     1       3.790 -56.590 -29.193  1.00  0.00     0.000 C 
BRANCH   2   3
ATOM      3  C   UNL     1       3.096 -55.380 -28.544  1.00  0.00     0.000 C 
BRANCH   3   4
ATOM      4  C   UNL     1       2.665 -55.650 -27.094  1.00  0.00     0.000 C 
BRANCH   4   5
ATOM      5  C   UNL     1       3.829 -55.533 -26.093  1.00  0.00     0.006 C 
BRANCH   5   6
ATOM      6  C   UNL     1       3.806 -56.656 -25.048  1.00  0.00     0.053 C 
BRANCH   6   7
ATOM      7  C   UNL     1       4.954 -57.604 -25.226  1.00  0.00     0.041 C 
ATOM      8  O   UNL     1       5.676 -57.919 -24.244  1.00  0.00    -0.550 OA
ATOM      9  O   UNL     1       5.239 -58.121 -26.485  1.00  0.00    -0.550 OA
ENDBRANCH   6   7
ENDBRANCH   5   6
ENDBRANCH   4   5
ENDBRANCH   3   4
ENDBRANCH   2   3
ENDBRANCH   1   2
BRANCH   1  10
ATOM     10  C   UNL     1       5.981 -56.046 -30.391  1.00  0.00     0.027 C 
BRANCH  10  11
ATOM     11  C   UNL     1       6.381 -55.984 -28.939  1.00  0.00    -0.031 C 
ATOM     12  C   UNL     1       7.650 -56.027 -28.493  1.00  0.00    -0.031 C 
BRANCH  12  13
ATOM     13  C   UNL     1       8.871 -56.053 -29.378  1.00  0.00     0.027 C 
BRANCH  13  14
ATOM     14  C   UNL     1       9.448 -54.646 -29.619  1.00  0.00     0.004 C 
BRANCH  14  15
ATOM     15  C   UNL     1       9.988 -54.419 -31.043  1.00  0.00     0.000 C 
BRANCH  15  16
ATOM     16  C   UNL     1       8.872 -54.150 -32.068  1.00  0.00    -0.000 C 
BRANCH  16  17
ATOM     17  C   UNL     1       8.507 -55.401 -32.882  1.00  0.00    -0.003 C 
ATOM     18  C   UNL     1       9.683 -55.937 -33.699  1.00  0.00     0.004 C 
ENDBRANCH  16  17
ENDBRANCH  15  16
ENDBRANCH  14  15
ENDBRANCH  13  14
ENDBRANCH  12  13
ENDBRANCH  10  11
ENDBRANCH   1  10
TORSDOF 13
ENDMDL
MODEL 9
REMARK VINA RESULT:    -5.714      2.897      4.042
REMARK INTER + INTRA:         -11.390
REMARK INTER:                 -10.050
REMARK INTRA:                  -1.341
REMARK UNBOUND:                -1.333
REMARK SMILES CCCCCCC=CCCCCCCCC(=O)[O-]
REMARK SMILES IDX 10 1 11 2 12 3 13 4 14 5 15 6 16 7 17 8 18 9 9 10 8 11 7 12
REMARK SMILES IDX 6 13 5 14 4 15 3 16 2 17 1 18
REMARK H PARENT
REMARK Flexibility Score: inf
ROOT
ATOM      1  C   UNL     1       4.430 -55.366 -30.056  1.00  0.00     0.004 C 
ENDROOT
BRANCH   1   2
ATOM      2  C   UNL     1       4.059 -56.374 -28.956  1.00  0.00     0.000 C 
BRANCH   2   3
ATOM      3  C   UNL     1       3.094 -55.781 -27.915  1.00  0.00     0.000 C 
BRANCH   3   4
ATOM      4  C   UNL     1       3.480 -56.146 -26.472  1.00  0.00     0.000 C 
BRANCH   4   5
ATOM      5  C   UNL     1       3.089 -55.058 -25.456  1.00  0.00     0.006 C 
BRANCH   5   6
ATOM      6  C   UNL     1       2.925 -53.683 -26.119  1.00  0.00     0.053 C 
BRANCH   6   7
ATOM      7  C   UNL     1       2.965 -52.573 -25.113  1.00  0.00     0.041 C 
ATOM      8  O   UNL     1       3.352 -51.423 -25.450  1.00  0.00    -0.550 OA
ATOM      9  O   UNL     1       2.597 -52.817 -23.795  1.00  0.00    -0.550 OA
ENDBRANCH   6   7
ENDBRANCH   5   6
ENDBRANCH   4   5
ENDBRANCH   3   4
ENDBRANCH   2   3
ENDBRANCH   1   2
BRANCH   1  10
ATOM     10  C   UNL     1       5.886 -55.513 -30.520  1.00  0.00     0.027 C 
BRANCH  10  11
ATOM     11  C   UNL     1       6.652 -56.424 -29.596  1.00  0.00    -0.031 C 
ATOM     12  C   UNL     1       7.872 -56.155 -29.095  1.00  0.00    -0.031 C 
BRANCH  12  13
ATOM     13  C   UNL     1       8.624 -54.865 -29.309  1.00  0.00     0.027 C 
BRANCH  13  14
ATOM     14  C   UNL     1      10.080 -55.102 -29.745  1.00  0.00     0.004 C 
BRANCH  14  15
ATOM     15  C   UNL     1      10.325 -54.933 -31.255  1.00  0.00     0.000 C 
BRANCH  15  16
ATOM     16  C   UNL     1       9.129 -54.302 -31.987  1.00  0.00    -0.000 C 
BRANCH  16  17
ATOM     17  C   UNL     1       8.542 -55.227 -33.064  1.00  0.00    -0.003 C 
ATOM     18  C   UNL     1       9.541 -56.279 -33.545  1.00  0.00     0.004 C 
ENDBRANCH  16  17
ENDBRANCH  15  16
ENDBRANCH  14  15
ENDBRANCH  13  14
ENDBRANCH  12  13
ENDBRANCH  10  11
ENDBRANCH   1  10
TORSDOF 13
ENDMDL
