MODEL 1
REMARK VINA RESULT:    -5.360      0.000      0.000
REMARK INTER + INTRA:          -6.056
REMARK INTER:                  -5.987
REMARK INTRA:                  -0.069
REMARK UNBOUND:                -0.069
REMARK SMILES COc1cc2ccc(=O)oc2c(O)c1O
REMARK SMILES IDX 3 1 14 2 12 3 11 4 5 5 4 6 6 7 7 8 8 9 9 10 10 11 2 12 1 13
REMARK SMILES IDX 15 14 13 16
REMARK H PARENT 15 15 13 17
REMARK Flexibility Score: inf
ROOT
ATOM      1  C   UNL     1     -96.367  84.629 208.310  1.00  0.00     0.165 A 
ATOM      2  C   UNL     1     -96.003  83.843 209.420  1.00  0.00     0.204 A 
ATOM      3  C   UNL     1     -96.384  82.494 209.491  1.00  0.00     0.205 A 
ATOM      4  C   UNL     1     -97.133  81.921 208.452  1.00  0.00     0.184 A 
ATOM      5  C   UNL     1     -97.502  82.705 207.338  1.00  0.00     0.025 A 
ATOM      6  C   UNL     1     -97.119  84.051 207.269  1.00  0.00     0.062 A 
ATOM      7  C   UNL     1     -98.249  82.108 206.318  1.00  0.00     0.020 A 
ATOM      8  C   UNL     1     -98.607  80.765 206.426  1.00  0.00     0.094 A 
ATOM      9  C   UNL     1     -98.209  80.049 207.558  1.00  0.00     0.336 A 
ATOM     10  O   UNL     1     -98.522  78.836 207.677  1.00  0.00    -0.246 OA
ATOM     11  O   UNL     1     -97.499  80.642 208.515  1.00  0.00    -0.419 OA
ENDROOT
BRANCH   1  12
ATOM     12  O   UNL     1     -95.967  85.975 208.275  1.00  0.00    -0.493 OA
ATOM     13  C   UNL     1     -94.875  86.475 207.510  1.00  0.00     0.278 C 
ENDBRANCH   1  12
BRANCH   2  14
ATOM     14  O   UNL     1     -95.258  84.388 210.467  1.00  0.00    -0.502 OA
ATOM     15  H   UNL     1     -94.418  83.947 210.821  1.00  0.00     0.293 HD
ENDBRANCH   2  14
BRANCH   3  16
ATOM     16  O   UNL     1     -96.008  81.740 210.604  1.00  0.00    -0.502 OA
ATOM     17  H   UNL     1     -95.488  82.140 211.376  1.00  0.00     0.293 HD
ENDBRANCH   3  16
TORSDOF 3
ENDMDL
MODEL 2
REMARK VINA RESULT:    -5.184      2.358      3.683
REMARK INTER + INTRA:          -5.860
REMARK INTER:                  -5.810
REMARK INTRA:                  -0.050
REMARK UNBOUND:                -0.069
REMARK SMILES COc1cc2ccc(=O)oc2c(O)c1O
REMARK SMILES IDX 3 1 14 2 12 3 11 4 5 5 4 6 6 7 7 8 8 9 9 10 10 11 2 12 1 13
REMARK SMILES IDX 15 14 13 16
REMARK H PARENT 15 15 13 17
REMARK Flexibility Score: inf
ROOT
ATOM      1  C   UNL     1     -97.891  87.219 207.666  1.00  0.00     0.165 A 
ATOM      2  C   UNL     1     -96.885  87.411 208.633  1.00  0.00     0.204 A 
ATOM      3  C   UNL     1     -96.153  86.319 209.123  1.00  0.00     0.205 A 
ATOM      4  C   UNL     1     -96.421  85.024 208.652  1.00  0.00     0.184 A 
ATOM      5  C   UNL     1     -97.429  84.827 207.683  1.00  0.00     0.025 A 
ATOM      6  C   UNL     1     -98.158  85.919 207.195  1.00  0.00     0.062 A 
ATOM      7  C   UNL     1     -97.675  83.527 207.231  1.00  0.00     0.020 A 
ATOM      8  C   UNL     1     -96.926  82.469 207.743  1.00  0.00     0.094 A 
ATOM      9  C   UNL     1     -95.944  82.738 208.701  1.00  0.00     0.336 A 
ATOM     10  O   UNL     1     -95.257  81.798 209.177  1.00  0.00    -0.246 OA
ATOM     11  O   UNL     1     -95.731  83.984 209.114  1.00  0.00    -0.419 OA
ENDROOT
BRANCH   1  12
ATOM     12  O   UNL     1     -98.602  88.336 207.199  1.00  0.00    -0.493 OA
ATOM     13  C   UNL     1     -99.237  88.419 205.928  1.00  0.00     0.278 C 
ENDBRANCH   1  12
BRANCH   2  14
ATOM     14  O   UNL     1     -96.598  88.687 209.120  1.00  0.00    -0.502 OA
ATOM     15  H   UNL     1     -97.146  89.500 208.865  1.00  0.00     0.293 HD
ENDBRANCH   2  14
BRANCH   3  16
ATOM     16  O   UNL     1     -95.162  86.541 210.082  1.00  0.00    -0.502 OA
ATOM     17  H   UNL     1     -94.185  86.346 209.902  1.00  0.00     0.293 HD
ENDBRANCH   3  16
TORSDOF 3
ENDMDL
MODEL 3
REMARK VINA RESULT:    -5.159      1.604      4.678
REMARK INTER + INTRA:          -5.831
REMARK INTER:                  -5.764
REMARK INTRA:                  -0.067
REMARK UNBOUND:                -0.069
REMARK SMILES COc1cc2ccc(=O)oc2c(O)c1O
REMARK SMILES IDX 3 1 14 2 12 3 11 4 5 5 4 6 6 7 7 8 8 9 9 10 10 11 2 12 1 13
REMARK SMILES IDX 15 14 13 16
REMARK H PARENT 15 15 13 17
REMARK Flexibility Score: inf
ROOT
ATOM      1  C   UNL     1     -96.656  82.171 207.987  1.00  0.00     0.165 A 
ATOM      2  C   UNL     1     -95.920  82.603 209.108  1.00  0.00     0.204 A 
ATOM      3  C   UNL     1     -95.941  83.952 209.494  1.00  0.00     0.205 A 
ATOM      4  C   UNL     1     -96.697  84.881 208.762  1.00  0.00     0.184 A 
ATOM      5  C   UNL     1     -97.435  84.452 207.638  1.00  0.00     0.025 A 
ATOM      6  C   UNL     1     -97.414  83.105 207.255  1.00  0.00     0.062 A 
ATOM      7  C   UNL     1     -98.180  85.398 206.927  1.00  0.00     0.020 A 
ATOM      8  C   UNL     1     -98.175  86.729 207.343  1.00  0.00     0.094 A 
ATOM      9  C   UNL     1     -97.420  87.082 208.465  1.00  0.00     0.336 A 
ATOM     10  O   UNL     1     -97.400  88.278 208.858  1.00  0.00    -0.246 OA
ATOM     11  O   UNL     1     -96.720  86.162 209.123  1.00  0.00    -0.419 OA
ENDROOT
BRANCH   1  12
ATOM     12  O   UNL     1     -96.610  80.813 207.632  1.00  0.00    -0.493 OA
ATOM     13  C   UNL     1     -95.950  80.299 206.479  1.00  0.00     0.278 C 
ENDBRANCH   1  12
BRANCH   2  14
ATOM     14  O   UNL     1     -95.159  81.701 209.853  1.00  0.00    -0.502 OA
ATOM     15  H   UNL     1     -95.568  80.892 210.305  1.00  0.00     0.293 HD
ENDBRANCH   2  14
BRANCH   3  16
ATOM     16  O   UNL     1     -95.201  84.351 210.609  1.00  0.00    -0.502 OA
ATOM     17  H   UNL     1     -94.400  83.827 210.939  1.00  0.00     0.293 HD
ENDBRANCH   3  16
TORSDOF 3
ENDMDL
MODEL 4
REMARK VINA RESULT:    -5.061      1.324      4.683
REMARK INTER + INTRA:          -5.722
REMARK INTER:                  -5.658
REMARK INTRA:                  -0.064
REMARK UNBOUND:                -0.069
REMARK SMILES COc1cc2ccc(=O)oc2c(O)c1O
REMARK SMILES IDX 3 1 14 2 12 3 11 4 5 5 4 6 6 7 7 8 8 9 9 10 10 11 2 12 1 13
REMARK SMILES IDX 15 14 13 16
REMARK H PARENT 15 15 13 17
REMARK Flexibility Score: inf
ROOT
ATOM      1  C   UNL     1     -97.464  80.891 207.237  1.00  0.00     0.165 A 
ATOM      2  C   UNL     1     -96.492  80.730 208.243  1.00  0.00     0.204 A 
ATOM      3  C   UNL     1     -95.965  81.847 208.907  1.00  0.00     0.205 A 
ATOM      4  C   UNL     1     -96.406  83.137 208.571  1.00  0.00     0.184 A 
ATOM      5  C   UNL     1     -97.380  83.303 207.563  1.00  0.00     0.025 A 
ATOM      6  C   UNL     1     -97.905  82.185 206.902  1.00  0.00     0.062 A 
ATOM      7  C   UNL     1     -97.801  84.599 207.248  1.00  0.00     0.020 A 
ATOM      8  C   UNL     1     -97.253  85.683 207.932  1.00  0.00     0.094 A 
ATOM      9  C   UNL     1     -96.292  85.444 208.918  1.00  0.00     0.336 A 
ATOM     10  O   UNL     1     -95.784  86.409 209.547  1.00  0.00    -0.246 OA
ATOM     11  O   UNL     1     -95.909  84.202 209.197  1.00  0.00    -0.419 OA
ENDROOT
BRANCH   1  12
ATOM     12  O   UNL     1     -97.968  79.747 206.595  1.00  0.00    -0.493 OA
ATOM     13  C   UNL     1     -97.456  79.210 205.380  1.00  0.00     0.278 C 
ENDBRANCH   1  12
BRANCH   2  14
ATOM     14  O   UNL     1     -96.035  79.459 208.597  1.00  0.00    -0.502 OA
ATOM     15  H   UNL     1     -95.159  79.314 209.083  1.00  0.00     0.293 HD
ENDBRANCH   2  14
BRANCH   3  16
ATOM     16  O   UNL     1     -95.002  81.656 209.900  1.00  0.00    -0.502 OA
ATOM     17  H   UNL     1     -95.137  81.007 210.665  1.00  0.00     0.293 HD
ENDBRANCH   3  16
TORSDOF 3
ENDMDL
MODEL 5
REMARK VINA RESULT:    -5.046      2.220      2.819
REMARK INTER + INTRA:          -5.706
REMARK INTER:                  -5.644
REMARK INTRA:                  -0.062
REMARK UNBOUND:                -0.069
REMARK SMILES COc1cc2ccc(=O)oc2c(O)c1O
REMARK SMILES IDX 3 1 14 2 12 3 11 4 5 5 4 6 6 7 7 8 8 9 9 10 10 11 2 12 1 13
REMARK SMILES IDX 15 14 13 16
REMARK H PARENT 15 15 13 17
REMARK Flexibility Score: inf
ROOT
ATOM      1  C   UNL     1     -97.300  87.129 208.490  1.00  0.00     0.165 A 
ATOM      2  C   UNL     1     -96.345  86.230 209.005  1.00  0.00     0.204 A 
ATOM      3  C   UNL     1     -96.361  84.881 208.622  1.00  0.00     0.205 A 
ATOM      4  C   UNL     1     -97.333  84.418 207.721  1.00  0.00     0.184 A 
ATOM      5  C   UNL     1     -98.292  85.314 207.203  1.00  0.00     0.025 A 
ATOM      6  C   UNL     1     -98.273  86.662 207.586  1.00  0.00     0.062 A 
ATOM      7  C   UNL     1     -99.249  84.826 206.308  1.00  0.00     0.020 A 
ATOM      8  C   UNL     1     -99.231  83.478 205.952  1.00  0.00     0.094 A 
ATOM      9  C   UNL     1     -98.253  82.647 206.505  1.00  0.00     0.336 A 
ATOM     10  O   UNL     1     -98.218  81.427 206.198  1.00  0.00    -0.246 OA
ATOM     11  O   UNL     1     -97.355  83.137 207.355  1.00  0.00    -0.419 OA
ENDROOT
BRANCH   1  12
ATOM     12  O   UNL     1     -97.251  88.472 208.897  1.00  0.00    -0.493 OA
ATOM     13  C   UNL     1     -97.096  89.580 208.016  1.00  0.00     0.278 C 
ENDBRANCH   1  12
BRANCH   2  14
ATOM     14  O   UNL     1     -95.368  86.664 209.902  1.00  0.00    -0.502 OA
ATOM     15  H   UNL     1     -95.548  87.382 210.593  1.00  0.00     0.293 HD
ENDBRANCH   2  14
BRANCH   3  16
ATOM     16  O   UNL     1     -95.403  84.013 209.149  1.00  0.00    -0.502 OA
ATOM     17  H   UNL     1     -95.573  83.464 209.983  1.00  0.00     0.293 HD
ENDBRANCH   3  16
TORSDOF 3
ENDMDL
MODEL 6
REMARK VINA RESULT:    -4.997      2.136      5.083
REMARK INTER + INTRA:          -5.650
REMARK INTER:                  -5.586
REMARK INTRA:                  -0.064
REMARK UNBOUND:                -0.069
REMARK SMILES COc1cc2ccc(=O)oc2c(O)c1O
REMARK SMILES IDX 3 1 14 2 12 3 11 4 5 5 4 6 6 7 7 8 8 9 9 10 10 11 2 12 1 13
REMARK SMILES IDX 15 14 13 16
REMARK H PARENT 15 15 13 17
REMARK Flexibility Score: inf
ROOT
ATOM      1  C   UNL     1     -97.674  78.457 208.651  1.00  0.00     0.165 A 
ATOM      2  C   UNL     1     -96.963  79.240 209.581  1.00  0.00     0.204 A 
ATOM      3  C   UNL     1     -96.850  80.627 209.403  1.00  0.00     0.205 A 
ATOM      4  C   UNL     1     -97.447  81.243 208.292  1.00  0.00     0.184 A 
ATOM      5  C   UNL     1     -98.160  80.462 207.357  1.00  0.00     0.025 A 
ATOM      6  C   UNL     1     -98.272  79.078 207.537  1.00  0.00     0.062 A 
ATOM      7  C   UNL     1     -98.744  81.102 206.259  1.00  0.00     0.020 A 
ATOM      8  C   UNL     1     -98.609  82.482 206.118  1.00  0.00     0.094 A 
ATOM      9  C   UNL     1     -97.889  83.193 207.082  1.00  0.00     0.336 A 
ATOM     10  O   UNL     1     -97.755  84.439 206.974  1.00  0.00    -0.246 OA
ATOM     11  O   UNL     1     -97.343  82.559 208.116  1.00  0.00    -0.419 OA
ENDROOT
BRANCH   1  12
ATOM     12  O   UNL     1     -97.764  77.072 208.864  1.00  0.00    -0.493 OA
ATOM     13  C   UNL     1     -98.980  76.365 209.089  1.00  0.00     0.278 C 
ENDBRANCH   1  12
BRANCH   2  14
ATOM     14  O   UNL     1     -96.360  78.653 210.695  1.00  0.00    -0.502 OA
ATOM     15  H   UNL     1     -95.824  79.189 211.366  1.00  0.00     0.293 HD
ENDBRANCH   2  14
BRANCH   3  16
ATOM     16  O   UNL     1     -96.139  81.377 210.342  1.00  0.00    -0.502 OA
ATOM     17  H   UNL     1     -95.234  81.087 210.689  1.00  0.00     0.293 HD
ENDBRANCH   3  16
TORSDOF 3
ENDMDL
MODEL 7
REMARK VINA RESULT:    -4.952      2.830      4.197
REMARK INTER + INTRA:          -5.600
REMARK INTER:                  -5.531
REMARK INTRA:                  -0.069
REMARK UNBOUND:                -0.069
REMARK SMILES COc1cc2ccc(=O)oc2c(O)c1O
REMARK SMILES IDX 3 1 14 2 12 3 11 4 5 5 4 6 6 7 7 8 8 9 9 10 10 11 2 12 1 13
REMARK SMILES IDX 15 14 13 16
REMARK H PARENT 15 15 13 17
REMARK Flexibility Score: inf
ROOT
ATOM      1  C   UNL     1     -96.009  84.757 208.768  1.00  0.00     0.165 A 
ATOM      2  C   UNL     1     -96.419  86.103 208.811  1.00  0.00     0.204 A 
ATOM      3  C   UNL     1     -97.533  86.531 208.074  1.00  0.00     0.205 A 
ATOM      4  C   UNL     1     -98.247  85.615 207.284  1.00  0.00     0.184 A 
ATOM      5  C   UNL     1     -97.838  84.265 207.237  1.00  0.00     0.025 A 
ATOM      6  C   UNL     1     -96.727  83.840 207.975  1.00  0.00     0.062 A 
ATOM      7  C   UNL     1     -98.567  83.375 206.442  1.00  0.00     0.020 A 
ATOM      8  C   UNL     1     -99.668  83.839 205.724  1.00  0.00     0.094 A 
ATOM      9  C   UNL     1    -100.014  85.190 205.818  1.00  0.00     0.336 A 
ATOM     10  O   UNL     1    -101.004  85.630 205.177  1.00  0.00    -0.246 OA
ATOM     11  O   UNL     1     -99.304  86.016 206.580  1.00  0.00    -0.419 OA
ENDROOT
BRANCH   1  12
ATOM     12  O   UNL     1     -94.889  84.367 209.521  1.00  0.00    -0.493 OA
ATOM     13  C   UNL     1     -94.950  83.669 210.760  1.00  0.00     0.278 C 
ENDBRANCH   1  12
BRANCH   2  14
ATOM     14  O   UNL     1     -95.728  87.035 209.588  1.00  0.00    -0.502 OA
ATOM     15  H   UNL     1     -96.102  87.953 209.794  1.00  0.00     0.293 HD
ENDBRANCH   2  14
BRANCH   3  16
ATOM     16  O   UNL     1     -97.916  87.872 208.137  1.00  0.00    -0.502 OA
ATOM     17  H   UNL     1     -98.857  88.153 208.381  1.00  0.00     0.293 HD
ENDBRANCH   3  16
TORSDOF 3
ENDMDL
MODEL 8
REMARK VINA RESULT:    -4.951      2.970      5.187
REMARK INTER + INTRA:          -5.599
REMARK INTER:                  -5.549
REMARK INTRA:                  -0.050
REMARK UNBOUND:                -0.069
REMARK SMILES COc1cc2ccc(=O)oc2c(O)c1O
REMARK SMILES IDX 3 1 14 2 12 3 11 4 5 5 4 6 6 7 7 8 8 9 9 10 10 11 2 12 1 13
REMARK SMILES IDX 15 14 13 16
REMARK H PARENT 15 15 13 17
REMARK Flexibility Score: inf
ROOT
ATOM      1  C   UNL     1     -96.057  84.887 208.990  1.00  0.00     0.165 A 
ATOM      2  C   UNL     1     -95.828  86.242 209.295  1.00  0.00     0.204 A 
ATOM      3  C   UNL     1     -96.557  87.250 208.646  1.00  0.00     0.205 A 
ATOM      4  C   UNL     1     -97.521  86.910 207.684  1.00  0.00     0.184 A 
ATOM      5  C   UNL     1     -97.754  85.553 207.374  1.00  0.00     0.025 A 
ATOM      6  C   UNL     1     -97.026  84.549 208.025  1.00  0.00     0.062 A 
ATOM      7  C   UNL     1     -98.720  85.243 206.412  1.00  0.00     0.020 A 
ATOM      8  C   UNL     1     -99.422  86.274 205.789  1.00  0.00     0.094 A 
ATOM      9  C   UNL     1     -99.139  87.595 206.144  1.00  0.00     0.336 A 
ATOM     10  O   UNL     1     -99.761  88.541 205.594  1.00  0.00    -0.246 OA
ATOM     11  O   UNL     1     -98.215  87.862 207.062  1.00  0.00    -0.419 OA
ENDROOT
BRANCH   1  12
ATOM     12  O   UNL     1     -95.308  83.907 209.662  1.00  0.00    -0.493 OA
ATOM     13  C   UNL     1     -95.739  82.568 209.883  1.00  0.00     0.278 C 
ENDBRANCH   1  12
BRANCH   2  14
ATOM     14  O   UNL     1     -94.875  86.608 210.248  1.00  0.00    -0.502 OA
ATOM     15  H   UNL     1     -94.948  86.334 211.220  1.00  0.00     0.293 HD
ENDBRANCH   2  14
BRANCH   3  16
ATOM     16  O   UNL     1     -96.307  88.585 208.969  1.00  0.00    -0.502 OA
ATOM     17  H   UNL     1     -95.367  88.953 209.050  1.00  0.00     0.293 HD
ENDBRANCH   3  16
TORSDOF 3
ENDMDL
MODEL 9
REMARK VINA RESULT:    -4.887      2.941      4.285
REMARK INTER + INTRA:          -5.527
REMARK INTER:                  -5.462
REMARK INTRA:                  -0.066
REMARK UNBOUND:                -0.069
REMARK SMILES COc1cc2ccc(=O)oc2c(O)c1O
REMARK SMILES IDX 3 1 14 2 12 3 11 4 5 5 4 6 6 7 7 8 8 9 9 10 10 11 2 12 1 13
REMARK SMILES IDX 15 14 13 16
REMARK H PARENT 15 15 13 17
REMARK Flexibility Score: inf
ROOT
ATOM      1  C   UNL     1     -97.468  87.570 207.982  1.00  0.00     0.165 A 
ATOM      2  C   UNL     1     -98.619  87.550 207.171  1.00  0.00     0.204 A 
ATOM      3  C   UNL     1     -99.092  86.342 206.637  1.00  0.00     0.205 A 
ATOM      4  C   UNL     1     -98.416  85.142 206.908  1.00  0.00     0.184 A 
ATOM      5  C   UNL     1     -97.261  85.157 207.720  1.00  0.00     0.025 A 
ATOM      6  C   UNL     1     -96.792  86.364 208.253  1.00  0.00     0.062 A 
ATOM      7  C   UNL     1     -96.607  83.947 207.974  1.00  0.00     0.020 A 
ATOM      8  C   UNL     1     -97.109  82.768 207.424  1.00  0.00     0.094 A 
ATOM      9  C   UNL     1     -98.256  82.828 206.629  1.00  0.00     0.336 A 
ATOM     10  O   UNL     1     -98.726  81.776 206.123  1.00  0.00    -0.246 OA
ATOM     11  O   UNL     1     -98.858  83.992 206.403  1.00  0.00    -0.419 OA
ENDROOT
BRANCH   1  12
ATOM     12  O   UNL     1     -97.026  88.799 208.498  1.00  0.00    -0.493 OA
ATOM     13  C   UNL     1     -95.803  89.435 208.141  1.00  0.00     0.278 C 
ENDBRANCH   1  12
BRANCH   2  14
ATOM     14  O   UNL     1     -99.310  88.729 206.885  1.00  0.00    -0.502 OA
ATOM     15  H   UNL     1     -99.444  89.459 207.574  1.00  0.00     0.293 HD
ENDBRANCH   2  14
BRANCH   3  16
ATOM     16  O   UNL     1    -100.235  86.355 205.836  1.00  0.00    -0.502 OA
ATOM     17  H   UNL     1    -100.262  85.909 204.927  1.00  0.00     0.293 HD
ENDBRANCH   3  16
TORSDOF 3
ENDMDL
