MODEL 1
REMARK VINA RESULT:    -3.347      0.000      0.000
REMARK INTER + INTRA:          -6.596
REMARK INTER:                  -5.107
REMARK INTRA:                  -1.489
REMARK UNBOUND:                -1.489
REMARK SMILES OC[C@@H]1O[C@@](CO)(O[C@@H]2O[C@H](CO)[C@@H](O)[C@@H](O)[C@@H]2O)[C@@H](O)[C@H]1O
REMARK SMILES IDX 8 1 9 2 11 3 14 4 10 5 16 6 18 7 12 8 13 9 15 11 17 13 19 15
REMARK SMILES IDX 5 17 20 18 4 19 22 20 3 21 6 22 7 23 21 25 23 27 2 29 1 30
REMARK H PARENT 13 10 15 12 17 14 19 16 7 24 21 26 23 28 1 31
REMARK Flexibility Score: inf
ROOT
ATOM      1  O   UNL     1      13.324  36.385  34.235  1.00  0.00    -0.313 OA
ENDROOT
BRANCH   1   2
ATOM      2  C   UNL     1      12.699  35.742  33.129  1.00  0.00     0.285 C 
ATOM      3  C   UNL     1      10.462  36.014  33.936  1.00  0.00     0.178 C 
ATOM      4  C   UNL     1      10.365  34.515  34.332  1.00  0.00     0.177 C 
ATOM      5  O   UNL     1      11.405  36.282  32.903  1.00  0.00    -0.341 OA
ATOM      6  C   UNL     1      11.748  33.877  34.532  1.00  0.00     0.179 C 
ATOM      7  C   UNL     1      12.659  34.219  33.351  1.00  0.00     0.202 C 
BRANCH   3   8
ATOM      8  C   UNL     1      10.569  36.997  35.125  1.00  0.00     0.191 C 
BRANCH   8   9
ATOM      9  O   UNL     1      10.125  38.282  34.785  1.00  0.00    -0.394 OA
ATOM     10  H   UNL     1       9.994  38.285  33.801  1.00  0.00     0.210 HD
ENDBRANCH   8   9
ENDBRANCH   3   8
BRANCH   4  11
ATOM     11  O   UNL     1       9.676  33.811  33.328  1.00  0.00    -0.387 OA
ATOM     12  H   UNL     1       8.834  33.477  33.733  1.00  0.00     0.211 HD
ENDBRANCH   4  11
BRANCH   6  13
ATOM     13  O   UNL     1      11.614  32.478  34.631  1.00  0.00    -0.387 OA
ATOM     14  H   UNL     1      12.298  32.154  35.274  1.00  0.00     0.211 HD
ENDBRANCH   6  13
BRANCH   7  15
ATOM     15  O   UNL     1      13.951  33.730  33.605  1.00  0.00    -0.385 OA
ATOM     16  H   UNL     1      14.029  32.862  33.128  1.00  0.00     0.211 HD
ENDBRANCH   7  15
ENDBRANCH   1   2
BRANCH   1  17
ATOM     17  C   UNL     1      14.246  37.411  33.877  1.00  0.00     0.224 C 
ATOM     18  C   UNL     1      15.592  37.139  34.602  1.00  0.00     0.208 C 
ATOM     19  O   UNL     1      14.488  37.400  32.477  1.00  0.00    -0.337 OA
ATOM     20  C   UNL     1      16.626  37.374  33.525  1.00  0.00     0.180 C 
ATOM     21  C   UNL     1      15.843  37.079  32.256  1.00  0.00     0.179 C 
BRANCH  17  22
ATOM     22  C   UNL     1      13.697  38.800  34.288  1.00  0.00     0.225 C 
BRANCH  22  23
ATOM     23  O   UNL     1      12.561  39.122  33.534  1.00  0.00    -0.391 OA
ATOM     24  H   UNL     1      12.684  38.693  32.648  1.00  0.00     0.210 HD
ENDBRANCH  22  23
ENDBRANCH  17  22
BRANCH  18  25
ATOM     25  O   UNL     1      15.665  35.828  35.122  1.00  0.00    -0.385 OA
ATOM     26  H   UNL     1      16.551  35.446  34.881  1.00  0.00     0.211 HD
ENDBRANCH  18  25
BRANCH  20  27
ATOM     27  O   UNL     1      17.734  36.517  33.644  1.00  0.00    -0.387 OA
ATOM     28  H   UNL     1      17.369  35.600  33.748  1.00  0.00     0.211 HD
ENDBRANCH  20  27
BRANCH  21  29
ATOM     29  C   UNL     1      16.370  37.855  31.044  1.00  0.00     0.191 C 
BRANCH  29  30
ATOM     30  O   UNL     1      15.306  38.300  30.248  1.00  0.00    -0.394 OA
ATOM     31  H   UNL     1      14.898  37.485  29.854  1.00  0.00     0.210 HD
ENDBRANCH  29  30
ENDBRANCH  21  29
ENDBRANCH   1  17
TORSDOF 13
ENDMDL
MODEL 2
REMARK VINA RESULT:    -3.333      2.901      7.377
REMARK INTER + INTRA:          -6.575
REMARK INTER:                  -5.726
REMARK INTRA:                  -0.848
REMARK UNBOUND:                -1.489
REMARK SMILES OC[C@@H]1O[C@@](CO)(O[C@@H]2O[C@H](CO)[C@@H](O)[C@@H](O)[C@@H]2O)[C@@H](O)[C@H]1O
REMARK SMILES IDX 8 1 9 2 11 3 14 4 10 5 16 6 18 7 12 8 13 9 15 11 17 13 19 15
REMARK SMILES IDX 5 17 20 18 4 19 22 20 3 21 6 22 7 23 21 25 23 27 2 29 1 30
REMARK H PARENT 13 10 15 12 17 14 19 16 7 24 21 26 23 28 1 31
REMARK Flexibility Score: inf
ROOT
ATOM      1  O   UNL     1       9.450  33.881  33.936  1.00  0.00    -0.313 OA
ENDROOT
BRANCH   1   2
ATOM      2  C   UNL     1      10.303  34.232  35.020  1.00  0.00     0.285 C 
ATOM      3  C   UNL     1      11.104  36.263  34.038  1.00  0.00     0.178 C 
ATOM      4  C   UNL     1      12.479  35.623  33.703  1.00  0.00     0.177 C 
ATOM      5  O   UNL     1      10.423  35.644  35.125  1.00  0.00    -0.341 OA
ATOM      6  C   UNL     1      12.404  34.090  33.636  1.00  0.00     0.179 C 
ATOM      7  C   UNL     1      11.673  33.546  34.865  1.00  0.00     0.202 C 
BRANCH   3   8
ATOM      8  C   UNL     1      10.189  36.518  32.816  1.00  0.00     0.191 C 
BRANCH   8   9
ATOM      9  O   UNL     1      10.388  35.570  31.804  1.00  0.00    -0.394 OA
ATOM     10  H   UNL     1      10.961  34.858  32.192  1.00  0.00     0.210 HD
ENDBRANCH   8   9
ENDBRANCH   3   8
BRANCH   4  11
ATOM     11  O   UNL     1      13.416  35.994  34.684  1.00  0.00    -0.387 OA
ATOM     12  H   UNL     1      12.906  36.380  35.442  1.00  0.00     0.211 HD
ENDBRANCH   4  11
BRANCH   6  13
ATOM     13  O   UNL     1      13.707  33.555  33.590  1.00  0.00    -0.387 OA
ATOM     14  H   UNL     1      14.338  34.307  33.445  1.00  0.00     0.211 HD
ENDBRANCH   6  13
BRANCH   7  15
ATOM     15  O   UNL     1      11.509  32.157  34.730  1.00  0.00    -0.385 OA
ATOM     16  H   UNL     1      10.655  32.015  34.243  1.00  0.00     0.211 HD
ENDBRANCH   7  15
ENDBRANCH   1   2
BRANCH   1  17
ATOM     17  C   UNL     1       8.065  33.834  34.266  1.00  0.00     0.224 C 
ATOM     18  C   UNL     1       7.243  33.825  32.950  1.00  0.00     0.208 C 
ATOM     19  O   UNL     1       7.762  32.646  34.985  1.00  0.00    -0.337 OA
ATOM     20  C   UNL     1       6.198  32.760  33.193  1.00  0.00     0.180 C 
ATOM     21  C   UNL     1       6.883  31.862  34.210  1.00  0.00     0.179 C 
BRANCH  17  22
ATOM     22  C   UNL     1       7.670  35.061  35.125  1.00  0.00     0.225 C 
BRANCH  22  23
ATOM     23  O   UNL     1       6.732  35.853  34.450  1.00  0.00    -0.391 OA
ATOM     24  H   UNL     1       5.872  35.358  34.489  1.00  0.00     0.210 HD
ENDBRANCH  22  23
ENDBRANCH  17  22
BRANCH  18  25
ATOM     25  O   UNL     1       8.041  33.526  31.823  1.00  0.00    -0.385 OA
ATOM     26  H   UNL     1       8.129  34.352  31.276  1.00  0.00     0.211 HD
ENDBRANCH  18  25
BRANCH  20  27
ATOM     27  O   UNL     1       5.872  32.046  32.028  1.00  0.00    -0.387 OA
ATOM     28  H   UNL     1       5.018  32.425  31.696  1.00  0.00     0.211 HD
ENDBRANCH  20  27
BRANCH  21  29
ATOM     29  C   UNL     1       5.888  31.140  35.125  1.00  0.00     0.191 C 
BRANCH  29  30
ATOM     30  O   UNL     1       4.846  30.584  34.370  1.00  0.00    -0.394 OA
ATOM     31  H   UNL     1       5.211  30.444  33.458  1.00  0.00     0.210 HD
ENDBRANCH  29  30
ENDBRANCH  21  29
ENDBRANCH   1  17
TORSDOF 13
ENDMDL
MODEL 3
REMARK VINA RESULT:    -2.836      1.545      2.917
REMARK INTER + INTRA:          -5.817
REMARK INTER:                  -4.743
REMARK INTRA:                  -1.074
REMARK UNBOUND:                -1.489
REMARK SMILES OC[C@@H]1O[C@@](CO)(O[C@@H]2O[C@H](CO)[C@@H](O)[C@@H](O)[C@@H]2O)[C@@H](O)[C@H]1O
REMARK SMILES IDX 8 1 9 2 11 3 14 4 10 5 16 6 18 7 12 8 13 9 15 11 17 13 19 15
REMARK SMILES IDX 5 17 20 18 4 19 22 20 3 21 6 22 7 23 21 25 23 27 2 29 1 30
REMARK H PARENT 13 10 15 12 17 14 19 16 7 24 21 26 23 28 1 31
REMARK Flexibility Score: inf
ROOT
ATOM      1  O   UNL     1      13.510  36.777  33.292  1.00  0.00    -0.313 OA
ENDROOT
BRANCH   1   2
ATOM      2  C   UNL     1      12.604  37.104  34.340  1.00  0.00     0.285 C 
ATOM      3  C   UNL     1      11.581  34.942  34.444  1.00  0.00     0.178 C 
ATOM      4  C   UNL     1      10.298  35.455  33.734  1.00  0.00     0.177 C 
ATOM      5  O   UNL     1      12.314  35.956  35.125  1.00  0.00    -0.341 OA
ATOM      6  C   UNL     1      10.558  36.730  32.917  1.00  0.00     0.179 C 
ATOM      7  C   UNL     1      11.329  37.746  33.762  1.00  0.00     0.202 C 
BRANCH   3   8
ATOM      8  C   UNL     1      12.478  34.020  33.585  1.00  0.00     0.191 C 
BRANCH   8   9
ATOM      9  O   UNL     1      13.680  33.705  34.233  1.00  0.00    -0.394 OA
ATOM     10  H   UNL     1      14.340  33.499  33.520  1.00  0.00     0.210 HD
ENDBRANCH   8   9
ENDBRANCH   3   8
BRANCH   4  11
ATOM     11  O   UNL     1       9.307  35.720  34.696  1.00  0.00    -0.387 OA
ATOM     12  H   UNL     1       8.587  36.228  34.240  1.00  0.00     0.211 HD
ENDBRANCH   4  11
BRANCH   6  13
ATOM     13  O   UNL     1       9.330  37.291  32.514  1.00  0.00    -0.387 OA
ATOM     14  H   UNL     1       8.738  36.548  32.227  1.00  0.00     0.211 HD
ENDBRANCH   6  13
BRANCH   7  15
ATOM     15  O   UNL     1      11.662  38.854  32.965  1.00  0.00    -0.385 OA
ATOM     16  H   UNL     1      12.050  38.498  32.124  1.00  0.00     0.211 HD
ENDBRANCH   7  15
ENDBRANCH   1   2
BRANCH   1  17
ATOM     17  C   UNL     1      14.728  37.517  33.313  1.00  0.00     0.224 C 
ATOM     18  C   UNL     1      15.914  36.517  33.290  1.00  0.00     0.208 C 
ATOM     19  O   UNL     1      14.828  38.349  32.164  1.00  0.00    -0.337 OA
ATOM     20  C   UNL     1      16.864  37.118  32.278  1.00  0.00     0.180 C 
ATOM     21  C   UNL     1      15.923  37.917  31.390  1.00  0.00     0.179 C 
BRANCH  17  22
ATOM     22  C   UNL     1      14.805  38.397  34.585  1.00  0.00     0.225 C 
BRANCH  22  23
ATOM     23  O   UNL     1      16.002  39.125  34.609  1.00  0.00    -0.391 OA
ATOM     24  H   UNL     1      16.431  38.927  35.482  1.00  0.00     0.210 HD
ENDBRANCH  22  23
ENDBRANCH  17  22
BRANCH  18  25
ATOM     25  O   UNL     1      15.510  35.215  32.919  1.00  0.00    -0.385 OA
ATOM     26  H   UNL     1      15.771  34.589  33.646  1.00  0.00     0.211 HD
ENDBRANCH  18  25
BRANCH  20  27
ATOM     27  O   UNL     1      17.551  36.143  31.536  1.00  0.00    -0.387 OA
ATOM     28  H   UNL     1      16.990  35.949  30.741  1.00  0.00     0.211 HD
ENDBRANCH  20  27
BRANCH  21  29
ATOM     29  C   UNL     1      16.609  39.125  30.742  1.00  0.00     0.191 C 
BRANCH  29  30
ATOM     30  O   UNL     1      16.410  39.114  29.355  1.00  0.00    -0.394 OA
ATOM     31  H   UNL     1      16.461  38.163  29.077  1.00  0.00     0.210 HD
ENDBRANCH  29  30
ENDBRANCH  21  29
ENDBRANCH   1  17
TORSDOF 13
ENDMDL
MODEL 4
REMARK VINA RESULT:    -2.642      2.112      6.601
REMARK INTER + INTRA:          -5.521
REMARK INTER:                  -4.418
REMARK INTRA:                  -1.103
REMARK UNBOUND:                -1.489
REMARK SMILES OC[C@@H]1O[C@@](CO)(O[C@@H]2O[C@H](CO)[C@@H](O)[C@@H](O)[C@@H]2O)[C@@H](O)[C@H]1O
REMARK SMILES IDX 8 1 9 2 11 3 14 4 10 5 16 6 18 7 12 8 13 9 15 11 17 13 19 15
REMARK SMILES IDX 5 17 20 18 4 19 22 20 3 21 6 22 7 23 21 25 23 27 2 29 1 30
REMARK H PARENT 13 10 15 12 17 14 19 16 7 24 21 26 23 28 1 31
REMARK Flexibility Score: inf
ROOT
ATOM      1  O   UNL     1      10.614  35.011  34.445  1.00  0.00    -0.313 OA
ENDROOT
BRANCH   1   2
ATOM      2  C   UNL     1      11.071  35.509  33.192  1.00  0.00     0.285 C 
ATOM      3  C   UNL     1      13.401  35.286  33.689  1.00  0.00     0.178 C 
ATOM      4  C   UNL     1      13.561  36.819  33.888  1.00  0.00     0.177 C 
ATOM      5  O   UNL     1      12.315  34.920  32.844  1.00  0.00    -0.341 OA
ATOM      6  C   UNL     1      12.225  37.504  34.212  1.00  0.00     0.179 C 
ATOM      7  C   UNL     1      11.149  37.046  33.225  1.00  0.00     0.202 C 
BRANCH   3   8
ATOM      8  C   UNL     1      13.468  34.449  34.988  1.00  0.00     0.191 C 
BRANCH   8   9
ATOM      9  O   UNL     1      13.361  33.075  34.733  1.00  0.00    -0.394 OA
ATOM     10  H   UNL     1      12.813  32.982  33.910  1.00  0.00     0.210 HD
ENDBRANCH   8   9
ENDBRANCH   3   8
BRANCH   4  11
ATOM     11  O   UNL     1      14.097  37.387  32.718  1.00  0.00    -0.387 OA
ATOM     12  H   UNL     1      14.089  36.680  32.022  1.00  0.00     0.211 HD
ENDBRANCH   4  11
BRANCH   6  13
ATOM     13  O   UNL     1      12.377  38.901  34.125  1.00  0.00    -0.387 OA
ATOM     14  H   UNL     1      11.538  39.274  33.748  1.00  0.00     0.211 HD
ENDBRANCH   6  13
BRANCH   7  15
ATOM     15  O   UNL     1       9.910  37.588  33.606  1.00  0.00    -0.385 OA
ATOM     16  H   UNL     1       9.982  38.573  33.503  1.00  0.00     0.211 HD
ENDBRANCH   7  15
ENDBRANCH   1   2
BRANCH   1  17
ATOM     17  C   UNL     1       9.721  33.905  34.351  1.00  0.00     0.224 C 
ATOM     18  C   UNL     1       8.352  34.323  34.950  1.00  0.00     0.208 C 
ATOM     19  O   UNL     1       9.517  33.541  32.992  1.00  0.00    -0.337 OA
ATOM     20  C   UNL     1       7.351  33.788  33.951  1.00  0.00     0.180 C 
ATOM     21  C   UNL     1       8.163  33.759  32.666  1.00  0.00     0.179 C 
BRANCH  17  22
ATOM     22  C   UNL     1      10.285  32.687  35.124  1.00  0.00     0.225 C 
BRANCH  22  23
ATOM     23  O   UNL     1      11.003  31.847  34.263  1.00  0.00    -0.391 OA
ATOM     24  H   UNL     1      11.895  31.718  34.681  1.00  0.00     0.210 HD
ENDBRANCH  22  23
ENDBRANCH  17  22
BRANCH  18  25
ATOM     25  O   UNL     1       8.240  35.723  35.105  1.00  0.00    -0.385 OA
ATOM     26  H   UNL     1       8.456  35.950  36.049  1.00  0.00     0.211 HD
ENDBRANCH  18  25
BRANCH  20  27
ATOM     27  O   UNL     1       6.225  34.618  33.817  1.00  0.00    -0.387 OA
ATOM     28  H   UNL     1       6.375  35.164  33.002  1.00  0.00     0.211 HD
ENDBRANCH  20  27
BRANCH  21  29
ATOM     29  C   UNL     1       7.683  32.678  31.691  1.00  0.00     0.191 C 
BRANCH  29  30
ATOM     30  O   UNL     1       8.509  32.640  30.559  1.00  0.00    -0.394 OA
ATOM     31  H   UNL     1       8.402  33.519  30.110  1.00  0.00     0.210 HD
ENDBRANCH  29  30
ENDBRANCH  21  29
ENDBRANCH   1  17
TORSDOF 13
ENDMDL
MODEL 5
REMARK VINA RESULT:    -2.608      1.968      6.200
REMARK INTER + INTRA:          -5.469
REMARK INTER:                  -4.366
REMARK INTRA:                  -1.103
REMARK UNBOUND:                -1.489
REMARK SMILES OC[C@@H]1O[C@@](CO)(O[C@@H]2O[C@H](CO)[C@@H](O)[C@@H](O)[C@@H]2O)[C@@H](O)[C@H]1O
REMARK SMILES IDX 8 1 9 2 11 3 14 4 10 5 16 6 18 7 12 8 13 9 15 11 17 13 19 15
REMARK SMILES IDX 5 17 20 18 4 19 22 20 3 21 6 22 7 23 21 25 23 27 2 29 1 30
REMARK H PARENT 13 10 15 12 17 14 19 16 7 24 21 26 23 28 1 31
REMARK Flexibility Score: inf
ROOT
ATOM      1  O   UNL     1      11.092  35.475  33.741  1.00  0.00    -0.313 OA
ENDROOT
BRANCH   1   2
ATOM      2  C   UNL     1      12.112  35.758  34.693  1.00  0.00     0.285 C 
ATOM      3  C   UNL     1      12.330  38.071  34.119  1.00  0.00     0.178 C 
ATOM      4  C   UNL     1      13.670  37.816  33.374  1.00  0.00     0.177 C 
ATOM      5  O   UNL     1      12.032  37.109  35.125  1.00  0.00    -0.341 OA
ATOM      6  C   UNL     1      13.821  36.351  32.938  1.00  0.00     0.179 C 
ATOM      7  C   UNL     1      13.496  35.420  34.107  1.00  0.00     0.202 C 
BRANCH   3   8
ATOM      8  C   UNL     1      11.124  38.384  33.203  1.00  0.00     0.191 C 
BRANCH   8   9
ATOM      9  O   UNL     1      10.051  38.934  33.917  1.00  0.00    -0.394 OA
ATOM     10  H   UNL     1       9.449  39.351  33.247  1.00  0.00     0.210 HD
ENDBRANCH   8   9
ENDBRANCH   3   8
BRANCH   4  11
ATOM     11  O   UNL     1      14.743  38.158  34.217  1.00  0.00    -0.387 OA
ATOM     12  H   UNL     1      15.566  37.789  33.803  1.00  0.00     0.211 HD
ENDBRANCH   4  11
BRANCH   6  13
ATOM     13  O   UNL     1      15.142  36.120  32.507  1.00  0.00    -0.387 OA
ATOM     14  H   UNL     1      15.742  36.257  33.286  1.00  0.00     0.211 HD
ENDBRANCH   6  13
BRANCH   7  15
ATOM     15  O   UNL     1      13.523  34.088  33.661  1.00  0.00    -0.385 OA
ATOM     16  H   UNL     1      14.399  33.953  33.213  1.00  0.00     0.211 HD
ENDBRANCH   7  15
ENDBRANCH   1   2
BRANCH   1  17
ATOM     17  C   UNL     1      10.186  34.448  34.135  1.00  0.00     0.224 C 
ATOM     18  C   UNL     1       8.955  35.108  34.811  1.00  0.00     0.208 C 
ATOM     19  O   UNL     1       9.732  33.720  33.002  1.00  0.00    -0.337 OA
ATOM     20  C   UNL     1       7.782  34.371  34.204  1.00  0.00     0.180 C 
ATOM     21  C   UNL     1       8.344  33.920  32.865  1.00  0.00     0.179 C 
BRANCH  17  22
ATOM     22  C   UNL     1      10.870  33.473  35.125  1.00  0.00     0.225 C 
BRANCH  22  23
ATOM     23  O   UNL     1      11.206  32.274  34.482  1.00  0.00    -0.391 OA
ATOM     24  H   UNL     1      12.104  32.020  34.820  1.00  0.00     0.210 HD
ENDBRANCH  22  23
ENDBRANCH  17  22
BRANCH  18  25
ATOM     25  O   UNL     1       8.887  36.497  34.561  1.00  0.00    -0.385 OA
ATOM     26  H   UNL     1       9.465  36.701  33.778  1.00  0.00     0.211 HD
ENDBRANCH  18  25
BRANCH  20  27
ATOM     27  O   UNL     1       6.659  35.197  34.026  1.00  0.00    -0.387 OA
ATOM     28  H   UNL     1       6.704  35.535  33.094  1.00  0.00     0.211 HD
ENDBRANCH  20  27
BRANCH  21  29
ATOM     29  C   UNL     1       7.682  32.636  32.351  1.00  0.00     0.191 C 
BRANCH  29  30
ATOM     30  O   UNL     1       6.327  32.862  32.075  1.00  0.00    -0.394 OA
ATOM     31  H   UNL     1       6.292  33.233  31.156  1.00  0.00     0.210 HD
ENDBRANCH  29  30
ENDBRANCH  21  29
ENDBRANCH   1  17
TORSDOF 13
ENDMDL
MODEL 6
REMARK VINA RESULT:    -2.487      2.093      6.559
REMARK INTER + INTRA:          -5.285
REMARK INTER:                  -6.147
REMARK INTRA:                   0.862
REMARK UNBOUND:                -1.489
REMARK SMILES OC[C@@H]1O[C@@](CO)(O[C@@H]2O[C@H](CO)[C@@H](O)[C@@H](O)[C@@H]2O)[C@@H](O)[C@H]1O
REMARK SMILES IDX 8 1 9 2 11 3 14 4 10 5 16 6 18 7 12 8 13 9 15 11 17 13 19 15
REMARK SMILES IDX 5 17 20 18 4 19 22 20 3 21 6 22 7 23 21 25 23 27 2 29 1 30
REMARK H PARENT 13 10 15 12 17 14 19 16 7 24 21 26 23 28 1 31
REMARK Flexibility Score: inf
ROOT
ATOM      1  O   UNL     1      10.749  35.077  34.588  1.00  0.00    -0.313 OA
ENDROOT
BRANCH   1   2
ATOM      2  C   UNL     1      11.325  35.720  33.457  1.00  0.00     0.285 C 
ATOM      3  C   UNL     1      13.502  34.763  33.730  1.00  0.00     0.178 C 
ATOM      4  C   UNL     1      14.082  36.100  34.268  1.00  0.00     0.177 C 
ATOM      5  O   UNL     1      12.357  34.919  32.898  1.00  0.00    -0.341 OA
ATOM      6  C   UNL     1      12.989  37.021  34.831  1.00  0.00     0.179 C 
ATOM      7  C   UNL     1      11.828  37.124  33.840  1.00  0.00     0.202 C 
BRANCH   3   8
ATOM      8  C   UNL     1      13.333  33.651  34.792  1.00  0.00     0.191 C 
BRANCH   8   9
ATOM      9  O   UNL     1      12.377  32.701  34.409  1.00  0.00    -0.394 OA
ATOM     10  H   UNL     1      11.719  32.647  35.151  1.00  0.00     0.210 HD
ENDBRANCH   8   9
ENDBRANCH   3   8
BRANCH   4  11
ATOM     11  O   UNL     1      14.755  36.768  33.229  1.00  0.00    -0.387 OA
ATOM     12  H   UNL     1      14.063  37.087  32.593  1.00  0.00     0.211 HD
ENDBRANCH   4  11
BRANCH   6  13
ATOM     13  O   UNL     1      13.525  38.304  35.062  1.00  0.00    -0.387 OA
ATOM     14  H   UNL     1      12.849  38.970  34.770  1.00  0.00     0.211 HD
ENDBRANCH   6  13
BRANCH   7  15
ATOM     15  O   UNL     1      10.789  37.872  34.420  1.00  0.00    -0.385 OA
ATOM     16  H   UNL     1       9.991  37.751  33.841  1.00  0.00     0.211 HD
ENDBRANCH   7  15
ENDBRANCH   1   2
BRANCH   1  17
ATOM     17  C   UNL     1       9.357  34.797  34.462  1.00  0.00     0.224 C 
ATOM     18  C   UNL     1       9.014  34.667  32.954  1.00  0.00     0.208 C 
ATOM     19  O   UNL     1       9.035  33.567  35.097  1.00  0.00    -0.337 OA
ATOM     20  C   UNL     1       8.130  33.442  32.897  1.00  0.00     0.180 C 
ATOM     21  C   UNL     1       8.589  32.658  34.117  1.00  0.00     0.179 C 
BRANCH  17  22
ATOM     22  C   UNL     1       8.517  35.933  35.098  1.00  0.00     0.225 C 
BRANCH  22  23
ATOM     23  O   UNL     1       8.031  36.799  34.109  1.00  0.00    -0.391 OA
ATOM     24  H   UNL     1       8.825  37.257  33.727  1.00  0.00     0.210 HD
ENDBRANCH  22  23
ENDBRANCH  17  22
BRANCH  18  25
ATOM     25  O   UNL     1      10.168  34.518  32.153  1.00  0.00    -0.385 OA
ATOM     26  H   UNL     1      10.674  35.374  32.174  1.00  0.00     0.211 HD
ENDBRANCH  18  25
BRANCH  20  27
ATOM     27  O   UNL     1       8.315  32.696  31.721  1.00  0.00    -0.387 OA
ATOM     28  H   UNL     1       9.095  33.096  31.255  1.00  0.00     0.211 HD
ENDBRANCH  20  27
BRANCH  21  29
ATOM     29  C   UNL     1       7.482  31.770  34.697  1.00  0.00     0.191 C 
BRANCH  29  30
ATOM     30  O   UNL     1       6.422  31.654  33.787  1.00  0.00    -0.394 OA
ATOM     31  H   UNL     1       6.647  30.888  33.198  1.00  0.00     0.210 HD
ENDBRANCH  29  30
ENDBRANCH  21  29
ENDBRANCH   1  17
TORSDOF 13
ENDMDL
MODEL 7
REMARK VINA RESULT:    -2.400      1.846      5.900
REMARK INTER + INTRA:          -5.151
REMARK INTER:                  -4.175
REMARK INTRA:                  -0.976
REMARK UNBOUND:                -1.489
REMARK SMILES OC[C@@H]1O[C@@](CO)(O[C@@H]2O[C@H](CO)[C@@H](O)[C@@H](O)[C@@H]2O)[C@@H](O)[C@H]1O
REMARK SMILES IDX 8 1 9 2 11 3 14 4 10 5 16 6 18 7 12 8 13 9 15 11 17 13 19 15
REMARK SMILES IDX 5 17 20 18 4 19 22 20 3 21 6 22 7 23 21 25 23 27 2 29 1 30
REMARK H PARENT 13 10 15 12 17 14 19 16 7 24 21 26 23 28 1 31
REMARK Flexibility Score: inf
ROOT
ATOM      1  O   UNL     1      11.485  35.928  33.486  1.00  0.00    -0.313 OA
ENDROOT
BRANCH   1   2
ATOM      2  C   UNL     1      12.393  35.853  34.579  1.00  0.00     0.285 C 
ATOM      3  C   UNL     1      13.321  38.036  34.260  1.00  0.00     0.178 C 
ATOM      4  C   UNL     1      14.632  37.452  33.666  1.00  0.00     0.177 C 
ATOM      5  O   UNL     1      12.626  37.144  35.125  1.00  0.00    -0.341 OA
ATOM      6  C   UNL     1      14.437  36.032  33.115  1.00  0.00     0.179 C 
ATOM      7  C   UNL     1      13.701  35.167  34.141  1.00  0.00     0.202 C 
BRANCH   3   8
ATOM      8  C   UNL     1      12.395  38.732  33.235  1.00  0.00     0.191 C 
BRANCH   8   9
ATOM      9  O   UNL     1      11.178  39.124  33.809  1.00  0.00    -0.394 OA
ATOM     10  H   UNL     1      11.260  40.093  34.012  1.00  0.00     0.210 HD
ENDBRANCH   8   9
ENDBRANCH   3   8
BRANCH   4  11
ATOM     11  O   UNL     1      15.624  37.424  34.664  1.00  0.00    -0.387 OA
ATOM     12  H   UNL     1      16.329  36.798  34.356  1.00  0.00     0.211 HD
ENDBRANCH   4  11
BRANCH   6  13
ATOM     13  O   UNL     1      15.691  35.457  32.831  1.00  0.00    -0.387 OA
ATOM     14  H   UNL     1      15.978  35.783  31.939  1.00  0.00     0.211 HD
ENDBRANCH   6  13
BRANCH   7  15
ATOM     15  O   UNL     1      13.425  33.911  33.576  1.00  0.00    -0.385 OA
ATOM     16  H   UNL     1      13.943  33.855  32.731  1.00  0.00     0.211 HD
ENDBRANCH   7  15
ENDBRANCH   1   2
BRANCH   1  17
ATOM     17  C   UNL     1      10.146  35.557  33.805  1.00  0.00     0.224 C 
ATOM     18  C   UNL     1       9.436  35.106  32.501  1.00  0.00     0.208 C 
ATOM     19  O   UNL     1      10.133  34.466  34.716  1.00  0.00    -0.337 OA
ATOM     20  C   UNL     1       8.702  33.851  32.914  1.00  0.00     0.180 C 
ATOM     21  C   UNL     1       9.543  33.355  34.079  1.00  0.00     0.179 C 
BRANCH  17  22
ATOM     22  C   UNL     1       9.388  36.753  34.432  1.00  0.00     0.225 C 
BRANCH  22  23
ATOM     23  O   UNL     1       8.246  37.061  33.680  1.00  0.00    -0.391 OA
ATOM     24  H   UNL     1       7.688  36.240  33.674  1.00  0.00     0.210 HD
ENDBRANCH  22  23
ENDBRANCH  17  22
BRANCH  18  25
ATOM     25  O   UNL     1      10.348  34.858  31.451  1.00  0.00    -0.385 OA
ATOM     26  H   UNL     1      10.091  35.422  30.675  1.00  0.00     0.211 HD
ENDBRANCH  18  25
BRANCH  20  27
ATOM     27  O   UNL     1       8.648  32.893  31.888  1.00  0.00    -0.387 OA
ATOM     28  H   UNL     1       8.643  33.397  31.033  1.00  0.00     0.211 HD
ENDBRANCH  20  27
BRANCH  21  29
ATOM     29  C   UNL     1       8.727  32.548  35.094  1.00  0.00     0.191 C 
BRANCH  29  30
ATOM     30  O   UNL     1       7.625  31.949  34.469  1.00  0.00    -0.394 OA
ATOM     31  H   UNL     1       6.844  32.525  34.678  1.00  0.00     0.210 HD
ENDBRANCH  29  30
ENDBRANCH  21  29
ENDBRANCH   1  17
TORSDOF 13
ENDMDL
