MODEL 1
REMARK VINA RESULT:     0.806      0.000      0.000
REMARK INTER + INTRA:           1.863
REMARK INTER:                   0.971
REMARK INTRA:                   0.892
REMARK UNBOUND:                 0.892
REMARK SMILES NC(=O)C[C@@H]([NH3+])C(=O)[O-]
REMARK SMILES IDX 4 1 5 2 6 3 7 7 8 8 9 9 2 10 3 11 1 12
REMARK H PARENT 6 4 6 5 6 6 1 13 1 14
REMARK Flexibility Score: inf
ROOT
ATOM      1  C   UNL     1       1.657  -0.333  -7.343  1.00  0.00     0.171 C 
ENDROOT
BRANCH   1   2
ATOM      2  C   UNL     1       1.863   0.136  -8.797  1.00  0.00     0.237 C 
BRANCH   2   3
ATOM      3  N   UNL     1       3.261   0.513  -9.049  1.00  0.00    -0.350 N 
ATOM      4  H   UNL     1       3.900  -0.054  -8.446  1.00  0.00     0.345 HD
ATOM      5  H   UNL     1       3.406   1.521  -8.810  1.00  0.00     0.345 HD
ATOM      6  H   UNL     1       3.511   0.360 -10.053  1.00  0.00     0.345 HD
ENDBRANCH   2   3
BRANCH   2   7
ATOM      7  C   UNL     1       1.435  -0.948  -9.749  1.00  0.00     0.100 C 
ATOM      8  O   UNL     1       0.330  -1.534  -9.595  1.00  0.00    -0.544 OA
ATOM      9  O   UNL     1       2.252  -1.297 -10.816  1.00  0.00    -0.544 OA
ENDBRANCH   2   7
ENDBRANCH   1   2
BRANCH   1  10
ATOM     10  C   UNL     1       2.840  -0.003  -6.480  1.00  0.00     0.223 C 
ATOM     11  O   UNL     1       2.676   0.652  -5.416  1.00  0.00    -0.275 OA
ATOM     12  N   UNL     1       4.156  -0.397  -6.872  1.00  0.00    -0.369 N 
ATOM     13  H   UNL     1       4.977  -0.156  -6.274  1.00  0.00     0.159 HD
ATOM     14  H   UNL     1       4.314  -0.919  -7.761  1.00  0.00     0.159 HD
ENDBRANCH   1  10
TORSDOF 4
ENDMDL
MODEL 2
REMARK VINA RESULT:     0.887      1.708      4.180
REMARK INTER + INTRA:           1.961
REMARK INTER:                   2.163
REMARK INTRA:                  -0.202
REMARK UNBOUND:                 0.892
REMARK SMILES NC(=O)C[C@@H]([NH3+])C(=O)[O-]
REMARK SMILES IDX 4 1 5 2 6 3 7 7 8 8 9 9 2 10 3 11 1 12
REMARK H PARENT 6 4 6 5 6 6 1 13 1 14
REMARK Flexibility Score: inf
ROOT
ATOM      1  C   UNL     1       1.651   0.049  -7.178  1.00  0.00     0.171 C 
ENDROOT
BRANCH   1   2
ATOM      2  C   UNL     1       2.878  -0.346  -6.333  1.00  0.00     0.237 C 
BRANCH   2   3
ATOM      3  N   UNL     1       4.112  -0.321  -7.130  1.00  0.00    -0.350 N 
ATOM      4  H   UNL     1       4.918  -0.663  -6.557  1.00  0.00     0.345 HD
ATOM      5  H   UNL     1       4.324   0.660  -7.426  1.00  0.00     0.345 HD
ATOM      6  H   UNL     1       4.017  -0.922  -7.981  1.00  0.00     0.345 HD
ENDBRANCH   2   3
BRANCH   2   7
ATOM      7  C   UNL     1       3.002   0.576  -5.149  1.00  0.00     0.100 C 
ATOM      8  O   UNL     1       2.174   1.510  -4.979  1.00  0.00    -0.544 OA
ATOM      9  O   UNL     1       4.024   0.388  -4.228  1.00  0.00    -0.544 OA
ENDBRANCH   2   7
ENDBRANCH   1   2
BRANCH   1  10
ATOM     10  C   UNL     1       1.915  -0.106  -8.648  1.00  0.00     0.223 C 
ATOM     11  O   UNL     1       2.677   0.706  -9.236  1.00  0.00    -0.275 OA
ATOM     12  N   UNL     1       1.283  -1.148  -9.392  1.00  0.00    -0.369 N 
ATOM     13  H   UNL     1       1.461  -1.246 -10.416  1.00  0.00     0.159 HD
ATOM     14  H   UNL     1       0.630  -1.816  -8.926  1.00  0.00     0.159 HD
ENDBRANCH   1  10
TORSDOF 4
ENDMDL
MODEL 3
REMARK VINA RESULT:     1.188      1.898      4.056
REMARK INTER + INTRA:           2.323
REMARK INTER:                   2.469
REMARK INTRA:                  -0.146
REMARK UNBOUND:                 0.892
REMARK SMILES NC(=O)C[C@@H]([NH3+])C(=O)[O-]
REMARK SMILES IDX 4 1 5 2 6 3 7 7 8 8 9 9 2 10 3 11 1 12
REMARK H PARENT 6 4 6 5 6 6 1 13 1 14
REMARK Flexibility Score: inf
ROOT
ATOM      1  C   UNL     1       0.999  -0.378  -9.350  1.00  0.00     0.171 C 
ENDROOT
BRANCH   1   2
ATOM      2  C   UNL     1       2.261  -0.390  -8.465  1.00  0.00     0.237 C 
BRANCH   2   3
ATOM      3  N   UNL     1       3.306   0.491  -9.004  1.00  0.00    -0.350 N 
ATOM      4  H   UNL     1       2.874   1.254  -9.574  1.00  0.00     0.345 HD
ATOM      5  H   UNL     1       3.943  -0.054  -9.630  1.00  0.00     0.345 HD
ATOM      6  H   UNL     1       3.868   0.917  -8.230  1.00  0.00     0.345 HD
ENDBRANCH   2   3
BRANCH   2   7
ATOM      7  C   UNL     1       1.905   0.021  -7.061  1.00  0.00     0.100 C 
ATOM      8  O   UNL     1       2.680  -0.242  -6.103  1.00  0.00    -0.544 OA
ATOM      9  O   UNL     1       0.723   0.709  -6.819  1.00  0.00    -0.544 OA
ENDBRANCH   2   7
ENDBRANCH   1   2
BRANCH   1  10
ATOM     10  C   UNL     1       0.911  -1.606 -10.209  1.00  0.00     0.223 C 
ATOM     11  O   UNL     1       1.893  -1.939 -10.926  1.00  0.00    -0.275 OA
ATOM     12  N   UNL     1      -0.288  -2.380 -10.248  1.00  0.00    -0.369 N 
ATOM     13  H   UNL     1      -0.348  -3.227 -10.855  1.00  0.00     0.159 HD
ATOM     14  H   UNL     1      -1.119  -2.106  -9.679  1.00  0.00     0.159 HD
ENDBRANCH   1  10
TORSDOF 4
ENDMDL
MODEL 4
REMARK VINA RESULT:     1.450      5.621      6.932
REMARK INTER + INTRA:           2.639
REMARK INTER:                   2.831
REMARK INTRA:                  -0.192
REMARK UNBOUND:                 0.892
REMARK SMILES NC(=O)C[C@@H]([NH3+])C(=O)[O-]
REMARK SMILES IDX 4 1 5 2 6 3 7 7 8 8 9 9 2 10 3 11 1 12
REMARK H PARENT 6 4 6 5 6 6 1 13 1 14
REMARK Flexibility Score: inf
ROOT
ATOM      1  C   UNL     1      -1.662  -4.307 -10.519  1.00  0.00     0.171 C 
ENDROOT
BRANCH   1   2
ATOM      2  C   UNL     1      -2.083  -4.991 -11.835  1.00  0.00     0.237 C 
BRANCH   2   3
ATOM      3  N   UNL     1      -1.439  -4.365 -12.997  1.00  0.00    -0.350 N 
ATOM      4  H   UNL     1      -1.730  -4.852 -13.876  1.00  0.00     0.345 HD
ATOM      5  H   UNL     1      -0.399  -4.447 -12.915  1.00  0.00     0.345 HD
ATOM      6  H   UNL     1      -1.698  -3.353 -13.064  1.00  0.00     0.345 HD
ENDBRANCH   2   3
BRANCH   2   7
ATOM      7  C   UNL     1      -1.746  -6.457 -11.778  1.00  0.00     0.100 C 
ATOM      8  O   UNL     1      -1.390  -7.071 -12.820  1.00  0.00    -0.544 OA
ATOM      9  O   UNL     1      -1.809  -7.138 -10.570  1.00  0.00    -0.544 OA
ENDBRANCH   2   7
ENDBRANCH   1   2
BRANCH   1  10
ATOM     10  C   UNL     1      -1.344  -2.854 -10.725  1.00  0.00     0.223 C 
ATOM     11  O   UNL     1      -2.074  -2.154 -11.476  1.00  0.00    -0.275 OA
ATOM     12  N   UNL     1      -0.200  -2.267 -10.103  1.00  0.00    -0.369 N 
ATOM     13  H   UNL     1       0.024  -1.259 -10.258  1.00  0.00     0.159 HD
ATOM     14  H   UNL     1       0.429  -2.837  -9.497  1.00  0.00     0.159 HD
ENDBRANCH   1  10
TORSDOF 4
ENDMDL
MODEL 5
REMARK VINA RESULT:     1.972      1.555      1.714
REMARK INTER + INTRA:           3.268
REMARK INTER:                   3.573
REMARK INTRA:                  -0.306
REMARK UNBOUND:                 0.892
REMARK SMILES NC(=O)C[C@@H]([NH3+])C(=O)[O-]
REMARK SMILES IDX 4 1 5 2 6 3 7 7 8 8 9 9 2 10 3 11 1 12
REMARK H PARENT 6 4 6 5 6 6 1 13 1 14
REMARK Flexibility Score: inf
ROOT
ATOM      1  C   UNL     1       2.155  -0.893  -6.311  1.00  0.00     0.171 C 
ENDROOT
BRANCH   1   2
ATOM      2  C   UNL     1       1.185  -0.139  -7.243  1.00  0.00     0.237 C 
BRANCH   2   3
ATOM      3  N   UNL     1       1.012   1.259  -6.824  1.00  0.00    -0.350 N 
ATOM      4  H   UNL     1       1.585   1.451  -5.970  1.00  0.00     0.345 HD
ATOM      5  H   UNL     1       0.009   1.436  -6.583  1.00  0.00     0.345 HD
ATOM      6  H   UNL     1       1.302   1.914  -7.587  1.00  0.00     0.345 HD
ENDBRANCH   2   3
BRANCH   2   7
ATOM      7  C   UNL     1       1.687  -0.201  -8.661  1.00  0.00     0.100 C 
ATOM      8  O   UNL     1       1.192  -1.022  -9.478  1.00  0.00    -0.544 OA
ATOM      9  O   UNL     1       2.691   0.663  -9.079  1.00  0.00    -0.544 OA
ENDBRANCH   2   7
ENDBRANCH   1   2
BRANCH   1  10
ATOM     10  C   UNL     1       3.403  -0.101  -6.050  1.00  0.00     0.223 C 
ATOM     11  O   UNL     1       3.449   0.690  -5.070  1.00  0.00    -0.275 OA
ATOM     12  N   UNL     1       4.527  -0.211  -6.924  1.00  0.00    -0.369 N 
ATOM     13  H   UNL     1       5.389   0.350  -6.746  1.00  0.00     0.159 HD
ATOM     14  H   UNL     1       4.498  -0.842  -7.754  1.00  0.00     0.159 HD
ENDBRANCH   1  10
TORSDOF 4
ENDMDL
MODEL 6
REMARK VINA RESULT:     2.426      1.600      4.005
REMARK INTER + INTRA:           3.815
REMARK INTER:                   3.943
REMARK INTRA:                  -0.128
REMARK UNBOUND:                 0.892
REMARK SMILES NC(=O)C[C@@H]([NH3+])C(=O)[O-]
REMARK SMILES IDX 4 1 5 2 6 3 7 7 8 8 9 9 2 10 3 11 1 12
REMARK H PARENT 6 4 6 5 6 6 1 13 1 14
REMARK Flexibility Score: inf
ROOT
ATOM      1  C   UNL     1       1.330  -0.423  -7.878  1.00  0.00     0.171 C 
ENDROOT
BRANCH   1   2
ATOM      2  C   UNL     1       1.829   0.696  -6.943  1.00  0.00     0.237 C 
BRANCH   2   3
ATOM      3  N   UNL     1       0.741   1.225  -6.107  1.00  0.00    -0.350 N 
ATOM      4  H   UNL     1       0.182   1.925  -6.647  1.00  0.00     0.345 HD
ATOM      5  H   UNL     1       1.140   1.710  -5.271  1.00  0.00     0.345 HD
ATOM      6  H   UNL     1       0.110   0.454  -5.787  1.00  0.00     0.345 HD
ENDBRANCH   2   3
BRANCH   2   7
ATOM      7  C   UNL     1       2.947   0.178  -6.078  1.00  0.00     0.100 C 
ATOM      8  O   UNL     1       3.893  -0.481  -6.585  1.00  0.00    -0.544 OA
ATOM      9  O   UNL     1       2.947   0.441  -4.714  1.00  0.00    -0.544 OA
ENDBRANCH   2   7
ENDBRANCH   1   2
BRANCH   1  10
ATOM     10  C   UNL     1       1.974  -0.344  -9.232  1.00  0.00     0.223 C 
ATOM     11  O   UNL     1       1.572  -1.093 -10.162  1.00  0.00    -0.275 OA
ATOM     12  N   UNL     1       3.064   0.550  -9.465  1.00  0.00    -0.369 N 
ATOM     13  H   UNL     1       3.517   0.594 -10.405  1.00  0.00     0.159 HD
ATOM     14  H   UNL     1       3.426   1.160  -8.700  1.00  0.00     0.159 HD
ENDBRANCH   1  10
TORSDOF 4
ENDMDL
MODEL 7
REMARK VINA RESULT:     2.816      3.152      4.755
REMARK INTER + INTRA:           4.284
REMARK INTER:                   4.520
REMARK INTRA:                  -0.235
REMARK UNBOUND:                 0.892
REMARK SMILES NC(=O)C[C@@H]([NH3+])C(=O)[O-]
REMARK SMILES IDX 4 1 5 2 6 3 7 7 8 8 9 9 2 10 3 11 1 12
REMARK H PARENT 6 4 6 5 6 6 1 13 1 14
REMARK Flexibility Score: inf
ROOT
ATOM      1  C   UNL     1      -0.414  -1.674 -10.191  1.00  0.00     0.171 C 
ENDROOT
BRANCH   1   2
ATOM      2  C   UNL     1       1.076  -1.726  -9.797  1.00  0.00     0.237 C 
BRANCH   2   3
ATOM      3  N   UNL     1       1.938  -1.914 -10.971  1.00  0.00    -0.350 N 
ATOM      4  H   UNL     1       2.732  -1.235 -10.947  1.00  0.00     0.345 HD
ATOM      5  H   UNL     1       1.391  -1.737 -11.846  1.00  0.00     0.345 HD
ATOM      6  H   UNL     1       2.321  -2.888 -10.999  1.00  0.00     0.345 HD
ENDBRANCH   2   3
BRANCH   2   7
ATOM      7  C   UNL     1       1.456  -0.465  -9.067  1.00  0.00     0.100 C 
ATOM      8  O   UNL     1       0.937  -0.193  -7.951  1.00  0.00    -0.544 OA
ATOM      9  O   UNL     1       2.396   0.396  -9.615  1.00  0.00    -0.544 OA
ENDBRANCH   2   7
ENDBRANCH   1   2
BRANCH   1  10
ATOM     10  C   UNL     1      -0.919  -3.016 -10.635  1.00  0.00     0.223 C 
ATOM     11  O   UNL     1      -0.794  -3.365 -11.840  1.00  0.00    -0.275 OA
ATOM     12  N   UNL     1      -1.570  -3.888  -9.711  1.00  0.00    -0.369 N 
ATOM     13  H   UNL     1      -1.929  -4.816 -10.025  1.00  0.00     0.159 HD
ATOM     14  H   UNL     1      -1.703  -3.606  -8.715  1.00  0.00     0.159 HD
ENDBRANCH   1  10
TORSDOF 4
ENDMDL
MODEL 8
REMARK VINA RESULT:     2.947      6.506      7.816
REMARK INTER + INTRA:           4.442
REMARK INTER:                   3.673
REMARK INTRA:                   0.770
REMARK UNBOUND:                 0.892
REMARK SMILES NC(=O)C[C@@H]([NH3+])C(=O)[O-]
REMARK SMILES IDX 4 1 5 2 6 3 7 7 8 8 9 9 2 10 3 11 1 12
REMARK H PARENT 6 4 6 5 6 6 1 13 1 14
REMARK Flexibility Score: inf
ROOT
ATOM      1  C   UNL     1      -1.600  -4.288 -13.137  1.00  0.00     0.171 C 
ENDROOT
BRANCH   1   2
ATOM      2  C   UNL     1      -2.200  -4.860 -11.838  1.00  0.00     0.237 C 
BRANCH   2   3
ATOM      3  N   UNL     1      -1.980  -6.309 -11.735  1.00  0.00    -0.350 N 
ATOM      4  H   UNL     1      -0.999  -6.503 -11.429  1.00  0.00     0.345 HD
ATOM      5  H   UNL     1      -2.118  -6.757 -12.671  1.00  0.00     0.345 HD
ATOM      6  H   UNL     1      -2.645  -6.738 -11.049  1.00  0.00     0.345 HD
ENDBRANCH   2   3
BRANCH   2   7
ATOM      7  C   UNL     1      -1.605  -4.156 -10.647  1.00  0.00     0.100 C 
ATOM      8  O   UNL     1      -1.485  -4.756  -9.546  1.00  0.00    -0.544 OA
ATOM      9  O   UNL     1      -1.170  -2.843 -10.764  1.00  0.00    -0.544 OA
ENDBRANCH   2   7
ENDBRANCH   1   2
BRANCH   1  10
ATOM     10  C   UNL     1      -0.588  -5.220 -13.739  1.00  0.00     0.223 C 
ATOM     11  O   UNL     1      -0.577  -6.434 -13.402  1.00  0.00    -0.275 OA
ATOM     12  N   UNL     1       0.385  -4.734 -14.664  1.00  0.00    -0.369 N 
ATOM     13  H   UNL     1       1.094  -5.382 -15.072  1.00  0.00     0.159 HD
ATOM     14  H   UNL     1       0.407  -3.726 -14.936  1.00  0.00     0.159 HD
ENDBRANCH   1  10
TORSDOF 4
ENDMDL
MODEL 9
REMARK VINA RESULT:     3.053      1.750      2.040
REMARK INTER + INTRA:           4.570
REMARK INTER:                   4.830
REMARK INTRA:                  -0.260
REMARK UNBOUND:                 0.892
REMARK SMILES NC(=O)C[C@@H]([NH3+])C(=O)[O-]
REMARK SMILES IDX 4 1 5 2 6 3 7 7 8 8 9 9 2 10 3 11 1 12
REMARK H PARENT 6 4 6 5 6 6 1 13 1 14
REMARK Flexibility Score: inf
ROOT
ATOM      1  C   UNL     1       2.984  -0.295  -6.773  1.00  0.00     0.171 C 
ENDROOT
BRANCH   1   2
ATOM      2  C   UNL     1       1.649  -0.264  -7.543  1.00  0.00     0.237 C 
BRANCH   2   3
ATOM      3  N   UNL     1       0.808   0.864  -7.117  1.00  0.00    -0.350 N 
ATOM      4  H   UNL     1       1.373   1.744  -7.091  1.00  0.00     0.345 HD
ATOM      5  H   UNL     1       0.442   0.690  -6.153  1.00  0.00     0.345 HD
ATOM      6  H   UNL     1       0.001   0.993  -7.772  1.00  0.00     0.345 HD
ENDBRANCH   2   3
BRANCH   2   7
ATOM      7  C   UNL     1       1.914  -0.188  -9.023  1.00  0.00     0.100 C 
ATOM      8  O   UNL     1       2.678   0.699  -9.490  1.00  0.00    -0.544 OA
ATOM      9  O   UNL     1       1.329  -1.110  -9.880  1.00  0.00    -0.544 OA
ENDBRANCH   2   7
ENDBRANCH   1   2
BRANCH   1  10
ATOM     10  C   UNL     1       2.809   0.116  -5.340  1.00  0.00     0.223 C 
ATOM     11  O   UNL     1       1.791  -0.261  -4.701  1.00  0.00    -0.275 OA
ATOM     12  N   UNL     1       3.771   0.959  -4.705  1.00  0.00    -0.369 N 
ATOM     13  H   UNL     1       3.640   1.252  -3.711  1.00  0.00     0.159 HD
ATOM     14  H   UNL     1       4.608   1.301  -5.226  1.00  0.00     0.159 HD
ENDBRANCH   1  10
TORSDOF 4
ENDMDL
