MODEL 1
REMARK VINA RESULT:    -5.295      0.000      0.000
REMARK INTER + INTRA:          -8.768
REMARK INTER:                  -8.236
REMARK INTRA:                  -0.531
REMARK UNBOUND:                -0.531
REMARK SMILES C[C@]12C[C@@H](O)[C@@H]3C[C@@]1(O[C@@H]1O[C@@H](CO)[C@@H](O)[C@@H](O)[C@H]1O)[C@]3(COC(=O)c1ccccc1)C(=O)O2
REMARK SMILES IDX 1 1 2 2 3 3 4 4 6 5 7 6 8 7 21 8 32 9 33 10 34 11 9 12 10 13
REMARK SMILES IDX 19 14 11 15 17 16 12 17 15 18 20 19 18 21 13 23 14 24 16 26
REMARK SMILES IDX 5 28 22 30 23 31 24 32 25 33 26 34 27 35 31 36 28 37 30 38
REMARK SMILES IDX 29 39
REMARK H PARENT 20 20 18 22 14 25 16 27 5 29
REMARK Flexibility Score: inf
ROOT
ATOM      1  C   UNL     1      44.288 -44.329  30.732  1.00  0.00     0.060 C 
ATOM      2  C   UNL     1      43.999 -43.114  31.614  1.00  0.00     0.142 C 
ATOM      3  C   UNL     1      44.675 -43.243  33.025  1.00  0.00     0.083 C 
ATOM      4  C   UNL     1      44.088 -42.192  34.047  1.00  0.00     0.123 C 
ATOM      5  C   UNL     1      42.638 -41.763  33.636  1.00  0.00     0.045 C 
ATOM      6  C   UNL     1      41.913 -43.046  33.208  1.00  0.00     0.049 C 
ATOM      7  C   UNL     1      42.461 -42.767  31.793  1.00  0.00     0.131 C 
ATOM      8  C   UNL     1      42.571 -41.277  32.155  1.00  0.00     0.140 C 
ATOM      9  C   UNL     1      43.821 -40.856  31.455  1.00  0.00     0.319 C 
ATOM     10  O   UNL     1      44.204 -39.668  31.297  1.00  0.00    -0.251 OA
ATOM     11  O   UNL     1      44.549 -41.943  31.032  1.00  0.00    -0.456 OA
ENDROOT
BRANCH   7  12
ATOM     12  O   UNL     1      41.615 -42.989  30.673  1.00  0.00    -0.338 OA
BRANCH  12  13
ATOM     13  C   UNL     1      40.514 -43.840  30.965  1.00  0.00     0.282 C 
ATOM     14  C   UNL     1      39.327 -43.501  30.034  1.00  0.00     0.202 C 
ATOM     15  O   UNL     1      40.888 -45.204  30.831  1.00  0.00    -0.341 OA
ATOM     16  C   UNL     1      39.664 -43.877  28.578  1.00  0.00     0.179 C 
ATOM     17  C   UNL     1      41.334 -45.503  29.516  1.00  0.00     0.178 C 
ATOM     18  C   UNL     1      40.189 -45.318  28.493  1.00  0.00     0.177 C 
BRANCH  14  19
ATOM     19  O   UNL     1      38.176 -44.194  30.452  1.00  0.00    -0.385 OA
ATOM     20  H   UNL     1      37.827 -43.715  31.250  1.00  0.00     0.211 HD
ENDBRANCH  14  19
BRANCH  16  21
ATOM     21  O   UNL     1      38.533 -43.735  27.757  1.00  0.00    -0.387 OA
ATOM     22  H   UNL     1      38.584 -44.454  27.073  1.00  0.00     0.211 HD
ENDBRANCH  16  21
BRANCH  17  23
ATOM     23  C   UNL     1      41.876 -46.939  29.486  1.00  0.00     0.191 C 
BRANCH  23  24
ATOM     24  O   UNL     1      41.764 -47.477  28.197  1.00  0.00    -0.394 OA
ATOM     25  H   UNL     1      42.098 -48.411  28.246  1.00  0.00     0.210 HD
ENDBRANCH  23  24
ENDBRANCH  17  23
BRANCH  18  26
ATOM     26  O   UNL     1      39.142 -46.220  28.758  1.00  0.00    -0.387 OA
ATOM     27  H   UNL     1      39.456 -47.122  28.487  1.00  0.00     0.211 HD
ENDBRANCH  18  26
ENDBRANCH  12  13
ENDBRANCH   7  12
BRANCH   4  28
ATOM     28  O   UNL     1      44.909 -41.056  34.124  1.00  0.00    -0.393 OA
ATOM     29  H   UNL     1      45.781 -41.358  34.489  1.00  0.00     0.210 HD
ENDBRANCH   4  28
BRANCH   8  30
ATOM     30  C   UNL     1      41.327 -40.422  31.813  1.00  0.00     0.255 C 
BRANCH  30  31
ATOM     31  O   UNL     1      41.259 -39.285  32.672  1.00  0.00    -0.461 OA
BRANCH  31  32
ATOM     32  C   UNL     1      41.303 -37.957  32.229  1.00  0.00     0.338 C 
ATOM     33  O   UNL     1      41.550 -37.023  33.042  1.00  0.00    -0.246 OA
BRANCH  32  34
ATOM     34  C   UNL     1      41.068 -37.654  30.800  1.00  0.00     0.060 A 
ATOM     35  C   UNL     1      39.777 -37.749  30.248  1.00  0.00     0.015 A 
ATOM     36  C   UNL     1      42.139 -37.273  29.970  1.00  0.00     0.015 A 
ATOM     37  C   UNL     1      39.563 -37.464  28.895  1.00  0.00     0.001 A 
ATOM     38  C   UNL     1      41.921 -36.988  28.619  1.00  0.00     0.001 A 
ATOM     39  C   UNL     1      40.634 -37.082  28.082  1.00  0.00     0.000 A 
ENDBRANCH  32  34
ENDBRANCH  31  32
ENDBRANCH  30  31
ENDBRANCH   8  30
TORSDOF 12
ENDMDL
MODEL 2
REMARK VINA RESULT:    -5.008      2.404      5.570
REMARK INTER + INTRA:          -8.320
REMARK INTER:                  -7.651
REMARK INTRA:                  -0.670
REMARK UNBOUND:                -0.531
REMARK SMILES C[C@]12C[C@@H](O)[C@@H]3C[C@@]1(O[C@@H]1O[C@@H](CO)[C@@H](O)[C@@H](O)[C@H]1O)[C@]3(COC(=O)c1ccccc1)C(=O)O2
REMARK SMILES IDX 1 1 2 2 3 3 4 4 6 5 7 6 8 7 21 8 32 9 33 10 34 11 9 12 10 13
REMARK SMILES IDX 19 14 11 15 17 16 12 17 15 18 20 19 18 21 13 23 14 24 16 26
REMARK SMILES IDX 5 28 22 30 23 31 24 32 25 33 26 34 27 35 31 36 28 37 30 38
REMARK SMILES IDX 29 39
REMARK H PARENT 20 20 18 22 14 25 16 27 5 29
REMARK Flexibility Score: inf
ROOT
ATOM      1  C   UNL     1      39.234 -43.281  28.056  1.00  0.00     0.060 C 
ATOM      2  C   UNL     1      40.219 -44.089  28.903  1.00  0.00     0.142 C 
ATOM      3  C   UNL     1      40.098 -45.629  28.626  1.00  0.00     0.083 C 
ATOM      4  C   UNL     1      40.832 -46.476  29.739  1.00  0.00     0.123 C 
ATOM      5  C   UNL     1      40.919 -45.676  31.083  1.00  0.00     0.045 C 
ATOM      6  C   UNL     1      39.554 -45.002  31.274  1.00  0.00     0.049 C 
ATOM      7  C   UNL     1      40.133 -43.822  30.464  1.00  0.00     0.131 C 
ATOM      8  C   UNL     1      41.546 -44.262  30.881  1.00  0.00     0.140 C 
ATOM      9  C   UNL     1      42.356 -43.977  29.659  1.00  0.00     0.319 C 
ATOM     10  O   UNL     1      43.613 -43.988  29.597  1.00  0.00    -0.251 OA
ATOM     11  O   UNL     1      41.552 -43.743  28.568  1.00  0.00    -0.456 OA
ENDROOT
BRANCH   7  12
ATOM     12  O   UNL     1      39.838 -42.495  30.877  1.00  0.00    -0.338 OA
BRANCH  12  13
ATOM     13  C   UNL     1      38.511 -42.345  31.366  1.00  0.00     0.282 C 
ATOM     14  C   UNL     1      38.539 -41.705  32.773  1.00  0.00     0.202 C 
ATOM     15  O   UNL     1      37.735 -41.561  30.470  1.00  0.00    -0.341 OA
ATOM     16  C   UNL     1      39.032 -40.247  32.689  1.00  0.00     0.179 C 
ATOM     17  C   UNL     1      38.284 -40.264  30.291  1.00  0.00     0.178 C 
ATOM     18  C   UNL     1      38.256 -39.469  31.616  1.00  0.00     0.177 C 
BRANCH  14  19
ATOM     19  O   UNL     1      37.253 -41.742  33.343  1.00  0.00    -0.385 OA
ATOM     20  H   UNL     1      36.715 -41.046  32.882  1.00  0.00     0.211 HD
ENDBRANCH  14  19
BRANCH  16  21
ATOM     21  O   UNL     1      38.896 -39.607  33.932  1.00  0.00    -0.387 OA
ATOM     22  H   UNL     1      38.673 -38.658  33.741  1.00  0.00     0.211 HD
ENDBRANCH  16  21
BRANCH  17  23
ATOM     23  C   UNL     1      37.497 -39.536  29.191  1.00  0.00     0.191 C 
BRANCH  23  24
ATOM     24  O   UNL     1      38.001 -39.870  27.927  1.00  0.00    -0.394 OA
ATOM     25  H   UNL     1      38.627 -39.144  27.667  1.00  0.00     0.210 HD
ENDBRANCH  23  24
ENDBRANCH  17  23
BRANCH  18  26
ATOM     26  O   UNL     1      36.930 -39.269  32.043  1.00  0.00    -0.387 OA
ATOM     27  H   UNL     1      36.338 -39.698  31.371  1.00  0.00     0.211 HD
ENDBRANCH  18  26
ENDBRANCH  12  13
ENDBRANCH   7  12
BRANCH   4  28
ATOM     28  O   UNL     1      42.123 -46.838  29.324  1.00  0.00    -0.393 OA
ATOM     29  H   UNL     1      42.076 -47.788  29.040  1.00  0.00     0.210 HD
ENDBRANCH   4  28
BRANCH   8  30
ATOM     30  C   UNL     1      42.087 -43.605  32.174  1.00  0.00     0.255 C 
BRANCH  30  31
ATOM     31  O   UNL     1      43.509 -43.711  32.223  1.00  0.00    -0.461 OA
BRANCH  31  32
ATOM     32  C   UNL     1      44.349 -42.782  32.849  1.00  0.00     0.338 C 
ATOM     33  O   UNL     1      45.110 -43.143  33.789  1.00  0.00    -0.246 OA
BRANCH  32  34
ATOM     34  C   UNL     1      44.347 -41.373  32.396  1.00  0.00     0.060 A 
ATOM     35  C   UNL     1      43.971 -40.337  33.272  1.00  0.00     0.015 A 
ATOM     36  C   UNL     1      44.718 -41.051  31.078  1.00  0.00     0.015 A 
ATOM     37  C   UNL     1      43.969 -39.008  32.836  1.00  0.00     0.001 A 
ATOM     38  C   UNL     1      44.715 -39.721  30.646  1.00  0.00     0.001 A 
ATOM     39  C   UNL     1      44.342 -38.700  31.525  1.00  0.00     0.000 A 
ENDBRANCH  32  34
ENDBRANCH  31  32
ENDBRANCH  30  31
ENDBRANCH   8  30
TORSDOF 12
ENDMDL
MODEL 3
REMARK VINA RESULT:    -4.720      2.558      5.233
REMARK INTER + INTRA:          -7.872
REMARK INTER:                  -6.956
REMARK INTRA:                  -0.916
REMARK UNBOUND:                -0.531
REMARK SMILES C[C@]12C[C@@H](O)[C@@H]3C[C@@]1(O[C@@H]1O[C@@H](CO)[C@@H](O)[C@@H](O)[C@H]1O)[C@]3(COC(=O)c1ccccc1)C(=O)O2
REMARK SMILES IDX 1 1 2 2 3 3 4 4 6 5 7 6 8 7 21 8 32 9 33 10 34 11 9 12 10 13
REMARK SMILES IDX 19 14 11 15 17 16 12 17 15 18 20 19 18 21 13 23 14 24 16 26
REMARK SMILES IDX 5 28 22 30 23 31 24 32 25 33 26 34 27 35 31 36 28 37 30 38
REMARK SMILES IDX 29 39
REMARK H PARENT 20 20 18 22 14 25 16 27 5 29
REMARK Flexibility Score: inf
ROOT
ATOM      1  C   UNL     1      42.218 -40.672  32.652  1.00  0.00     0.060 C 
ATOM      2  C   UNL     1      40.705 -40.456  32.584  1.00  0.00     0.142 C 
ATOM      3  C   UNL     1      40.141 -39.857  33.920  1.00  0.00     0.083 C 
ATOM      4  C   UNL     1      38.568 -39.977  33.990  1.00  0.00     0.123 C 
ATOM      5  C   UNL     1      38.058 -41.159  33.097  1.00  0.00     0.045 C 
ATOM      6  C   UNL     1      39.023 -42.328  33.336  1.00  0.00     0.049 C 
ATOM      7  C   UNL     1      39.865 -41.741  32.184  1.00  0.00     0.131 C 
ATOM      8  C   UNL     1      38.598 -41.062  31.637  1.00  0.00     0.140 C 
ATOM      9  C   UNL     1      39.115 -39.759  31.122  1.00  0.00     0.319 C 
ATOM     10  O   UNL     1      38.473 -38.953  30.400  1.00  0.00    -0.251 OA
ATOM     11  O   UNL     1      40.389 -39.511  31.576  1.00  0.00    -0.456 OA
ENDROOT
BRANCH   7  12
ATOM     12  O   UNL     1      40.451 -42.627  31.240  1.00  0.00    -0.338 OA
BRANCH  12  13
ATOM     13  C   UNL     1      40.847 -43.868  31.812  1.00  0.00     0.282 C 
ATOM     14  C   UNL     1      40.100 -45.030  31.118  1.00  0.00     0.202 C 
ATOM     15  O   UNL     1      42.254 -44.038  31.708  1.00  0.00    -0.341 OA
ATOM     16  C   UNL     1      40.567 -45.169  29.656  1.00  0.00     0.179 C 
ATOM     17  C   UNL     1      42.690 -44.021  30.356  1.00  0.00     0.178 C 
ATOM     18  C   UNL     1      42.101 -45.218  29.575  1.00  0.00     0.177 C 
BRANCH  14  19
ATOM     19  O   UNL     1      40.331 -46.231  31.811  1.00  0.00    -0.385 OA
ATOM     20  H   UNL     1      39.455 -46.693  31.886  1.00  0.00     0.211 HD
ENDBRANCH  14  19
BRANCH  16  21
ATOM     21  O   UNL     1      40.024 -46.325  29.072  1.00  0.00    -0.387 OA
ATOM     22  H   UNL     1      39.098 -46.413  29.420  1.00  0.00     0.211 HD
ENDBRANCH  16  21
BRANCH  17  23
ATOM     23  C   UNL     1      44.225 -44.041  30.325  1.00  0.00     0.191 C 
BRANCH  23  24
ATOM     24  O   UNL     1      44.715 -45.106  31.093  1.00  0.00    -0.394 OA
ATOM     25  H   UNL     1      45.353 -45.604  30.518  1.00  0.00     0.210 HD
ENDBRANCH  23  24
ENDBRANCH  17  23
BRANCH  18  26
ATOM     26  O   UNL     1      42.564 -46.434  30.113  1.00  0.00    -0.387 OA
ATOM     27  H   UNL     1      43.263 -46.779  29.497  1.00  0.00     0.211 HD
ENDBRANCH  18  26
ENDBRANCH  12  13
ENDBRANCH   7  12
BRANCH   4  28
ATOM     28  O   UNL     1      37.955 -38.782  33.582  1.00  0.00    -0.393 OA
ATOM     29  H   UNL     1      37.078 -38.739  34.044  1.00  0.00     0.210 HD
ENDBRANCH   4  28
BRANCH   8  30
ATOM     30  C   UNL     1      37.802 -41.890  30.599  1.00  0.00     0.255 C 
BRANCH  30  31
ATOM     31  O   UNL     1      38.364 -41.722  29.298  1.00  0.00    -0.461 OA
BRANCH  31  32
ATOM     32  C   UNL     1      37.612 -41.584  28.125  1.00  0.00     0.338 C 
ATOM     33  O   UNL     1      36.983 -40.514  27.894  1.00  0.00    -0.246 OA
BRANCH  32  34
ATOM     34  C   UNL     1      37.566 -42.697  27.151  1.00  0.00     0.060 A 
ATOM     35  C   UNL     1      37.342 -42.446  25.784  1.00  0.00     0.015 A 
ATOM     36  C   UNL     1      37.739 -44.025  27.582  1.00  0.00     0.015 A 
ATOM     37  C   UNL     1      37.296 -43.504  24.869  1.00  0.00     0.001 A 
ATOM     38  C   UNL     1      37.693 -45.079  26.664  1.00  0.00     0.001 A 
ATOM     39  C   UNL     1      37.473 -44.818  25.309  1.00  0.00     0.000 A 
ENDBRANCH  32  34
ENDBRANCH  31  32
ENDBRANCH  30  31
ENDBRANCH   8  30
TORSDOF 12
ENDMDL
MODEL 4
REMARK VINA RESULT:    -4.699      2.249      6.459
REMARK INTER + INTRA:          -7.840
REMARK INTER:                  -6.907
REMARK INTRA:                  -0.932
REMARK UNBOUND:                -0.531
REMARK SMILES C[C@]12C[C@@H](O)[C@@H]3C[C@@]1(O[C@@H]1O[C@@H](CO)[C@@H](O)[C@@H](O)[C@H]1O)[C@]3(COC(=O)c1ccccc1)C(=O)O2
REMARK SMILES IDX 1 1 2 2 3 3 4 4 6 5 7 6 8 7 21 8 32 9 33 10 34 11 9 12 10 13
REMARK SMILES IDX 19 14 11 15 17 16 12 17 15 18 20 19 18 21 13 23 14 24 16 26
REMARK SMILES IDX 5 28 22 30 23 31 24 32 25 33 26 34 27 35 31 36 28 37 30 38
REMARK SMILES IDX 29 39
REMARK H PARENT 20 20 18 22 14 25 16 27 5 29
REMARK Flexibility Score: inf
ROOT
ATOM      1  C   UNL     1      38.117 -42.279  28.096  1.00  0.00     0.060 C 
ATOM      2  C   UNL     1      38.490 -43.642  28.680  1.00  0.00     0.142 C 
ATOM      3  C   UNL     1      37.484 -44.762  28.235  1.00  0.00     0.083 C 
ATOM      4  C   UNL     1      37.643 -46.065  29.112  1.00  0.00     0.123 C 
ATOM      5  C   UNL     1      38.244 -45.722  30.518  1.00  0.00     0.045 C 
ATOM      6  C   UNL     1      37.534 -44.447  30.991  1.00  0.00     0.049 C 
ATOM      7  C   UNL     1      38.650 -43.672  30.258  1.00  0.00     0.131 C 
ATOM      8  C   UNL     1      39.564 -44.900  30.404  1.00  0.00     0.140 C 
ATOM      9  C   UNL     1      40.329 -44.899  29.121  1.00  0.00     0.319 C 
ATOM     10  O   UNL     1      41.341 -45.603  28.873  1.00  0.00    -0.251 OA
ATOM     11  O   UNL     1      39.758 -44.052  28.199  1.00  0.00    -0.456 OA
ENDROOT
BRANCH   7  12
ATOM     12  O   UNL     1      39.200 -42.515  30.873  1.00  0.00    -0.338 OA
BRANCH  12  13
ATOM     13  C   UNL     1      38.256 -41.798  31.659  1.00  0.00     0.282 C 
ATOM     14  C   UNL     1      38.871 -41.454  33.035  1.00  0.00     0.202 C 
ATOM     15  O   UNL     1      37.838 -40.620  30.984  1.00  0.00    -0.341 OA
ATOM     16  C   UNL     1      40.014 -40.434  32.871  1.00  0.00     0.179 C 
ATOM     17  C   UNL     1      38.928 -39.752  30.711  1.00  0.00     0.178 C 
ATOM     18  C   UNL     1      39.560 -39.236  32.024  1.00  0.00     0.177 C 
BRANCH  14  19
ATOM     19  O   UNL     1      37.881 -40.930  33.885  1.00  0.00    -0.385 OA
ATOM     20  H   UNL     1      38.110 -41.222  34.807  1.00  0.00     0.211 HD
ENDBRANCH  14  19
BRANCH  16  21
ATOM     21  O   UNL     1      40.460 -39.986  34.125  1.00  0.00    -0.387 OA
ATOM     22  H   UNL     1      41.007 -39.173  33.961  1.00  0.00     0.211 HD
ENDBRANCH  16  21
BRANCH  17  23
ATOM     23  C   UNL     1      38.434 -38.588  29.839  1.00  0.00     0.191 C 
BRANCH  23  24
ATOM     24  O   UNL     1      38.902 -38.729  28.526  1.00  0.00    -0.394 OA
ATOM     25  H   UNL     1      38.414 -39.496  28.127  1.00  0.00     0.210 HD
ENDBRANCH  23  24
ENDBRANCH  17  23
BRANCH  18  26
ATOM     26  O   UNL     1      38.630 -38.468  32.750  1.00  0.00    -0.387 OA
ATOM     27  H   UNL     1      38.573 -37.581  32.307  1.00  0.00     0.211 HD
ENDBRANCH  18  26
ENDBRANCH  12  13
ENDBRANCH   7  12
BRANCH   4  28
ATOM     28  O   UNL     1      38.462 -47.006  28.469  1.00  0.00    -0.393 OA
ATOM     29  H   UNL     1      37.930 -47.839  28.385  1.00  0.00     0.210 HD
ENDBRANCH   4  28
BRANCH   8  30
ATOM     30  C   UNL     1      40.447 -44.918  31.674  1.00  0.00     0.255 C 
BRANCH  30  31
ATOM     31  O   UNL     1      41.714 -44.320  31.403  1.00  0.00    -0.461 OA
BRANCH  31  32
ATOM     32  C   UNL     1      42.319 -43.351  32.214  1.00  0.00     0.338 C 
ATOM     33  O   UNL     1      42.037 -43.283  33.443  1.00  0.00    -0.246 OA
BRANCH  32  34
ATOM     34  C   UNL     1      43.299 -42.413  31.625  1.00  0.00     0.060 A 
ATOM     35  C   UNL     1      44.119 -42.809  30.551  1.00  0.00     0.015 A 
ATOM     36  C   UNL     1      43.430 -41.109  32.137  1.00  0.00     0.015 A 
ATOM     37  C   UNL     1      45.045 -41.917  30.001  1.00  0.00     0.001 A 
ATOM     38  C   UNL     1      44.358 -40.220  31.585  1.00  0.00     0.001 A 
ATOM     39  C   UNL     1      45.164 -40.623  30.517  1.00  0.00     0.000 A 
ENDBRANCH  32  34
ENDBRANCH  31  32
ENDBRANCH  30  31
ENDBRANCH   8  30
TORSDOF 12
ENDMDL
MODEL 5
REMARK VINA RESULT:    -4.677      1.198      1.591
REMARK INTER + INTRA:          -7.806
REMARK INTER:                  -7.452
REMARK INTRA:                  -0.353
REMARK UNBOUND:                -0.531
REMARK SMILES C[C@]12C[C@@H](O)[C@@H]3C[C@@]1(O[C@@H]1O[C@@H](CO)[C@@H](O)[C@@H](O)[C@H]1O)[C@]3(COC(=O)c1ccccc1)C(=O)O2
REMARK SMILES IDX 1 1 2 2 3 3 4 4 6 5 7 6 8 7 21 8 32 9 33 10 34 11 9 12 10 13
REMARK SMILES IDX 19 14 11 15 17 16 12 17 15 18 20 19 18 21 13 23 14 24 16 26
REMARK SMILES IDX 5 28 22 30 23 31 24 32 25 33 26 34 27 35 31 36 28 37 30 38
REMARK SMILES IDX 29 39
REMARK H PARENT 20 20 18 22 14 25 16 27 5 29
REMARK Flexibility Score: inf
ROOT
ATOM      1  C   UNL     1      44.014 -44.573  31.086  1.00  0.00     0.060 C 
ATOM      2  C   UNL     1      43.809 -43.274  31.866  1.00  0.00     0.142 C 
ATOM      3  C   UNL     1      44.729 -43.204  33.135  1.00  0.00     0.083 C 
ATOM      4  C   UNL     1      44.266 -42.064  34.125  1.00  0.00     0.123 C 
ATOM      5  C   UNL     1      42.742 -41.750  33.940  1.00  0.00     0.045 C 
ATOM      6  C   UNL     1      42.036 -43.104  33.797  1.00  0.00     0.049 C 
ATOM      7  C   UNL     1      42.308 -42.975  32.283  1.00  0.00     0.131 C 
ATOM      8  C   UNL     1      42.384 -41.449  32.453  1.00  0.00     0.140 C 
ATOM      9  C   UNL     1      43.461 -41.061  31.494  1.00  0.00     0.319 C 
ATOM     10  O   UNL     1      43.735 -39.886  31.138  1.00  0.00    -0.251 OA
ATOM     11  O   UNL     1      44.171 -42.159  31.068  1.00  0.00    -0.456 OA
ENDROOT
BRANCH   7  12
ATOM     12  O   UNL     1      41.293 -43.365  31.368  1.00  0.00    -0.338 OA
BRANCH  12  13
ATOM     13  C   UNL     1      40.962 -44.745  31.457  1.00  0.00     0.282 C 
ATOM     14  C   UNL     1      39.665 -44.922  32.281  1.00  0.00     0.202 C 
ATOM     15  O   UNL     1      40.817 -45.309  30.161  1.00  0.00    -0.341 OA
ATOM     16  C   UNL     1      38.461 -44.337  31.517  1.00  0.00     0.179 C 
ATOM     17  C   UNL     1      39.797 -44.662  29.414  1.00  0.00     0.178 C 
ATOM     18  C   UNL     1      38.416 -44.871  30.077  1.00  0.00     0.177 C 
BRANCH  14  19
ATOM     19  O   UNL     1      39.447 -46.286  32.545  1.00  0.00    -0.385 OA
ATOM     20  H   UNL     1      39.155 -46.701  31.690  1.00  0.00     0.211 HD
ENDBRANCH  14  19
BRANCH  16  21
ATOM     21  O   UNL     1      37.261 -44.647  32.176  1.00  0.00    -0.387 OA
ATOM     22  H   UNL     1      37.329 -45.595  32.463  1.00  0.00     0.211 HD
ENDBRANCH  16  21
BRANCH  17  23
ATOM     23  C   UNL     1      39.809 -45.204  27.977  1.00  0.00     0.191 C 
BRANCH  23  24
ATOM     24  O   UNL     1      41.028 -45.840  27.705  1.00  0.00    -0.394 OA
ATOM     25  H   UNL     1      40.977 -46.744  28.110  1.00  0.00     0.210 HD
ENDBRANCH  23  24
ENDBRANCH  17  23
BRANCH  18  26
ATOM     26  O   UNL     1      38.076 -46.236  30.089  1.00  0.00    -0.387 OA
ATOM     27  H   UNL     1      38.374 -46.605  30.962  1.00  0.00     0.211 HD
ENDBRANCH  18  26
ENDBRANCH  12  13
ENDBRANCH   7  12
BRANCH   4  28
ATOM     28  O   UNL     1      45.014 -40.893  33.925  1.00  0.00    -0.393 OA
ATOM     29  H   UNL     1      45.946 -41.177  33.739  1.00  0.00     0.210 HD
ENDBRANCH   4  28
BRANCH   8  30
ATOM     30  C   UNL     1      41.047 -40.695  32.251  1.00  0.00     0.255 C 
BRANCH  30  31
ATOM     31  O   UNL     1      41.148 -39.366  32.762  1.00  0.00    -0.461 OA
BRANCH  31  32
ATOM     32  C   UNL     1      40.388 -38.284  32.303  1.00  0.00     0.338 C 
ATOM     33  O   UNL     1      39.619 -37.666  33.092  1.00  0.00    -0.246 OA
BRANCH  32  34
ATOM     34  C   UNL     1      40.496 -37.860  30.890  1.00  0.00     0.060 A 
ATOM     35  C   UNL     1      39.416 -38.031  30.003  1.00  0.00     0.015 A 
ATOM     36  C   UNL     1      41.688 -37.285  30.411  1.00  0.00     0.015 A 
ATOM     37  C   UNL     1      39.528 -37.630  28.667  1.00  0.00     0.001 A 
ATOM     38  C   UNL     1      41.795 -36.886  29.075  1.00  0.00     0.001 A 
ATOM     39  C   UNL     1      40.715 -37.057  28.204  1.00  0.00     0.000 A 
ENDBRANCH  32  34
ENDBRANCH  31  32
ENDBRANCH  30  31
ENDBRANCH   8  30
TORSDOF 12
ENDMDL
MODEL 6
REMARK VINA RESULT:    -4.525      1.557      1.947
REMARK INTER + INTRA:          -7.570
REMARK INTER:                  -6.872
REMARK INTRA:                  -0.698
REMARK UNBOUND:                -0.531
REMARK SMILES C[C@]12C[C@@H](O)[C@@H]3C[C@@]1(O[C@@H]1O[C@@H](CO)[C@@H](O)[C@@H](O)[C@H]1O)[C@]3(COC(=O)c1ccccc1)C(=O)O2
REMARK SMILES IDX 1 1 2 2 3 3 4 4 6 5 7 6 8 7 21 8 32 9 33 10 34 11 9 12 10 13
REMARK SMILES IDX 19 14 11 15 17 16 12 17 15 18 20 19 18 21 13 23 14 24 16 26
REMARK SMILES IDX 5 28 22 30 23 31 24 32 25 33 26 34 27 35 31 36 28 37 30 38
REMARK SMILES IDX 29 39
REMARK H PARENT 20 20 18 22 14 25 16 27 5 29
REMARK Flexibility Score: inf
ROOT
ATOM      1  C   UNL     1      44.021 -43.428  30.666  1.00  0.00     0.060 C 
ATOM      2  C   UNL     1      43.701 -42.342  31.694  1.00  0.00     0.142 C 
ATOM      3  C   UNL     1      44.692 -42.380  32.911  1.00  0.00     0.083 C 
ATOM      4  C   UNL     1      44.152 -41.525  34.124  1.00  0.00     0.123 C 
ATOM      5  C   UNL     1      42.591 -41.406  34.072  1.00  0.00     0.045 C 
ATOM      6  C   UNL     1      42.064 -42.797  33.698  1.00  0.00     0.049 C 
ATOM      7  C   UNL     1      42.207 -42.348  32.228  1.00  0.00     0.131 C 
ATOM      8  C   UNL     1      42.090 -40.886  32.690  1.00  0.00     0.140 C 
ATOM      9  C   UNL     1      43.035 -40.174  31.779  1.00  0.00     0.319 C 
ATOM     10  O   UNL     1      43.123 -38.925  31.648  1.00  0.00    -0.251 OA
ATOM     11  O   UNL     1      43.853 -41.058  31.115  1.00  0.00    -0.456 OA
ENDROOT
BRANCH   7  12
ATOM     12  O   UNL     1      41.191 -42.702  31.300  1.00  0.00    -0.338 OA
BRANCH  12  13
ATOM     13  C   UNL     1      40.366 -43.768  31.754  1.00  0.00     0.282 C 
ATOM     14  C   UNL     1      38.946 -43.623  31.162  1.00  0.00     0.202 C 
ATOM     15  O   UNL     1      40.934 -45.022  31.404  1.00  0.00    -0.341 OA
ATOM     16  C   UNL     1      38.975 -43.849  29.638  1.00  0.00     0.179 C 
ATOM     17  C   UNL     1      41.089 -45.158  29.999  1.00  0.00     0.178 C 
ATOM     18  C   UNL     1      39.713 -45.151  29.293  1.00  0.00     0.177 C 
BRANCH  14  19
ATOM     19  O   UNL     1      38.077 -44.550  31.766  1.00  0.00    -0.385 OA
ATOM     20  H   UNL     1      38.503 -44.830  32.619  1.00  0.00     0.211 HD
ENDBRANCH  14  19
BRANCH  16  21
ATOM     21  O   UNL     1      37.671 -43.891  29.120  1.00  0.00    -0.387 OA
ATOM     22  H   UNL     1      37.538 -43.049  28.609  1.00  0.00     0.211 HD
ENDBRANCH  16  21
BRANCH  17  23
ATOM     23  C   UNL     1      41.856 -46.456  29.703  1.00  0.00     0.191 C 
BRANCH  23  24
ATOM     24  O   UNL     1      41.498 -46.959  28.445  1.00  0.00    -0.394 OA
ATOM     25  H   UNL     1      40.602 -47.374  28.546  1.00  0.00     0.210 HD
ENDBRANCH  23  24
ENDBRANCH  17  23
BRANCH  18  26
ATOM     26  O   UNL     1      38.943 -46.255  29.703  1.00  0.00    -0.387 OA
ATOM     27  H   UNL     1      39.116 -46.990  29.058  1.00  0.00     0.211 HD
ENDBRANCH  18  26
ENDBRANCH  12  13
ENDBRANCH   7  12
BRANCH   4  28
ATOM     28  O   UNL     1      44.720 -40.241  34.125  1.00  0.00    -0.393 OA
ATOM     29  H   UNL     1      44.711 -39.924  33.185  1.00  0.00     0.210 HD
ENDBRANCH   4  28
BRANCH   8  30
ATOM     30  C   UNL     1      40.654 -40.309  32.699  1.00  0.00     0.255 C 
BRANCH  30  31
ATOM     31  O   UNL     1      40.354 -39.712  31.438  1.00  0.00    -0.461 OA
BRANCH  31  32
ATOM     32  C   UNL     1      39.192 -38.979  31.168  1.00  0.00     0.338 C 
ATOM     33  O   UNL     1      38.733 -38.174  32.026  1.00  0.00    -0.246 OA
BRANCH  32  34
ATOM     34  C   UNL     1      38.507 -39.146  29.867  1.00  0.00     0.060 A 
ATOM     35  C   UNL     1      37.754 -40.303  29.594  1.00  0.00     0.015 A 
ATOM     36  C   UNL     1      38.607 -38.148  28.880  1.00  0.00     0.015 A 
ATOM     37  C   UNL     1      37.112 -40.455  28.360  1.00  0.00     0.001 A 
ATOM     38  C   UNL     1      37.963 -38.303  27.648  1.00  0.00     0.001 A 
ATOM     39  C   UNL     1      37.216 -39.455  27.389  1.00  0.00     0.000 A 
ENDBRANCH  32  34
ENDBRANCH  31  32
ENDBRANCH  30  31
ENDBRANCH   8  30
TORSDOF 12
ENDMDL
MODEL 7
REMARK VINA RESULT:    -4.441      1.914      2.840
REMARK INTER + INTRA:          -7.439
REMARK INTER:                  -7.307
REMARK INTRA:                  -0.132
REMARK UNBOUND:                -0.531
REMARK SMILES C[C@]12C[C@@H](O)[C@@H]3C[C@@]1(O[C@@H]1O[C@@H](CO)[C@@H](O)[C@@H](O)[C@H]1O)[C@]3(COC(=O)c1ccccc1)C(=O)O2
REMARK SMILES IDX 1 1 2 2 3 3 4 4 6 5 7 6 8 7 21 8 32 9 33 10 34 11 9 12 10 13
REMARK SMILES IDX 19 14 11 15 17 16 12 17 15 18 20 19 18 21 13 23 14 24 16 26
REMARK SMILES IDX 5 28 22 30 23 31 24 32 25 33 26 34 27 35 31 36 28 37 30 38
REMARK SMILES IDX 29 39
REMARK H PARENT 20 20 18 22 14 25 16 27 5 29
REMARK Flexibility Score: inf
ROOT
ATOM      1  C   UNL     1      43.683 -44.803  31.129  1.00  0.00     0.060 C 
ATOM      2  C   UNL     1      43.650 -43.467  31.872  1.00  0.00     0.142 C 
ATOM      3  C   UNL     1      44.514 -43.506  33.182  1.00  0.00     0.083 C 
ATOM      4  C   UNL     1      44.193 -42.281  34.125  1.00  0.00     0.123 C 
ATOM      5  C   UNL     1      42.746 -41.739  33.863  1.00  0.00     0.045 C 
ATOM      6  C   UNL     1      41.844 -42.972  33.714  1.00  0.00     0.049 C 
ATOM      7  C   UNL     1      42.197 -42.927  32.212  1.00  0.00     0.131 C 
ATOM      8  C   UNL     1      42.504 -41.428  32.354  1.00  0.00     0.140 C 
ATOM      9  C   UNL     1      43.669 -41.239  31.439  1.00  0.00     0.319 C 
ATOM     10  O   UNL     1      44.138 -40.130  31.072  1.00  0.00    -0.251 OA
ATOM     11  O   UNL     1      44.216 -42.445  31.069  1.00  0.00    -0.456 OA
ENDROOT
BRANCH   7  12
ATOM     12  O   UNL     1      41.175 -43.181  31.259  1.00  0.00    -0.338 OA
BRANCH  12  13
ATOM     13  C   UNL     1      40.938 -44.567  31.049  1.00  0.00     0.282 C 
ATOM     14  C   UNL     1      39.933 -45.094  32.099  1.00  0.00     0.202 C 
ATOM     15  O   UNL     1      40.459 -44.798  29.731  1.00  0.00    -0.341 OA
ATOM     16  C   UNL     1      38.541 -44.476  31.864  1.00  0.00     0.179 C 
ATOM     17  C   UNL     1      39.245 -44.106  29.481  1.00  0.00     0.178 C 
ATOM     18  C   UNL     1      38.115 -44.631  30.396  1.00  0.00     0.177 C 
BRANCH  14  19
ATOM     19  O   UNL     1      39.853 -46.496  32.027  1.00  0.00    -0.385 OA
ATOM     20  H   UNL     1      39.694 -46.823  32.951  1.00  0.00     0.211 HD
ENDBRANCH  14  19
BRANCH  16  21
ATOM     21  O   UNL     1      37.587 -45.078  32.701  1.00  0.00    -0.387 OA
ATOM     22  H   UNL     1      37.814 -46.044  32.746  1.00  0.00     0.211 HD
ENDBRANCH  16  21
BRANCH  17  23
ATOM     23  C   UNL     1      38.876 -44.263  27.999  1.00  0.00     0.191 C 
BRANCH  23  24
ATOM     24  O   UNL     1      39.352 -45.485  27.504  1.00  0.00    -0.394 OA
ATOM     25  H   UNL     1      39.585 -46.042  28.291  1.00  0.00     0.210 HD
ENDBRANCH  23  24
ENDBRANCH  17  23
BRANCH  18  26
ATOM     26  O   UNL     1      37.848 -45.986  30.121  1.00  0.00    -0.387 OA
ATOM     27  H   UNL     1      36.869 -46.117  30.216  1.00  0.00     0.211 HD
ENDBRANCH  18  26
ENDBRANCH  12  13
ENDBRANCH   7  12
BRANCH   4  28
ATOM     28  O   UNL     1      45.122 -41.246  33.936  1.00  0.00    -0.393 OA
ATOM     29  H   UNL     1      45.905 -41.645  33.476  1.00  0.00     0.210 HD
ENDBRANCH   4  28
BRANCH   8  30
ATOM     30  C   UNL     1      41.311 -40.481  32.074  1.00  0.00     0.255 C 
BRANCH  30  31
ATOM     31  O   UNL     1      41.068 -39.647  33.206  1.00  0.00    -0.461 OA
BRANCH  31  32
ATOM     32  C   UNL     1      41.397 -38.287  33.269  1.00  0.00     0.338 C 
ATOM     33  O   UNL     1      40.500 -37.425  33.484  1.00  0.00    -0.246 OA
BRANCH  32  34
ATOM     34  C   UNL     1      42.803 -37.864  33.091  1.00  0.00     0.060 A 
ATOM     35  C   UNL     1      43.229 -37.269  31.888  1.00  0.00     0.015 A 
ATOM     36  C   UNL     1      43.739 -38.059  34.125  1.00  0.00     0.015 A 
ATOM     37  C   UNL     1      44.562 -36.875  31.727  1.00  0.00     0.001 A 
ATOM     38  C   UNL     1      45.070 -37.663  33.959  1.00  0.00     0.001 A 
ATOM     39  C   UNL     1      45.481 -37.071  32.762  1.00  0.00     0.000 A 
ENDBRANCH  32  34
ENDBRANCH  31  32
ENDBRANCH  30  31
ENDBRANCH   8  30
TORSDOF 12
ENDMDL
MODEL 8
REMARK VINA RESULT:    -4.162      2.221      3.521
REMARK INTER + INTRA:          -7.004
REMARK INTER:                  -6.050
REMARK INTRA:                  -0.954
REMARK UNBOUND:                -0.531
REMARK SMILES C[C@]12C[C@@H](O)[C@@H]3C[C@@]1(O[C@@H]1O[C@@H](CO)[C@@H](O)[C@@H](O)[C@H]1O)[C@]3(COC(=O)c1ccccc1)C(=O)O2
REMARK SMILES IDX 1 1 2 2 3 3 4 4 6 5 7 6 8 7 21 8 32 9 33 10 34 11 9 12 10 13
REMARK SMILES IDX 19 14 11 15 17 16 12 17 15 18 20 19 18 21 13 23 14 24 16 26
REMARK SMILES IDX 5 28 22 30 23 31 24 32 25 33 26 34 27 35 31 36 28 37 30 38
REMARK SMILES IDX 29 39
REMARK H PARENT 20 20 18 22 14 25 16 27 5 29
REMARK Flexibility Score: inf
ROOT
ATOM      1  C   UNL     1      44.956 -41.034  30.571  1.00  0.00     0.060 C 
ATOM      2  C   UNL     1      44.253 -39.917  31.343  1.00  0.00     0.142 C 
ATOM      3  C   UNL     1      45.260 -39.084  32.211  1.00  0.00     0.083 C 
ATOM      4  C   UNL     1      44.508 -38.189  33.273  1.00  0.00     0.123 C 
ATOM      5  C   UNL     1      43.107 -38.796  33.622  1.00  0.00     0.045 C 
ATOM      6  C   UNL     1      43.316 -40.309  33.766  1.00  0.00     0.049 C 
ATOM      7  C   UNL     1      43.040 -40.392  32.249  1.00  0.00     0.131 C 
ATOM      8  C   UNL     1      42.255 -39.074  32.345  1.00  0.00     0.140 C 
ATOM      9  C   UNL     1      42.597 -38.389  31.063  1.00  0.00     0.319 C 
ATOM     10  O   UNL     1      42.026 -37.365  30.606  1.00  0.00    -0.251 OA
ATOM     11  O   UNL     1      43.666 -38.993  30.443  1.00  0.00    -0.456 OA
ENDROOT
BRANCH   7  12
ATOM     12  O   UNL     1      42.242 -41.459  31.754  1.00  0.00    -0.338 OA
BRANCH  12  13
ATOM     13  C   UNL     1      42.246 -42.600  32.603  1.00  0.00     0.282 C 
ATOM     14  C   UNL     1      40.810 -42.893  33.095  1.00  0.00     0.202 C 
ATOM     15  O   UNL     1      42.787 -43.725  31.924  1.00  0.00    -0.341 OA
ATOM     16  C   UNL     1      39.925 -43.352  31.920  1.00  0.00     0.179 C 
ATOM     17  C   UNL     1      42.042 -44.049  30.760  1.00  0.00     0.178 C 
ATOM     18  C   UNL     1      40.605 -44.482  31.133  1.00  0.00     0.177 C 
BRANCH  14  19
ATOM     19  O   UNL     1      40.838 -43.887  34.090  1.00  0.00    -0.385 OA
ATOM     20  H   UNL     1      41.481 -43.582  34.783  1.00  0.00     0.211 HD
ENDBRANCH  14  19
BRANCH  16  21
ATOM     21  O   UNL     1      38.673 -43.785  32.386  1.00  0.00    -0.387 OA
ATOM     22  H   UNL     1      38.568 -44.728  32.090  1.00  0.00     0.211 HD
ENDBRANCH  16  21
BRANCH  17  23
ATOM     23  C   UNL     1      42.773 -45.159  29.991  1.00  0.00     0.191 C 
BRANCH  23  24
ATOM     24  O   UNL     1      41.880 -45.845  29.157  1.00  0.00    -0.394 OA
ATOM     25  H   UNL     1      40.997 -45.836  29.612  1.00  0.00     0.210 HD
ENDBRANCH  23  24
ENDBRANCH  17  23
BRANCH  18  26
ATOM     26  O   UNL     1      40.630 -45.654  31.912  1.00  0.00    -0.387 OA
ATOM     27  H   UNL     1      39.721 -45.771  32.294  1.00  0.00     0.211 HD
ENDBRANCH  18  26
ENDBRANCH  12  13
ENDBRANCH   7  12
BRANCH   4  28
ATOM     28  O   UNL     1      44.345 -36.878  32.797  1.00  0.00    -0.393 OA
ATOM     29  H   UNL     1      44.687 -36.867  31.866  1.00  0.00     0.210 HD
ENDBRANCH   4  28
BRANCH   8  30
ATOM     30  C   UNL     1      40.737 -39.227  32.603  1.00  0.00     0.255 C 
BRANCH  30  31
ATOM     31  O   UNL     1      40.033 -39.323  31.366  1.00  0.00    -0.461 OA
BRANCH  31  32
ATOM     32  C   UNL     1      38.788 -39.945  31.212  1.00  0.00     0.338 C 
ATOM     33  O   UNL     1      38.127 -40.305  32.225  1.00  0.00    -0.246 OA
BRANCH  32  34
ATOM     34  C   UNL     1      38.245 -40.169  29.854  1.00  0.00     0.060 A 
ATOM     35  C   UNL     1      37.788 -39.090  29.075  1.00  0.00     0.015 A 
ATOM     36  C   UNL     1      38.173 -41.471  29.325  1.00  0.00     0.015 A 
ATOM     37  C   UNL     1      37.274 -39.310  27.793  1.00  0.00     0.001 A 
ATOM     38  C   UNL     1      37.658 -41.687  28.043  1.00  0.00     0.001 A 
ATOM     39  C   UNL     1      37.210 -40.608  27.277  1.00  0.00     0.000 A 
ENDBRANCH  32  34
ENDBRANCH  31  32
ENDBRANCH  30  31
ENDBRANCH   8  30
TORSDOF 12
ENDMDL
MODEL 9
REMARK VINA RESULT:    -4.089      2.088      4.021
REMARK INTER + INTRA:          -6.891
REMARK INTER:                  -6.230
REMARK INTRA:                  -0.662
REMARK UNBOUND:                -0.531
REMARK SMILES C[C@]12C[C@@H](O)[C@@H]3C[C@@]1(O[C@@H]1O[C@@H](CO)[C@@H](O)[C@@H](O)[C@H]1O)[C@]3(COC(=O)c1ccccc1)C(=O)O2
REMARK SMILES IDX 1 1 2 2 3 3 4 4 6 5 7 6 8 7 21 8 32 9 33 10 34 11 9 12 10 13
REMARK SMILES IDX 19 14 11 15 17 16 12 17 15 18 20 19 18 21 13 23 14 24 16 26
REMARK SMILES IDX 5 28 22 30 23 31 24 32 25 33 26 34 27 35 31 36 28 37 30 38
REMARK SMILES IDX 29 39
REMARK H PARENT 20 20 18 22 14 25 16 27 5 29
REMARK Flexibility Score: inf
ROOT
ATOM      1  C   UNL     1      44.692 -40.545  30.957  1.00  0.00     0.060 C 
ATOM      2  C   UNL     1      43.697 -39.746  31.800  1.00  0.00     0.142 C 
ATOM      3  C   UNL     1      44.401 -39.015  32.996  1.00  0.00     0.083 C 
ATOM      4  C   UNL     1      43.352 -38.504  34.061  1.00  0.00     0.123 C 
ATOM      5  C   UNL     1      42.040 -39.359  34.006  1.00  0.00     0.045 C 
ATOM      6  C   UNL     1      42.482 -40.821  33.866  1.00  0.00     0.049 C 
ATOM      7  C   UNL     1      42.460 -40.579  32.342  1.00  0.00     0.131 C 
ATOM      8  C   UNL     1      41.455 -39.438  32.562  1.00  0.00     0.140 C 
ATOM      9  C   UNL     1      41.865 -38.430  31.539  1.00  0.00     0.319 C 
ATOM     10  O   UNL     1      41.203 -37.413  31.208  1.00  0.00    -0.251 OA
ATOM     11  O   UNL     1      43.104 -38.722  31.019  1.00  0.00    -0.456 OA
ENDROOT
BRANCH   7  12
ATOM     12  O   UNL     1      41.944 -41.595  31.492  1.00  0.00    -0.338 OA
BRANCH  12  13
ATOM     13  C   UNL     1      41.935 -42.880  32.102  1.00  0.00     0.282 C 
ATOM     14  C   UNL     1      40.727 -43.697  31.588  1.00  0.00     0.202 C 
ATOM     15  O   UNL     1      43.153 -43.564  31.843  1.00  0.00    -0.341 OA
ATOM     16  C   UNL     1      40.905 -44.035  30.095  1.00  0.00     0.179 C 
ATOM     17  C   UNL     1      43.375 -43.741  30.452  1.00  0.00     0.178 C 
ATOM     18  C   UNL     1      42.288 -44.652  29.836  1.00  0.00     0.177 C 
BRANCH  14  19
ATOM     19  O   UNL     1      40.596 -44.882  32.334  1.00  0.00    -0.385 OA
ATOM     20  H   UNL     1      39.671 -44.894  32.694  1.00  0.00     0.211 HD
ENDBRANCH  14  19
BRANCH  16  21
ATOM     21  O   UNL     1      39.903 -44.919  29.666  1.00  0.00    -0.387 OA
ATOM     22  H   UNL     1      40.006 -45.750  30.200  1.00  0.00     0.211 HD
ENDBRANCH  16  21
BRANCH  17  23
ATOM     23  C   UNL     1      44.777 -44.331  30.240  1.00  0.00     0.191 C 
BRANCH  23  24
ATOM     24  O   UNL     1      45.486 -43.578  29.294  1.00  0.00    -0.394 OA
ATOM     25  H   UNL     1      44.835 -43.314  28.592  1.00  0.00     0.210 HD
ENDBRANCH  23  24
ENDBRANCH  17  23
BRANCH  18  26
ATOM     26  O   UNL     1      42.345 -45.939  30.401  1.00  0.00    -0.387 OA
ATOM     27  H   UNL     1      43.212 -46.011  30.880  1.00  0.00     0.211 HD
ENDBRANCH  18  26
ENDBRANCH  12  13
ENDBRANCH   7  12
BRANCH   4  28
ATOM     28  O   UNL     1      43.040 -37.152  33.849  1.00  0.00    -0.393 OA
ATOM     29  H   UNL     1      42.168 -36.987  34.293  1.00  0.00     0.210 HD
ENDBRANCH   4  28
BRANCH   8  30
ATOM     30  C   UNL     1      39.964 -39.849  32.492  1.00  0.00     0.255 C 
BRANCH  30  31
ATOM     31  O   UNL     1      39.452 -39.625  31.179  1.00  0.00    -0.461 OA
BRANCH  31  32
ATOM     32  C   UNL     1      38.119 -39.837  30.805  1.00  0.00     0.338 C 
ATOM     33  O   UNL     1      37.285 -38.890  30.859  1.00  0.00    -0.246 OA
BRANCH  32  34
ATOM     34  C   UNL     1      37.694 -41.174  30.337  1.00  0.00     0.060 A 
ATOM     35  C   UNL     1      37.273 -42.157  31.253  1.00  0.00     0.015 A 
ATOM     36  C   UNL     1      37.710 -41.484  28.964  1.00  0.00     0.015 A 
ATOM     37  C   UNL     1      36.875 -43.420  30.802  1.00  0.00     0.001 A 
ATOM     38  C   UNL     1      37.311 -42.747  28.518  1.00  0.00     0.001 A 
ATOM     39  C   UNL     1      36.893 -43.714  29.436  1.00  0.00     0.000 A 
ENDBRANCH  32  34
ENDBRANCH  31  32
ENDBRANCH  30  31
ENDBRANCH   8  30
TORSDOF 12
ENDMDL
