MODEL 1
REMARK VINA RESULT:    -1.051      0.000      0.000
REMARK INTER + INTRA:          -3.697
REMARK INTER:                  -1.788
REMARK INTRA:                  -1.909
REMARK UNBOUND:                -1.909
REMARK SMILES CCCCCCCCCCCCCC(=O)[O-]
REMARK SMILES IDX 8 1 9 2 10 3 11 4 12 5 13 6 14 7 15 8 16 9 7 10 6 11 5 12
REMARK SMILES IDX 4 13 3 14 2 15 1 16
REMARK H PARENT
REMARK Flexibility Score: inf
ROOT
ATOM      1  C   UNL     1     -14.331 -21.630  81.943  1.00  0.00     0.000 C 
ENDROOT
BRANCH   1   2
ATOM      2  C   UNL     1     -13.921 -22.547  80.778  1.00  0.00     0.000 C 
BRANCH   2   3
ATOM      3  C   UNL     1     -13.481 -23.942  81.253  1.00  0.00     0.000 C 
BRANCH   3   4
ATOM      4  C   UNL     1     -14.624 -24.729  81.913  1.00  0.00     0.000 C 
BRANCH   4   5
ATOM      5  C   UNL     1     -15.615 -25.307  80.892  1.00  0.00     0.006 C 
BRANCH   5   6
ATOM      6  C   UNL     1     -17.058 -24.975  81.282  1.00  0.00     0.053 C 
BRANCH   6   7
ATOM      7  C   UNL     1     -17.556 -23.799  80.502  1.00  0.00     0.041 C 
ATOM      8  O   UNL     1     -17.011 -23.486  79.411  1.00  0.00    -0.550 OA
ATOM      9  O   UNL     1     -18.590 -23.020  81.004  1.00  0.00    -0.550 OA
ENDBRANCH   6   7
ENDBRANCH   5   6
ENDBRANCH   4   5
ENDBRANCH   3   4
ENDBRANCH   2   3
ENDBRANCH   1   2
BRANCH   1  10
ATOM     10  C   UNL     1     -13.122 -21.096  82.732  1.00  0.00     0.000 C 
BRANCH  10  11
ATOM     11  C   UNL     1     -13.238 -21.356  84.242  1.00  0.00    -0.000 C 
BRANCH  11  12
ATOM     12  C   UNL     1     -12.875 -22.803  84.620  1.00  0.00    -0.000 C 
BRANCH  12  13
ATOM     13  C   UNL     1     -13.746 -23.350  85.762  1.00  0.00    -0.000 C 
BRANCH  13  14
ATOM     14  C   UNL     1     -15.064 -22.574  85.928  1.00  0.00    -0.000 C 
BRANCH  14  15
ATOM     15  C   UNL     1     -16.287 -23.386  85.473  1.00  0.00    -0.003 C 
ATOM     16  C   UNL     1     -16.942 -22.813  84.217  1.00  0.00     0.004 C 
ENDBRANCH  14  15
ENDBRANCH  13  14
ENDBRANCH  12  13
ENDBRANCH  11  12
ENDBRANCH  10  11
ENDBRANCH   1  10
TORSDOF 12
ENDMDL
MODEL 2
REMARK VINA RESULT:    -1.037      2.027      2.982
REMARK INTER + INTRA:          -3.674
REMARK INTER:                  -1.696
REMARK INTRA:                  -1.977
REMARK UNBOUND:                -1.909
REMARK SMILES CCCCCCCCCCCCCC(=O)[O-]
REMARK SMILES IDX 8 1 9 2 10 3 11 4 12 5 13 6 14 7 15 8 16 9 7 10 6 11 5 12
REMARK SMILES IDX 4 13 3 14 2 15 1 16
REMARK H PARENT
REMARK Flexibility Score: inf
ROOT
ATOM      1  C   UNL     1     -14.472 -21.770  82.084  1.00  0.00     0.000 C 
ENDROOT
BRANCH   1   2
ATOM      2  C   UNL     1     -14.937 -23.212  81.821  1.00  0.00     0.000 C 
BRANCH   2   3
ATOM      3  C   UNL     1     -16.466 -23.362  81.901  1.00  0.00     0.000 C 
BRANCH   3   4
ATOM      4  C   UNL     1     -17.171 -22.044  82.260  1.00  0.00     0.000 C 
BRANCH   4   5
ATOM      5  C   UNL     1     -18.700 -22.137  82.138  1.00  0.00     0.006 C 
BRANCH   5   6
ATOM      6  C   UNL     1     -19.363 -22.081  83.518  1.00  0.00     0.053 C 
BRANCH   6   7
ATOM      7  C   UNL     1     -20.067 -23.367  83.814  1.00  0.00     0.041 C 
ATOM      8  O   UNL     1     -21.181 -23.359  84.401  1.00  0.00    -0.550 OA
ATOM      9  O   UNL     1     -19.471 -24.578  83.485  1.00  0.00    -0.550 OA
ENDBRANCH   6   7
ENDBRANCH   5   6
ENDBRANCH   4   5
ENDBRANCH   3   4
ENDBRANCH   2   3
ENDBRANCH   1   2
BRANCH   1  10
ATOM     10  C   UNL     1     -13.109 -21.707  82.797  1.00  0.00     0.000 C 
BRANCH  10  11
ATOM     11  C   UNL     1     -13.243 -21.582  84.323  1.00  0.00    -0.000 C 
BRANCH  11  12
ATOM     12  C   UNL     1     -13.086 -22.935  85.041  1.00  0.00    -0.000 C 
BRANCH  12  13
ATOM     13  C   UNL     1     -14.212 -23.199  86.053  1.00  0.00    -0.000 C 
BRANCH  13  14
ATOM     14  C   UNL     1     -15.536 -22.521  85.659  1.00  0.00    -0.000 C 
BRANCH  14  15
ATOM     15  C   UNL     1     -16.727 -23.490  85.695  1.00  0.00    -0.003 C 
ATOM     16  C   UNL     1     -16.357 -24.896  85.221  1.00  0.00     0.004 C 
ENDBRANCH  14  15
ENDBRANCH  13  14
ENDBRANCH  12  13
ENDBRANCH  11  12
ENDBRANCH  10  11
ENDBRANCH   1  10
TORSDOF 12
ENDMDL
MODEL 3
REMARK VINA RESULT:    -1.015      2.317      3.734
REMARK INTER + INTRA:          -3.637
REMARK INTER:                  -1.608
REMARK INTRA:                  -2.029
REMARK UNBOUND:                -1.909
REMARK SMILES CCCCCCCCCCCCCC(=O)[O-]
REMARK SMILES IDX 8 1 9 2 10 3 11 4 12 5 13 6 14 7 15 8 16 9 7 10 6 11 5 12
REMARK SMILES IDX 4 13 3 14 2 15 1 16
REMARK H PARENT
REMARK Flexibility Score: inf
ROOT
ATOM      1  C   UNL     1     -15.648 -22.762  81.608  1.00  0.00     0.000 C 
ENDROOT
BRANCH   1   2
ATOM      2  C   UNL     1     -16.323 -23.820  82.495  1.00  0.00     0.000 C 
BRANCH   2   3
ATOM      3  C   UNL     1     -17.280 -23.201  83.528  1.00  0.00     0.000 C 
BRANCH   3   4
ATOM      4  C   UNL     1     -17.176 -23.874  84.906  1.00  0.00     0.000 C 
BRANCH   4   5
ATOM      5  C   UNL     1     -16.563 -25.281  84.836  1.00  0.00     0.006 C 
BRANCH   5   6
ATOM      6  C   UNL     1     -17.615 -26.352  85.136  1.00  0.00     0.053 C 
BRANCH   6   7
ATOM      7  C   UNL     1     -18.330 -26.751  83.884  1.00  0.00     0.041 C 
ATOM      8  O   UNL     1     -19.588 -26.786  83.857  1.00  0.00    -0.550 OA
ATOM      9  O   UNL     1     -17.606 -27.131  82.761  1.00  0.00    -0.550 OA
ENDBRANCH   6   7
ENDBRANCH   5   6
ENDBRANCH   4   5
ENDBRANCH   3   4
ENDBRANCH   2   3
ENDBRANCH   1   2
BRANCH   1  10
ATOM     10  C   UNL     1     -14.245 -23.188  81.137  1.00  0.00     0.000 C 
BRANCH  10  11
ATOM     11  C   UNL     1     -13.164 -22.150  81.477  1.00  0.00    -0.000 C 
BRANCH  11  12
ATOM     12  C   UNL     1     -13.621 -21.157  82.559  1.00  0.00    -0.000 C 
BRANCH  12  13
ATOM     13  C   UNL     1     -12.980 -21.440  83.927  1.00  0.00    -0.000 C 
BRANCH  13  14
ATOM     14  C   UNL     1     -13.952 -22.115  84.911  1.00  0.00    -0.000 C 
BRANCH  14  15
ATOM     15  C   UNL     1     -13.379 -23.411  85.507  1.00  0.00    -0.003 C 
ATOM     16  C   UNL     1     -12.996 -24.433  84.437  1.00  0.00     0.004 C 
ENDBRANCH  14  15
ENDBRANCH  13  14
ENDBRANCH  12  13
ENDBRANCH  11  12
ENDBRANCH  10  11
ENDBRANCH   1  10
TORSDOF 12
ENDMDL
MODEL 4
REMARK VINA RESULT:    -0.981      2.241      3.994
REMARK INTER + INTRA:          -3.579
REMARK INTER:                  -1.582
REMARK INTRA:                  -1.997
REMARK UNBOUND:                -1.909
REMARK SMILES CCCCCCCCCCCCCC(=O)[O-]
REMARK SMILES IDX 8 1 9 2 10 3 11 4 12 5 13 6 14 7 15 8 16 9 7 10 6 11 5 12
REMARK SMILES IDX 4 13 3 14 2 15 1 16
REMARK H PARENT
REMARK Flexibility Score: inf
ROOT
ATOM      1  C   UNL     1     -16.936 -24.036  82.771  1.00  0.00     0.000 C 
ENDROOT
BRANCH   1   2
ATOM      2  C   UNL     1     -17.488 -24.006  81.336  1.00  0.00     0.000 C 
BRANCH   2   3
ATOM      3  C   UNL     1     -17.576 -22.580  80.768  1.00  0.00     0.000 C 
BRANCH   3   4
ATOM      4  C   UNL     1     -16.723 -21.575  81.559  1.00  0.00     0.000 C 
BRANCH   4   5
ATOM      5  C   UNL     1     -15.761 -20.779  80.664  1.00  0.00     0.006 C 
BRANCH   5   6
ATOM      6  C   UNL     1     -15.154 -21.675  79.580  1.00  0.00     0.053 C 
BRANCH   6   7
ATOM      7  C   UNL     1     -13.723 -21.311  79.338  1.00  0.00     0.041 C 
ATOM      8  O   UNL     1     -13.289 -20.182  79.686  1.00  0.00    -0.550 OA
ATOM      9  O   UNL     1     -12.881 -22.200  78.683  1.00  0.00    -0.550 OA
ENDBRANCH   6   7
ENDBRANCH   5   6
ENDBRANCH   4   5
ENDBRANCH   3   4
ENDBRANCH   2   3
ENDBRANCH   1   2
BRANCH   1  10
ATOM     10  C   UNL     1     -15.724 -24.973  82.922  1.00  0.00     0.000 C 
BRANCH  10  11
ATOM     11  C   UNL     1     -14.521 -24.528  82.075  1.00  0.00    -0.000 C 
BRANCH  11  12
ATOM     12  C   UNL     1     -13.381 -23.946  82.930  1.00  0.00    -0.000 C 
BRANCH  12  13
ATOM     13  C   UNL     1     -13.301 -22.414  82.841  1.00  0.00    -0.000 C 
BRANCH  13  14
ATOM     14  C   UNL     1     -13.444 -21.731  84.212  1.00  0.00    -0.000 C 
BRANCH  14  15
ATOM     15  C   UNL     1     -13.919 -22.701  85.305  1.00  0.00    -0.003 C 
ATOM     16  C   UNL     1     -15.349 -22.417  85.764  1.00  0.00     0.004 C 
ENDBRANCH  14  15
ENDBRANCH  13  14
ENDBRANCH  12  13
ENDBRANCH  11  12
ENDBRANCH  10  11
ENDBRANCH   1  10
TORSDOF 12
ENDMDL
MODEL 5
REMARK VINA RESULT:    -0.970      1.884      4.209
REMARK INTER + INTRA:          -3.560
REMARK INTER:                  -1.623
REMARK INTRA:                  -1.937
REMARK UNBOUND:                -1.909
REMARK SMILES CCCCCCCCCCCCCC(=O)[O-]
REMARK SMILES IDX 8 1 9 2 10 3 11 4 12 5 13 6 14 7 15 8 16 9 7 10 6 11 5 12
REMARK SMILES IDX 4 13 3 14 2 15 1 16
REMARK H PARENT
REMARK Flexibility Score: inf
ROOT
ATOM      1  C   UNL     1     -13.276 -21.255  82.960  1.00  0.00     0.000 C 
ENDROOT
BRANCH   1   2
ATOM      2  C   UNL     1     -13.078 -22.779  82.914  1.00  0.00     0.000 C 
BRANCH   2   3
ATOM      3  C   UNL     1     -13.810 -23.503  84.056  1.00  0.00     0.000 C 
BRANCH   3   4
ATOM      4  C   UNL     1     -13.975 -22.622  85.305  1.00  0.00     0.000 C 
BRANCH   4   5
ATOM      5  C   UNL     1     -15.448 -22.368  85.662  1.00  0.00     0.006 C 
BRANCH   5   6
ATOM      6  C   UNL     1     -16.362 -23.378  84.963  1.00  0.00     0.053 C 
BRANCH   6   7
ATOM      7  C   UNL     1     -17.784 -22.912  84.999  1.00  0.00     0.041 C 
ATOM      8  O   UNL     1     -18.662 -23.502  84.317  1.00  0.00    -0.550 OA
ATOM      9  O   UNL     1     -18.129 -21.794  85.748  1.00  0.00    -0.550 OA
ENDBRANCH   6   7
ENDBRANCH   5   6
ENDBRANCH   4   5
ENDBRANCH   3   4
ENDBRANCH   2   3
ENDBRANCH   1   2
BRANCH   1  10
ATOM     10  C   UNL     1     -13.931 -20.701  81.682  1.00  0.00     0.000 C 
BRANCH  10  11
ATOM     11  C   UNL     1     -14.847 -21.726  80.994  1.00  0.00    -0.000 C 
BRANCH  11  12
ATOM     12  C   UNL     1     -16.253 -21.772  81.619  1.00  0.00    -0.000 C 
BRANCH  12  13
ATOM     13  C   UNL     1     -17.051 -23.011  81.182  1.00  0.00    -0.000 C 
BRANCH  13  14
ATOM     14  C   UNL     1     -16.148 -24.164  80.711  1.00  0.00    -0.000 C 
BRANCH  14  15
ATOM     15  C   UNL     1     -15.990 -25.261  81.775  1.00  0.00    -0.003 C 
ATOM     16  C   UNL     1     -17.313 -25.946  82.116  1.00  0.00     0.004 C 
ENDBRANCH  14  15
ENDBRANCH  13  14
ENDBRANCH  12  13
ENDBRANCH  11  12
ENDBRANCH  10  11
ENDBRANCH   1  10
TORSDOF 12
ENDMDL
MODEL 6
REMARK VINA RESULT:    -0.940      1.789      2.383
REMARK INTER + INTRA:          -3.509
REMARK INTER:                  -1.678
REMARK INTRA:                  -1.830
REMARK UNBOUND:                -1.909
REMARK SMILES CCCCCCCCCCCCCC(=O)[O-]
REMARK SMILES IDX 8 1 9 2 10 3 11 4 12 5 13 6 14 7 15 8 16 9 7 10 6 11 5 12
REMARK SMILES IDX 4 13 3 14 2 15 1 16
REMARK H PARENT
REMARK Flexibility Score: inf
ROOT
ATOM      1  C   UNL     1     -14.309 -20.956  81.571  1.00  0.00     0.000 C 
ENDROOT
BRANCH   1   2
ATOM      2  C   UNL     1     -15.501 -21.916  81.715  1.00  0.00     0.000 C 
BRANCH   2   3
ATOM      3  C   UNL     1     -15.290 -23.237  80.958  1.00  0.00     0.000 C 
BRANCH   3   4
ATOM      4  C   UNL     1     -16.541 -23.679  80.181  1.00  0.00     0.000 C 
BRANCH   4   5
ATOM      5  C   UNL     1     -17.848 -23.268  80.877  1.00  0.00     0.006 C 
BRANCH   5   6
ATOM      6  C   UNL     1     -18.355 -24.385  81.794  1.00  0.00     0.053 C 
BRANCH   6   7
ATOM      7  C   UNL     1     -18.837 -23.820  83.092  1.00  0.00     0.041 C 
ATOM      8  O   UNL     1     -19.580 -24.504  83.844  1.00  0.00    -0.550 OA
ATOM      9  O   UNL     1     -18.505 -22.520  83.450  1.00  0.00    -0.550 OA
ENDBRANCH   6   7
ENDBRANCH   5   6
ENDBRANCH   4   5
ENDBRANCH   3   4
ENDBRANCH   2   3
ENDBRANCH   1   2
BRANCH   1  10
ATOM     10  C   UNL     1     -13.038 -21.479  82.266  1.00  0.00     0.000 C 
BRANCH  10  11
ATOM     11  C   UNL     1     -12.987 -21.116  83.759  1.00  0.00    -0.000 C 
BRANCH  11  12
ATOM     12  C   UNL     1     -13.221 -22.335  84.669  1.00  0.00    -0.000 C 
BRANCH  12  13
ATOM     13  C   UNL     1     -14.600 -22.308  85.347  1.00  0.00    -0.000 C 
BRANCH  13  14
ATOM     14  C   UNL     1     -15.423 -23.579  85.069  1.00  0.00    -0.000 C 
BRANCH  14  15
ATOM     15  C   UNL     1     -14.623 -24.643  84.303  1.00  0.00    -0.003 C 
ATOM     16  C   UNL     1     -15.511 -25.740  83.717  1.00  0.00     0.004 C 
ENDBRANCH  14  15
ENDBRANCH  13  14
ENDBRANCH  12  13
ENDBRANCH  11  12
ENDBRANCH  10  11
ENDBRANCH   1  10
TORSDOF 12
ENDMDL
MODEL 7
REMARK VINA RESULT:    -0.936      2.222      2.953
REMARK INTER + INTRA:          -3.501
REMARK INTER:                  -1.641
REMARK INTRA:                  -1.860
REMARK UNBOUND:                -1.909
REMARK SMILES CCCCCCCCCCCCCC(=O)[O-]
REMARK SMILES IDX 8 1 9 2 10 3 11 4 12 5 13 6 14 7 15 8 16 9 7 10 6 11 5 12
REMARK SMILES IDX 4 13 3 14 2 15 1 16
REMARK H PARENT
REMARK Flexibility Score: inf
ROOT
ATOM      1  C   UNL     1     -14.640 -22.678  82.353  1.00  0.00     0.000 C 
ENDROOT
BRANCH   1   2
ATOM      2  C   UNL     1     -15.407 -23.912  81.849  1.00  0.00     0.000 C 
BRANCH   2   3
ATOM      3  C   UNL     1     -16.913 -23.834  82.151  1.00  0.00     0.000 C 
BRANCH   3   4
ATOM      4  C   UNL     1     -17.405 -22.388  82.333  1.00  0.00     0.000 C 
BRANCH   4   5
ATOM      5  C   UNL     1     -18.320 -21.924  81.189  1.00  0.00     0.006 C 
BRANCH   5   6
ATOM      6  C   UNL     1     -17.522 -21.166  80.124  1.00  0.00     0.053 C 
BRANCH   6   7
ATOM      7  C   UNL     1     -16.931 -19.918  80.700  1.00  0.00     0.041 C 
ATOM      8  O   UNL     1     -15.683 -19.753  80.705  1.00  0.00    -0.550 OA
ATOM      9  O   UNL     1     -17.755 -18.960  81.275  1.00  0.00    -0.550 OA
ENDBRANCH   6   7
ENDBRANCH   5   6
ENDBRANCH   4   5
ENDBRANCH   3   4
ENDBRANCH   2   3
ENDBRANCH   1   2
BRANCH   1  10
ATOM     10  C   UNL     1     -13.189 -23.003  82.753  1.00  0.00     0.000 C 
BRANCH  10  11
ATOM     11  C   UNL     1     -12.934 -22.819  84.257  1.00  0.00    -0.000 C 
BRANCH  11  12
ATOM     12  C   UNL     1     -14.107 -22.127  84.974  1.00  0.00    -0.000 C 
BRANCH  12  13
ATOM     13  C   UNL     1     -14.687 -22.980  86.113  1.00  0.00    -0.000 C 
BRANCH  13  14
ATOM     14  C   UNL     1     -14.460 -24.487  85.902  1.00  0.00    -0.000 C 
BRANCH  14  15
ATOM     15  C   UNL     1     -15.723 -25.209  85.409  1.00  0.00    -0.003 C 
ATOM     16  C   UNL     1     -17.007 -24.464  85.772  1.00  0.00     0.004 C 
ENDBRANCH  14  15
ENDBRANCH  13  14
ENDBRANCH  12  13
ENDBRANCH  11  12
ENDBRANCH  10  11
ENDBRANCH   1  10
TORSDOF 12
ENDMDL
MODEL 8
REMARK VINA RESULT:    -0.935      1.802      3.588
REMARK INTER + INTRA:          -3.499
REMARK INTER:                  -1.646
REMARK INTRA:                  -1.853
REMARK UNBOUND:                -1.909
REMARK SMILES CCCCCCCCCCCCCC(=O)[O-]
REMARK SMILES IDX 8 1 9 2 10 3 11 4 12 5 13 6 14 7 15 8 16 9 7 10 6 11 5 12
REMARK SMILES IDX 4 13 3 14 2 15 1 16
REMARK H PARENT
REMARK Flexibility Score: inf
ROOT
ATOM      1  C   UNL     1     -14.032 -22.213  84.812  1.00  0.00     0.000 C 
ENDROOT
BRANCH   1   2
ATOM      2  C   UNL     1     -13.517 -23.399  85.644  1.00  0.00     0.000 C 
BRANCH   2   3
ATOM      3  C   UNL     1     -14.111 -24.742  85.187  1.00  0.00     0.000 C 
BRANCH   3   4
ATOM      4  C   UNL     1     -13.598 -25.175  83.803  1.00  0.00     0.000 C 
BRANCH   4   5
ATOM      5  C   UNL     1     -14.736 -25.462  82.811  1.00  0.00     0.006 C 
BRANCH   5   6
ATOM      6  C   UNL     1     -14.181 -25.773  81.418  1.00  0.00     0.053 C 
BRANCH   6   7
ATOM      7  C   UNL     1     -15.234 -25.564  80.376  1.00  0.00     0.041 C 
ATOM      8  O   UNL     1     -16.410 -25.969  80.573  1.00  0.00    -0.550 OA
ATOM      9  O   UNL     1     -14.905 -24.967  79.166  1.00  0.00    -0.550 OA
ENDBRANCH   6   7
ENDBRANCH   5   6
ENDBRANCH   4   5
ENDBRANCH   3   4
ENDBRANCH   2   3
ENDBRANCH   1   2
BRANCH   1  10
ATOM     10  C   UNL     1     -12.895 -21.425  84.135  1.00  0.00     0.000 C 
BRANCH  10  11
ATOM     11  C   UNL     1     -13.273 -20.931  82.729  1.00  0.00    -0.000 C 
BRANCH  11  12
ATOM     12  C   UNL     1     -13.577 -22.088  81.760  1.00  0.00    -0.000 C 
BRANCH  12  13
ATOM     13  C   UNL     1     -14.899 -21.888  81.002  1.00  0.00    -0.000 C 
BRANCH  13  14
ATOM     14  C   UNL     1     -16.134 -22.144  81.882  1.00  0.00    -0.000 C 
BRANCH  14  15
ATOM     15  C   UNL     1     -17.365 -22.559  81.062  1.00  0.00    -0.003 C 
ATOM     16  C   UNL     1     -17.196 -22.291  79.567  1.00  0.00     0.004 C 
ENDBRANCH  14  15
ENDBRANCH  13  14
ENDBRANCH  12  13
ENDBRANCH  11  12
ENDBRANCH  10  11
ENDBRANCH   1  10
TORSDOF 12
ENDMDL
MODEL 9
REMARK VINA RESULT:    -0.924      1.478      3.347
REMARK INTER + INTRA:          -3.481
REMARK INTER:                  -1.701
REMARK INTRA:                  -1.780
REMARK UNBOUND:                -1.909
REMARK SMILES CCCCCCCCCCCCCC(=O)[O-]
REMARK SMILES IDX 8 1 9 2 10 3 11 4 12 5 13 6 14 7 15 8 16 9 7 10 6 11 5 12
REMARK SMILES IDX 4 13 3 14 2 15 1 16
REMARK H PARENT
REMARK Flexibility Score: inf
ROOT
ATOM      1  C   UNL     1     -16.509 -23.673  82.752  1.00  0.00     0.000 C 
ENDROOT
BRANCH   1   2
ATOM      2  C   UNL     1     -15.754 -24.993  82.982  1.00  0.00     0.000 C 
BRANCH   2   3
ATOM      3  C   UNL     1     -14.391 -25.025  82.271  1.00  0.00     0.000 C 
BRANCH   3   4
ATOM      4  C   UNL     1     -14.526 -25.092  80.741  1.00  0.00     0.000 C 
BRANCH   4   5
ATOM      5  C   UNL     1     -13.800 -23.939  80.030  1.00  0.00     0.006 C 
BRANCH   5   6
ATOM      6  C   UNL     1     -14.801 -22.908  79.499  1.00  0.00     0.053 C 
BRANCH   6   7
ATOM      7  C   UNL     1     -15.494 -23.429  78.279  1.00  0.00     0.041 C 
ATOM      8  O   UNL     1     -16.716 -23.724  78.322  1.00  0.00    -0.550 OA
ATOM      9  O   UNL     1     -14.776 -23.635  77.107  1.00  0.00    -0.550 OA
ENDBRANCH   6   7
ENDBRANCH   5   6
ENDBRANCH   4   5
ENDBRANCH   3   4
ENDBRANCH   2   3
ENDBRANCH   1   2
BRANCH   1  10
ATOM     10  C   UNL     1     -16.796 -22.917  84.062  1.00  0.00     0.000 C 
BRANCH  10  11
ATOM     11  C   UNL     1     -15.958 -23.435  85.242  1.00  0.00    -0.000 C 
BRANCH  11  12
ATOM     12  C   UNL     1     -14.887 -22.425  85.691  1.00  0.00    -0.000 C 
BRANCH  12  13
ATOM     13  C   UNL     1     -13.547 -22.626  84.965  1.00  0.00    -0.000 C 
BRANCH  13  14
ATOM     14  C   UNL     1     -13.108 -21.382  84.173  1.00  0.00    -0.000 C 
BRANCH  14  15
ATOM     15  C   UNL     1     -13.670 -21.366  82.743  1.00  0.00    -0.003 C 
ATOM     16  C   UNL     1     -13.037 -20.280  81.873  1.00  0.00     0.004 C 
ENDBRANCH  14  15
ENDBRANCH  13  14
ENDBRANCH  12  13
ENDBRANCH  11  12
ENDBRANCH  10  11
ENDBRANCH   1  10
TORSDOF 12
ENDMDL
