MODEL 1
REMARK VINA RESULT:    -7.067      0.000      0.000
REMARK INTER + INTRA:          -8.057
REMARK INTER:                  -7.687
REMARK INTRA:                  -0.370
REMARK UNBOUND:                -0.370
REMARK SMILES C=C(C)[C@@H]1CC[C@]2(C)CC[C@@]3(C)[C@@H](CC[C@@H]4[C@]5(C)CC[C@H](O)C(C)(C)[C@@H]5CC[C@@]43C)[C@H]12
REMARK SMILES IDX 4 1 5 2 6 3 7 4 31 5 13 6 14 7 15 8 16 9 17 10 19 11 20 12
REMARK SMILES IDX 21 13 23 14 26 15 27 16 28 17 29 18 11 19 10 20 9 21 12 22
REMARK SMILES IDX 30 23 24 24 25 25 18 26 8 27 2 28 3 29 1 30 22 31
REMARK H PARENT 22 32
REMARK Flexibility Score: inf
ROOT
ATOM      1  C   UNL     1     115.048  73.713  46.881  1.00  0.00     0.018 C 
ATOM      2  C   UNL     1     115.033  74.979  47.738  1.00  0.00     0.009 C 
ATOM      3  C   UNL     1     115.424  74.533  49.138  1.00  0.00     0.008 C 
ATOM      4  C   UNL     1     115.913  73.060  49.050  1.00  0.00    -0.029 C 
ATOM      5  C   UNL     1     116.109  72.760  47.518  1.00  0.00     0.006 C 
ATOM      6  C   UNL     1     117.575  72.986  46.998  1.00  0.00    -0.000 C 
ATOM      7  C   UNL     1     117.820  72.409  45.603  1.00  0.00     0.005 C 
ATOM      8  C   UNL     1     119.012  73.110  44.958  1.00  0.00     0.005 C 
ATOM      9  C   UNL     1     120.094  73.689  45.929  1.00  0.00     0.002 C 
ATOM     10  C   UNL     1     121.446  74.028  45.122  1.00  0.00    -0.026 C 
ATOM     11  C   UNL     1     121.123  74.810  43.786  1.00  0.00     0.010 C 
ATOM     12  C   UNL     1     120.979  73.974  42.516  1.00  0.00     0.033 C 
ATOM     13  C   UNL     1     122.220  73.107  42.296  1.00  0.00     0.120 C 
ATOM     14  C   UNL     1     122.397  72.043  43.415  1.00  0.00    -0.006 C 
ATOM     15  C   UNL     1     122.352  72.737  44.861  1.00  0.00     0.003 C 
ATOM     16  C   UNL     1     122.342  71.732  46.054  1.00  0.00     0.005 C 
ATOM     17  C   UNL     1     120.973  71.492  46.734  1.00  0.00     0.008 C 
ATOM     18  C   UNL     1     120.225  72.777  47.231  1.00  0.00    -0.024 C 
ATOM     19  C   UNL     1     118.740  72.470  47.921  1.00  0.00    -0.024 C 
ATOM     20  C   UNL     1     118.496  73.229  49.274  1.00  0.00     0.008 C 
ATOM     21  C   UNL     1     117.166  72.872  49.947  1.00  0.00     0.007 C 
ATOM     22  C   UNL     1     118.576  70.937  48.230  1.00  0.00     0.012 C 
ATOM     23  C   UNL     1     121.134  73.427  48.319  1.00  0.00     0.012 C 
ATOM     24  C   UNL     1     121.381  70.873  43.206  1.00  0.00     0.014 C 
ATOM     25  C   UNL     1     123.814  71.421  43.210  1.00  0.00     0.014 C 
ATOM     26  C   UNL     1     122.289  75.066  45.960  1.00  0.00     0.012 C 
ATOM     27  C   UNL     1     114.807  72.128  49.614  1.00  0.00     0.011 C 
ENDROOT
BRANCH   1  28
ATOM     28  C   UNL     1     115.077  73.978  45.375  1.00  0.00    -0.077 C 
ATOM     29  C   UNL     1     115.914  75.124  44.862  1.00  0.00     0.039 C 
ATOM     30  C   UNL     1     114.370  73.253  44.490  1.00  0.00     0.008 C 
ENDBRANCH   1  28
BRANCH  13  31
ATOM     31  O   UNL     1     122.148  72.485  41.035  1.00  0.00    -0.393 OA
ATOM     32  H   UNL     1     122.536  71.577  41.133  1.00  0.00     0.210 HD
ENDBRANCH  13  31
TORSDOF 2
ENDMDL
MODEL 2
REMARK VINA RESULT:    -5.396      3.229      6.207
REMARK INTER + INTRA:          -6.240
REMARK INTER:                  -5.706
REMARK INTRA:                  -0.534
REMARK UNBOUND:                -0.370
REMARK SMILES C=C(C)[C@@H]1CC[C@]2(C)CC[C@@]3(C)[C@@H](CC[C@@H]4[C@]5(C)CC[C@H](O)C(C)(C)[C@@H]5CC[C@@]43C)[C@H]12
REMARK SMILES IDX 4 1 5 2 6 3 7 4 31 5 13 6 14 7 15 8 16 9 17 10 19 11 20 12
REMARK SMILES IDX 21 13 23 14 26 15 27 16 28 17 29 18 11 19 10 20 9 21 12 22
REMARK SMILES IDX 30 23 24 24 25 25 18 26 8 27 2 28 3 29 1 30 22 31
REMARK H PARENT 22 32
REMARK Flexibility Score: inf
ROOT
ATOM      1  C   UNL     1     120.996  66.687  48.208  1.00  0.00     0.018 C 
ATOM      2  C   UNL     1     120.977  66.859  49.727  1.00  0.00     0.009 C 
ATOM      3  C   UNL     1     122.401  67.218  50.119  1.00  0.00     0.008 C 
ATOM      4  C   UNL     1     123.198  67.503  48.816  1.00  0.00    -0.029 C 
ATOM      5  C   UNL     1     122.125  67.624  47.670  1.00  0.00     0.006 C 
ATOM      6  C   UNL     1     121.657  69.096  47.378  1.00  0.00    -0.000 C 
ATOM      7  C   UNL     1     120.857  69.232  46.081  1.00  0.00     0.005 C 
ATOM      8  C   UNL     1     119.999  70.493  46.135  1.00  0.00     0.005 C 
ATOM      9  C   UNL     1     120.530  71.663  47.029  1.00  0.00     0.002 C 
ATOM     10  C   UNL     1     119.756  73.031  46.677  1.00  0.00    -0.026 C 
ATOM     11  C   UNL     1     118.195  72.788  46.586  1.00  0.00     0.010 C 
ATOM     12  C   UNL     1     117.623  72.506  45.198  1.00  0.00     0.033 C 
ATOM     13  C   UNL     1     118.010  73.615  44.219  1.00  0.00     0.120 C 
ATOM     14  C   UNL     1     119.544  73.671  43.975  1.00  0.00    -0.006 C 
ATOM     15  C   UNL     1     120.332  73.751  45.371  1.00  0.00     0.003 C 
ATOM     16  C   UNL     1     121.882  73.632  45.240  1.00  0.00     0.005 C 
ATOM     17  C   UNL     1     122.494  72.257  45.602  1.00  0.00     0.008 C 
ATOM     18  C   UNL     1     122.125  71.699  47.019  1.00  0.00    -0.024 C 
ATOM     19  C   UNL     1     122.777  70.200  47.346  1.00  0.00    -0.024 C 
ATOM     20  C   UNL     1     123.438  70.089  48.766  1.00  0.00     0.008 C 
ATOM     21  C   UNL     1     124.114  68.738  49.024  1.00  0.00     0.007 C 
ATOM     22  C   UNL     1     123.894  69.839  46.300  1.00  0.00     0.012 C 
ATOM     23  C   UNL     1     122.700  72.710  48.059  1.00  0.00     0.012 C 
ATOM     24  C   UNL     1     119.979  72.504  43.031  1.00  0.00     0.014 C 
ATOM     25  C   UNL     1     119.815  74.988  43.181  1.00  0.00     0.014 C 
ATOM     26  C   UNL     1     119.902  74.023  47.896  1.00  0.00     0.012 C 
ATOM     27  C   UNL     1     124.125  66.294  48.516  1.00  0.00     0.011 C 
ENDROOT
BRANCH   1  28
ATOM     28  C   UNL     1     119.613  66.719  47.557  1.00  0.00    -0.077 C 
ATOM     29  C   UNL     1     118.489  67.409  48.290  1.00  0.00     0.039 C 
ATOM     30  C   UNL     1     119.346  66.138  46.374  1.00  0.00     0.008 C 
ENDBRANCH   1  28
BRANCH  13  31
ATOM     31  O   UNL     1     117.327  73.434  43.001  1.00  0.00    -0.393 OA
ATOM     32  H   UNL     1     117.338  72.462  42.800  1.00  0.00     0.210 HD
ENDBRANCH  13  31
TORSDOF 2
ENDMDL
MODEL 3
REMARK VINA RESULT:    -5.208      3.275      6.277
REMARK INTER + INTRA:          -6.034
REMARK INTER:                  -5.533
REMARK INTRA:                  -0.502
REMARK UNBOUND:                -0.370
REMARK SMILES C=C(C)[C@@H]1CC[C@]2(C)CC[C@@]3(C)[C@@H](CC[C@@H]4[C@]5(C)CC[C@H](O)C(C)(C)[C@@H]5CC[C@@]43C)[C@H]12
REMARK SMILES IDX 4 1 5 2 6 3 7 4 31 5 13 6 14 7 15 8 16 9 17 10 19 11 20 12
REMARK SMILES IDX 21 13 23 14 26 15 27 16 28 17 29 18 11 19 10 20 9 21 12 22
REMARK SMILES IDX 30 23 24 24 25 25 18 26 8 27 2 28 3 29 1 30 22 31
REMARK H PARENT 22 32
REMARK Flexibility Score: inf
ROOT
ATOM      1  C   UNL     1     120.819  73.049  43.608  1.00  0.00     0.018 C 
ATOM      2  C   UNL     1     121.776  74.159  44.046  1.00  0.00     0.009 C 
ATOM      3  C   UNL     1     120.939  75.124  44.870  1.00  0.00     0.008 C 
ATOM      4  C   UNL     1     119.558  74.459  45.128  1.00  0.00    -0.029 C 
ATOM      5  C   UNL     1     119.723  72.948  44.717  1.00  0.00     0.006 C 
ATOM      6  C   UNL     1     120.096  71.993  45.909  1.00  0.00    -0.000 C 
ATOM      7  C   UNL     1     119.955  70.509  45.563  1.00  0.00     0.005 C 
ATOM      8  C   UNL     1     120.818  69.677  46.507  1.00  0.00     0.005 C 
ATOM      9  C   UNL     1     121.088  70.281  47.925  1.00  0.00     0.002 C 
ATOM     10  C   UNL     1     121.653  69.146  48.919  1.00  0.00    -0.026 C 
ATOM     11  C   UNL     1     122.794  68.302  48.219  1.00  0.00     0.010 C 
ATOM     12  C   UNL     1     122.368  67.007  47.530  1.00  0.00     0.033 C 
ATOM     13  C   UNL     1     121.607  66.103  48.503  1.00  0.00     0.120 C 
ATOM     14  C   UNL     1     120.261  66.734  48.957  1.00  0.00    -0.006 C 
ATOM     15  C   UNL     1     120.498  68.218  49.520  1.00  0.00     0.003 C 
ATOM     16  C   UNL     1     119.187  69.001  49.835  1.00  0.00     0.005 C 
ATOM     17  C   UNL     1     118.754  70.058  48.790  1.00  0.00     0.008 C 
ATOM     18  C   UNL     1     119.834  71.133  48.421  1.00  0.00    -0.024 C 
ATOM     19  C   UNL     1     119.333  72.224  47.265  1.00  0.00    -0.024 C 
ATOM     20  C   UNL     1     119.660  73.719  47.616  1.00  0.00     0.008 C 
ATOM     21  C   UNL     1     119.118  74.722  46.593  1.00  0.00     0.007 C 
ATOM     22  C   UNL     1     117.777  72.140  47.057  1.00  0.00     0.012 C 
ATOM     23  C   UNL     1     120.137  71.925  49.730  1.00  0.00     0.012 C 
ATOM     24  C   UNL     1     119.202  66.617  47.813  1.00  0.00     0.014 C 
ATOM     25  C   UNL     1     119.731  65.844  50.125  1.00  0.00     0.014 C 
ATOM     26  C   UNL     1     122.400  69.849  50.118  1.00  0.00     0.012 C 
ATOM     27  C   UNL     1     118.499  75.122  44.208  1.00  0.00     0.011 C 
ENDROOT
BRANCH   1  28
ATOM     28  C   UNL     1     121.515  71.781  43.115  1.00  0.00    -0.077 C 
ATOM     29  C   UNL     1     122.956  71.554  43.503  1.00  0.00     0.039 C 
ATOM     30  C   UNL     1     120.911  70.871  42.331  1.00  0.00     0.008 C 
ENDBRANCH   1  28
BRANCH  13  31
ATOM     31  O   UNL     1     121.384  64.846  47.908  1.00  0.00    -0.393 OA
ATOM     32  H   UNL     1     121.457  64.165  48.625  1.00  0.00     0.210 HD
ENDBRANCH  13  31
TORSDOF 2
ENDMDL
MODEL 4
REMARK VINA RESULT:    -4.887      2.900      6.153
REMARK INTER + INTRA:          -5.685
REMARK INTER:                  -5.536
REMARK INTRA:                  -0.149
REMARK UNBOUND:                -0.370
REMARK SMILES C=C(C)[C@@H]1CC[C@]2(C)CC[C@@]3(C)[C@@H](CC[C@@H]4[C@]5(C)CC[C@H](O)C(C)(C)[C@@H]5CC[C@@]43C)[C@H]12
REMARK SMILES IDX 4 1 5 2 6 3 7 4 31 5 13 6 14 7 15 8 16 9 17 10 19 11 20 12
REMARK SMILES IDX 21 13 23 14 26 15 27 16 28 17 29 18 11 19 10 20 9 21 12 22
REMARK SMILES IDX 30 23 24 24 25 25 18 26 8 27 2 28 3 29 1 30 22 31
REMARK H PARENT 22 32
REMARK Flexibility Score: inf
ROOT
ATOM      1  C   UNL     1     120.639  68.246  49.290  1.00  0.00     0.018 C 
ATOM      2  C   UNL     1     121.859  68.637  50.125  1.00  0.00     0.009 C 
ATOM      3  C   UNL     1     123.070  68.288  49.275  1.00  0.00     0.008 C 
ATOM      4  C   UNL     1     122.565  67.929  47.850  1.00  0.00    -0.029 C 
ATOM      5  C   UNL     1     121.062  68.393  47.794  1.00  0.00     0.006 C 
ATOM      6  C   UNL     1     120.855  69.836  47.204  1.00  0.00    -0.000 C 
ATOM      7  C   UNL     1     119.395  70.153  46.875  1.00  0.00     0.005 C 
ATOM      8  C   UNL     1     119.190  71.664  46.843  1.00  0.00     0.005 C 
ATOM      9  C   UNL     1     120.438  72.532  46.469  1.00  0.00     0.002 C 
ATOM     10  C   UNL     1     119.984  74.031  46.090  1.00  0.00    -0.026 C 
ATOM     11  C   UNL     1     118.954  74.592  47.152  1.00  0.00     0.010 C 
ATOM     12  C   UNL     1     117.471  74.425  46.826  1.00  0.00     0.033 C 
ATOM     13  C   UNL     1     117.148  75.023  45.456  1.00  0.00     0.120 C 
ATOM     14  C   UNL     1     117.861  74.264  44.303  1.00  0.00    -0.006 C 
ATOM     15  C   UNL     1     119.435  74.152  44.594  1.00  0.00     0.003 C 
ATOM     16  C   UNL     1     120.212  73.252  43.583  1.00  0.00     0.005 C 
ATOM     17  C   UNL     1     120.578  71.831  44.074  1.00  0.00     0.008 C 
ATOM     18  C   UNL     1     121.367  71.760  45.427  1.00  0.00    -0.024 C 
ATOM     19  C   UNL     1     121.704  70.208  45.933  1.00  0.00    -0.024 C 
ATOM     20  C   UNL     1     123.185  70.001  46.411  1.00  0.00     0.008 C 
ATOM     21  C   UNL     1     123.511  68.552  46.789  1.00  0.00     0.007 C 
ATOM     22  C   UNL     1     121.458  69.179  44.770  1.00  0.00     0.012 C 
ATOM     23  C   UNL     1     122.723  72.492  45.189  1.00  0.00     0.012 C 
ATOM     24  C   UNL     1     117.137  72.905  44.028  1.00  0.00     0.014 C 
ATOM     25  C   UNL     1     117.658  75.125  43.017  1.00  0.00     0.014 C 
ATOM     26  C   UNL     1     121.228  74.990  46.243  1.00  0.00     0.012 C 
ATOM     27  C   UNL     1     122.627  66.389  47.665  1.00  0.00     0.011 C 
ENDROOT
BRANCH   1  28
ATOM     28  C   UNL     1     119.327  68.867  49.770  1.00  0.00    -0.077 C 
ATOM     29  C   UNL     1     118.096  67.996  49.820  1.00  0.00     0.039 C 
ATOM     30  C   UNL     1     119.214  70.158  50.125  1.00  0.00     0.008 C 
ENDBRANCH   1  28
BRANCH  13  31
ATOM     31  O   UNL     1     115.754  75.024  45.254  1.00  0.00    -0.393 OA
ATOM     32  H   UNL     1     115.366  74.367  45.888  1.00  0.00     0.210 HD
ENDBRANCH  13  31
TORSDOF 2
ENDMDL
MODEL 5
REMARK VINA RESULT:    -4.826      2.640      7.329
REMARK INTER + INTRA:          -5.619
REMARK INTER:                  -5.086
REMARK INTRA:                  -0.533
REMARK UNBOUND:                -0.370
REMARK SMILES C=C(C)[C@@H]1CC[C@]2(C)CC[C@@]3(C)[C@@H](CC[C@@H]4[C@]5(C)CC[C@H](O)C(C)(C)[C@@H]5CC[C@@]43C)[C@H]12
REMARK SMILES IDX 4 1 5 2 6 3 7 4 31 5 13 6 14 7 15 8 16 9 17 10 19 11 20 12
REMARK SMILES IDX 21 13 23 14 26 15 27 16 28 17 29 18 11 19 10 20 9 21 12 22
REMARK SMILES IDX 30 23 24 24 25 25 18 26 8 27 2 28 3 29 1 30 22 31
REMARK H PARENT 22 32
REMARK Flexibility Score: inf
ROOT
ATOM      1  C   UNL     1     121.953  69.931  44.319  1.00  0.00     0.018 C 
ATOM      2  C   UNL     1     123.348  70.274  44.841  1.00  0.00     0.009 C 
ATOM      3  C   UNL     1     123.699  71.620  44.229  1.00  0.00     0.008 C 
ATOM      4  C   UNL     1     122.418  72.185  43.554  1.00  0.00    -0.029 C 
ATOM      5  C   UNL     1     121.228  71.292  44.067  1.00  0.00     0.006 C 
ATOM      6  C   UNL     1     120.485  71.870  45.327  1.00  0.00    -0.000 C 
ATOM      7  C   UNL     1     119.162  71.164  45.627  1.00  0.00     0.005 C 
ATOM      8  C   UNL     1     118.789  71.371  47.092  1.00  0.00     0.005 C 
ATOM      9  C   UNL     1     119.324  72.675  47.773  1.00  0.00     0.002 C 
ATOM     10  C   UNL     1     118.537  72.949  49.152  1.00  0.00    -0.026 C 
ATOM     11  C   UNL     1     118.432  71.626  50.013  1.00  0.00     0.010 C 
ATOM     12  C   UNL     1     117.159  70.797  49.848  1.00  0.00     0.033 C 
ATOM     13  C   UNL     1     115.919  71.656  50.102  1.00  0.00     0.120 C 
ATOM     14  C   UNL     1     115.760  72.783  49.043  1.00  0.00    -0.006 C 
ATOM     15  C   UNL     1     117.113  73.638  48.925  1.00  0.00     0.003 C 
ATOM     16  C   UNL     1     117.114  74.678  47.764  1.00  0.00     0.005 C 
ATOM     17  C   UNL     1     117.902  74.283  46.492  1.00  0.00     0.008 C 
ATOM     18  C   UNL     1     119.398  73.870  46.719  1.00  0.00    -0.024 C 
ATOM     19  C   UNL     1     120.192  73.416  45.326  1.00  0.00    -0.024 C 
ATOM     20  C   UNL     1     121.617  74.056  45.168  1.00  0.00     0.008 C 
ATOM     21  C   UNL     1     122.303  73.706  43.843  1.00  0.00     0.007 C 
ATOM     22  C   UNL     1     119.367  73.832  44.054  1.00  0.00     0.012 C 
ATOM     23  C   UNL     1     120.122  75.125  47.297  1.00  0.00     0.012 C 
ATOM     24  C   UNL     1     115.232  72.183  47.699  1.00  0.00     0.014 C 
ATOM     25  C   UNL     1     114.628  73.721  49.567  1.00  0.00     0.014 C 
ATOM     26  C   UNL     1     119.413  73.904  50.053  1.00  0.00     0.012 C 
ATOM     27  C   UNL     1     122.546  72.024  42.015  1.00  0.00     0.011 C 
ENDROOT
BRANCH   1  28
ATOM     28  C   UNL     1     121.242  68.830  45.107  1.00  0.00    -0.077 C 
ATOM     29  C   UNL     1     121.578  68.661  46.568  1.00  0.00     0.039 C 
ATOM     30  C   UNL     1     120.351  67.990  44.552  1.00  0.00     0.008 C 
ENDBRANCH   1  28
BRANCH  13  31
ATOM     31  O   UNL     1     114.772  70.839  50.125  1.00  0.00    -0.393 OA
ATOM     32  H   UNL     1     114.171  71.197  50.828  1.00  0.00     0.210 HD
ENDBRANCH  13  31
TORSDOF 2
ENDMDL
MODEL 6
REMARK VINA RESULT:    -4.709      3.729      6.499
REMARK INTER + INTRA:          -5.492
REMARK INTER:                  -4.954
REMARK INTRA:                  -0.538
REMARK UNBOUND:                -0.370
REMARK SMILES C=C(C)[C@@H]1CC[C@]2(C)CC[C@@]3(C)[C@@H](CC[C@@H]4[C@]5(C)CC[C@H](O)C(C)(C)[C@@H]5CC[C@@]43C)[C@H]12
REMARK SMILES IDX 4 1 5 2 6 3 7 4 31 5 13 6 14 7 15 8 16 9 17 10 19 11 20 12
REMARK SMILES IDX 21 13 23 14 26 15 27 16 28 17 29 18 11 19 10 20 9 21 12 22
REMARK SMILES IDX 30 23 24 24 25 25 18 26 8 27 2 28 3 29 1 30 22 31
REMARK H PARENT 22 32
REMARK Flexibility Score: inf
ROOT
ATOM      1  C   UNL     1     120.656  65.833  48.196  1.00  0.00     0.018 C 
ATOM      2  C   UNL     1     120.657  65.987  49.718  1.00  0.00     0.009 C 
ATOM      3  C   UNL     1     122.119  66.058  50.124  1.00  0.00     0.008 C 
ATOM      4  C   UNL     1     122.968  66.201  48.830  1.00  0.00    -0.029 C 
ATOM      5  C   UNL     1     121.949  66.541  47.680  1.00  0.00     0.006 C 
ATOM      6  C   UNL     1     121.777  68.080  47.405  1.00  0.00    -0.000 C 
ATOM      7  C   UNL     1     121.031  68.384  46.105  1.00  0.00     0.005 C 
ATOM      8  C   UNL     1     120.432  69.786  46.171  1.00  0.00     0.005 C 
ATOM      9  C   UNL     1     121.171  70.820  47.084  1.00  0.00     0.002 C 
ATOM     10  C   UNL     1     120.679  72.316  46.747  1.00  0.00    -0.026 C 
ATOM     11  C   UNL     1     119.101  72.380  46.642  1.00  0.00     0.010 C 
ATOM     12  C   UNL     1     118.498  72.232  45.247  1.00  0.00     0.033 C 
ATOM     13  C   UNL     1     119.101  73.258  44.286  1.00  0.00     0.120 C 
ATOM     14  C   UNL     1     120.619  73.019  44.053  1.00  0.00    -0.006 C 
ATOM     15  C   UNL     1     121.395  72.927  45.455  1.00  0.00     0.003 C 
ATOM     16  C   UNL     1     122.893  72.512  45.333  1.00  0.00     0.005 C 
ATOM     17  C   UNL     1     123.226  71.041  45.679  1.00  0.00     0.008 C 
ATOM     18  C   UNL     1     122.742  70.547  47.086  1.00  0.00    -0.024 C 
ATOM     19  C   UNL     1     123.090  68.947  47.396  1.00  0.00    -0.024 C 
ATOM     20  C   UNL     1     123.704  68.692  48.819  1.00  0.00     0.008 C 
ATOM     21  C   UNL     1     124.104  67.232  49.062  1.00  0.00     0.007 C 
ATOM     22  C   UNL     1     124.125  68.390  46.352  1.00  0.00     0.012 C 
ATOM     23  C   UNL     1     123.493  71.414  48.143  1.00  0.00     0.012 C 
ATOM     24  C   UNL     1     120.829  71.801  43.095  1.00  0.00     0.014 C 
ATOM     25  C   UNL     1     121.147  74.268  43.280  1.00  0.00     0.014 C 
ATOM     26  C   UNL     1     121.002  73.246  47.981  1.00  0.00     0.012 C 
ATOM     27  C   UNL     1     123.647  64.839  48.520  1.00  0.00     0.011 C 
ENDROOT
BRANCH   1  28
ATOM     28  C   UNL     1     119.311  66.140  47.537  1.00  0.00    -0.077 C 
ATOM     29  C   UNL     1     118.352  67.059  48.254  1.00  0.00     0.039 C 
ATOM     30  C   UNL     1     118.933  65.609  46.361  1.00  0.00     0.008 C 
ENDBRANCH   1  28
BRANCH  13  31
ATOM     31  O   UNL     1     118.407  73.227  43.061  1.00  0.00    -0.393 OA
ATOM     32  H   UNL     1     118.915  73.789  42.421  1.00  0.00     0.210 HD
ENDBRANCH  13  31
TORSDOF 2
ENDMDL
MODEL 7
REMARK VINA RESULT:    -4.469      4.558      7.189
REMARK INTER + INTRA:          -5.230
REMARK INTER:                  -4.743
REMARK INTRA:                  -0.488
REMARK UNBOUND:                -0.370
REMARK SMILES C=C(C)[C@@H]1CC[C@]2(C)CC[C@@]3(C)[C@@H](CC[C@@H]4[C@]5(C)CC[C@H](O)C(C)(C)[C@@H]5CC[C@@]43C)[C@H]12
REMARK SMILES IDX 4 1 5 2 6 3 7 4 31 5 13 6 14 7 15 8 16 9 17 10 19 11 20 12
REMARK SMILES IDX 21 13 23 14 26 15 27 16 28 17 29 18 11 19 10 20 9 21 12 22
REMARK SMILES IDX 30 23 24 24 25 25 18 26 8 27 2 28 3 29 1 30 22 31
REMARK H PARENT 22 32
REMARK Flexibility Score: inf
ROOT
ATOM      1  C   UNL     1     120.293  64.725  48.045  1.00  0.00     0.018 C 
ATOM      2  C   UNL     1     120.110  64.524  49.549  1.00  0.00     0.009 C 
ATOM      3  C   UNL     1     121.512  64.413  50.125  1.00  0.00     0.008 C 
ATOM      4  C   UNL     1     122.519  64.800  49.006  1.00  0.00    -0.029 C 
ATOM      5  C   UNL     1     121.662  65.456  47.860  1.00  0.00     0.006 C 
ATOM      6  C   UNL     1     121.573  67.023  47.939  1.00  0.00    -0.000 C 
ATOM      7  C   UNL     1     121.003  67.662  46.671  1.00  0.00     0.005 C 
ATOM      8  C   UNL     1     120.445  69.045  46.997  1.00  0.00     0.005 C 
ATOM      9  C   UNL     1     121.096  69.795  48.207  1.00  0.00     0.002 C 
ATOM     10  C   UNL     1     120.696  71.355  48.178  1.00  0.00    -0.026 C 
ATOM     11  C   UNL     1     119.147  71.535  47.913  1.00  0.00     0.010 C 
ATOM     12  C   UNL     1     118.717  71.747  46.463  1.00  0.00     0.033 C 
ATOM     13  C   UNL     1     119.467  72.930  45.845  1.00  0.00     0.120 C 
ATOM     14  C   UNL     1     120.994  72.662  45.737  1.00  0.00    -0.006 C 
ATOM     15  C   UNL     1     121.585  72.204  47.157  1.00  0.00     0.003 C 
ATOM     16  C   UNL     1     123.074  71.741  47.111  1.00  0.00     0.005 C 
ATOM     17  C   UNL     1     123.316  70.212  47.136  1.00  0.00     0.008 C 
ATOM     18  C   UNL     1     122.646  69.436  48.322  1.00  0.00    -0.024 C 
ATOM     19  C   UNL     1     122.903  67.790  48.283  1.00  0.00    -0.024 C 
ATOM     20  C   UNL     1     123.327  67.178  49.666  1.00  0.00     0.008 C 
ATOM     21  C   UNL     1     123.649  65.681  49.602  1.00  0.00     0.007 C 
ATOM     22  C   UNL     1     124.042  67.429  47.262  1.00  0.00     0.012 C 
ATOM     23  C   UNL     1     123.286  69.991  49.632  1.00  0.00     0.012 C 
ATOM     24  C   UNL     1     121.283  71.688  44.549  1.00  0.00     0.014 C 
ATOM     25  C   UNL     1     121.651  74.022  45.345  1.00  0.00     0.014 C 
ATOM     26  C   UNL     1     120.892  71.954  49.625  1.00  0.00     0.012 C 
ATOM     27  C   UNL     1     123.189  63.509  48.462  1.00  0.00     0.011 C 
ENDROOT
BRANCH   1  28
ATOM     28  C   UNL     1     119.051  65.255  47.328  1.00  0.00    -0.077 C 
ATOM     29  C   UNL     1     117.967  65.906  48.153  1.00  0.00     0.039 C 
ATOM     30  C   UNL     1     118.867  65.144  46.001  1.00  0.00     0.008 C 
ENDBRANCH   1  28
BRANCH  13  31
ATOM     31  O   UNL     1     118.929  73.223  44.577  1.00  0.00    -0.393 OA
ATOM     32  H   UNL     1     119.466  73.965  44.196  1.00  0.00     0.210 HD
ENDBRANCH  13  31
TORSDOF 2
ENDMDL
MODEL 8
REMARK VINA RESULT:    -4.244      3.394      6.921
REMARK INTER + INTRA:          -4.986
REMARK INTER:                  -4.507
REMARK INTRA:                  -0.479
REMARK UNBOUND:                -0.370
REMARK SMILES C=C(C)[C@@H]1CC[C@]2(C)CC[C@@]3(C)[C@@H](CC[C@@H]4[C@]5(C)CC[C@H](O)C(C)(C)[C@@H]5CC[C@@]43C)[C@H]12
REMARK SMILES IDX 4 1 5 2 6 3 7 4 31 5 13 6 14 7 15 8 16 9 17 10 19 11 20 12
REMARK SMILES IDX 21 13 23 14 26 15 27 16 28 17 29 18 11 19 10 20 9 21 12 22
REMARK SMILES IDX 30 23 24 24 25 25 18 26 8 27 2 28 3 29 1 30 22 31
REMARK H PARENT 22 32
REMARK Flexibility Score: inf
ROOT
ATOM      1  C   UNL     1     120.974  66.610  48.532  1.00  0.00     0.018 C 
ATOM      2  C   UNL     1     121.486  66.604  49.972  1.00  0.00     0.009 C 
ATOM      3  C   UNL     1     122.906  67.142  49.909  1.00  0.00     0.008 C 
ATOM      4  C   UNL     1     123.141  67.700  48.477  1.00  0.00    -0.029 C 
ATOM      5  C   UNL     1     121.720  67.774  47.803  1.00  0.00     0.006 C 
ATOM      6  C   UNL     1     121.017  69.174  47.934  1.00  0.00    -0.000 C 
ATOM      7  C   UNL     1     119.793  69.324  47.029  1.00  0.00     0.005 C 
ATOM      8  C   UNL     1     118.877  70.414  47.578  1.00  0.00     0.005 C 
ATOM      9  C   UNL     1     119.559  71.546  48.416  1.00  0.00     0.002 C 
ATOM     10  C   UNL     1     118.562  72.800  48.580  1.00  0.00    -0.026 C 
ATOM     11  C   UNL     1     117.112  72.318  48.988  1.00  0.00     0.010 C 
ATOM     12  C   UNL     1     116.112  72.106  47.852  1.00  0.00     0.033 C 
ATOM     13  C   UNL     1     115.993  73.368  46.995  1.00  0.00     0.120 C 
ATOM     14  C   UNL     1     117.319  73.700  46.256  1.00  0.00    -0.006 C 
ATOM     15  C   UNL     1     118.543  73.748  47.292  1.00  0.00     0.003 C 
ATOM     16  C   UNL     1     119.944  73.898  46.623  1.00  0.00     0.005 C 
ATOM     17  C   UNL     1     120.796  72.610  46.523  1.00  0.00     0.008 C 
ATOM     18  C   UNL     1     121.029  71.842  47.869  1.00  0.00    -0.024 C 
ATOM     19  C   UNL     1     121.918  70.442  47.703  1.00  0.00    -0.024 C 
ATOM     20  C   UNL     1     123.056  70.279  48.774  1.00  0.00     0.008 C 
ATOM     21  C   UNL     1     123.926  69.036  48.560  1.00  0.00     0.007 C 
ATOM     22  C   UNL     1     122.614  70.389  46.294  1.00  0.00     0.012 C 
ATOM     23  C   UNL     1     121.823  72.808  48.801  1.00  0.00     0.012 C 
ATOM     24  C   UNL     1     117.511  72.734  45.042  1.00  0.00     0.014 C 
ATOM     25  C   UNL     1     117.136  75.125  45.645  1.00  0.00     0.014 C 
ATOM     26  C   UNL     1     119.027  73.657  49.821  1.00  0.00     0.012 C 
ATOM     27  C   UNL     1     124.026  66.700  47.685  1.00  0.00     0.011 C 
ENDROOT
BRANCH   1  28
ATOM     28  C   UNL     1     119.455  66.490  48.406  1.00  0.00    -0.077 C 
ATOM     29  C   UNL     1     118.885  65.853  47.163  1.00  0.00     0.039 C 
ATOM     30  C   UNL     1     118.604  66.950  49.340  1.00  0.00     0.008 C 
ENDBRANCH   1  28
BRANCH  13  31
ATOM     31  O   UNL     1     114.941  73.217  46.072  1.00  0.00    -0.393 OA
ATOM     32  H   UNL     1     114.311  73.969  46.219  1.00  0.00     0.210 HD
ENDBRANCH  13  31
TORSDOF 2
ENDMDL
