MODEL 1
REMARK VINA RESULT:    -3.699      0.000      0.000
REMARK INTER + INTRA:          -7.844
REMARK INTER:                  -6.726
REMARK INTRA:                  -1.117
REMARK UNBOUND:                -1.117
REMARK SMILES CCCCCCCCCCCCCCCC(=O)[O-]
REMARK SMILES IDX 9 1 10 2 11 3 12 4 13 5 14 6 15 7 16 8 17 9 18 10 8 11 7 12
REMARK SMILES IDX 6 13 5 14 4 15 3 16 2 17 1 18
REMARK H PARENT
REMARK Flexibility Score: inf
ROOT
ATOM      1  C   UNL     1      16.991  19.416  45.314  1.00  0.00     0.000 C 
ENDROOT
BRANCH   1   2
ATOM      2  C   UNL     1      18.323  18.839  45.825  1.00  0.00     0.000 C 
BRANCH   2   3
ATOM      3  C   UNL     1      19.286  19.876  46.430  1.00  0.00     0.000 C 
BRANCH   3   4
ATOM      4  C   UNL     1      20.281  20.440  45.400  1.00  0.00     0.000 C 
BRANCH   4   5
ATOM      5  C   UNL     1      21.569  19.607  45.309  1.00  0.00     0.000 C 
BRANCH   5   6
ATOM      6  C   UNL     1      21.434  18.418  44.343  1.00  0.00     0.006 C 
BRANCH   6   7
ATOM      7  C   UNL     1      22.726  17.594  44.253  1.00  0.00     0.053 C 
BRANCH   7   8
ATOM      8  C   UNL     1      22.749  16.732  43.029  1.00  0.00     0.041 C 
ATOM      9  O   UNL     1      22.916  17.248  41.892  1.00  0.00    -0.550 OA
ATOM     10  O   UNL     1      22.619  15.354  43.146  1.00  0.00    -0.550 OA
ENDBRANCH   7   8
ENDBRANCH   6   7
ENDBRANCH   5   6
ENDBRANCH   4   5
ENDBRANCH   3   4
ENDBRANCH   2   3
ENDBRANCH   1   2
BRANCH   1  11
ATOM     11  C   UNL     1      16.244  20.234  46.383  1.00  0.00     0.000 C 
BRANCH  11  12
ATOM     12  C   UNL     1      15.021  19.493  46.944  1.00  0.00    -0.000 C 
BRANCH  12  13
ATOM     13  C   UNL     1      15.265  18.943  48.361  1.00  0.00    -0.000 C 
BRANCH  13  14
ATOM     14  C   UNL     1      16.488  19.580  49.039  1.00  0.00    -0.000 C 
BRANCH  14  15
ATOM     15  C   UNL     1      17.519  18.536  49.499  1.00  0.00    -0.000 C 
BRANCH  15  16
ATOM     16  C   UNL     1      18.055  18.875  50.897  1.00  0.00    -0.000 C 
BRANCH  16  17
ATOM     17  C   UNL     1      18.060  17.660  51.838  1.00  0.00    -0.003 C 
ATOM     18  C   UNL     1      16.751  17.506  52.613  1.00  0.00     0.004 C 
ENDBRANCH  16  17
ENDBRANCH  15  16
ENDBRANCH  14  15
ENDBRANCH  13  14
ENDBRANCH  12  13
ENDBRANCH  11  12
ENDBRANCH   1  11
TORSDOF 14
ENDMDL
MODEL 2
REMARK VINA RESULT:    -3.693     13.117     15.007
REMARK INTER + INTRA:          -7.833
REMARK INTER:                  -6.020
REMARK INTRA:                  -1.813
REMARK UNBOUND:                -1.117
REMARK SMILES CCCCCCCCCCCCCCCC(=O)[O-]
REMARK SMILES IDX 9 1 10 2 11 3 12 4 13 5 14 6 15 7 16 8 17 9 18 10 8 11 7 12
REMARK SMILES IDX 6 13 5 14 4 15 3 16 2 17 1 18
REMARK H PARENT
REMARK Flexibility Score: inf
ROOT
ATOM      1  C   UNL     1      19.279  26.906  57.085  1.00  0.00     0.000 C 
ENDROOT
BRANCH   1   2
ATOM      2  C   UNL     1      19.249  27.769  58.359  1.00  0.00     0.000 C 
BRANCH   2   3
ATOM      3  C   UNL     1      20.627  28.026  58.997  1.00  0.00     0.000 C 
BRANCH   3   4
ATOM      4  C   UNL     1      20.828  29.493  59.415  1.00  0.00     0.000 C 
BRANCH   4   5
ATOM      5  C   UNL     1      21.357  30.366  58.266  1.00  0.00     0.000 C 
BRANCH   5   6
ATOM      6  C   UNL     1      22.467  29.670  57.460  1.00  0.00     0.006 C 
BRANCH   6   7
ATOM      7  C   UNL     1      22.658  30.300  56.074  1.00  0.00     0.053 C 
BRANCH   7   8
ATOM      8  C   UNL     1      24.105  30.528  55.765  1.00  0.00     0.041 C 
ATOM      9  O   UNL     1      24.998  29.986  56.468  1.00  0.00    -0.550 OA
ATOM     10  O   UNL     1      24.468  31.314  54.678  1.00  0.00    -0.550 OA
ENDBRANCH   7   8
ENDBRANCH   6   7
ENDBRANCH   5   6
ENDBRANCH   4   5
ENDBRANCH   3   4
ENDBRANCH   2   3
ENDBRANCH   1   2
BRANCH   1  11
ATOM     11  C   UNL     1      19.486  27.735  55.805  1.00  0.00     0.000 C 
BRANCH  11  12
ATOM     12  C   UNL     1      18.827  29.121  55.888  1.00  0.00    -0.000 C 
BRANCH  12  13
ATOM     13  C   UNL     1      18.755  29.821  54.519  1.00  0.00    -0.000 C 
BRANCH  13  14
ATOM     14  C   UNL     1      17.324  29.881  53.962  1.00  0.00    -0.000 C 
BRANCH  14  15
ATOM     15  C   UNL     1      16.259  29.595  55.032  1.00  0.00    -0.000 C 
BRANCH  15  16
ATOM     16  C   UNL     1      15.290  28.501  54.562  1.00  0.00    -0.000 C 
BRANCH  16  17
ATOM     17  C   UNL     1      15.722  27.096  55.011  1.00  0.00    -0.003 C 
ATOM     18  C   UNL     1      14.535  26.180  55.313  1.00  0.00     0.004 C 
ENDBRANCH  16  17
ENDBRANCH  15  16
ENDBRANCH  14  15
ENDBRANCH  13  14
ENDBRANCH  12  13
ENDBRANCH  11  12
ENDBRANCH   1  11
TORSDOF 14
ENDMDL
MODEL 3
REMARK VINA RESULT:    -3.624     17.039     18.700
REMARK INTER + INTRA:          -7.708
REMARK INTER:                  -4.955
REMARK INTRA:                  -2.753
REMARK UNBOUND:                -1.117
REMARK SMILES CCCCCCCCCCCCCCCC(=O)[O-]
REMARK SMILES IDX 9 1 10 2 11 3 12 4 13 5 14 6 15 7 16 8 17 9 18 10 8 11 7 12
REMARK SMILES IDX 6 13 5 14 4 15 3 16 2 17 1 18
REMARK H PARENT
REMARK Flexibility Score: inf
ROOT
ATOM      1  C   UNL     1      25.248  32.227  53.878  1.00  0.00     0.000 C 
ENDROOT
BRANCH   1   2
ATOM      2  C   UNL     1      25.548  30.953  53.069  1.00  0.00     0.000 C 
BRANCH   2   3
ATOM      3  C   UNL     1      26.499  29.959  53.760  1.00  0.00     0.000 C 
BRANCH   3   4
ATOM      4  C   UNL     1      26.877  30.389  55.188  1.00  0.00     0.000 C 
BRANCH   4   5
ATOM      5  C   UNL     1      28.030  29.555  55.769  1.00  0.00     0.000 C 
BRANCH   5   6
ATOM      6  C   UNL     1      29.384  30.279  55.680  1.00  0.00     0.006 C 
BRANCH   6   7
ATOM      7  C   UNL     1      29.435  31.524  56.576  1.00  0.00     0.053 C 
BRANCH   7   8
ATOM      8  C   UNL     1      30.669  32.335  56.326  1.00  0.00     0.041 C 
ATOM      9  O   UNL     1      31.414  32.073  55.344  1.00  0.00    -0.550 OA
ATOM     10  O   UNL     1      30.979  33.403  57.158  1.00  0.00    -0.550 OA
ENDBRANCH   7   8
ENDBRANCH   6   7
ENDBRANCH   5   6
ENDBRANCH   4   5
ENDBRANCH   3   4
ENDBRANCH   2   3
ENDBRANCH   1   2
BRANCH   1  11
ATOM     11  C   UNL     1      25.526  33.517  53.087  1.00  0.00     0.000 C 
BRANCH  11  12
ATOM     12  C   UNL     1      26.577  34.410  53.766  1.00  0.00    -0.000 C 
BRANCH  12  13
ATOM     13  C   UNL     1      27.874  33.648  54.090  1.00  0.00    -0.000 C 
BRANCH  13  14
ATOM     14  C   UNL     1      28.840  33.591  52.897  1.00  0.00    -0.000 C 
BRANCH  14  15
ATOM     15  C   UNL     1      29.235  32.153  52.524  1.00  0.00    -0.000 C 
BRANCH  15  16
ATOM     16  C   UNL     1      28.622  31.748  51.176  1.00  0.00    -0.000 C 
BRANCH  16  17
ATOM     17  C   UNL     1      28.149  32.958  50.355  1.00  0.00    -0.003 C 
ATOM     18  C   UNL     1      26.773  32.745  49.725  1.00  0.00     0.004 C 
ENDBRANCH  16  17
ENDBRANCH  15  16
ENDBRANCH  14  15
ENDBRANCH  13  14
ENDBRANCH  12  13
ENDBRANCH  11  12
ENDBRANCH   1  11
TORSDOF 14
ENDMDL
MODEL 4
REMARK VINA RESULT:    -3.620      5.838      8.494
REMARK INTER + INTRA:          -7.699
REMARK INTER:                  -5.342
REMARK INTRA:                  -2.358
REMARK UNBOUND:                -1.117
REMARK SMILES CCCCCCCCCCCCCCCC(=O)[O-]
REMARK SMILES IDX 9 1 10 2 11 3 12 4 13 5 14 6 15 7 16 8 17 9 18 10 8 11 7 12
REMARK SMILES IDX 6 13 5 14 4 15 3 16 2 17 1 18
REMARK H PARENT
REMARK Flexibility Score: inf
ROOT
ATOM      1  C   UNL     1      17.422  20.923  51.159  1.00  0.00     0.000 C 
ENDROOT
BRANCH   1   2
ATOM      2  C   UNL     1      18.485  19.820  51.009  1.00  0.00     0.000 C 
BRANCH   2   3
ATOM      3  C   UNL     1      17.919  18.404  50.800  1.00  0.00     0.000 C 
BRANCH   3   4
ATOM      4  C   UNL     1      17.840  17.593  52.106  1.00  0.00     0.000 C 
BRANCH   4   5
ATOM      5  C   UNL     1      16.406  17.486  52.647  1.00  0.00     0.000 C 
BRANCH   5   6
ATOM      6  C   UNL     1      16.108  18.530  53.736  1.00  0.00     0.006 C 
BRANCH   6   7
ATOM      7  C   UNL     1      17.354  18.878  54.561  1.00  0.00     0.053 C 
BRANCH   7   8
ATOM      8  C   UNL     1      17.202  18.467  55.993  1.00  0.00     0.041 C 
ATOM      9  O   UNL     1      16.080  18.102  56.433  1.00  0.00    -0.550 OA
ATOM     10  O   UNL     1      18.307  18.455  56.834  1.00  0.00    -0.550 OA
ENDBRANCH   7   8
ENDBRANCH   6   7
ENDBRANCH   5   6
ENDBRANCH   4   5
ENDBRANCH   3   4
ENDBRANCH   2   3
ENDBRANCH   1   2
BRANCH   1  11
ATOM     11  C   UNL     1      16.541  21.079  49.907  1.00  0.00     0.000 C 
BRANCH  11  12
ATOM     12  C   UNL     1      15.047  21.200  50.248  1.00  0.00    -0.000 C 
BRANCH  12  13
ATOM     13  C   UNL     1      14.373  19.828  50.428  1.00  0.00    -0.000 C 
BRANCH  13  14
ATOM     14  C   UNL     1      14.719  18.847  49.297  1.00  0.00    -0.000 C 
BRANCH  14  15
ATOM     15  C   UNL     1      14.073  19.236  47.958  1.00  0.00    -0.000 C 
BRANCH  15  16
ATOM     16  C   UNL     1      15.099  19.181  46.817  1.00  0.00    -0.000 C 
BRANCH  16  17
ATOM     17  C   UNL     1      16.353  18.374  47.189  1.00  0.00    -0.003 C 
ATOM     18  C   UNL     1      17.648  19.155  46.966  1.00  0.00     0.004 C 
ENDBRANCH  16  17
ENDBRANCH  15  16
ENDBRANCH  14  15
ENDBRANCH  13  14
ENDBRANCH  12  13
ENDBRANCH  11  12
ENDBRANCH   1  11
TORSDOF 14
ENDMDL
MODEL 5
REMARK VINA RESULT:    -3.599      4.135      7.226
REMARK INTER + INTRA:          -7.662
REMARK INTER:                  -5.956
REMARK INTRA:                  -1.705
REMARK UNBOUND:                -1.117
REMARK SMILES CCCCCCCCCCCCCCCC(=O)[O-]
REMARK SMILES IDX 9 1 10 2 11 3 12 4 13 5 14 6 15 7 16 8 17 9 18 10 8 11 7 12
REMARK SMILES IDX 6 13 5 14 4 15 3 16 2 17 1 18
REMARK H PARENT
REMARK Flexibility Score: inf
ROOT
ATOM      1  C   UNL     1      16.595  17.850  53.995  1.00  0.00     0.000 C 
ENDROOT
BRANCH   1   2
ATOM      2  C   UNL     1      16.617  17.820  52.457  1.00  0.00     0.000 C 
BRANCH   2   3
ATOM      3  C   UNL     1      18.019  17.683  51.835  1.00  0.00     0.000 C 
BRANCH   3   4
ATOM      4  C   UNL     1      18.151  18.421  50.491  1.00  0.00     0.000 C 
BRANCH   4   5
ATOM      5  C   UNL     1      16.955  19.340  50.203  1.00  0.00     0.000 C 
BRANCH   5   6
ATOM      6  C   UNL     1      16.210  18.952  48.914  1.00  0.00     0.006 C 
BRANCH   6   7
ATOM      7  C   UNL     1      17.164  18.454  47.821  1.00  0.00     0.053 C 
BRANCH   7   8
ATOM      8  C   UNL     1      16.500  18.422  46.479  1.00  0.00     0.041 C 
ATOM      9  O   UNL     1      16.849  19.230  45.578  1.00  0.00    -0.550 OA
ATOM     10  O   UNL     1      15.517  17.477  46.213  1.00  0.00    -0.550 OA
ENDBRANCH   7   8
ENDBRANCH   6   7
ENDBRANCH   5   6
ENDBRANCH   4   5
ENDBRANCH   3   4
ENDBRANCH   2   3
ENDBRANCH   1   2
BRANCH   1  11
ATOM     11  C   UNL     1      15.738  18.997  54.559  1.00  0.00     0.000 C 
BRANCH  11  12
ATOM     12  C   UNL     1      15.709  19.011  56.096  1.00  0.00    -0.000 C 
BRANCH  12  13
ATOM     13  C   UNL     1      16.650  17.960  56.711  1.00  0.00    -0.000 C 
BRANCH  13  14
ATOM     14  C   UNL     1      17.641  18.570  57.714  1.00  0.00    -0.000 C 
BRANCH  14  15
ATOM     15  C   UNL     1      19.088  18.562  57.195  1.00  0.00    -0.000 C 
BRANCH  15  16
ATOM     16  C   UNL     1      19.418  19.876  56.473  1.00  0.00    -0.000 C 
BRANCH  16  17
ATOM     17  C   UNL     1      19.617  19.684  54.960  1.00  0.00    -0.003 C 
ATOM     18  C   UNL     1      18.965  20.792  54.133  1.00  0.00     0.004 C 
ENDBRANCH  16  17
ENDBRANCH  15  16
ENDBRANCH  14  15
ENDBRANCH  13  14
ENDBRANCH  12  13
ENDBRANCH  11  12
ENDBRANCH   1  11
TORSDOF 14
ENDMDL
MODEL 6
REMARK VINA RESULT:    -3.594      5.076      7.455
REMARK INTER + INTRA:          -7.652
REMARK INTER:                  -5.327
REMARK INTRA:                  -2.325
REMARK UNBOUND:                -1.117
REMARK SMILES CCCCCCCCCCCCCCCC(=O)[O-]
REMARK SMILES IDX 9 1 10 2 11 3 12 4 13 5 14 6 15 7 16 8 17 9 18 10 8 11 7 12
REMARK SMILES IDX 6 13 5 14 4 15 3 16 2 17 1 18
REMARK H PARENT
REMARK Flexibility Score: inf
ROOT
ATOM      1  C   UNL     1      14.794  20.336  48.570  1.00  0.00     0.000 C 
ENDROOT
BRANCH   1   2
ATOM      2  C   UNL     1      15.479  19.829  49.851  1.00  0.00     0.000 C 
BRANCH   2   3
ATOM      3  C   UNL     1      16.748  20.602  50.254  1.00  0.00     0.000 C 
BRANCH   3   4
ATOM      4  C   UNL     1      18.026  19.753  50.144  1.00  0.00     0.000 C 
BRANCH   4   5
ATOM      5  C   UNL     1      17.751  18.250  50.309  1.00  0.00     0.000 C 
BRANCH   5   6
ATOM      6  C   UNL     1      18.147  17.728  51.701  1.00  0.00     0.006 C 
BRANCH   6   7
ATOM      7  C   UNL     1      16.932  17.564  52.625  1.00  0.00     0.053 C 
BRANCH   7   8
ATOM      8  C   UNL     1      16.894  18.624  53.682  1.00  0.00     0.041 C 
ATOM      9  O   UNL     1      17.762  19.537  53.698  1.00  0.00    -0.550 OA
ATOM     10  O   UNL     1      15.879  18.624  54.630  1.00  0.00    -0.550 OA
ENDBRANCH   7   8
ENDBRANCH   6   7
ENDBRANCH   5   6
ENDBRANCH   4   5
ENDBRANCH   3   4
ENDBRANCH   2   3
ENDBRANCH   1   2
BRANCH   1  11
ATOM     11  C   UNL     1      13.664  19.409  48.089  1.00  0.00     0.000 C 
BRANCH  11  12
ATOM     12  C   UNL     1      13.955  18.793  46.711  1.00  0.00    -0.000 C 
BRANCH  12  13
ATOM     13  C   UNL     1      15.051  17.714  46.769  1.00  0.00    -0.000 C 
BRANCH  13  14
ATOM     14  C   UNL     1      16.245  18.036  45.856  1.00  0.00    -0.000 C 
BRANCH  14  15
ATOM     15  C   UNL     1      17.437  18.625  46.626  1.00  0.00    -0.000 C 
BRANCH  15  16
ATOM     16  C   UNL     1      17.624  20.112  46.293  1.00  0.00    -0.000 C 
BRANCH  16  17
ATOM     17  C   UNL     1      16.876  20.530  45.017  1.00  0.00    -0.003 C 
ATOM     18  C   UNL     1      15.893  21.676  45.255  1.00  0.00     0.004 C 
ENDBRANCH  16  17
ENDBRANCH  15  16
ENDBRANCH  14  15
ENDBRANCH  13  14
ENDBRANCH  12  13
ENDBRANCH  11  12
ENDBRANCH   1  11
TORSDOF 14
ENDMDL
MODEL 7
REMARK VINA RESULT:    -3.538     11.881     14.111
REMARK INTER + INTRA:          -7.551
REMARK INTER:                  -4.790
REMARK INTRA:                  -2.761
REMARK UNBOUND:                -1.117
REMARK SMILES CCCCCCCCCCCCCCCC(=O)[O-]
REMARK SMILES IDX 9 1 10 2 11 3 12 4 13 5 14 6 15 7 16 8 17 9 18 10 8 11 7 12
REMARK SMILES IDX 6 13 5 14 4 15 3 16 2 17 1 18
REMARK H PARENT
REMARK Flexibility Score: inf
ROOT
ATOM      1  C   UNL     1      15.887  26.271  53.470  1.00  0.00     0.000 C 
ENDROOT
BRANCH   1   2
ATOM      2  C   UNL     1      16.198  25.847  54.917  1.00  0.00     0.000 C 
BRANCH   2   3
ATOM      3  C   UNL     1      17.578  25.193  55.115  1.00  0.00     0.000 C 
BRANCH   3   4
ATOM      4  C   UNL     1      18.498  26.009  56.040  1.00  0.00     0.000 C 
BRANCH   4   5
ATOM      5  C   UNL     1      17.724  26.732  57.153  1.00  0.00     0.000 C 
BRANCH   5   6
ATOM      6  C   UNL     1      18.378  28.065  57.555  1.00  0.00     0.006 C 
BRANCH   6   7
ATOM      7  C   UNL     1      19.532  27.869  58.547  1.00  0.00     0.053 C 
BRANCH   7   8
ATOM      8  C   UNL     1      20.493  29.017  58.512  1.00  0.00     0.041 C 
ATOM      9  O   UNL     1      20.949  29.430  57.413  1.00  0.00    -0.550 OA
ATOM     10  O   UNL     1      20.861  29.652  59.691  1.00  0.00    -0.550 OA
ENDBRANCH   7   8
ENDBRANCH   6   7
ENDBRANCH   5   6
ENDBRANCH   4   5
ENDBRANCH   3   4
ENDBRANCH   2   3
ENDBRANCH   1   2
BRANCH   1  11
ATOM     11  C   UNL     1      15.514  27.759  53.350  1.00  0.00     0.000 C 
BRANCH  11  12
ATOM     12  C   UNL     1      15.188  28.396  54.709  1.00  0.00    -0.000 C 
BRANCH  12  13
ATOM     13  C   UNL     1      16.142  29.552  55.061  1.00  0.00    -0.000 C 
BRANCH  13  14
ATOM     14  C   UNL     1      17.209  29.786  53.981  1.00  0.00    -0.000 C 
BRANCH  14  15
ATOM     15  C   UNL     1      18.629  29.879  54.562  1.00  0.00    -0.000 C 
BRANCH  15  16
ATOM     16  C   UNL     1      19.516  28.748  54.024  1.00  0.00    -0.000 C 
BRANCH  16  17
ATOM     17  C   UNL     1      19.099  28.287  52.617  1.00  0.00    -0.003 C 
ATOM     18  C   UNL     1      19.439  26.821  52.349  1.00  0.00     0.004 C 
ENDBRANCH  16  17
ENDBRANCH  15  16
ENDBRANCH  14  15
ENDBRANCH  13  14
ENDBRANCH  12  13
ENDBRANCH  11  12
ENDBRANCH   1  11
TORSDOF 14
ENDMDL
MODEL 8
REMARK VINA RESULT:    -3.510     11.915     14.088
REMARK INTER + INTRA:          -7.501
REMARK INTER:                  -4.800
REMARK INTRA:                  -2.701
REMARK UNBOUND:                -1.117
REMARK SMILES CCCCCCCCCCCCCCCC(=O)[O-]
REMARK SMILES IDX 9 1 10 2 11 3 12 4 13 5 14 6 15 7 16 8 17 9 18 10 8 11 7 12
REMARK SMILES IDX 6 13 5 14 4 15 3 16 2 17 1 18
REMARK H PARENT
REMARK Flexibility Score: inf
ROOT
ATOM      1  C   UNL     1      16.981  30.101  54.114  1.00  0.00     0.000 C 
ENDROOT
BRANCH   1   2
ATOM      2  C   UNL     1      18.448  29.677  53.928  1.00  0.00     0.000 C 
BRANCH   2   3
ATOM      3  C   UNL     1      19.241  29.508  55.237  1.00  0.00     0.000 C 
BRANCH   3   4
ATOM      4  C   UNL     1      20.072  28.213  55.270  1.00  0.00     0.000 C 
BRANCH   4   5
ATOM      5  C   UNL     1      19.746  27.334  56.488  1.00  0.00     0.000 C 
BRANCH   5   6
ATOM      6  C   UNL     1      18.982  28.102  57.581  1.00  0.00     0.006 C 
BRANCH   6   7
ATOM      7  C   UNL     1      19.721  28.083  58.926  1.00  0.00     0.053 C 
BRANCH   7   8
ATOM      8  C   UNL     1      21.072  28.720  58.824  1.00  0.00     0.041 C 
ATOM      9  O   UNL     1      22.112  28.042  59.036  1.00  0.00    -0.550 OA
ATOM     10  O   UNL     1      21.185  30.056  58.460  1.00  0.00    -0.550 OA
ENDBRANCH   7   8
ENDBRANCH   6   7
ENDBRANCH   5   6
ENDBRANCH   4   5
ENDBRANCH   3   4
ENDBRANCH   2   3
ENDBRANCH   1   2
BRANCH   1  11
ATOM     11  C   UNL     1      16.281  29.351  55.260  1.00  0.00     0.000 C 
BRANCH  11  12
ATOM     12  C   UNL     1      15.608  28.052  54.790  1.00  0.00    -0.000 C 
BRANCH  12  13
ATOM     13  C   UNL     1      16.216  26.802  55.449  1.00  0.00    -0.000 C 
BRANCH  13  14
ATOM     14  C   UNL     1      16.555  25.702  54.431  1.00  0.00    -0.000 C 
BRANCH  14  15
ATOM     15  C   UNL     1      17.711  26.096  53.498  1.00  0.00    -0.000 C 
BRANCH  15  16
ATOM     16  C   UNL     1      17.268  26.055  52.028  1.00  0.00    -0.000 C 
BRANCH  16  17
ATOM     17  C   UNL     1      17.280  27.444  51.369  1.00  0.00    -0.003 C 
ATOM     18  C   UNL     1      15.875  27.982  51.098  1.00  0.00     0.004 C 
ENDBRANCH  16  17
ENDBRANCH  15  16
ENDBRANCH  14  15
ENDBRANCH  13  14
ENDBRANCH  12  13
ENDBRANCH  11  12
ENDBRANCH   1  11
TORSDOF 14
ENDMDL
MODEL 9
REMARK VINA RESULT:    -3.503      4.853      6.685
REMARK INTER + INTRA:          -7.487
REMARK INTER:                  -5.868
REMARK INTRA:                  -1.619
REMARK UNBOUND:                -1.117
REMARK SMILES CCCCCCCCCCCCCCCC(=O)[O-]
REMARK SMILES IDX 9 1 10 2 11 3 12 4 13 5 14 6 15 7 16 8 17 9 18 10 8 11 7 12
REMARK SMILES IDX 6 13 5 14 4 15 3 16 2 17 1 18
REMARK H PARENT
REMARK Flexibility Score: inf
ROOT
ATOM      1  C   UNL     1      18.165  17.788  51.601  1.00  0.00     0.000 C 
ENDROOT
BRANCH   1   2
ATOM      2  C   UNL     1      18.023  19.047  50.728  1.00  0.00     0.000 C 
BRANCH   2   3
ATOM      3  C   UNL     1      16.848  19.012  49.733  1.00  0.00     0.000 C 
BRANCH   3   4
ATOM      4  C   UNL     1      16.016  20.307  49.744  1.00  0.00     0.000 C 
BRANCH   4   5
ATOM      5  C   UNL     1      14.785  20.225  48.828  1.00  0.00     0.000 C 
BRANCH   5   6
ATOM      6  C   UNL     1      14.375  18.774  48.521  1.00  0.00     0.006 C 
BRANCH   6   7
ATOM      7  C   UNL     1      14.079  18.559  47.031  1.00  0.00     0.053 C 
BRANCH   7   8
ATOM      8  C   UNL     1      15.085  17.651  46.393  1.00  0.00     0.041 C 
ATOM      9  O   UNL     1      16.237  18.077  46.112  1.00  0.00    -0.550 OA
ATOM     10  O   UNL     1      14.762  16.324  46.140  1.00  0.00    -0.550 OA
ENDBRANCH   7   8
ENDBRANCH   6   7
ENDBRANCH   5   6
ENDBRANCH   4   5
ENDBRANCH   3   4
ENDBRANCH   2   3
ENDBRANCH   1   2
BRANCH   1  11
ATOM     11  C   UNL     1      16.909  17.497  52.441  1.00  0.00     0.000 C 
BRANCH  11  12
ATOM     12  C   UNL     1      16.537  18.664  53.368  1.00  0.00    -0.000 C 
BRANCH  12  13
ATOM     13  C   UNL     1      16.592  18.276  54.856  1.00  0.00    -0.000 C 
BRANCH  13  14
ATOM     14  C   UNL     1      17.617  19.105  55.645  1.00  0.00    -0.000 C 
BRANCH  14  15
ATOM     15  C   UNL     1      18.368  20.114  54.762  1.00  0.00    -0.000 C 
BRANCH  15  16
ATOM     16  C   UNL     1      19.858  19.757  54.669  1.00  0.00    -0.000 C 
BRANCH  16  17
ATOM     17  C   UNL     1      20.471  20.132  53.310  1.00  0.00    -0.003 C 
ATOM     18  C   UNL     1      21.480  19.098  52.810  1.00  0.00     0.004 C 
ENDBRANCH  16  17
ENDBRANCH  15  16
ENDBRANCH  14  15
ENDBRANCH  13  14
ENDBRANCH  12  13
ENDBRANCH  11  12
ENDBRANCH   1  11
TORSDOF 14
ENDMDL
