MODEL 1
REMARK VINA RESULT:    -2.599      0.000      0.000
REMARK INTER + INTRA:          -2.903
REMARK INTER:                  -3.663
REMARK INTRA:                   0.760
REMARK UNBOUND:                 0.760
REMARK SMILES CC1=CCC(=C(C)C)C(=O)CC(C)=CCC1
REMARK SMILES IDX 12 1 14 2 13 3 15 4 16 5 2 6 1 7 3 8 11 10 9 11 10 12 5 13
REMARK SMILES IDX 6 14 7 15 8 16 4 17
REMARK H PARENT
REMARK Flexibility Score: 60.00
ROOT
ATOM      1  C   UNL     1       3.425  15.123  -5.643  1.00  0.00    -0.070 C 
ATOM      2  C   UNL     1       2.620  15.429  -6.685  1.00  0.00    -0.027 C 
ATOM      3  C   UNL     1       3.915  16.240  -4.750  1.00  0.00     0.039 C 
ENDROOT
BRANCH   2   4
ATOM      4  C   UNL     1       2.279  14.503  -7.822  1.00  0.00     0.032 C 
BRANCH   4   5
ATOM      5  C   UNL     1       3.095  14.738  -9.096  1.00  0.00     0.034 C 
BRANCH   5   6
ATOM      6  C   UNL     1       4.455  15.356  -8.822  1.00  0.00    -0.077 C 
ATOM      7  C   UNL     1       4.636  16.842  -9.085  1.00  0.00     0.039 C 
ATOM      8  C   UNL     1       5.567  14.645  -8.514  1.00  0.00    -0.023 CG0
ATOM      9  G   UNL     1       5.696  13.143  -8.343  1.00  0.00     0.000 G0
ENDBRANCH   5   6
ENDBRANCH   4   5
ENDBRANCH   2   4
BRANCH   1  10
ATOM     10  C   UNL     1       3.708  13.698  -5.185  1.00  0.00     0.111 C 
BRANCH  10  11
ATOM     11  C   UNL     1       4.848  13.032  -5.912  1.00  0.00     0.163 C 
ATOM     12  O   UNL     1       5.946  12.872  -5.316  1.00  0.00    -0.294 OA
BRANCH  11  13
ATOM     13  C   UNL     1       4.725  12.559  -7.324  1.00  0.00    -0.002 C 
ATOM     14  C   UNL     1       3.827  11.591  -7.668  1.00  0.00    -0.069 C 
ATOM     15  C   UNL     1       3.016  10.850  -6.633  1.00  0.00     0.039 C 
ATOM     16  C   UNL     1       3.692  11.136  -9.107  1.00  0.00     0.039 C 
BRANCH  13  17
ATOM     17  C   UNL     1       5.694  13.151  -8.327  1.00  0.00     0.066 CG0
ATOM     18  G   UNL     1       5.580  14.649  -8.534  1.00  0.00     0.000 G0
ENDBRANCH  13  17
ENDBRANCH  11  13
ENDBRANCH  10  11
ENDBRANCH   1  10
TORSDOF 0
ENDMDL
MODEL 2
REMARK VINA RESULT:    -2.200      1.838      3.410
REMARK INTER + INTRA:          -2.339
REMARK INTER:                  -3.003
REMARK INTRA:                   0.664
REMARK UNBOUND:                 0.760
REMARK SMILES CC1=CCC(=C(C)C)C(=O)CC(C)=CCC1
REMARK SMILES IDX 12 1 14 2 13 3 15 4 16 5 2 6 1 7 3 8 11 10 9 11 10 12 5 13
REMARK SMILES IDX 6 14 7 15 8 16 4 17
REMARK H PARENT
REMARK Flexibility Score: 60.00
ROOT
ATOM      1  C   UNL     1       4.600  15.334  -7.696  1.00  0.00    -0.070 C 
ATOM      2  C   UNL     1       3.871  16.434  -7.402  1.00  0.00    -0.027 C 
ATOM      3  C   UNL     1       4.627  14.841  -9.125  1.00  0.00     0.039 C 
ENDROOT
BRANCH   2   4
ATOM      4  C   UNL     1       3.505  16.889  -6.014  1.00  0.00     0.032 C 
BRANCH   4   5
ATOM      5  C   UNL     1       2.369  16.093  -5.367  1.00  0.00     0.034 C 
BRANCH   5   6
ATOM      6  C   UNL     1       2.867  15.024  -4.409  1.00  0.00    -0.077 C 
ATOM      7  C   UNL     1       3.375  15.461  -3.044  1.00  0.00     0.039 C 
ATOM      8  C   UNL     1       3.044  13.723  -4.745  1.00  0.00    -0.023 CG0
ATOM      9  G   UNL     1       2.764  13.058  -6.078  1.00  0.00     0.000 G0
ENDBRANCH   5   6
ENDBRANCH   4   5
ENDBRANCH   2   4
BRANCH   1  10
ATOM     10  C   UNL     1       5.564  14.675  -6.719  1.00  0.00     0.111 C 
BRANCH  10  11
ATOM     11  C   UNL     1       5.298  13.210  -6.485  1.00  0.00     0.163 C 
ATOM     12  O   UNL     1       6.202  12.495  -5.977  1.00  0.00    -0.294 OA
BRANCH  11  13
ATOM     13  C   UNL     1       3.997  12.569  -6.843  1.00  0.00    -0.002 C 
ATOM     14  C   UNL     1       3.913  11.658  -7.854  1.00  0.00    -0.069 C 
ATOM     15  C   UNL     1       5.086  11.354  -8.755  1.00  0.00     0.039 C 
ATOM     16  C   UNL     1       2.593  10.994  -8.193  1.00  0.00     0.039 C 
BRANCH  13  17
ATOM     17  C   UNL     1       2.774  13.038  -6.079  1.00  0.00     0.066 CG0
ATOM     18  G   UNL     1       3.058  13.723  -4.757  1.00  0.00     0.000 G0
ENDBRANCH  13  17
ENDBRANCH  11  13
ENDBRANCH  10  11
ENDBRANCH   1  10
TORSDOF 0
ENDMDL
MODEL 3
REMARK VINA RESULT:    -2.198      2.039      4.408
REMARK INTER + INTRA:          -2.337
REMARK INTER:                  -2.585
REMARK INTRA:                   0.249
REMARK UNBOUND:                 0.760
REMARK SMILES CC1=CCC(=C(C)C)C(=O)CC(C)=CCC1
REMARK SMILES IDX 12 1 14 2 13 3 15 4 16 5 2 6 1 7 3 8 11 10 9 11 10 12 5 13
REMARK SMILES IDX 6 14 7 15 8 16 4 17
REMARK H PARENT
REMARK Flexibility Score: 60.00
ROOT
ATOM      1  C   UNL     1       5.685  13.066  -6.830  1.00  0.00    -0.070 C 
ATOM      2  C   UNL     1       5.504  11.976  -7.611  1.00  0.00    -0.027 C 
ATOM      3  C   UNL     1       5.945  12.867  -5.355  1.00  0.00     0.039 C 
ENDROOT
BRANCH   2   4
ATOM      4  C   UNL     1       4.962  11.994  -9.015  1.00  0.00     0.032 C 
BRANCH   4   5
ATOM      5  C   UNL     1       3.439  11.860  -9.107  1.00  0.00     0.034 C 
BRANCH   5   6
ATOM      6  C   UNL     1       2.771  11.766  -7.746  1.00  0.00    -0.077 C 
ATOM      7  C   UNL     1       2.538  10.385  -7.153  1.00  0.00     0.039 C 
ATOM      8  C   UNL     1       2.218  12.817  -7.094  1.00  0.00    -0.023 CG0
ATOM      9  G   UNL     1       2.174  14.268  -7.533  1.00  0.00     0.000 G0
ENDBRANCH   5   6
ENDBRANCH   4   5
ENDBRANCH   2   4
BRANCH   1  10
ATOM     10  C   UNL     1       5.847  14.478  -7.377  1.00  0.00     0.111 C 
BRANCH  10  11
ATOM     11  C   UNL     1       4.571  15.088  -7.896  1.00  0.00     0.163 C 
ATOM     12  O   UNL     1       4.552  15.580  -9.055  1.00  0.00    -0.294 OA
BRANCH  11  13
ATOM     13  C   UNL     1       3.321  15.137  -7.079  1.00  0.00    -0.002 C 
ATOM     14  C   UNL     1       3.252  15.883  -5.939  1.00  0.00    -0.069 C 
ATOM     15  C   UNL     1       4.463  16.580  -5.366  1.00  0.00     0.039 C 
ATOM     16  C   UNL     1       1.972  15.947  -5.130  1.00  0.00     0.039 C 
BRANCH  13  17
ATOM     17  C   UNL     1       2.172  14.263  -7.538  1.00  0.00     0.066 CG0
ATOM     18  G   UNL     1       2.242  12.814  -7.099  1.00  0.00     0.000 G0
ENDBRANCH  13  17
ENDBRANCH  11  13
ENDBRANCH  10  11
ENDBRANCH   1  10
TORSDOF 0
ENDMDL
MODEL 4
REMARK VINA RESULT:    -2.050      1.525      3.659
REMARK INTER + INTRA:          -2.128
REMARK INTER:                  -2.999
REMARK INTRA:                   0.871
REMARK UNBOUND:                 0.760
REMARK SMILES CC1=CCC(=C(C)C)C(=O)CC(C)=CCC1
REMARK SMILES IDX 12 1 14 2 13 3 15 4 16 5 2 6 1 7 3 8 11 10 9 11 10 12 5 13
REMARK SMILES IDX 6 14 7 15 8 16 4 17
REMARK H PARENT
REMARK Flexibility Score: 60.00
ROOT
ATOM      1  C   UNL     1       2.703  12.525  -7.532  1.00  0.00    -0.070 C 
ATOM      2  C   UNL     1       3.320  13.058  -8.611  1.00  0.00    -0.027 C 
ATOM      3  C   UNL     1       2.689  11.022  -7.373  1.00  0.00     0.039 C 
ENDROOT
BRANCH   2   4
ATOM      4  C   UNL     1       3.187  14.485  -9.072  1.00  0.00     0.032 C 
BRANCH   4   5
ATOM      5  C   UNL     1       4.439  15.339  -8.853  1.00  0.00     0.034 C 
BRANCH   5   6
ATOM      6  C   UNL     1       5.594  14.554  -8.256  1.00  0.00    -0.077 C 
ATOM      7  C   UNL     1       6.280  13.512  -9.125  1.00  0.00     0.039 C 
ATOM      8  C   UNL     1       5.953  14.600  -6.950  1.00  0.00    -0.023 CG0
ATOM      9  G   UNL     1       5.338  15.434  -5.843  1.00  0.00     0.000 G0
ENDBRANCH   5   6
ENDBRANCH   4   5
ENDBRANCH   2   4
BRANCH   1  10
ATOM     10  C   UNL     1       2.197  13.350  -6.356  1.00  0.00     0.111 C 
BRANCH  10  11
ATOM     11  C   UNL     1       3.290  13.919  -5.488  1.00  0.00     0.163 C 
ATOM     12  O   UNL     1       3.755  13.220  -4.549  1.00  0.00    -0.294 OA
BRANCH  11  13
ATOM     13  C   UNL     1       3.839  15.292  -5.696  1.00  0.00    -0.002 C 
ATOM     14  C   UNL     1       3.014  16.372  -5.817  1.00  0.00    -0.069 C 
ATOM     15  C   UNL     1       1.513  16.225  -5.891  1.00  0.00     0.039 C 
ATOM     16  C   UNL     1       3.581  17.765  -6.002  1.00  0.00     0.039 C 
BRANCH  13  17
ATOM     17  C   UNL     1       5.343  15.410  -5.839  1.00  0.00     0.066 CG0
ATOM     18  G   UNL     1       5.953  14.601  -6.967  1.00  0.00     0.000 G0
ENDBRANCH  13  17
ENDBRANCH  11  13
ENDBRANCH  10  11
ENDBRANCH   1  10
TORSDOF 0
ENDMDL
MODEL 5
REMARK VINA RESULT:    -1.225      1.891      3.081
REMARK INTER + INTRA:          -0.966
REMARK INTER:                  -1.928
REMARK INTRA:                   0.962
REMARK UNBOUND:                 0.760
REMARK SMILES CC1=CCC(=C(C)C)C(=O)CC(C)=CCC1
REMARK SMILES IDX 12 1 14 2 13 3 15 4 16 5 2 6 1 7 3 8 11 10 9 11 10 12 5 13
REMARK SMILES IDX 6 14 7 15 8 16 4 17
REMARK H PARENT
REMARK Flexibility Score: 60.00
ROOT
ATOM      1  C   UNL     1       3.663  13.495  -5.365  1.00  0.00    -0.070 C 
ATOM      2  C   UNL     1       3.347  14.460  -4.472  1.00  0.00    -0.027 C 
ATOM      3  C   UNL     1       5.027  12.848  -5.282  1.00  0.00     0.039 C 
ENDROOT
BRANCH   2   4
ATOM      4  C   UNL     1       2.171  15.394  -4.581  1.00  0.00     0.032 C 
BRANCH   4   5
ATOM      5  C   UNL     1       2.007  16.046  -5.957  1.00  0.00     0.034 C 
BRANCH   5   6
ATOM      6  C   UNL     1       3.292  16.672  -6.470  1.00  0.00    -0.077 C 
ATOM      7  C   UNL     1       3.826  17.906  -5.759  1.00  0.00     0.039 C 
ATOM      8  C   UNL     1       3.911  16.309  -7.620  1.00  0.00    -0.023 CG0
ATOM      9  G   UNL     1       3.504  15.219  -8.593  1.00  0.00     0.000 G0
ENDBRANCH   5   6
ENDBRANCH   4   5
ENDBRANCH   2   4
BRANCH   1  10
ATOM     10  C   UNL     1       2.659  12.871  -6.325  1.00  0.00     0.111 C 
BRANCH  10  11
ATOM     11  C   UNL     1       3.129  12.813  -7.755  1.00  0.00     0.163 C 
ATOM     12  O   UNL     1       2.725  11.878  -8.497  1.00  0.00    -0.294 OA
BRANCH  11  13
ATOM     13  C   UNL     1       4.068  13.824  -8.328  1.00  0.00    -0.002 C 
ATOM     14  C   UNL     1       5.387  13.532  -8.519  1.00  0.00    -0.069 C 
ATOM     15  C   UNL     1       5.998  12.238  -8.038  1.00  0.00     0.039 C 
ATOM     16  C   UNL     1       6.327  14.555  -9.125  1.00  0.00     0.039 C 
BRANCH  13  17
ATOM     17  C   UNL     1       3.500  15.199  -8.610  1.00  0.00     0.066 CG0
ATOM     18  G   UNL     1       3.922  16.287  -7.642  1.00  0.00     0.000 G0
ENDBRANCH  13  17
ENDBRANCH  11  13
ENDBRANCH  10  11
ENDBRANCH   1  10
TORSDOF 0
ENDMDL
MODEL 6
REMARK VINA RESULT:    -1.086      1.783      3.792
REMARK INTER + INTRA:          -0.771
REMARK INTER:                  -2.034
REMARK INTRA:                   1.263
REMARK UNBOUND:                 0.760
REMARK SMILES CC1=CCC(=C(C)C)C(=O)CC(C)=CCC1
REMARK SMILES IDX 12 1 14 2 13 3 15 4 16 5 2 6 1 7 3 8 11 10 9 11 10 12 5 13
REMARK SMILES IDX 6 14 7 15 8 16 4 17
REMARK H PARENT
REMARK Flexibility Score: 60.00
ROOT
ATOM      1  C   UNL     1       3.166  13.030  -5.917  1.00  0.00    -0.070 C 
ATOM      2  C   UNL     1       4.143  12.401  -6.609  1.00  0.00    -0.027 C 
ATOM      3  C   UNL     1       3.362  13.268  -4.437  1.00  0.00     0.039 C 
ENDROOT
BRANCH   2   4
ATOM      4  C   UNL     1       4.000  11.837  -7.997  1.00  0.00     0.032 C 
BRANCH   4   5
ATOM      5  C   UNL     1       4.264  12.845  -9.119  1.00  0.00     0.034 C 
BRANCH   5   6
ATOM      6  C   UNL     1       5.507  13.683  -8.881  1.00  0.00    -0.077 C 
ATOM      7  C   UNL     1       6.835  12.965  -8.695  1.00  0.00     0.039 C 
ATOM      8  C   UNL     1       5.494  15.021  -8.660  1.00  0.00    -0.023 CG0
ATOM      9  G   UNL     1       4.296  15.950  -8.637  1.00  0.00     0.000 G0
ENDBRANCH   5   6
ENDBRANCH   4   5
ENDBRANCH   2   4
BRANCH   1  10
ATOM     10  C   UNL     1       1.966  13.700  -6.572  1.00  0.00     0.111 C 
BRANCH  10  11
ATOM     11  C   UNL     1       2.322  14.641  -7.694  1.00  0.00     0.163 C 
ATOM     12  O   UNL     1       1.790  14.478  -8.825  1.00  0.00    -0.294 OA
BRANCH  11  13
ATOM     13  C   UNL     1       3.294  15.761  -7.517  1.00  0.00    -0.002 C 
ATOM     14  C   UNL     1       3.228  16.587  -6.433  1.00  0.00    -0.069 C 
ATOM     15  C   UNL     1       2.098  16.508  -5.436  1.00  0.00     0.039 C 
ATOM     16  C   UNL     1       4.235  17.705  -6.248  1.00  0.00     0.039 C 
BRANCH  13  17
ATOM     17  C   UNL     1       4.297  15.976  -8.632  1.00  0.00     0.066 CG0
ATOM     18  G   UNL     1       5.467  15.011  -8.646  1.00  0.00     0.000 G0
ENDBRANCH  13  17
ENDBRANCH  11  13
ENDBRANCH  10  11
ENDBRANCH   1  10
TORSDOF 0
ENDMDL
MODEL 7
REMARK VINA RESULT:    -0.843      2.074      3.508
REMARK INTER + INTRA:          -0.428
REMARK INTER:                  -1.144
REMARK INTRA:                   0.716
REMARK UNBOUND:                 0.760
REMARK SMILES CC1=CCC(=C(C)C)C(=O)CC(C)=CCC1
REMARK SMILES IDX 12 1 14 2 13 3 15 4 16 5 2 6 1 7 3 8 11 10 9 11 10 12 5 13
REMARK SMILES IDX 6 14 7 15 8 16 4 17
REMARK H PARENT
REMARK Flexibility Score: 60.00
ROOT
ATOM      1  C   UNL     1       5.631  13.888  -6.114  1.00  0.00    -0.070 C 
ATOM      2  C   UNL     1       4.842  14.683  -5.357  1.00  0.00    -0.027 C 
ATOM      3  C   UNL     1       6.021  12.530  -5.578  1.00  0.00     0.039 C 
ENDROOT
BRANCH   2   4
ATOM      4  C   UNL     1       4.595  16.148  -5.600  1.00  0.00     0.032 C 
BRANCH   4   5
ATOM      5  C   UNL     1       3.282  16.457  -6.325  1.00  0.00     0.034 C 
BRANCH   5   6
ATOM      6  C   UNL     1       2.200  15.427  -6.051  1.00  0.00    -0.077 C 
ATOM      7  C   UNL     1       1.679  15.291  -4.629  1.00  0.00     0.039 C 
ATOM      8  C   UNL     1       1.779  14.506  -6.952  1.00  0.00    -0.023 CG0
ATOM      9  G   UNL     1       2.242  14.323  -8.384  1.00  0.00     0.000 G0
ENDBRANCH   5   6
ENDBRANCH   4   5
ENDBRANCH   2   4
BRANCH   1  10
ATOM     10  C   UNL     1       5.987  14.187  -7.564  1.00  0.00     0.111 C 
BRANCH  10  11
ATOM     11  C   UNL     1       4.803  14.528  -8.431  1.00  0.00     0.163 C 
ATOM     12  O   UNL     1       4.820  15.592  -9.105  1.00  0.00    -0.294 OA
BRANCH  11  13
ATOM     13  C   UNL     1       3.599  13.648  -8.517  1.00  0.00    -0.002 C 
ATOM     14  C   UNL     1       3.718  12.311  -8.764  1.00  0.00    -0.069 C 
ATOM     15  C   UNL     1       5.045  11.676  -9.103  1.00  0.00     0.039 C 
ATOM     16  C   UNL     1       2.493  11.421  -8.824  1.00  0.00     0.039 C 
BRANCH  13  17
ATOM     17  C   UNL     1       2.249  14.325  -8.393  1.00  0.00     0.066 CG0
ATOM     18  G   UNL     1       1.744  14.510  -6.975  1.00  0.00     0.000 G0
ENDBRANCH  13  17
ENDBRANCH  11  13
ENDBRANCH  10  11
ENDBRANCH   1  10
TORSDOF 0
ENDMDL
MODEL 8
REMARK VINA RESULT:    -0.743      2.126      3.520
REMARK INTER + INTRA:          -0.287
REMARK INTER:                  -2.226
REMARK INTRA:                   1.939
REMARK UNBOUND:                 0.760
REMARK SMILES CC1=CCC(=C(C)C)C(=O)CC(C)=CCC1
REMARK SMILES IDX 12 1 14 2 13 3 15 4 16 5 2 6 1 7 3 8 11 10 9 11 10 12 5 13
REMARK SMILES IDX 6 14 7 15 8 16 4 17
REMARK H PARENT
REMARK Flexibility Score: 60.00
ROOT
ATOM      1  C   UNL     1       2.326  14.030  -7.736  1.00  0.00    -0.070 C 
ATOM      2  C   UNL     1       1.772  14.146  -6.508  1.00  0.00    -0.027 C 
ATOM      3  C   UNL     1       1.958  12.839  -8.590  1.00  0.00     0.039 C 
ENDROOT
BRANCH   2   4
ATOM      4  C   UNL     1       2.232  15.092  -5.431  1.00  0.00     0.032 C 
BRANCH   4   5
ATOM      5  C   UNL     1       2.183  16.571  -5.826  1.00  0.00     0.034 C 
BRANCH   5   6
ATOM      6  C   UNL     1       3.541  17.247  -5.758  1.00  0.00    -0.077 C 
ATOM      7  C   UNL     1       3.606  18.753  -5.961  1.00  0.00     0.039 C 
ATOM      8  C   UNL     1       4.721  16.583  -5.690  1.00  0.00    -0.023 CG0
ATOM      9  G   UNL     1       4.945  15.085  -5.632  1.00  0.00     0.000 G0
ENDBRANCH   5   6
ENDBRANCH   4   5
ENDBRANCH   2   4
BRANCH   1  10
ATOM     10  C   UNL     1       3.143  15.131  -8.399  1.00  0.00     0.111 C 
BRANCH  10  11
ATOM     11  C   UNL     1       4.626  15.034  -8.149  1.00  0.00     0.163 C 
ATOM     12  O   UNL     1       5.425  15.514  -8.996  1.00  0.00    -0.294 OA
BRANCH  11  13
ATOM     13  C   UNL     1       5.187  14.378  -6.929  1.00  0.00    -0.002 C 
ATOM     14  C   UNL     1       5.800  13.161  -7.001  1.00  0.00    -0.069 C 
ATOM     15  C   UNL     1       5.820  12.351  -8.275  1.00  0.00     0.039 C 
ATOM     16  C   UNL     1       6.389  12.515  -5.763  1.00  0.00     0.039 C 
BRANCH  13  17
ATOM     17  C   UNL     1       4.973  15.094  -5.611  1.00  0.00     0.066 CG0
ATOM     18  G   UNL     1       4.711  16.584  -5.717  1.00  0.00     0.000 G0
ENDBRANCH  13  17
ENDBRANCH  11  13
ENDBRANCH  10  11
ENDBRANCH   1  10
TORSDOF 0
ENDMDL
MODEL 9
REMARK VINA RESULT:    -0.325      1.715      3.121
REMARK INTER + INTRA:           0.303
REMARK INTER:                  -1.760
REMARK INTRA:                   2.063
REMARK UNBOUND:                 0.760
REMARK SMILES CC1=CCC(=C(C)C)C(=O)CC(C)=CCC1
REMARK SMILES IDX 12 1 14 2 13 3 15 4 16 5 2 6 1 7 3 8 11 10 9 11 10 12 5 13
REMARK SMILES IDX 6 14 7 15 8 16 4 17
REMARK H PARENT
REMARK Flexibility Score: 60.00
ROOT
ATOM      1  C   UNL     1       3.425  16.605  -6.061  1.00  0.00    -0.070 C 
ATOM      2  C   UNL     1       3.943  15.939  -5.004  1.00  0.00    -0.027 C 
ATOM      3  C   UNL     1       3.558  18.109  -6.108  1.00  0.00     0.039 C 
ENDROOT
BRANCH   2   4
ATOM      4  C   UNL     1       3.658  14.502  -4.656  1.00  0.00     0.032 C 
BRANCH   4   5
ATOM      5  C   UNL     1       3.897  13.515  -5.801  1.00  0.00     0.034 C 
BRANCH   5   6
ATOM      6  C   UNL     1       5.332  13.025  -5.870  1.00  0.00    -0.077 C 
ATOM      7  C   UNL     1       5.993  12.553  -4.584  1.00  0.00     0.039 C 
ATOM      8  C   UNL     1       6.123  13.131  -6.966  1.00  0.00    -0.023 CG0
ATOM      9  G   UNL     1       5.762  13.701  -8.324  1.00  0.00     0.000 G0
ENDBRANCH   5   6
ENDBRANCH   4   5
ENDBRANCH   2   4
BRANCH   1  10
ATOM     10  C   UNL     1       2.892  15.918  -7.311  1.00  0.00     0.111 C 
BRANCH  10  11
ATOM     11  C   UNL     1       3.961  15.512  -8.293  1.00  0.00     0.163 C 
ATOM     12  O   UNL     1       4.572  16.405  -8.939  1.00  0.00    -0.294 OA
BRANCH  11  13
ATOM     13  C   UNL     1       4.319  14.083  -8.536  1.00  0.00    -0.002 C 
ATOM     14  C   UNL     1       3.365  13.160  -8.855  1.00  0.00    -0.069 C 
ATOM     15  C   UNL     1       1.893  13.496  -8.840  1.00  0.00     0.039 C 
ATOM     16  C   UNL     1       3.741  11.717  -9.125  1.00  0.00     0.039 C 
BRANCH  13  17
ATOM     17  C   UNL     1       5.772  13.701  -8.337  1.00  0.00     0.066 CG0
ATOM     18  G   UNL     1       6.112  13.129  -6.975  1.00  0.00     0.000 G0
ENDBRANCH  13  17
ENDBRANCH  11  13
ENDBRANCH  10  11
ENDBRANCH   1  10
TORSDOF 0
ENDMDL
