MODEL 1
REMARK VINA RESULT:    -3.575      0.000      0.000
REMARK INTER + INTRA:          -4.868
REMARK INTER:                  -4.725
REMARK INTRA:                  -0.143
REMARK UNBOUND:                -0.143
REMARK SMILES CCCCCCCO
REMARK SMILES IDX 5 1 4 2 3 3 2 4 1 5 6 6 7 7 8 8
REMARK H PARENT 8 9
REMARK Flexibility Score: inf
ROOT
ATOM      1  C   UNL     1     179.625 179.557 185.011  1.00  0.00     0.002 C 
ENDROOT
BRANCH   1   2
ATOM      2  C   UNL     1     180.606 178.375 185.103  1.00  0.00     0.000 C 
BRANCH   2   3
ATOM      3  C   UNL     1     181.061 177.885 183.711  1.00  0.00    -0.000 C 
BRANCH   3   4
ATOM      4  C   UNL     1     181.429 176.393 183.675  1.00  0.00    -0.003 C 
ATOM      5  C   UNL     1     181.456 175.816 182.261  1.00  0.00     0.004 C 
ENDBRANCH   3   4
ENDBRANCH   2   3
ENDBRANCH   1   2
BRANCH   1   6
ATOM      6  C   UNL     1     179.251 179.904 183.562  1.00  0.00     0.028 C 
BRANCH   6   7
ATOM      7  C   UNL     1     179.112 181.413 183.330  1.00  0.00     0.156 C 
BRANCH   7   8
ATOM      8  O   UNL     1     178.150 181.662 182.341  1.00  0.00    -0.396 OA
ATOM      9  H   UNL     1     178.606 182.174 181.623  1.00  0.00     0.210 HD
ENDBRANCH   7   8
ENDBRANCH   6   7
ENDBRANCH   1   6
TORSDOF 6
ENDMDL
MODEL 2
REMARK VINA RESULT:    -3.536      4.247      6.631
REMARK INTER + INTRA:          -4.816
REMARK INTER:                  -4.755
REMARK INTRA:                  -0.061
REMARK UNBOUND:                -0.143
REMARK SMILES CCCCCCCO
REMARK SMILES IDX 5 1 4 2 3 3 2 4 1 5 6 6 7 7 8 8
REMARK H PARENT 8 9
REMARK Flexibility Score: inf
ROOT
ATOM      1  C   UNL     1     181.141 174.286 181.788  1.00  0.00     0.002 C 
ENDROOT
BRANCH   1   2
ATOM      2  C   UNL     1     181.835 175.633 182.056  1.00  0.00     0.000 C 
BRANCH   2   3
ATOM      3  C   UNL     1     181.540 176.168 183.473  1.00  0.00    -0.000 C 
BRANCH   3   4
ATOM      4  C   UNL     1     180.800 177.516 183.480  1.00  0.00    -0.003 C 
ATOM      5  C   UNL     1     180.782 178.183 184.854  1.00  0.00     0.004 C 
ENDBRANCH   3   4
ENDBRANCH   2   3
ENDBRANCH   1   2
BRANCH   1   6
ATOM      6  C   UNL     1     182.120 173.103 181.797  1.00  0.00     0.028 C 
BRANCH   6   7
ATOM      7  C   UNL     1     181.861 172.109 180.658  1.00  0.00     0.156 C 
BRANCH   7   8
ATOM      8  O   UNL     1     180.772 171.286 180.975  1.00  0.00    -0.396 OA
ATOM      9  H   UNL     1     181.147 170.452 181.361  1.00  0.00     0.210 HD
ENDBRANCH   7   8
ENDBRANCH   6   7
ENDBRANCH   1   6
TORSDOF 6
ENDMDL
MODEL 3
REMARK VINA RESULT:    -3.504      2.393      3.813
REMARK INTER + INTRA:          -4.774
REMARK INTER:                  -4.567
REMARK INTRA:                  -0.207
REMARK UNBOUND:                -0.143
REMARK SMILES CCCCCCCO
REMARK SMILES IDX 5 1 4 2 3 3 2 4 1 5 6 6 7 7 8 8
REMARK H PARENT 8 9
REMARK Flexibility Score: inf
ROOT
ATOM      1  C   UNL     1     180.313 179.214 185.538  1.00  0.00     0.002 C 
ENDROOT
BRANCH   1   2
ATOM      2  C   UNL     1     180.140 180.605 186.172  1.00  0.00     0.000 C 
BRANCH   2   3
ATOM      3  C   UNL     1     181.347 181.000 187.050  1.00  0.00    -0.000 C 
BRANCH   3   4
ATOM      4  C   UNL     1     182.375 179.870 187.225  1.00  0.00    -0.003 C 
ATOM      5  C   UNL     1     183.007 179.845 188.615  1.00  0.00     0.004 C 
ENDBRANCH   3   4
ENDBRANCH   2   3
ENDBRANCH   1   2
BRANCH   1   6
ATOM      6  C   UNL     1     179.770 179.144 184.103  1.00  0.00     0.028 C 
BRANCH   6   7
ATOM      7  C   UNL     1     179.674 180.522 183.438  1.00  0.00     0.156 C 
BRANCH   7   8
ATOM      8  O   UNL     1     178.365 180.752 182.992  1.00  0.00    -0.396 OA
ATOM      9  H   UNL     1     178.234 181.736 182.986  1.00  0.00     0.210 HD
ENDBRANCH   7   8
ENDBRANCH   6   7
ENDBRANCH   1   6
TORSDOF 6
ENDMDL
MODEL 4
REMARK VINA RESULT:    -3.498      0.811      1.423
REMARK INTER + INTRA:          -4.767
REMARK INTER:                  -4.688
REMARK INTRA:                  -0.078
REMARK UNBOUND:                -0.143
REMARK SMILES CCCCCCCO
REMARK SMILES IDX 5 1 4 2 3 3 2 4 1 5 6 6 7 7 8 8
REMARK H PARENT 8 9
REMARK Flexibility Score: inf
ROOT
ATOM      1  C   UNL     1     180.608 178.581 184.855  1.00  0.00     0.002 C 
ENDROOT
BRANCH   1   2
ATOM      2  C   UNL     1     181.124 177.914 183.568  1.00  0.00     0.000 C 
BRANCH   2   3
ATOM      3  C   UNL     1     181.161 176.375 183.685  1.00  0.00    -0.000 C 
BRANCH   3   4
ATOM      4  C   UNL     1     181.940 175.690 182.550  1.00  0.00    -0.003 C 
ATOM      5  C   UNL     1     182.050 174.177 182.726  1.00  0.00     0.004 C 
ENDBRANCH   3   4
ENDBRANCH   2   3
ENDBRANCH   1   2
BRANCH   1   6
ATOM      6  C   UNL     1     179.436 179.539 184.596  1.00  0.00     0.028 C 
BRANCH   6   7
ATOM      7  C   UNL     1     179.506 180.204 183.216  1.00  0.00     0.156 C 
BRANCH   7   8
ATOM      8  O   UNL     1     178.323 180.911 182.961  1.00  0.00    -0.396 OA
ATOM      9  H   UNL     1     178.372 181.750 183.488  1.00  0.00     0.210 HD
ENDBRANCH   7   8
ENDBRANCH   6   7
ENDBRANCH   1   6
TORSDOF 6
ENDMDL
MODEL 5
REMARK VINA RESULT:    -3.445      1.471      3.070
REMARK INTER + INTRA:          -4.696
REMARK INTER:                  -4.459
REMARK INTRA:                  -0.236
REMARK UNBOUND:                -0.143
REMARK SMILES CCCCCCCO
REMARK SMILES IDX 5 1 4 2 3 3 2 4 1 5 6 6 7 7 8 8
REMARK H PARENT 8 9
REMARK Flexibility Score: inf
ROOT
ATOM      1  C   UNL     1     180.414 179.160 183.128  1.00  0.00     0.002 C 
ENDROOT
BRANCH   1   2
ATOM      2  C   UNL     1     180.988 178.265 184.240  1.00  0.00     0.000 C 
BRANCH   2   3
ATOM      3  C   UNL     1     180.689 178.823 185.649  1.00  0.00    -0.000 C 
BRANCH   3   4
ATOM      4  C   UNL     1     181.846 179.644 186.243  1.00  0.00    -0.003 C 
ATOM      5  C   UNL     1     181.380 180.923 186.935  1.00  0.00     0.004 C 
ENDBRANCH   3   4
ENDBRANCH   2   3
ENDBRANCH   1   2
BRANCH   1   6
ATOM      6  C   UNL     1     179.221 180.004 183.603  1.00  0.00     0.028 C 
BRANCH   6   7
ATOM      7  C   UNL     1     179.220 181.417 183.008  1.00  0.00     0.156 C 
BRANCH   7   8
ATOM      8  O   UNL     1     178.053 181.623 182.259  1.00  0.00    -0.396 OA
ATOM      9  H   UNL     1     178.079 182.563 181.944  1.00  0.00     0.210 HD
ENDBRANCH   7   8
ENDBRANCH   6   7
ENDBRANCH   1   6
TORSDOF 6
ENDMDL
MODEL 6
REMARK VINA RESULT:    -3.443      1.461      2.645
REMARK INTER + INTRA:          -4.694
REMARK INTER:                  -4.596
REMARK INTRA:                  -0.098
REMARK UNBOUND:                -0.143
REMARK SMILES CCCCCCCO
REMARK SMILES IDX 5 1 4 2 3 3 2 4 1 5 6 6 7 7 8 8
REMARK H PARENT 8 9
REMARK Flexibility Score: inf
ROOT
ATOM      1  C   UNL     1     179.194 181.704 183.637  1.00  0.00     0.002 C 
ENDROOT
BRANCH   1   2
ATOM      2  C   UNL     1     179.163 180.165 183.621  1.00  0.00     0.000 C 
BRANCH   2   3
ATOM      3  C   UNL     1     179.549 179.562 184.989  1.00  0.00    -0.000 C 
BRANCH   3   4
ATOM      4  C   UNL     1     180.708 178.555 184.912  1.00  0.00    -0.003 C 
ATOM      5  C   UNL     1     180.697 177.726 183.629  1.00  0.00     0.004 C 
ENDBRANCH   3   4
ENDBRANCH   2   3
ENDBRANCH   1   2
BRANCH   1   6
ATOM      6  C   UNL     1     178.569 182.321 182.376  1.00  0.00     0.028 C 
BRANCH   6   7
ATOM      7  C   UNL     1     178.326 183.829 182.512  1.00  0.00     0.156 C 
BRANCH   7   8
ATOM      8  O   UNL     1     176.956 184.108 182.411  1.00  0.00    -0.396 OA
ATOM      9  H   UNL     1     176.597 183.520 181.697  1.00  0.00     0.210 HD
ENDBRANCH   7   8
ENDBRANCH   6   7
ENDBRANCH   1   6
TORSDOF 6
ENDMDL
MODEL 7
REMARK VINA RESULT:    -3.392      3.129      5.097
REMARK INTER + INTRA:          -4.626
REMARK INTER:                  -4.491
REMARK INTRA:                  -0.135
REMARK UNBOUND:                -0.143
REMARK SMILES CCCCCCCO
REMARK SMILES IDX 5 1 4 2 3 3 2 4 1 5 6 6 7 7 8 8
REMARK H PARENT 8 9
REMARK Flexibility Score: inf
ROOT
ATOM      1  C   UNL     1     180.832 177.357 183.419  1.00  0.00     0.002 C 
ENDROOT
BRANCH   1   2
ATOM      2  C   UNL     1     180.673 178.081 184.767  1.00  0.00     0.000 C 
BRANCH   2   3
ATOM      3  C   UNL     1     179.881 179.399 184.630  1.00  0.00    -0.000 C 
BRANCH   3   4
ATOM      4  C   UNL     1     179.717 179.869 183.175  1.00  0.00    -0.003 C 
ATOM      5  C   UNL     1     179.007 181.216 183.057  1.00  0.00     0.004 C 
ENDBRANCH   3   4
ENDBRANCH   2   3
ENDBRANCH   1   2
BRANCH   1   6
ATOM      6  C   UNL     1     181.999 176.358 183.418  1.00  0.00     0.028 C 
BRANCH   6   7
ATOM      7  C   UNL     1     181.680 175.073 182.644  1.00  0.00     0.156 C 
BRANCH   7   8
ATOM      8  O   UNL     1     182.059 173.952 183.395  1.00  0.00    -0.396 OA
ATOM      9  H   UNL     1     181.227 173.454 183.604  1.00  0.00     0.210 HD
ENDBRANCH   7   8
ENDBRANCH   6   7
ENDBRANCH   1   6
TORSDOF 6
ENDMDL
MODEL 8
REMARK VINA RESULT:    -3.361      3.719      4.586
REMARK INTER + INTRA:          -4.585
REMARK INTER:                  -4.381
REMARK INTRA:                  -0.204
REMARK UNBOUND:                -0.143
REMARK SMILES CCCCCCCO
REMARK SMILES IDX 5 1 4 2 3 3 2 4 1 5 6 6 7 7 8 8
REMARK H PARENT 8 9
REMARK Flexibility Score: inf
ROOT
ATOM      1  C   UNL     1     181.340 181.001 186.941  1.00  0.00     0.002 C 
ENDROOT
BRANCH   1   2
ATOM      2  C   UNL     1     180.344 180.661 185.819  1.00  0.00     0.000 C 
BRANCH   2   3
ATOM      3  C   UNL     1     180.160 179.138 185.645  1.00  0.00    -0.000 C 
BRANCH   3   4
ATOM      4  C   UNL     1     180.239 178.673 184.182  1.00  0.00    -0.003 C 
ATOM      5  C   UNL     1     181.039 177.383 184.006  1.00  0.00     0.004 C 
ENDBRANCH   3   4
ENDBRANCH   2   3
ENDBRANCH   1   2
BRANCH   1   6
ATOM      6  C   UNL     1     182.340 179.866 187.208  1.00  0.00     0.028 C 
BRANCH   6   7
ATOM      7  C   UNL     1     182.959 179.938 188.609  1.00  0.00     0.156 C 
BRANCH   7   8
ATOM      8  O   UNL     1     182.397 181.001 189.331  1.00  0.00    -0.396 OA
ATOM      9  H   UNL     1     183.124 181.381 189.889  1.00  0.00     0.210 HD
ENDBRANCH   7   8
ENDBRANCH   6   7
ENDBRANCH   1   6
TORSDOF 6
ENDMDL
MODEL 9
REMARK VINA RESULT:    -3.342      3.452      5.240
REMARK INTER + INTRA:          -4.561
REMARK INTER:                  -4.430
REMARK INTRA:                  -0.130
REMARK UNBOUND:                -0.143
REMARK SMILES CCCCCCCO
REMARK SMILES IDX 5 1 4 2 3 3 2 4 1 5 6 6 7 7 8 8
REMARK H PARENT 8 9
REMARK Flexibility Score: inf
ROOT
ATOM      1  C   UNL     1     181.702 177.608 183.686  1.00  0.00     0.002 C 
ENDROOT
BRANCH   1   2
ATOM      2  C   UNL     1     180.512 178.555 183.921  1.00  0.00     0.000 C 
BRANCH   2   3
ATOM      3  C   UNL     1     180.313 178.879 185.417  1.00  0.00    -0.000 C 
BRANCH   3   4
ATOM      4  C   UNL     1     181.584 179.399 186.109  1.00  0.00    -0.003 C 
ATOM      5  C   UNL     1     181.437 180.823 186.640  1.00  0.00     0.004 C 
ENDBRANCH   3   4
ENDBRANCH   2   3
ENDBRANCH   1   2
BRANCH   1   6
ATOM      6  C   UNL     1     181.273 176.138 183.561  1.00  0.00     0.028 C 
BRANCH   6   7
ATOM      7  C   UNL     1     182.391 175.237 183.023  1.00  0.00     0.156 C 
BRANCH   7   8
ATOM      8  O   UNL     1     182.167 173.908 183.409  1.00  0.00    -0.396 OA
ATOM      9  H   UNL     1     182.334 173.347 182.608  1.00  0.00     0.210 HD
ENDBRANCH   7   8
ENDBRANCH   6   7
ENDBRANCH   1   6
TORSDOF 6
ENDMDL
