MODEL 1
REMARK VINA RESULT:    -3.366      0.000      0.000
REMARK INTER + INTRA:          -6.654
REMARK INTER:                  -6.121
REMARK INTRA:                  -0.532
REMARK UNBOUND:                -0.532
REMARK SMILES CCCCCCCCCCCCCCCC(=O)[O-]
REMARK SMILES IDX 9 1 10 2 11 3 12 4 13 5 14 6 15 7 16 8 17 9 18 10 8 11 7 12
REMARK SMILES IDX 6 13 5 14 4 15 3 16 2 17 1 18
REMARK H PARENT
REMARK Flexibility Score: inf
ROOT
ATOM      1  C   UNL     1       6.025  10.930  34.173  1.00  0.00     0.000 C 
ENDROOT
BRANCH   1   2
ATOM      2  C   UNL     1       6.129   9.784  33.155  1.00  0.00     0.000 C 
BRANCH   2   3
ATOM      3  C   UNL     1       6.359   8.440  33.865  1.00  0.00     0.000 C 
BRANCH   3   4
ATOM      4  C   UNL     1       6.708   8.610  35.352  1.00  0.00     0.000 C 
BRANCH   4   5
ATOM      5  C   UNL     1       6.913   7.264  36.068  1.00  0.00     0.000 C 
BRANCH   5   6
ATOM      6  C   UNL     1       7.364   6.139  35.120  1.00  0.00     0.006 C 
BRANCH   6   7
ATOM      7  C   UNL     1       7.381   4.744  35.770  1.00  0.00     0.053 C 
BRANCH   7   8
ATOM      8  C   UNL     1       8.770   4.226  35.984  1.00  0.00     0.041 C 
ATOM      9  O   UNL     1       8.951   3.042  36.372  1.00  0.00    -0.550 OA
ATOM     10  O   UNL     1       9.866   5.037  35.720  1.00  0.00    -0.550 OA
ENDBRANCH   7   8
ENDBRANCH   6   7
ENDBRANCH   5   6
ENDBRANCH   4   5
ENDBRANCH   3   4
ENDBRANCH   2   3
ENDBRANCH   1   2
BRANCH   1  11
ATOM     11  C   UNL     1       5.966  12.314  33.504  1.00  0.00     0.000 C 
BRANCH  11  12
ATOM     12  C   UNL     1       5.883  13.460  34.527  1.00  0.00    -0.000 C 
BRANCH  12  13
ATOM     13  C   UNL     1       5.891  14.846  33.862  1.00  0.00    -0.000 C 
BRANCH  13  14
ATOM     14  C   UNL     1       6.533  15.925  34.752  1.00  0.00    -0.000 C 
BRANCH  14  15
ATOM     15  C   UNL     1       6.165  17.351  34.312  1.00  0.00    -0.000 C 
BRANCH  15  16
ATOM     16  C   UNL     1       6.288  18.375  35.454  1.00  0.00    -0.000 C 
BRANCH  16  17
ATOM     17  C   UNL     1       6.603  19.791  34.944  1.00  0.00    -0.003 C 
ATOM     18  C   UNL     1       6.865  19.835  33.439  1.00  0.00     0.004 C 
ENDBRANCH  16  17
ENDBRANCH  15  16
ENDBRANCH  14  15
ENDBRANCH  13  14
ENDBRANCH  12  13
ENDBRANCH  11  12
ENDBRANCH   1  11
TORSDOF 14
ENDMDL
MODEL 2
REMARK VINA RESULT:    -3.176     21.770     23.755
REMARK INTER + INTRA:          -6.309
REMARK INTER:                  -5.166
REMARK INTRA:                  -1.143
REMARK UNBOUND:                -0.532
REMARK SMILES CCCCCCCCCCCCCCCC(=O)[O-]
REMARK SMILES IDX 9 1 10 2 11 3 12 4 13 5 14 6 15 7 16 8 17 9 18 10 8 11 7 12
REMARK SMILES IDX 6 13 5 14 4 15 3 16 2 17 1 18
REMARK H PARENT
REMARK Flexibility Score: inf
ROOT
ATOM      1  C   UNL     1      20.252  20.574  20.500  1.00  0.00     0.000 C 
ENDROOT
BRANCH   1   2
ATOM      2  C   UNL     1      21.028  21.787  21.035  1.00  0.00     0.000 C 
BRANCH   2   3
ATOM      3  C   UNL     1      22.514  21.697  20.656  1.00  0.00     0.000 C 
BRANCH   3   4
ATOM      4  C   UNL     1      22.816  20.512  19.725  1.00  0.00     0.000 C 
BRANCH   4   5
ATOM      5  C   UNL     1      24.087  20.729  18.885  1.00  0.00     0.000 C 
BRANCH   5   6
ATOM      6  C   UNL     1      24.750  19.411  18.445  1.00  0.00     0.006 C 
BRANCH   6   7
ATOM      7  C   UNL     1      26.114  19.148  19.106  1.00  0.00     0.053 C 
BRANCH   7   8
ATOM      8  C   UNL     1      25.985  18.590  20.490  1.00  0.00     0.041 C 
ATOM      9  O   UNL     1      26.100  17.352  20.688  1.00  0.00    -0.550 OA
ATOM     10  O   UNL     1      25.773  19.440  21.569  1.00  0.00    -0.550 OA
ENDBRANCH   7   8
ENDBRANCH   6   7
ENDBRANCH   5   6
ENDBRANCH   4   5
ENDBRANCH   3   4
ENDBRANCH   2   3
ENDBRANCH   1   2
BRANCH   1  11
ATOM     11  C   UNL     1      18.789  20.906  20.163  1.00  0.00     0.000 C 
BRANCH  11  12
ATOM     12  C   UNL     1      18.662  21.851  18.956  1.00  0.00    -0.000 C 
BRANCH  12  13
ATOM     13  C   UNL     1      17.686  21.321  17.891  1.00  0.00    -0.000 C 
BRANCH  13  14
ATOM     14  C   UNL     1      16.663  20.329  18.470  1.00  0.00    -0.000 C 
BRANCH  14  15
ATOM     15  C   UNL     1      16.384  19.149  17.524  1.00  0.00    -0.000 C 
BRANCH  15  16
ATOM     16  C   UNL     1      17.666  18.407  17.108  1.00  0.00    -0.000 C 
BRANCH  16  17
ATOM     17  C   UNL     1      18.220  17.514  18.230  1.00  0.00    -0.003 C 
ATOM     18  C   UNL     1      18.771  16.186  17.714  1.00  0.00     0.004 C 
ENDBRANCH  16  17
ENDBRANCH  15  16
ENDBRANCH  14  15
ENDBRANCH  13  14
ENDBRANCH  12  13
ENDBRANCH  11  12
ENDBRANCH   1  11
TORSDOF 14
ENDMDL
MODEL 3
REMARK VINA RESULT:    -3.110     21.813     24.162
REMARK INTER + INTRA:          -6.188
REMARK INTER:                  -4.395
REMARK INTRA:                  -1.793
REMARK UNBOUND:                -0.532
REMARK SMILES CCCCCCCCCCCCCCCC(=O)[O-]
REMARK SMILES IDX 9 1 10 2 11 3 12 4 13 5 14 6 15 7 16 8 17 9 18 10 8 11 7 12
REMARK SMILES IDX 6 13 5 14 4 15 3 16 2 17 1 18
REMARK H PARENT
REMARK Flexibility Score: inf
ROOT
ATOM      1  C   UNL     1      21.377  20.880  20.372  1.00  0.00     0.000 C 
ENDROOT
BRANCH   1   2
ATOM      2  C   UNL     1      21.607  21.853  19.205  1.00  0.00     0.000 C 
BRANCH   2   3
ATOM      3  C   UNL     1      21.790  21.090  17.884  1.00  0.00     0.000 C 
BRANCH   3   4
ATOM      4  C   UNL     1      23.268  20.925  17.497  1.00  0.00     0.000 C 
BRANCH   4   5
ATOM      5  C   UNL     1      23.743  19.465  17.586  1.00  0.00     0.000 C 
BRANCH   5   6
ATOM      6  C   UNL     1      24.699  19.213  18.766  1.00  0.00     0.006 C 
BRANCH   6   7
ATOM      7  C   UNL     1      25.165  20.497  19.475  1.00  0.00     0.053 C 
BRANCH   7   8
ATOM      8  C   UNL     1      25.274  20.326  20.960  1.00  0.00     0.041 C 
ATOM      9  O   UNL     1      25.532  19.196  21.450  1.00  0.00    -0.550 OA
ATOM     10  O   UNL     1      25.126  21.421  21.801  1.00  0.00    -0.550 OA
ENDBRANCH   7   8
ENDBRANCH   6   7
ENDBRANCH   5   6
ENDBRANCH   4   5
ENDBRANCH   3   4
ENDBRANCH   2   3
ENDBRANCH   1   2
BRANCH   1  11
ATOM     11  C   UNL     1      19.981  21.023  20.999  1.00  0.00     0.000 C 
BRANCH  11  12
ATOM     12  C   UNL     1      19.014  21.824  20.111  1.00  0.00    -0.000 C 
BRANCH  12  13
ATOM     13  C   UNL     1      17.995  20.927  19.389  1.00  0.00    -0.000 C 
BRANCH  13  14
ATOM     14  C   UNL     1      18.099  21.028  17.857  1.00  0.00    -0.000 C 
BRANCH  14  15
ATOM     15  C   UNL     1      18.262  19.654  17.185  1.00  0.00    -0.000 C 
BRANCH  15  16
ATOM     16  C   UNL     1      18.961  18.628  18.094  1.00  0.00    -0.000 C 
BRANCH  16  17
ATOM     17  C   UNL     1      18.164  17.321  18.229  1.00  0.00    -0.003 C 
ATOM     18  C   UNL     1      18.883  16.121  17.614  1.00  0.00     0.004 C 
ENDBRANCH  16  17
ENDBRANCH  15  16
ENDBRANCH  14  15
ENDBRANCH  13  14
ENDBRANCH  12  13
ENDBRANCH  11  12
ENDBRANCH   1  11
TORSDOF 14
ENDMDL
MODEL 4
REMARK VINA RESULT:    -3.025     21.271     23.811
REMARK INTER + INTRA:          -6.033
REMARK INTER:                  -4.388
REMARK INTRA:                  -1.644
REMARK UNBOUND:                -0.532
REMARK SMILES CCCCCCCCCCCCCCCC(=O)[O-]
REMARK SMILES IDX 9 1 10 2 11 3 12 4 13 5 14 6 15 7 16 8 17 9 18 10 8 11 7 12
REMARK SMILES IDX 6 13 5 14 4 15 3 16 2 17 1 18
REMARK H PARENT
REMARK Flexibility Score: inf
ROOT
ATOM      1  C   UNL     1      20.703  20.735  20.211  1.00  0.00     0.000 C 
ENDROOT
BRANCH   1   2
ATOM      2  C   UNL     1      19.253  21.057  20.600  1.00  0.00     0.000 C 
BRANCH   2   3
ATOM      3  C   UNL     1      18.595  21.971  19.555  1.00  0.00     0.000 C 
BRANCH   3   4
ATOM      4  C   UNL     1      18.191  21.216  18.280  1.00  0.00     0.000 C 
BRANCH   4   5
ATOM      5  C   UNL     1      16.763  20.650  18.354  1.00  0.00     0.000 C 
BRANCH   5   6
ATOM      6  C   UNL     1      16.694  19.146  18.033  1.00  0.00     0.006 C 
BRANCH   6   7
ATOM      7  C   UNL     1      17.744  18.301  18.775  1.00  0.00     0.053 C 
BRANCH   7   8
ATOM      8  C   UNL     1      18.571  17.466  17.846  1.00  0.00     0.041 C 
ATOM      9  O   UNL     1      19.270  18.015  16.954  1.00  0.00    -0.550 OA
ATOM     10  O   UNL     1      18.600  16.084  17.988  1.00  0.00    -0.550 OA
ENDBRANCH   7   8
ENDBRANCH   6   7
ENDBRANCH   5   6
ENDBRANCH   4   5
ENDBRANCH   3   4
ENDBRANCH   2   3
ENDBRANCH   1   2
BRANCH   1  11
ATOM     11  C   UNL     1      21.729  21.562  21.003  1.00  0.00     0.000 C 
BRANCH  11  12
ATOM     12  C   UNL     1      22.859  22.109  20.114  1.00  0.00    -0.000 C 
BRANCH  12  13
ATOM     13  C   UNL     1      24.254  21.690  20.607  1.00  0.00    -0.000 C 
BRANCH  13  14
ATOM     14  C   UNL     1      24.842  20.524  19.793  1.00  0.00    -0.000 C 
BRANCH  14  15
ATOM     15  C   UNL     1      25.152  20.916  18.338  1.00  0.00    -0.000 C 
BRANCH  15  16
ATOM     16  C   UNL     1      24.648  19.875  17.324  1.00  0.00    -0.000 C 
BRANCH  16  17
ATOM     17  C   UNL     1      23.197  19.443  17.595  1.00  0.00    -0.003 C 
ATOM     18  C   UNL     1      22.173  20.320  16.875  1.00  0.00     0.004 C 
ENDBRANCH  16  17
ENDBRANCH  15  16
ENDBRANCH  14  15
ENDBRANCH  13  14
ENDBRANCH  12  13
ENDBRANCH  11  12
ENDBRANCH   1  11
TORSDOF 14
ENDMDL
MODEL 5
REMARK VINA RESULT:    -2.861     21.650     23.979
REMARK INTER + INTRA:          -5.735
REMARK INTER:                  -4.195
REMARK INTRA:                  -1.540
REMARK UNBOUND:                -0.532
REMARK SMILES CCCCCCCCCCCCCCCC(=O)[O-]
REMARK SMILES IDX 9 1 10 2 11 3 12 4 13 5 14 6 15 7 16 8 17 9 18 10 8 11 7 12
REMARK SMILES IDX 6 13 5 14 4 15 3 16 2 17 1 18
REMARK H PARENT
REMARK Flexibility Score: inf
ROOT
ATOM      1  C   UNL     1      21.229  20.682  20.624  1.00  0.00     0.000 C 
ENDROOT
BRANCH   1   2
ATOM      2  C   UNL     1      20.038  20.768  19.658  1.00  0.00     0.000 C 
BRANCH   2   3
ATOM      3  C   UNL     1      19.241  22.063  19.885  1.00  0.00     0.000 C 
BRANCH   3   4
ATOM      4  C   UNL     1      17.907  22.076  19.124  1.00  0.00     0.000 C 
BRANCH   4   5
ATOM      5  C   UNL     1      17.950  21.235  17.837  1.00  0.00     0.000 C 
BRANCH   5   6
ATOM      6  C   UNL     1      16.614  20.536  17.528  1.00  0.00     0.006 C 
BRANCH   6   7
ATOM      7  C   UNL     1      16.754  19.038  17.203  1.00  0.00     0.053 C 
BRANCH   7   8
ATOM      8  C   UNL     1      17.703  18.336  18.125  1.00  0.00     0.041 C 
ATOM      9  O   UNL     1      18.708  17.735  17.663  1.00  0.00    -0.550 OA
ATOM     10  O   UNL     1      17.500  18.375  19.499  1.00  0.00    -0.550 OA
ENDBRANCH   7   8
ENDBRANCH   6   7
ENDBRANCH   5   6
ENDBRANCH   4   5
ENDBRANCH   3   4
ENDBRANCH   2   3
ENDBRANCH   1   2
BRANCH   1  11
ATOM     11  C   UNL     1      22.395  21.598  20.213  1.00  0.00     0.000 C 
BRANCH  11  12
ATOM     12  C   UNL     1      22.516  21.751  18.687  1.00  0.00    -0.000 C 
BRANCH  12  13
ATOM     13  C   UNL     1      23.868  21.255  18.150  1.00  0.00    -0.000 C 
BRANCH  13  14
ATOM     14  C   UNL     1      23.947  19.720  18.072  1.00  0.00    -0.000 C 
BRANCH  14  15
ATOM     15  C   UNL     1      25.146  19.150  18.848  1.00  0.00    -0.000 C 
BRANCH  15  16
ATOM     16  C   UNL     1      24.783  18.750  20.289  1.00  0.00    -0.000 C 
BRANCH  16  17
ATOM     17  C   UNL     1      25.750  19.344  21.326  1.00  0.00    -0.003 C 
ATOM     18  C   UNL     1      25.968  20.845  21.143  1.00  0.00     0.004 C 
ENDBRANCH  16  17
ENDBRANCH  15  16
ENDBRANCH  14  15
ENDBRANCH  13  14
ENDBRANCH  12  13
ENDBRANCH  11  12
ENDBRANCH   1  11
TORSDOF 14
ENDMDL
MODEL 6
REMARK VINA RESULT:    -2.648      0.965      2.027
REMARK INTER + INTRA:          -5.347
REMARK INTER:                  -5.398
REMARK INTRA:                   0.050
REMARK UNBOUND:                -0.532
REMARK SMILES CCCCCCCCCCCCCCCC(=O)[O-]
REMARK SMILES IDX 9 1 10 2 11 3 12 4 13 5 14 6 15 7 16 8 17 9 18 10 8 11 7 12
REMARK SMILES IDX 6 13 5 14 4 15 3 16 2 17 1 18
REMARK H PARENT
REMARK Flexibility Score: inf
ROOT
ATOM      1  C   UNL     1       7.487   9.730  32.840  1.00  0.00     0.000 C 
ENDROOT
BRANCH   1   2
ATOM      2  C   UNL     1       7.935   8.262  32.777  1.00  0.00     0.000 C 
BRANCH   2   3
ATOM      3  C   UNL     1       6.997   7.367  33.601  1.00  0.00     0.000 C 
BRANCH   3   4
ATOM      4  C   UNL     1       7.025   7.702  35.100  1.00  0.00     0.000 C 
BRANCH   4   5
ATOM      5  C   UNL     1       7.706   6.608  35.939  1.00  0.00     0.000 C 
BRANCH   5   6
ATOM      6  C   UNL     1       7.528   5.197  35.348  1.00  0.00     0.006 C 
BRANCH   6   7
ATOM      7  C   UNL     1       8.225   4.090  36.158  1.00  0.00     0.053 C 
BRANCH   7   8
ATOM      8  C   UNL     1       9.718   4.160  36.062  1.00  0.00     0.041 C 
ATOM      9  O   UNL     1      10.263   4.889  35.191  1.00  0.00    -0.550 OA
ATOM     10  O   UNL     1      10.510   3.451  36.956  1.00  0.00    -0.550 OA
ENDBRANCH   7   8
ENDBRANCH   6   7
ENDBRANCH   5   6
ENDBRANCH   4   5
ENDBRANCH   3   4
ENDBRANCH   2   3
ENDBRANCH   1   2
BRANCH   1  11
ATOM     11  C   UNL     1       6.038   9.889  33.331  1.00  0.00     0.000 C 
BRANCH  11  12
ATOM     12  C   UNL     1       5.877  11.045  34.332  1.00  0.00    -0.000 C 
BRANCH  12  13
ATOM     13  C   UNL     1       6.124  12.420  33.690  1.00  0.00    -0.000 C 
BRANCH  13  14
ATOM     14  C   UNL     1       6.121  13.563  34.721  1.00  0.00    -0.000 C 
BRANCH  14  15
ATOM     15  C   UNL     1       6.647  14.886  34.139  1.00  0.00    -0.000 C 
BRANCH  15  16
ATOM     16  C   UNL     1       6.325  16.096  35.033  1.00  0.00    -0.000 C 
BRANCH  16  17
ATOM     17  C   UNL     1       5.878  17.324  34.223  1.00  0.00    -0.003 C 
ATOM     18  C   UNL     1       6.763  18.546  34.460  1.00  0.00     0.004 C 
ENDBRANCH  16  17
ENDBRANCH  15  16
ENDBRANCH  14  15
ENDBRANCH  13  14
ENDBRANCH  12  13
ENDBRANCH  11  12
ENDBRANCH   1  11
TORSDOF 14
ENDMDL
MODEL 7
REMARK VINA RESULT:    -2.521      1.878      3.914
REMARK INTER + INTRA:          -5.117
REMARK INTER:                  -4.478
REMARK INTRA:                  -0.639
REMARK UNBOUND:                -0.532
REMARK SMILES CCCCCCCCCCCCCCCC(=O)[O-]
REMARK SMILES IDX 9 1 10 2 11 3 12 4 13 5 14 6 15 7 16 8 17 9 18 10 8 11 7 12
REMARK SMILES IDX 6 13 5 14 4 15 3 16 2 17 1 18
REMARK H PARENT
REMARK Flexibility Score: inf
ROOT
ATOM      1  C   UNL     1       6.802   7.439  34.216  1.00  0.00     0.000 C 
ENDROOT
BRANCH   1   2
ATOM      2  C   UNL     1       7.339   6.059  34.626  1.00  0.00     0.000 C 
BRANCH   2   3
ATOM      3  C   UNL     1       6.288   4.966  34.374  1.00  0.00     0.000 C 
BRANCH   3   4
ATOM      4  C   UNL     1       5.876   4.235  35.661  1.00  0.00     0.000 C 
BRANCH   4   5
ATOM      5  C   UNL     1       6.102   2.716  35.576  1.00  0.00     0.000 C 
BRANCH   5   6
ATOM      6  C   UNL     1       7.385   2.256  36.291  1.00  0.00     0.006 C 
BRANCH   6   7
ATOM      7  C   UNL     1       8.201   3.406  36.908  1.00  0.00     0.053 C 
BRANCH   7   8
ATOM      8  C   UNL     1       9.580   3.506  36.331  1.00  0.00     0.041 C 
ATOM      9  O   UNL     1      10.107   4.634  36.143  1.00  0.00    -0.550 OA
ATOM     10  O   UNL     1      10.299   2.355  36.035  1.00  0.00    -0.550 OA
ENDBRANCH   7   8
ENDBRANCH   6   7
ENDBRANCH   5   6
ENDBRANCH   4   5
ENDBRANCH   3   4
ENDBRANCH   2   3
ENDBRANCH   1   2
BRANCH   1  11
ATOM     11  C   UNL     1       6.510   8.346  35.422  1.00  0.00     0.000 C 
BRANCH  11  12
ATOM     12  C   UNL     1       6.276   9.811  35.017  1.00  0.00    -0.000 C 
BRANCH  12  13
ATOM     13  C   UNL     1       6.923  10.805  35.995  1.00  0.00    -0.000 C 
BRANCH  13  14
ATOM     14  C   UNL     1       5.885  11.672  36.730  1.00  0.00    -0.000 C 
BRANCH  14  15
ATOM     15  C   UNL     1       6.239  13.168  36.702  1.00  0.00    -0.000 C 
BRANCH  15  16
ATOM     16  C   UNL     1       6.205  13.759  35.282  1.00  0.00    -0.000 C 
BRANCH  16  17
ATOM     17  C   UNL     1       5.876  15.261  35.277  1.00  0.00    -0.003 C 
ATOM     18  C   UNL     1       6.541  16.011  34.124  1.00  0.00     0.004 C 
ENDBRANCH  16  17
ENDBRANCH  15  16
ENDBRANCH  14  15
ENDBRANCH  13  14
ENDBRANCH  12  13
ENDBRANCH  11  12
ENDBRANCH   1  11
TORSDOF 14
ENDMDL
MODEL 8
REMARK VINA RESULT:    -2.342     21.731     23.819
REMARK INTER + INTRA:          -4.790
REMARK INTER:                  -3.598
REMARK INTRA:                  -1.193
REMARK UNBOUND:                -0.532
REMARK SMILES CCCCCCCCCCCCCCCC(=O)[O-]
REMARK SMILES IDX 9 1 10 2 11 3 12 4 13 5 14 6 15 7 16 8 17 9 18 10 8 11 7 12
REMARK SMILES IDX 6 13 5 14 4 15 3 16 2 17 1 18
REMARK H PARENT
REMARK Flexibility Score: inf
ROOT
ATOM      1  C   UNL     1      20.205  20.900  20.833  1.00  0.00     0.000 C 
ENDROOT
BRANCH   1   2
ATOM      2  C   UNL     1      19.010  21.848  20.652  1.00  0.00     0.000 C 
BRANCH   2   3
ATOM      3  C   UNL     1      18.176  21.450  19.425  1.00  0.00     0.000 C 
BRANCH   3   4
ATOM      4  C   UNL     1      18.151  19.932  19.195  1.00  0.00     0.000 C 
BRANCH   4   5
ATOM      5  C   UNL     1      16.999  19.492  18.275  1.00  0.00     0.000 C 
BRANCH   5   6
ATOM      6  C   UNL     1      17.485  18.783  16.997  1.00  0.00     0.006 C 
BRANCH   6   7
ATOM      7  C   UNL     1      17.876  17.311  17.212  1.00  0.00     0.053 C 
BRANCH   7   8
ATOM      8  C   UNL     1      19.345  17.075  17.035  1.00  0.00     0.041 C 
ATOM      9  O   UNL     1      19.784  15.905  16.877  1.00  0.00    -0.550 OA
ATOM     10  O   UNL     1      20.227  18.148  17.008  1.00  0.00    -0.550 OA
ENDBRANCH   7   8
ENDBRANCH   6   7
ENDBRANCH   5   6
ENDBRANCH   4   5
ENDBRANCH   3   4
ENDBRANCH   2   3
ENDBRANCH   1   2
BRANCH   1  11
ATOM     11  C   UNL     1      21.498  21.445  20.202  1.00  0.00     0.000 C 
BRANCH  11  12
ATOM     12  C   UNL     1      21.768  20.856  18.807  1.00  0.00    -0.000 C 
BRANCH  12  13
ATOM     13  C   UNL     1      23.043  19.997  18.765  1.00  0.00    -0.000 C 
BRANCH  13  14
ATOM     14  C   UNL     1      24.145  20.619  17.890  1.00  0.00    -0.000 C 
BRANCH  14  15
ATOM     15  C   UNL     1      24.784  21.859  18.538  1.00  0.00    -0.000 C 
BRANCH  15  16
ATOM     16  C   UNL     1      25.870  21.497  19.567  1.00  0.00    -0.000 C 
BRANCH  16  17
ATOM     17  C   UNL     1      25.379  21.645  21.016  1.00  0.00    -0.003 C 
ATOM     18  C   UNL     1      25.952  20.579  21.949  1.00  0.00     0.004 C 
ENDBRANCH  16  17
ENDBRANCH  15  16
ENDBRANCH  14  15
ENDBRANCH  13  14
ENDBRANCH  12  13
ENDBRANCH  11  12
ENDBRANCH   1  11
TORSDOF 14
ENDMDL
