MODEL 1
REMARK VINA RESULT:    -4.090      0.000      0.000
REMARK INTER + INTRA:          -6.534
REMARK INTER:                  -6.003
REMARK INTRA:                  -0.531
REMARK UNBOUND:                -0.531
REMARK SMILES O=C([O-])CCCCCCCC(=O)[O-]
REMARK SMILES IDX 7 1 6 2 5 3 4 4 2 5 1 6 3 7 8 8 9 9 10 10 11 11 12 12 13 13
REMARK H PARENT
REMARK Flexibility Score: inf
ROOT
ATOM      1  C   UNL     1      -2.858   9.151   5.976  1.00  0.00     0.000 C 
ENDROOT
BRANCH   1   2
ATOM      2  C   UNL     1      -2.901   8.207   4.761  1.00  0.00     0.000 C 
BRANCH   2   3
ATOM      3  C   UNL     1      -2.173   6.861   4.954  1.00  0.00     0.006 C 
BRANCH   3   4
ATOM      4  C   UNL     1      -3.056   5.621   4.737  1.00  0.00     0.053 C 
BRANCH   4   5
ATOM      5  C   UNL     1      -3.424   4.964   6.031  1.00  0.00     0.041 C 
ATOM      6  O   UNL     1      -3.512   3.710   6.102  1.00  0.00    -0.550 OA
ATOM      7  O   UNL     1      -3.701   5.738   7.150  1.00  0.00    -0.550 OA
ENDBRANCH   4   5
ENDBRANCH   3   4
ENDBRANCH   2   3
ENDBRANCH   1   2
BRANCH   1   8
ATOM      8  C   UNL     1      -1.951   8.636   7.103  1.00  0.00     0.000 C 
BRANCH   8   9
ATOM      9  C   UNL     1      -2.264   9.347   8.428  1.00  0.00     0.006 C 
BRANCH   9  10
ATOM     10  C   UNL     1      -3.759   9.301   8.772  1.00  0.00     0.053 C 
BRANCH  10  11
ATOM     11  C   UNL     1      -4.119   8.060   9.529  1.00  0.00     0.041 C 
ATOM     12  O   UNL     1      -5.322   7.695   9.613  1.00  0.00    -0.550 OA
ATOM     13  O   UNL     1      -3.123   7.287  10.112  1.00  0.00    -0.550 OA
ENDBRANCH  10  11
ENDBRANCH   9  10
ENDBRANCH   8   9
ENDBRANCH   1   8
TORSDOF 8
ENDMDL
MODEL 2
REMARK VINA RESULT:    -4.050      0.305      4.207
REMARK INTER + INTRA:          -6.475
REMARK INTER:                  -6.015
REMARK INTRA:                  -0.460
REMARK UNBOUND:                -0.531
REMARK SMILES O=C([O-])CCCCCCCC(=O)[O-]
REMARK SMILES IDX 7 1 6 2 5 3 4 4 2 5 1 6 3 7 8 8 9 9 10 10 11 11 12 12 13 13
REMARK H PARENT
REMARK Flexibility Score: inf
ROOT
ATOM      1  C   UNL     1      -2.940   9.099   6.107  1.00  0.00     0.000 C 
ENDROOT
BRANCH   1   2
ATOM      2  C   UNL     1      -1.846   8.709   7.117  1.00  0.00     0.000 C 
BRANCH   2   3
ATOM      3  C   UNL     1      -2.248   8.846   8.600  1.00  0.00     0.006 C 
BRANCH   3   4
ATOM      4  C   UNL     1      -3.764   8.861   8.851  1.00  0.00     0.053 C 
BRANCH   4   5
ATOM      5  C   UNL     1      -4.221   7.640   9.588  1.00  0.00     0.041 C 
ATOM      6  O   UNL     1      -3.380   6.871  10.123  1.00  0.00    -0.550 OA
ATOM      7  O   UNL     1      -5.574   7.335   9.656  1.00  0.00    -0.550 OA
ENDBRANCH   4   5
ENDBRANCH   3   4
ENDBRANCH   2   3
ENDBRANCH   1   2
BRANCH   1   8
ATOM      8  C   UNL     1      -2.924   8.230   4.842  1.00  0.00     0.000 C 
BRANCH   8   9
ATOM      9  C   UNL     1      -2.121   6.940   5.071  1.00  0.00     0.006 C 
BRANCH   9  10
ATOM     10  C   UNL     1      -2.938   5.682   4.749  1.00  0.00     0.053 C 
BRANCH  10  11
ATOM     11  C   UNL     1      -3.419   4.997   5.991  1.00  0.00     0.041 C 
ATOM     12  O   UNL     1      -3.538   3.744   6.018  1.00  0.00    -0.550 OA
ATOM     13  O   UNL     1      -3.703   5.740   7.130  1.00  0.00    -0.550 OA
ENDBRANCH  10  11
ENDBRANCH   9  10
ENDBRANCH   8   9
ENDBRANCH   1   8
TORSDOF 8
ENDMDL
MODEL 3
REMARK VINA RESULT:    -3.801      4.928      6.053
REMARK INTER + INTRA:          -6.110
REMARK INTER:                  -5.908
REMARK INTRA:                  -0.202
REMARK UNBOUND:                -0.531
REMARK SMILES O=C([O-])CCCCCCCC(=O)[O-]
REMARK SMILES IDX 7 1 6 2 5 3 4 4 2 5 1 6 3 7 8 8 9 9 10 10 11 11 12 12 13 13
REMARK H PARENT
REMARK Flexibility Score: inf
ROOT
ATOM      1  C   UNL     1       0.139   9.784   8.220  1.00  0.00     0.000 C 
ENDROOT
BRANCH   1   2
ATOM      2  C   UNL     1      -1.164   8.968   8.289  1.00  0.00     0.000 C 
BRANCH   2   3
ATOM      3  C   UNL     1      -2.107   9.141   7.081  1.00  0.00     0.006 C 
BRANCH   3   4
ATOM      4  C   UNL     1      -2.652   7.825   6.502  1.00  0.00     0.053 C 
BRANCH   4   5
ATOM      5  C   UNL     1      -2.478   7.755   5.017  1.00  0.00     0.041 C 
ATOM      6  O   UNL     1      -1.613   6.990   4.515  1.00  0.00    -0.550 OA
ATOM      7  O   UNL     1      -3.252   8.557   4.188  1.00  0.00    -0.550 OA
ENDBRANCH   4   5
ENDBRANCH   3   4
ENDBRANCH   2   3
ENDBRANCH   1   2
BRANCH   1   8
ATOM      8  C   UNL     1       1.340   9.049   8.833  1.00  0.00     0.000 C 
BRANCH   8   9
ATOM      9  C   UNL     1       2.587   9.201   7.949  1.00  0.00     0.006 C 
BRANCH   9  10
ATOM     10  C   UNL     1       3.771   8.374   8.470  1.00  0.00     0.053 C 
BRANCH  10  11
ATOM     11  C   UNL     1       4.789   8.125   7.399  1.00  0.00     0.041 C 
ATOM     12  O   UNL     1       6.018   8.177   7.669  1.00  0.00    -0.550 OA
ATOM     13  O   UNL     1       4.380   7.800   6.112  1.00  0.00    -0.550 OA
ENDBRANCH  10  11
ENDBRANCH   9  10
ENDBRANCH   8   9
ENDBRANCH   1   8
TORSDOF 8
ENDMDL
MODEL 4
REMARK VINA RESULT:    -3.788     13.366     15.499
REMARK INTER + INTRA:          -6.090
REMARK INTER:                  -5.724
REMARK INTRA:                  -0.366
REMARK UNBOUND:                -0.531
REMARK SMILES O=C([O-])CCCCCCCC(=O)[O-]
REMARK SMILES IDX 7 1 6 2 5 3 4 4 2 5 1 6 3 7 8 8 9 9 10 10 11 11 12 12 13 13
REMARK H PARENT
REMARK Flexibility Score: inf
ROOT
ATOM      1  C   UNL     1       4.491  -6.087   7.949  1.00  0.00     0.000 C 
ENDROOT
BRANCH   1   2
ATOM      2  C   UNL     1       6.003  -6.234   8.191  1.00  0.00     0.000 C 
BRANCH   2   3
ATOM      3  C   UNL     1       6.537  -5.512   9.445  1.00  0.00     0.006 C 
BRANCH   3   4
ATOM      4  C   UNL     1       8.061  -5.314   9.467  1.00  0.00     0.053 C 
BRANCH   4   5
ATOM      5  C   UNL     1       8.500  -4.253   8.507  1.00  0.00     0.041 C 
ATOM      6  O   UNL     1       8.800  -4.555   7.322  1.00  0.00    -0.550 OA
ATOM      7  O   UNL     1       8.609  -2.935   8.930  1.00  0.00    -0.550 OA
ENDBRANCH   4   5
ENDBRANCH   3   4
ENDBRANCH   2   3
ENDBRANCH   1   2
BRANCH   1   8
ATOM      8  C   UNL     1       3.683  -5.977   9.250  1.00  0.00     0.000 C 
BRANCH   8   9
ATOM      9  C   UNL     1       2.572  -4.924   9.120  1.00  0.00     0.006 C 
BRANCH   9  10
ATOM     10  C   UNL     1       2.128  -4.726   7.664  1.00  0.00     0.053 C 
BRANCH  10  11
ATOM     11  C   UNL     1       0.853  -5.454   7.367  1.00  0.00     0.041 C 
ATOM     12  O   UNL     1       0.808  -6.710   7.446  1.00  0.00    -0.550 OA
ATOM     13  O   UNL     1      -0.294  -4.743   7.038  1.00  0.00    -0.550 OA
ENDBRANCH  10  11
ENDBRANCH   9  10
ENDBRANCH   8   9
ENDBRANCH   1   8
TORSDOF 8
ENDMDL
MODEL 5
REMARK VINA RESULT:    -3.703      4.435      6.125
REMARK INTER + INTRA:          -5.965
REMARK INTER:                  -5.686
REMARK INTRA:                  -0.280
REMARK UNBOUND:                -0.531
REMARK SMILES O=C([O-])CCCCCCCC(=O)[O-]
REMARK SMILES IDX 7 1 6 2 5 3 4 4 2 5 1 6 3 7 8 8 9 9 10 10 11 11 12 12 13 13
REMARK H PARENT
REMARK Flexibility Score: inf
ROOT
ATOM      1  C   UNL     1      -0.586   9.216   8.095  1.00  0.00     0.000 C 
ENDROOT
BRANCH   1   2
ATOM      2  C   UNL     1       0.518   9.967   8.862  1.00  0.00     0.000 C 
BRANCH   2   3
ATOM      3  C   UNL     1       1.929   9.855   8.251  1.00  0.00     0.006 C 
BRANCH   3   4
ATOM      4  C   UNL     1       2.698   8.585   8.650  1.00  0.00     0.053 C 
BRANCH   4   5
ATOM      5  C   UNL     1       3.948   8.412   7.844  1.00  0.00     0.041 C 
ATOM      6  O   UNL     1       5.061   8.761   8.318  1.00  0.00    -0.550 OA
ATOM      7  O   UNL     1       3.879   7.895   6.557  1.00  0.00    -0.550 OA
ENDBRANCH   4   5
ENDBRANCH   3   4
ENDBRANCH   2   3
ENDBRANCH   1   2
BRANCH   1   8
ATOM      8  C   UNL     1      -1.859  10.051   7.907  1.00  0.00     0.000 C 
BRANCH   8   9
ATOM      9  C   UNL     1      -2.689   9.530   6.724  1.00  0.00     0.006 C 
BRANCH   9  10
ATOM     10  C   UNL     1      -2.402   8.054   6.419  1.00  0.00     0.053 C 
BRANCH  10  11
ATOM     11  C   UNL     1      -2.408   7.777   4.947  1.00  0.00     0.041 C 
ATOM     12  O   UNL     1      -1.675   6.872   4.470  1.00  0.00    -0.550 OA
ATOM     13  O   UNL     1      -3.250   8.495   4.107  1.00  0.00    -0.550 OA
ENDBRANCH  10  11
ENDBRANCH   9  10
ENDBRANCH   8   9
ENDBRANCH   1   8
TORSDOF 8
ENDMDL
MODEL 6
REMARK VINA RESULT:    -3.660     13.763     15.835
REMARK INTER + INTRA:          -5.902
REMARK INTER:                  -5.634
REMARK INTRA:                  -0.268
REMARK UNBOUND:                -0.531
REMARK SMILES O=C([O-])CCCCCCCC(=O)[O-]
REMARK SMILES IDX 7 1 6 2 5 3 4 4 2 5 1 6 3 7 8 8 9 9 10 10 11 11 12 12 13 13
REMARK H PARENT
REMARK Flexibility Score: inf
ROOT
ATOM      1  C   UNL     1       5.564  -6.195   8.236  1.00  0.00     0.000 C 
ENDROOT
BRANCH   1   2
ATOM      2  C   UNL     1       4.088  -6.465   7.896  1.00  0.00     0.000 C 
BRANCH   2   3
ATOM      3  C   UNL     1       3.081  -5.490   8.541  1.00  0.00     0.006 C 
BRANCH   3   4
ATOM      4  C   UNL     1       2.201  -4.727   7.538  1.00  0.00     0.053 C 
BRANCH   4   5
ATOM      5  C   UNL     1       0.856  -5.365   7.376  1.00  0.00     0.041 C 
ATOM      6  O   UNL     1       0.708  -6.595   7.596  1.00  0.00    -0.550 OA
ATOM      7  O   UNL     1      -0.226  -4.606   6.950  1.00  0.00    -0.550 OA
ENDBRANCH   4   5
ENDBRANCH   3   4
ENDBRANCH   2   3
ENDBRANCH   1   2
BRANCH   1   8
ATOM      8  C   UNL     1       5.818  -6.063   9.744  1.00  0.00     0.000 C 
BRANCH   8   9
ATOM      9  C   UNL     1       7.319  -5.927  10.040  1.00  0.00     0.006 C 
BRANCH   9  10
ATOM     10  C   UNL     1       7.890  -4.592   9.542  1.00  0.00     0.053 C 
BRANCH  10  11
ATOM     11  C   UNL     1       8.911  -4.791   8.464  1.00  0.00     0.041 C 
ATOM     12  O   UNL     1      10.095  -5.101   8.763  1.00  0.00    -0.550 OA
ATOM     13  O   UNL     1       8.548  -4.668   7.129  1.00  0.00    -0.550 OA
ENDBRANCH  10  11
ENDBRANCH   9  10
ENDBRANCH   8   9
ENDBRANCH   1   8
TORSDOF 8
ENDMDL
MODEL 7
REMARK VINA RESULT:    -3.613     15.543     17.231
REMARK INTER + INTRA:          -5.833
REMARK INTER:                  -5.367
REMARK INTRA:                  -0.466
REMARK UNBOUND:                -0.531
REMARK SMILES O=C([O-])CCCCCCCC(=O)[O-]
REMARK SMILES IDX 7 1 6 2 5 3 4 4 2 5 1 6 3 7 8 8 9 9 10 10 11 11 12 12 13 13
REMARK H PARENT
REMARK Flexibility Score: inf
ROOT
ATOM      1  C   UNL     1      -5.225   3.004  -6.881  1.00  0.00     0.000 C 
ENDROOT
BRANCH   1   2
ATOM      2  C   UNL     1      -4.067   2.206  -7.506  1.00  0.00     0.000 C 
BRANCH   2   3
ATOM      3  C   UNL     1      -3.230   2.977  -8.548  1.00  0.00     0.006 C 
BRANCH   3   4
ATOM      4  C   UNL     1      -3.847   4.310  -9.001  1.00  0.00     0.053 C 
BRANCH   4   5
ATOM      5  C   UNL     1      -2.807   5.372  -9.185  1.00  0.00     0.041 C 
ATOM      6  O   UNL     1      -1.722   5.103  -9.763  1.00  0.00    -0.550 OA
ATOM      7  O   UNL     1      -3.025   6.651  -8.689  1.00  0.00    -0.550 OA
ENDBRANCH   4   5
ENDBRANCH   3   4
ENDBRANCH   2   3
ENDBRANCH   1   2
BRANCH   1   8
ATOM      8  C   UNL     1      -6.598   2.602  -7.436  1.00  0.00     0.000 C 
BRANCH   8   9
ATOM      9  C   UNL     1      -6.465   1.472  -8.468  1.00  0.00     0.006 C 
BRANCH   9  10
ATOM     10  C   UNL     1      -6.708   1.963  -9.901  1.00  0.00     0.053 C 
BRANCH  10  11
ATOM     11  C   UNL     1      -7.838   2.944  -9.970  1.00  0.00     0.041 C 
ATOM     12  O   UNL     1      -7.603   4.171 -10.125  1.00  0.00    -0.550 OA
ATOM     13  O   UNL     1      -9.152   2.499  -9.896  1.00  0.00    -0.550 OA
ENDBRANCH  10  11
ENDBRANCH   9  10
ENDBRANCH   8   9
ENDBRANCH   1   8
TORSDOF 8
ENDMDL
MODEL 8
REMARK VINA RESULT:    -3.593      4.904      6.148
REMARK INTER + INTRA:          -5.805
REMARK INTER:                  -5.549
REMARK INTRA:                  -0.256
REMARK UNBOUND:                -0.531
REMARK SMILES O=C([O-])CCCCCCCC(=O)[O-]
REMARK SMILES IDX 7 1 6 2 5 3 4 4 2 5 1 6 3 7 8 8 9 9 10 10 11 11 12 12 13 13
REMARK H PARENT
REMARK Flexibility Score: inf
ROOT
ATOM      1  C   UNL     1       0.232   8.998   8.897  1.00  0.00     0.000 C 
ENDROOT
BRANCH   1   2
ATOM      2  C   UNL     1       1.695   9.466   8.989  1.00  0.00     0.000 C 
BRANCH   2   3
ATOM      3  C   UNL     1       2.620   8.939   7.873  1.00  0.00     0.006 C 
BRANCH   3   4
ATOM      4  C   UNL     1       3.900   8.251   8.376  1.00  0.00     0.053 C 
BRANCH   4   5
ATOM      5  C   UNL     1       4.885   8.028   7.271  1.00  0.00     0.041 C 
ATOM      6  O   UNL     1       4.492   7.647   6.138  1.00  0.00    -0.550 OA
ATOM      7  O   UNL     1       6.243   8.209   7.503  1.00  0.00    -0.550 OA
ENDBRANCH   4   5
ENDBRANCH   3   4
ENDBRANCH   2   3
ENDBRANCH   1   2
BRANCH   1   8
ATOM      8  C   UNL     1      -0.676  10.007   8.179  1.00  0.00     0.000 C 
BRANCH   8   9
ATOM      9  C   UNL     1      -2.127   9.505   8.134  1.00  0.00     0.006 C 
BRANCH   9  10
ATOM     10  C   UNL     1      -2.626   9.300   6.697  1.00  0.00     0.053 C 
BRANCH  10  11
ATOM     11  C   UNL     1      -2.522   7.867   6.272  1.00  0.00     0.041 C 
ATOM     12  O   UNL     1      -2.940   6.950   7.028  1.00  0.00    -0.550 OA
ATOM     13  O   UNL     1      -1.995   7.547   5.027  1.00  0.00    -0.550 OA
ENDBRANCH  10  11
ENDBRANCH   9  10
ENDBRANCH   8   9
ENDBRANCH   1   8
TORSDOF 8
ENDMDL
MODEL 9
REMARK VINA RESULT:    -3.520     15.835     17.160
REMARK INTER + INTRA:          -5.698
REMARK INTER:                  -5.235
REMARK INTRA:                  -0.462
REMARK UNBOUND:                -0.531
REMARK SMILES O=C([O-])CCCCCCCC(=O)[O-]
REMARK SMILES IDX 7 1 6 2 5 3 4 4 2 5 1 6 3 7 8 8 9 9 10 10 11 11 12 12 13 13
REMARK H PARENT
REMARK Flexibility Score: inf
ROOT
ATOM      1  C   UNL     1      -4.985   3.012  -6.982  1.00  0.00     0.000 C 
ENDROOT
BRANCH   1   2
ATOM      2  C   UNL     1      -6.382   2.634  -7.505  1.00  0.00     0.000 C 
BRANCH   2   3
ATOM      3  C   UNL     1      -6.400   1.531  -8.583  1.00  0.00     0.006 C 
BRANCH   3   4
ATOM      4  C   UNL     1      -6.762   2.023  -9.994  1.00  0.00     0.053 C 
BRANCH   4   5
ATOM      5  C   UNL     1      -7.938   2.949  -9.978  1.00  0.00     0.041 C 
ATOM      6  O   UNL     1      -7.771   4.188 -10.124  1.00  0.00    -0.550 OA
ATOM      7  O   UNL     1      -9.216   2.446  -9.770  1.00  0.00    -0.550 OA
ENDBRANCH   4   5
ENDBRANCH   3   4
ENDBRANCH   2   3
ENDBRANCH   1   2
BRANCH   1   8
ATOM      8  C   UNL     1      -3.855   2.247  -7.686  1.00  0.00     0.000 C 
BRANCH   8   9
ATOM      9  C   UNL     1      -3.153   3.136  -8.723  1.00  0.00     0.006 C 
BRANCH   9  10
ATOM     10  C   UNL     1      -3.028   4.591  -8.252  1.00  0.00     0.053 C 
BRANCH  10  11
ATOM     11  C   UNL     1      -2.418   5.467  -9.303  1.00  0.00     0.041 C 
ATOM     12  O   UNL     1      -2.796   6.661  -9.430  1.00  0.00    -0.550 OA
ATOM     13  O   UNL     1      -1.408   4.974 -10.120  1.00  0.00    -0.550 OA
ENDBRANCH  10  11
ENDBRANCH   9  10
ENDBRANCH   8   9
ENDBRANCH   1   8
TORSDOF 8
ENDMDL
