MODEL 1
REMARK VINA RESULT:    -4.996      0.000      0.000
REMARK INTER + INTRA:          -8.071
REMARK INTER:                  -6.165
REMARK INTRA:                  -1.907
REMARK UNBOUND:                -1.907
REMARK SMILES C=C(CCC=C(C)C)[C@@H]1CC=C(C)CC1
REMARK SMILES IDX 3 1 2 2 1 3 9 4 13 5 12 6 11 7 14 8 10 9 15 10 4 11 5 12
REMARK SMILES IDX 6 13 7 14 8 15
REMARK H PARENT
REMARK Flexibility Score: inf
ROOT
ATOM      1  C   UNL     1     145.074 141.207 164.826  1.00  0.00     0.035 C 
ENDROOT
BRANCH   1   2
ATOM      2  C   UNL     1     145.792 141.491 163.527  1.00  0.00    -0.074 C 
ATOM      3  C   UNL     1     145.467 140.786 162.428  1.00  0.00     0.008 C 
BRANCH   2   4
ATOM      4  C   UNL     1     146.858 142.578 163.470  1.00  0.00     0.018 C 
ATOM      5  C   UNL     1     145.552 146.609 164.561  1.00  0.00     0.039 C 
ATOM      6  C   UNL     1     146.315 145.350 164.263  1.00  0.00    -0.077 C 
ATOM      7  C   UNL     1     146.437 144.396 165.201  1.00  0.00    -0.027 C 
ATOM      8  C   UNL     1     146.890 145.087 162.891  1.00  0.00     0.031 C 
ATOM      9  C   UNL     1     147.184 143.126 164.889  1.00  0.00     0.035 C 
ATOM     10  C   UNL     1     146.482 143.681 162.432  1.00  0.00     0.013 C 
ENDBRANCH   2   4
ENDBRANCH   1   2
BRANCH   1  11
ATOM     11  C   UNL     1     143.563 141.407 164.666  1.00  0.00     0.032 C 
BRANCH  11  12
ATOM     12  C   UNL     1     143.170 142.820 165.013  1.00  0.00    -0.028 C 
ATOM     13  C   UNL     1     142.805 143.756 164.108  1.00  0.00    -0.080 C 
ATOM     14  C   UNL     1     142.809 143.478 162.623  1.00  0.00     0.039 C 
ATOM     15  C   UNL     1     142.400 145.119 164.608  1.00  0.00     0.039 C 
ENDBRANCH  11  12
ENDBRANCH   1  11
TORSDOF 4
ENDMDL
MODEL 2
REMARK VINA RESULT:    -4.988      3.501      5.858
REMARK INTER + INTRA:          -8.061
REMARK INTER:                  -6.272
REMARK INTRA:                  -1.789
REMARK UNBOUND:                -1.907
REMARK SMILES C=C(CCC=C(C)C)[C@@H]1CC=C(C)CC1
REMARK SMILES IDX 3 1 2 2 1 3 9 4 13 5 12 6 11 7 14 8 10 9 15 10 4 11 5 12
REMARK SMILES IDX 6 13 7 14 8 15
REMARK H PARENT
REMARK Flexibility Score: inf
ROOT
ATOM      1  C   UNL     1     140.457 146.057 163.856  1.00  0.00     0.035 C 
ENDROOT
BRANCH   1   2
ATOM      2  C   UNL     1     141.248 145.209 162.888  1.00  0.00    -0.074 C 
ATOM      3  C   UNL     1     142.037 144.229 163.364  1.00  0.00     0.008 C 
BRANCH   2   4
ATOM      4  C   UNL     1     141.133 145.458 161.389  1.00  0.00     0.018 C 
ATOM      5  C   UNL     1     143.104 149.064 159.886  1.00  0.00     0.039 C 
ATOM      6  C   UNL     1     142.452 147.723 160.071  1.00  0.00    -0.077 C 
ATOM      7  C   UNL     1     143.179 146.670 160.481  1.00  0.00    -0.027 C 
ATOM      8  C   UNL     1     140.965 147.541 159.885  1.00  0.00     0.031 C 
ATOM      9  C   UNL     1     142.516 145.334 160.686  1.00  0.00     0.035 C 
ATOM     10  C   UNL     1     140.389 146.799 161.097  1.00  0.00     0.013 C 
ENDBRANCH   2   4
ENDBRANCH   1   2
BRANCH   1  11
ATOM     11  C   UNL     1     141.391 146.775 164.836  1.00  0.00     0.032 C 
BRANCH  11  12
ATOM     12  C   UNL     1     142.316 147.715 164.104  1.00  0.00    -0.028 C 
ATOM     13  C   UNL     1     143.666 147.642 164.140  1.00  0.00    -0.080 C 
ATOM     14  C   UNL     1     144.388 146.617 164.982  1.00  0.00     0.039 C 
ATOM     15  C   UNL     1     144.460 148.629 163.324  1.00  0.00     0.039 C 
ENDBRANCH  11  12
ENDBRANCH   1  11
TORSDOF 4
ENDMDL
MODEL 3
REMARK VINA RESULT:    -4.977      1.819      3.384
REMARK INTER + INTRA:          -8.047
REMARK INTER:                  -6.082
REMARK INTRA:                  -1.965
REMARK UNBOUND:                -1.907
REMARK SMILES C=C(CCC=C(C)C)[C@@H]1CC=C(C)CC1
REMARK SMILES IDX 3 1 2 2 1 3 9 4 13 5 12 6 11 7 14 8 10 9 15 10 4 11 5 12
REMARK SMILES IDX 6 13 7 14 8 15
REMARK H PARENT
REMARK Flexibility Score: inf
ROOT
ATOM      1  C   UNL     1     144.020 140.501 160.817  1.00  0.00     0.035 C 
ENDROOT
BRANCH   1   2
ATOM      2  C   UNL     1     145.352 140.895 161.414  1.00  0.00    -0.074 C 
ATOM      3  C   UNL     1     146.365 141.234 160.595  1.00  0.00     0.008 C 
BRANCH   2   4
ATOM      4  C   UNL     1     145.529 140.920 162.927  1.00  0.00     0.018 C 
ATOM      5  C   UNL     1     143.278 143.997 165.073  1.00  0.00     0.039 C 
ATOM      6  C   UNL     1     144.057 142.785 164.647  1.00  0.00    -0.077 C 
ATOM      7  C   UNL     1     143.423 141.732 164.103  1.00  0.00    -0.027 C 
ATOM      8  C   UNL     1     145.563 142.749 164.739  1.00  0.00     0.031 C 
ATOM      9  C   UNL     1     144.212 140.529 163.658  1.00  0.00     0.035 C 
ATOM     10  C   UNL     1     146.142 142.275 163.399  1.00  0.00     0.013 C 
ENDBRANCH   2   4
ENDBRANCH   1   2
BRANCH   1  11
ATOM     11  C   UNL     1     143.510 141.589 159.865  1.00  0.00     0.032 C 
BRANCH  11  12
ATOM     12  C   UNL     1     142.526 142.493 160.561  1.00  0.00    -0.028 C 
ATOM     13  C   UNL     1     142.822 143.724 161.037  1.00  0.00    -0.080 C 
ATOM     14  C   UNL     1     144.217 144.297 160.957  1.00  0.00     0.039 C 
ATOM     15  C   UNL     1     141.722 144.529 161.677  1.00  0.00     0.039 C 
ENDBRANCH  11  12
ENDBRANCH   1  11
TORSDOF 4
ENDMDL
MODEL 4
REMARK VINA RESULT:    -4.970      1.874      4.335
REMARK INTER + INTRA:          -8.039
REMARK INTER:                  -6.156
REMARK INTRA:                  -1.883
REMARK UNBOUND:                -1.907
REMARK SMILES C=C(CCC=C(C)C)[C@@H]1CC=C(C)CC1
REMARK SMILES IDX 3 1 2 2 1 3 9 4 13 5 12 6 11 7 14 8 10 9 15 10 4 11 5 12
REMARK SMILES IDX 6 13 7 14 8 15
REMARK H PARENT
REMARK Flexibility Score: inf
ROOT
ATOM      1  C   UNL     1     141.244 145.660 164.845  1.00  0.00     0.035 C 
ENDROOT
BRANCH   1   2
ATOM      2  C   UNL     1     141.508 144.955 163.535  1.00  0.00    -0.074 C 
ATOM      3  C   UNL     1     140.787 145.291 162.450  1.00  0.00     0.008 C 
BRANCH   2   4
ATOM      4  C   UNL     1     142.594 143.889 163.451  1.00  0.00     0.018 C 
ATOM      5  C   UNL     1     146.623 145.157 164.591  1.00  0.00     0.039 C 
ATOM      6  C   UNL     1     145.364 144.404 164.267  1.00  0.00    -0.077 C 
ATOM      7  C   UNL     1     144.407 144.258 165.199  1.00  0.00    -0.027 C 
ATOM      8  C   UNL     1     145.105 143.870 162.879  1.00  0.00     0.031 C 
ATOM      9  C   UNL     1     143.137 143.522 164.862  1.00  0.00     0.035 C 
ATOM     10  C   UNL     1     143.701 144.292 162.427  1.00  0.00     0.013 C 
ENDBRANCH   2   4
ENDBRANCH   1   2
BRANCH   1  11
ATOM     11  C   UNL     1     141.466 147.169 164.703  1.00  0.00     0.032 C 
BRANCH  11  12
ATOM     12  C   UNL     1     142.894 147.533 165.023  1.00  0.00    -0.028 C 
ATOM     13  C   UNL     1     143.811 147.912 164.104  1.00  0.00    -0.080 C 
ATOM     14  C   UNL     1     143.493 147.955 162.628  1.00  0.00     0.039 C 
ATOM     15  C   UNL     1     145.192 148.283 164.578  1.00  0.00     0.039 C 
ENDBRANCH  11  12
ENDBRANCH   1  11
TORSDOF 4
ENDMDL
MODEL 5
REMARK VINA RESULT:    -4.969      2.517      4.928
REMARK INTER + INTRA:          -8.037
REMARK INTER:                  -6.885
REMARK INTRA:                  -1.153
REMARK UNBOUND:                -1.907
REMARK SMILES C=C(CCC=C(C)C)[C@@H]1CC=C(C)CC1
REMARK SMILES IDX 3 1 2 2 1 3 9 4 13 5 12 6 11 7 14 8 10 9 15 10 4 11 5 12
REMARK SMILES IDX 6 13 7 14 8 15
REMARK H PARENT
REMARK Flexibility Score: inf
ROOT
ATOM      1  C   UNL     1     149.640 145.089 164.617  1.00  0.00     0.035 C 
ENDROOT
BRANCH   1   2
ATOM      2  C   UNL     1     149.106 145.783 163.386  1.00  0.00    -0.074 C 
ATOM      3  C   UNL     1     149.847 145.795 162.263  1.00  0.00     0.008 C 
BRANCH   2   4
ATOM      4  C   UNL     1     147.734 146.446 163.422  1.00  0.00     0.018 C 
ATOM      5  C   UNL     1     147.623 150.548 164.941  1.00  0.00     0.039 C 
ATOM      6  C   UNL     1     147.360 149.229 164.272  1.00  0.00    -0.077 C 
ATOM      7  C   UNL     1     147.900 148.962 163.071  1.00  0.00    -0.027 C 
ATOM      8  C   UNL     1     146.560 148.148 164.958  1.00  0.00     0.031 C 
ATOM      9  C   UNL     1     147.650 147.630 162.415  1.00  0.00     0.035 C 
ATOM     10  C   UNL     1     147.329 146.823 164.882  1.00  0.00     0.013 C 
ENDBRANCH   2   4
ENDBRANCH   1   2
BRANCH   1  11
ATOM     11  C   UNL     1     149.400 143.577 164.534  1.00  0.00     0.032 C 
BRANCH  11  12
ATOM     12  C   UNL     1     147.993 143.234 164.954  1.00  0.00    -0.028 C 
ATOM     13  C   UNL     1     147.014 142.850 164.104  1.00  0.00    -0.080 C 
ATOM     14  C   UNL     1     147.233 142.780 162.611  1.00  0.00     0.039 C 
ATOM     15  C   UNL     1     145.664 142.502 164.675  1.00  0.00     0.039 C 
ENDBRANCH  11  12
ENDBRANCH   1  11
TORSDOF 4
ENDMDL
MODEL 6
REMARK VINA RESULT:    -4.962      1.853      4.302
REMARK INTER + INTRA:          -8.029
REMARK INTER:                  -6.131
REMARK INTRA:                  -1.898
REMARK UNBOUND:                -1.907
REMARK SMILES C=C(CCC=C(C)C)[C@@H]1CC=C(C)CC1
REMARK SMILES IDX 3 1 2 2 1 3 9 4 13 5 12 6 11 7 14 8 10 9 15 10 4 11 5 12
REMARK SMILES IDX 6 13 7 14 8 15
REMARK H PARENT
REMARK Flexibility Score: inf
ROOT
ATOM      1  C   UNL     1     149.500 145.038 164.811  1.00  0.00     0.035 C 
ENDROOT
BRANCH   1   2
ATOM      2  C   UNL     1     149.212 145.735 163.502  1.00  0.00    -0.074 C 
ATOM      3  C   UNL     1     149.902 145.381 162.402  1.00  0.00     0.008 C 
BRANCH   2   4
ATOM      4  C   UNL     1     148.137 146.814 163.435  1.00  0.00     0.018 C 
ATOM      5  C   UNL     1     144.112 145.590 164.639  1.00  0.00     0.039 C 
ATOM      6  C   UNL     1     145.375 146.329 164.296  1.00  0.00    -0.077 C 
ATOM      7  C   UNL     1     146.348 146.464 165.212  1.00  0.00    -0.027 C 
ATOM      8  C   UNL     1     145.618 146.862 162.904  1.00  0.00     0.031 C 
ATOM      9  C   UNL     1     147.621 147.186 164.855  1.00  0.00     0.035 C 
ATOM     10  C   UNL     1     147.010 146.423 162.429  1.00  0.00     0.013 C 
ENDBRANCH   2   4
ENDBRANCH   1   2
BRANCH   1  11
ATOM     11  C   UNL     1     149.288 143.526 164.679  1.00  0.00     0.032 C 
BRANCH  11  12
ATOM     12  C   UNL     1     147.868 143.152 165.021  1.00  0.00    -0.028 C 
ATOM     13  C   UNL     1     146.933 142.790 164.114  1.00  0.00    -0.080 C 
ATOM     14  C   UNL     1     147.220 142.778 162.631  1.00  0.00     0.039 C 
ATOM     15  C   UNL     1     145.563 142.406 164.610  1.00  0.00     0.039 C 
ENDBRANCH  11  12
ENDBRANCH   1  11
TORSDOF 4
ENDMDL
MODEL 7
REMARK VINA RESULT:    -4.946      2.511      6.119
REMARK INTER + INTRA:          -8.009
REMARK INTER:                  -6.124
REMARK INTRA:                  -1.885
REMARK UNBOUND:                -1.907
REMARK SMILES C=C(CCC=C(C)C)[C@@H]1CC=C(C)CC1
REMARK SMILES IDX 3 1 2 2 1 3 9 4 13 5 12 6 11 7 14 8 10 9 15 10 4 11 5 12
REMARK SMILES IDX 6 13 7 14 8 15
REMARK H PARENT
REMARK Flexibility Score: inf
ROOT
ATOM      1  C   UNL     1     145.702 149.480 164.863  1.00  0.00     0.035 C 
ENDROOT
BRANCH   1   2
ATOM      2  C   UNL     1     144.990 149.234 163.553  1.00  0.00    -0.074 C 
ATOM      3  C   UNL     1     145.326 149.964 162.474  1.00  0.00     0.008 C 
BRANCH   2   4
ATOM      4  C   UNL     1     143.915 148.157 163.462  1.00  0.00     0.018 C 
ATOM      5  C   UNL     1     145.147 144.116 164.603  1.00  0.00     0.039 C 
ATOM      6  C   UNL     1     144.405 145.382 164.278  1.00  0.00    -0.077 C 
ATOM      7  C   UNL     1     144.263 146.339 165.210  1.00  0.00    -0.027 C 
ATOM      8  C   UNL     1     143.879 145.647 162.888  1.00  0.00     0.031 C 
ATOM      9  C   UNL     1     143.538 147.614 164.871  1.00  0.00     0.035 C 
ATOM     10  C   UNL     1     144.315 147.048 162.439  1.00  0.00     0.013 C 
ENDBRANCH   2   4
ENDBRANCH   1   2
BRANCH   1  11
ATOM     11  C   UNL     1     147.210 149.252 164.710  1.00  0.00     0.032 C 
BRANCH  11  12
ATOM     12  C   UNL     1     147.571 147.823 165.025  1.00  0.00    -0.028 C 
ATOM     13  C   UNL     1     147.928 146.902 164.101  1.00  0.00    -0.080 C 
ATOM     14  C   UNL     1     147.947 147.219 162.624  1.00  0.00     0.039 C 
ATOM     15  C   UNL     1     148.299 145.520 164.571  1.00  0.00     0.039 C 
ENDBRANCH  11  12
ENDBRANCH   1  11
TORSDOF 4
ENDMDL
MODEL 8
REMARK VINA RESULT:    -4.916      3.138      5.411
REMARK INTER + INTRA:          -7.973
REMARK INTER:                  -6.141
REMARK INTRA:                  -1.832
REMARK UNBOUND:                -1.907
REMARK SMILES C=C(CCC=C(C)C)[C@@H]1CC=C(C)CC1
REMARK SMILES IDX 3 1 2 2 1 3 9 4 13 5 12 6 11 7 14 8 10 9 15 10 4 11 5 12
REMARK SMILES IDX 6 13 7 14 8 15
REMARK H PARENT
REMARK Flexibility Score: inf
ROOT
ATOM      1  C   UNL     1     140.636 145.622 164.232  1.00  0.00     0.035 C 
ENDROOT
BRANCH   1   2
ATOM      2  C   UNL     1     141.265 146.934 164.643  1.00  0.00    -0.074 C 
ATOM      3  C   UNL     1     140.478 148.007 164.844  1.00  0.00     0.008 C 
BRANCH   2   4
ATOM      4  C   UNL     1     142.773 147.024 164.841  1.00  0.00     0.018 C 
ATOM      5  C   UNL     1     145.234 145.565 161.530  1.00  0.00     0.039 C 
ATOM      6  C   UNL     1     144.678 146.241 162.751  1.00  0.00    -0.077 C 
ATOM      7  C   UNL     1     143.987 147.387 162.633  1.00  0.00    -0.027 C 
ATOM      8  C   UNL     1     144.804 145.615 164.119  1.00  0.00     0.031 C 
ATOM      9  C   UNL     1     143.413 148.048 163.858  1.00  0.00     0.035 C 
ATOM     10  C   UNL     1     143.431 145.609 164.803  1.00  0.00     0.013 C 
ENDBRANCH   2   4
ENDBRANCH   1   2
BRANCH   1  11
ATOM     11  C   UNL     1     139.934 145.760 162.876  1.00  0.00     0.032 C 
BRANCH  11  12
ATOM     12  C   UNL     1     140.827 145.283 161.759  1.00  0.00    -0.028 C 
ATOM     13  C   UNL     1     141.241 146.055 160.729  1.00  0.00    -0.080 C 
ATOM     14  C   UNL     1     140.790 147.488 160.572  1.00  0.00     0.039 C 
ATOM     15  C   UNL     1     142.166 145.450 159.705  1.00  0.00     0.039 C 
ENDBRANCH  11  12
ENDBRANCH   1  11
TORSDOF 4
ENDMDL
MODEL 9
REMARK VINA RESULT:    -4.901      2.563      5.379
REMARK INTER + INTRA:          -7.954
REMARK INTER:                  -6.110
REMARK INTRA:                  -1.844
REMARK UNBOUND:                -1.907
REMARK SMILES C=C(CCC=C(C)C)[C@@H]1CC=C(C)CC1
REMARK SMILES IDX 3 1 2 2 1 3 9 4 13 5 12 6 11 7 14 8 10 9 15 10 4 11 5 12
REMARK SMILES IDX 6 13 7 14 8 15
REMARK H PARENT
REMARK Flexibility Score: inf
ROOT
ATOM      1  C   UNL     1     150.058 145.158 164.319  1.00  0.00     0.035 C 
ENDROOT
BRANCH   1   2
ATOM      2  C   UNL     1     149.414 143.845 164.704  1.00  0.00    -0.074 C 
ATOM      3  C   UNL     1     150.190 142.763 164.898  1.00  0.00     0.008 C 
BRANCH   2   4
ATOM      4  C   UNL     1     147.903 143.764 164.883  1.00  0.00     0.018 C 
ATOM      5  C   UNL     1     145.492 145.343 161.591  1.00  0.00     0.039 C 
ATOM      6  C   UNL     1     146.028 144.627 162.798  1.00  0.00    -0.077 C 
ATOM      7  C   UNL     1     146.709 143.477 162.653  1.00  0.00    -0.027 C 
ATOM      8  C   UNL     1     145.893 145.213 164.182  1.00  0.00     0.031 C 
ATOM      9  C   UNL     1     147.264 142.776 163.864  1.00  0.00     0.035 C 
ATOM     10  C   UNL     1     147.259 145.186 164.880  1.00  0.00     0.013 C 
ENDBRANCH   2   4
ENDBRANCH   1   2
BRANCH   1  11
ATOM     11  C   UNL     1     150.795 145.028 162.982  1.00  0.00     0.032 C 
BRANCH  11  12
ATOM     12  C   UNL     1     149.938 145.530 161.847  1.00  0.00    -0.028 C 
ATOM     13  C   UNL     1     149.490 144.761 160.830  1.00  0.00    -0.080 C 
ATOM     14  C   UNL     1     149.861 143.302 160.706  1.00  0.00     0.039 C 
ATOM     15  C   UNL     1     148.608 145.395 159.785  1.00  0.00     0.039 C 
ENDBRANCH  11  12
ENDBRANCH   1  11
TORSDOF 4
ENDMDL
