MODEL 1
REMARK VINA RESULT:    -4.136      0.000      0.000
REMARK INTER + INTRA:          -8.200
REMARK INTER:                  -7.279
REMARK INTRA:                  -0.921
REMARK UNBOUND:                -0.921
REMARK SMILES CCCCCCCCCCCCCCC(=O)[O-]
REMARK SMILES IDX 9 1 10 2 11 3 12 4 13 5 14 6 15 7 16 8 17 9 8 10 7 11 6 12
REMARK SMILES IDX 5 13 4 14 3 15 2 16 1 17
REMARK H PARENT
REMARK Flexibility Score: inf
ROOT
ATOM      1  C   UNL     1      -0.320  12.289  -3.895  1.00  0.00     0.000 C 
ENDROOT
BRANCH   1   2
ATOM      2  C   UNL     1       0.845  11.414  -3.402  1.00  0.00     0.000 C 
BRANCH   2   3
ATOM      3  C   UNL     1       0.720  11.036  -1.917  1.00  0.00     0.000 C 
BRANCH   3   4
ATOM      4  C   UNL     1       1.458   9.729  -1.553  1.00  0.00     0.000 C 
BRANCH   4   5
ATOM      5  C   UNL     1       1.087   9.228  -0.149  1.00  0.00     0.006 C 
BRANCH   5   6
ATOM      6  C   UNL     1       1.434   7.745   0.015  1.00  0.00     0.053 C 
BRANCH   6   7
ATOM      7  C   UNL     1       2.601   7.579   0.937  1.00  0.00     0.041 C 
ATOM      8  O   UNL     1       3.463   8.491   1.037  1.00  0.00    -0.550 OA
ATOM      9  O   UNL     1       2.708   6.440   1.724  1.00  0.00    -0.550 OA
ENDBRANCH   6   7
ENDBRANCH   5   6
ENDBRANCH   4   5
ENDBRANCH   3   4
ENDBRANCH   2   3
ENDBRANCH   1   2
BRANCH   1  10
ATOM     10  C   UNL     1      -1.536  11.446  -4.338  1.00  0.00     0.000 C 
BRANCH  10  11
ATOM     11  C   UNL     1      -2.793  12.283  -4.649  1.00  0.00    -0.000 C 
BRANCH  11  12
ATOM     12  C   UNL     1      -2.627  13.317  -5.774  1.00  0.00    -0.000 C 
BRANCH  12  13
ATOM     13  C   UNL     1      -3.091  14.725  -5.364  1.00  0.00    -0.000 C 
BRANCH  13  14
ATOM     14  C   UNL     1      -1.937  15.594  -4.839  1.00  0.00    -0.000 C 
BRANCH  14  15
ATOM     15  C   UNL     1      -1.910  15.682  -3.303  1.00  0.00    -0.000 C 
BRANCH  15  16
ATOM     16  C   UNL     1      -0.499  15.942  -2.754  1.00  0.00    -0.003 C 
ATOM     17  C   UNL     1      -0.447  15.918  -1.227  1.00  0.00     0.004 C 
ENDBRANCH  15  16
ENDBRANCH  14  15
ENDBRANCH  13  14
ENDBRANCH  12  13
ENDBRANCH  11  12
ENDBRANCH  10  11
ENDBRANCH   1  10
TORSDOF 13
ENDMDL
MODEL 2
REMARK VINA RESULT:    -4.131      0.770      1.455
REMARK INTER + INTRA:          -8.191
REMARK INTER:                  -7.121
REMARK INTRA:                  -1.070
REMARK UNBOUND:                -0.921
REMARK SMILES CCCCCCCCCCCCCCC(=O)[O-]
REMARK SMILES IDX 9 1 10 2 11 3 12 4 13 5 14 6 15 7 16 8 17 9 8 10 7 11 6 12
REMARK SMILES IDX 5 13 4 14 3 15 2 16 1 17
REMARK H PARENT
REMARK Flexibility Score: inf
ROOT
ATOM      1  C   UNL     1      -1.413  11.444  -4.409  1.00  0.00     0.000 C 
ENDROOT
BRANCH   1   2
ATOM      2  C   UNL     1      -0.223  12.309  -3.963  1.00  0.00     0.000 C 
BRANCH   2   3
ATOM      3  C   UNL     1       0.883  11.492  -3.275  1.00  0.00     0.000 C 
BRANCH   3   4
ATOM      4  C   UNL     1       0.392  10.722  -2.030  1.00  0.00     0.000 C 
BRANCH   4   5
ATOM      5  C   UNL     1       1.522   9.924  -1.360  1.00  0.00     0.006 C 
BRANCH   5   6
ATOM      6  C   UNL     1       1.041   9.278  -0.058  1.00  0.00     0.053 C 
BRANCH   6   7
ATOM      7  C   UNL     1       1.779   8.002   0.198  1.00  0.00     0.041 C 
ATOM      8  O   UNL     1       1.512   7.309   1.214  1.00  0.00    -0.550 OA
ATOM      9  O   UNL     1       2.725   7.552  -0.714  1.00  0.00    -0.550 OA
ENDBRANCH   6   7
ENDBRANCH   5   6
ENDBRANCH   4   5
ENDBRANCH   3   4
ENDBRANCH   2   3
ENDBRANCH   1   2
BRANCH   1  10
ATOM     10  C   UNL     1      -2.728  12.250  -4.476  1.00  0.00     0.000 C 
BRANCH  10  11
ATOM     11  C   UNL     1      -2.909  13.039  -5.789  1.00  0.00    -0.000 C 
BRANCH  11  12
ATOM     12  C   UNL     1      -3.216  14.535  -5.613  1.00  0.00    -0.000 C 
BRANCH  12  13
ATOM     13  C   UNL     1      -2.006  15.433  -5.924  1.00  0.00    -0.000 C 
BRANCH  13  14
ATOM     14  C   UNL     1      -1.691  16.412  -4.782  1.00  0.00    -0.000 C 
BRANCH  14  15
ATOM     15  C   UNL     1      -1.713  15.738  -3.399  1.00  0.00    -0.000 C 
BRANCH  15  16
ATOM     16  C   UNL     1      -0.382  15.896  -2.647  1.00  0.00    -0.003 C 
ATOM     17  C   UNL     1      -0.569  16.004  -1.134  1.00  0.00     0.004 C 
ENDBRANCH  15  16
ENDBRANCH  14  15
ENDBRANCH  13  14
ENDBRANCH  12  13
ENDBRANCH  11  12
ENDBRANCH  10  11
ENDBRANCH   1  10
TORSDOF 13
ENDMDL
MODEL 3
REMARK VINA RESULT:    -3.909      3.368      6.946
REMARK INTER + INTRA:          -7.800
REMARK INTER:                  -6.653
REMARK INTRA:                  -1.147
REMARK UNBOUND:                -0.921
REMARK SMILES CCCCCCCCCCCCCCC(=O)[O-]
REMARK SMILES IDX 9 1 10 2 11 3 12 4 13 5 14 6 15 7 16 8 17 9 8 10 7 11 6 12
REMARK SMILES IDX 5 13 4 14 3 15 2 16 1 17
REMARK H PARENT
REMARK Flexibility Score: inf
ROOT
ATOM      1  C   UNL     1      -3.003  13.585  -4.700  1.00  0.00     0.000 C 
ENDROOT
BRANCH   1   2
ATOM      2  C   UNL     1      -3.252  14.392  -5.985  1.00  0.00     0.000 C 
BRANCH   2   3
ATOM      3  C   UNL     1      -2.662  15.811  -5.922  1.00  0.00     0.000 C 
BRANCH   3   4
ATOM      4  C   UNL     1      -1.187  15.841  -5.464  1.00  0.00     0.000 C 
BRANCH   4   5
ATOM      5  C   UNL     1      -0.991  16.697  -4.202  1.00  0.00     0.006 C 
BRANCH   5   6
ATOM      6  C   UNL     1      -0.101  15.978  -3.184  1.00  0.00     0.053 C 
BRANCH   6   7
ATOM      7  C   UNL     1      -0.761  15.947  -1.842  1.00  0.00     0.041 C 
ATOM      8  O   UNL     1      -0.065  15.937  -0.794  1.00  0.00    -0.550 OA
ATOM      9  O   UNL     1      -2.147  15.980  -1.747  1.00  0.00    -0.550 OA
ENDBRANCH   6   7
ENDBRANCH   5   6
ENDBRANCH   4   5
ENDBRANCH   3   4
ENDBRANCH   2   3
ENDBRANCH   1   2
BRANCH   1  10
ATOM     10  C   UNL     1      -2.849  12.074  -4.979  1.00  0.00     0.000 C 
BRANCH  10  11
ATOM     11  C   UNL     1      -1.605  11.443  -4.322  1.00  0.00    -0.000 C 
BRANCH  11  12
ATOM     12  C   UNL     1      -0.462  12.424  -4.015  1.00  0.00    -0.000 C 
BRANCH  12  13
ATOM     13  C   UNL     1       0.865  11.713  -3.695  1.00  0.00    -0.000 C 
BRANCH  13  14
ATOM     14  C   UNL     1       0.851  11.039  -2.314  1.00  0.00    -0.000 C 
BRANCH  14  15
ATOM     15  C   UNL     1       1.938   9.960  -2.168  1.00  0.00    -0.000 C 
BRANCH  15  16
ATOM     16  C   UNL     1       1.966   9.339  -0.764  1.00  0.00    -0.003 C 
ATOM     17  C   UNL     1       0.584   9.284  -0.115  1.00  0.00     0.004 C 
ENDBRANCH  15  16
ENDBRANCH  14  15
ENDBRANCH  13  14
ENDBRANCH  12  13
ENDBRANCH  11  12
ENDBRANCH  10  11
ENDBRANCH   1  10
TORSDOF 13
ENDMDL
MODEL 4
REMARK VINA RESULT:    -3.858      3.794      7.783
REMARK INTER + INTRA:          -7.710
REMARK INTER:                  -6.751
REMARK INTRA:                  -0.959
REMARK UNBOUND:                -0.921
REMARK SMILES CCCCCCCCCCCCCCC(=O)[O-]
REMARK SMILES IDX 9 1 10 2 11 3 12 4 13 5 14 6 15 7 16 8 17 9 8 10 7 11 6 12
REMARK SMILES IDX 5 13 4 14 3 15 2 16 1 17
REMARK H PARENT
REMARK Flexibility Score: inf
ROOT
ATOM      1  C   UNL     1      -1.738  11.743  -4.645  1.00  0.00     0.000 C 
ENDROOT
BRANCH   1   2
ATOM      2  C   UNL     1      -2.921  12.561  -5.190  1.00  0.00     0.000 C 
BRANCH   2   3
ATOM      3  C   UNL     1      -2.920  14.016  -4.693  1.00  0.00     0.000 C 
BRANCH   3   4
ATOM      4  C   UNL     1      -2.942  15.054  -5.837  1.00  0.00     0.000 C 
BRANCH   4   5
ATOM      5  C   UNL     1      -2.148  16.321  -5.483  1.00  0.00     0.006 C 
BRANCH   5   6
ATOM      6  C   UNL     1      -0.641  16.058  -5.538  1.00  0.00     0.053 C 
BRANCH   6   7
ATOM      7  C   UNL     1       0.001  16.413  -4.234  1.00  0.00     0.041 C 
ATOM      8  O   UNL     1       1.122  16.986  -4.215  1.00  0.00    -0.550 OA
ATOM      9  O   UNL     1      -0.662  16.158  -3.040  1.00  0.00    -0.550 OA
ENDBRANCH   6   7
ENDBRANCH   5   6
ENDBRANCH   4   5
ENDBRANCH   3   4
ENDBRANCH   2   3
ENDBRANCH   1   2
BRANCH   1  10
ATOM     10  C   UNL     1      -0.623  12.642  -4.069  1.00  0.00     0.000 C 
BRANCH  10  11
ATOM     11  C   UNL     1       0.730  11.923  -3.896  1.00  0.00    -0.000 C 
BRANCH  11  12
ATOM     12  C   UNL     1       0.829  11.007  -2.665  1.00  0.00    -0.000 C 
BRANCH  12  13
ATOM     13  C   UNL     1       2.149  10.218  -2.612  1.00  0.00    -0.000 C 
BRANCH  13  14
ATOM     14  C   UNL     1       2.217   9.268  -1.406  1.00  0.00    -0.000 C 
BRANCH  14  15
ATOM     15  C   UNL     1       1.148   9.578  -0.344  1.00  0.00    -0.000 C 
BRANCH  15  16
ATOM     16  C   UNL     1       0.823   8.361   0.535  1.00  0.00    -0.003 C 
ATOM     17  C   UNL     1       2.046   7.485   0.806  1.00  0.00     0.004 C 
ENDBRANCH  15  16
ENDBRANCH  14  15
ENDBRANCH  13  14
ENDBRANCH  12  13
ENDBRANCH  11  12
ENDBRANCH  10  11
ENDBRANCH   1  10
TORSDOF 13
ENDMDL
MODEL 5
REMARK VINA RESULT:    -3.770      1.463      2.894
REMARK INTER + INTRA:          -7.556
REMARK INTER:                  -6.430
REMARK INTRA:                  -1.126
REMARK UNBOUND:                -0.921
REMARK SMILES CCCCCCCCCCCCCCC(=O)[O-]
REMARK SMILES IDX 9 1 10 2 11 3 12 4 13 5 14 6 15 7 16 8 17 9 8 10 7 11 6 12
REMARK SMILES IDX 5 13 4 14 3 15 2 16 1 17
REMARK H PARENT
REMARK Flexibility Score: inf
ROOT
ATOM      1  C   UNL     1       0.163  12.137  -3.601  1.00  0.00     0.000 C 
ENDROOT
BRANCH   1   2
ATOM      2  C   UNL     1       1.044  11.172  -2.789  1.00  0.00     0.000 C 
BRANCH   2   3
ATOM      3  C   UNL     1       2.268  10.677  -3.576  1.00  0.00     0.000 C 
BRANCH   3   4
ATOM      4  C   UNL     1       3.000   9.500  -2.895  1.00  0.00     0.000 C 
BRANCH   4   5
ATOM      5  C   UNL     1       2.819   9.514  -1.368  1.00  0.00     0.006 C 
BRANCH   5   6
ATOM      6  C   UNL     1       2.513   8.110  -0.839  1.00  0.00     0.053 C 
BRANCH   6   7
ATOM      7  C   UNL     1       1.513   8.175   0.271  1.00  0.00     0.041 C 
ATOM      8  O   UNL     1       0.607   9.050   0.257  1.00  0.00    -0.550 OA
ATOM      9  O   UNL     1       1.548   7.238   1.295  1.00  0.00    -0.550 OA
ENDBRANCH   6   7
ENDBRANCH   5   6
ENDBRANCH   4   5
ENDBRANCH   3   4
ENDBRANCH   2   3
ENDBRANCH   1   2
BRANCH   1  10
ATOM     10  C   UNL     1       0.999  13.165  -4.392  1.00  0.00     0.000 C 
BRANCH  10  11
ATOM     11  C   UNL     1       0.205  14.415  -4.822  1.00  0.00    -0.000 C 
BRANCH  11  12
ATOM     12  C   UNL     1      -0.201  15.356  -3.676  1.00  0.00    -0.000 C 
BRANCH  12  13
ATOM     13  C   UNL     1      -1.695  15.721  -3.705  1.00  0.00    -0.000 C 
BRANCH  13  14
ATOM     14  C   UNL     1      -2.422  15.124  -4.920  1.00  0.00    -0.000 C 
BRANCH  14  15
ATOM     15  C   UNL     1      -3.331  13.940  -4.546  1.00  0.00    -0.000 C 
BRANCH  15  16
ATOM     16  C   UNL     1      -3.038  12.686  -5.384  1.00  0.00    -0.003 C 
ATOM     17  C   UNL     1      -3.035  11.406  -4.549  1.00  0.00     0.004 C 
ENDBRANCH  15  16
ENDBRANCH  14  15
ENDBRANCH  13  14
ENDBRANCH  12  13
ENDBRANCH  11  12
ENDBRANCH  10  11
ENDBRANCH   1  10
TORSDOF 13
ENDMDL
MODEL 6
REMARK VINA RESULT:    -3.641      1.142      1.613
REMARK INTER + INTRA:          -7.329
REMARK INTER:                  -6.360
REMARK INTRA:                  -0.970
REMARK UNBOUND:                -0.921
REMARK SMILES CCCCCCCCCCCCCCC(=O)[O-]
REMARK SMILES IDX 9 1 10 2 11 3 12 4 13 5 14 6 15 7 16 8 17 9 8 10 7 11 6 12
REMARK SMILES IDX 5 13 4 14 3 15 2 16 1 17
REMARK H PARENT
REMARK Flexibility Score: inf
ROOT
ATOM      1  C   UNL     1       0.376  11.624  -2.852  1.00  0.00     0.000 C 
ENDROOT
BRANCH   1   2
ATOM      2  C   UNL     1       1.662  10.835  -3.152  1.00  0.00     0.000 C 
BRANCH   2   3
ATOM      3  C   UNL     1       2.062   9.889  -2.008  1.00  0.00     0.000 C 
BRANCH   3   4
ATOM      4  C   UNL     1       3.301   9.026  -2.332  1.00  0.00     0.000 C 
BRANCH   4   5
ATOM      5  C   UNL     1       3.721   8.148  -1.143  1.00  0.00     0.006 C 
BRANCH   5   6
ATOM      6  C   UNL     1       3.144   8.688   0.169  1.00  0.00     0.053 C 
BRANCH   6   7
ATOM      7  C   UNL     1       2.363   7.624   0.874  1.00  0.00     0.041 C 
ATOM      8  O   UNL     1       1.134   7.482   0.642  1.00  0.00    -0.550 OA
ATOM      9  O   UNL     1       3.003   6.757   1.751  1.00  0.00    -0.550 OA
ENDBRANCH   6   7
ENDBRANCH   5   6
ENDBRANCH   4   5
ENDBRANCH   3   4
ENDBRANCH   2   3
ENDBRANCH   1   2
BRANCH   1  10
ATOM     10  C   UNL     1      -0.306  12.140  -4.137  1.00  0.00     0.000 C 
BRANCH  10  11
ATOM     11  C   UNL     1      -1.797  11.760  -4.246  1.00  0.00    -0.000 C 
BRANCH  11  12
ATOM     12  C   UNL     1      -2.596  12.548  -5.297  1.00  0.00    -0.000 C 
BRANCH  12  13
ATOM     13  C   UNL     1      -3.178  13.860  -4.743  1.00  0.00    -0.000 C 
BRANCH  13  14
ATOM     14  C   UNL     1      -2.775  15.082  -5.584  1.00  0.00    -0.000 C 
BRANCH  14  15
ATOM     15  C   UNL     1      -1.801  16.017  -4.846  1.00  0.00    -0.000 C 
BRANCH  15  16
ATOM     16  C   UNL     1      -1.783  15.769  -3.330  1.00  0.00    -0.003 C 
ATOM     17  C   UNL     1      -0.380  15.876  -2.732  1.00  0.00     0.004 C 
ENDBRANCH  15  16
ENDBRANCH  14  15
ENDBRANCH  13  14
ENDBRANCH  12  13
ENDBRANCH  11  12
ENDBRANCH  10  11
ENDBRANCH   1  10
TORSDOF 13
ENDMDL
MODEL 7
REMARK VINA RESULT:    -3.543      1.596      2.366
REMARK INTER + INTRA:          -7.156
REMARK INTER:                  -6.272
REMARK INTRA:                  -0.883
REMARK UNBOUND:                -0.921
REMARK SMILES CCCCCCCCCCCCCCC(=O)[O-]
REMARK SMILES IDX 9 1 10 2 11 3 12 4 13 5 14 6 15 7 16 8 17 9 8 10 7 11 6 12
REMARK SMILES IDX 5 13 4 14 3 15 2 16 1 17
REMARK H PARENT
REMARK Flexibility Score: inf
ROOT
ATOM      1  C   UNL     1       1.496  10.976  -2.533  1.00  0.00     0.000 C 
ENDROOT
BRANCH   1   2
ATOM      2  C   UNL     1       2.466   9.947  -3.138  1.00  0.00     0.000 C 
BRANCH   2   3
ATOM      3  C   UNL     1       3.651   9.629  -2.212  1.00  0.00     0.000 C 
BRANCH   3   4
ATOM      4  C   UNL     1       3.917   8.116  -2.056  1.00  0.00     0.000 C 
BRANCH   4   5
ATOM      5  C   UNL     1       3.878   7.670  -0.585  1.00  0.00     0.006 C 
BRANCH   5   6
ATOM      6  C   UNL     1       3.111   8.680   0.274  1.00  0.00     0.053 C 
BRANCH   6   7
ATOM      7  C   UNL     1       1.735   8.174   0.573  1.00  0.00     0.041 C 
ATOM      8  O   UNL     1       1.579   7.081   1.178  1.00  0.00    -0.550 OA
ATOM      9  O   UNL     1       0.625   8.935   0.230  1.00  0.00    -0.550 OA
ENDBRANCH   6   7
ENDBRANCH   5   6
ENDBRANCH   4   5
ENDBRANCH   3   4
ENDBRANCH   2   3
ENDBRANCH   1   2
BRANCH   1  10
ATOM     10  C   UNL     1       0.366  11.360  -3.513  1.00  0.00     0.000 C 
BRANCH  10  11
ATOM     11  C   UNL     1       0.363  12.850  -3.907  1.00  0.00    -0.000 C 
BRANCH  11  12
ATOM     12  C   UNL     1      -0.960  13.367  -4.495  1.00  0.00    -0.000 C 
BRANCH  12  13
ATOM     13  C   UNL     1      -0.828  14.765  -5.125  1.00  0.00    -0.000 C 
BRANCH  13  14
ATOM     14  C   UNL     1      -1.413  15.869  -4.231  1.00  0.00    -0.000 C 
BRANCH  14  15
ATOM     15  C   UNL     1      -0.415  16.369  -3.172  1.00  0.00    -0.000 C 
BRANCH  15  16
ATOM     16  C   UNL     1      -0.910  16.132  -1.738  1.00  0.00    -0.003 C 
ATOM     17  C   UNL     1       0.201  15.661  -0.800  1.00  0.00     0.004 C 
ENDBRANCH  15  16
ENDBRANCH  14  15
ENDBRANCH  13  14
ENDBRANCH  12  13
ENDBRANCH  11  12
ENDBRANCH  10  11
ENDBRANCH   1  10
TORSDOF 13
ENDMDL
MODEL 8
REMARK VINA RESULT:    -3.468      3.347      7.869
REMARK INTER + INTRA:          -7.025
REMARK INTER:                  -6.138
REMARK INTRA:                  -0.887
REMARK UNBOUND:                -0.921
REMARK SMILES CCCCCCCCCCCCCCC(=O)[O-]
REMARK SMILES IDX 9 1 10 2 11 3 12 4 13 5 14 6 15 7 16 8 17 9 8 10 7 11 6 12
REMARK SMILES IDX 5 13 4 14 3 15 2 16 1 17
REMARK H PARENT
REMARK Flexibility Score: inf
ROOT
ATOM      1  C   UNL     1       1.429  11.744  -3.861  1.00  0.00     0.000 C 
ENDROOT
BRANCH   1   2
ATOM      2  C   UNL     1       0.042  12.402  -3.773  1.00  0.00     0.000 C 
BRANCH   2   3
ATOM      3  C   UNL     1      -0.015  13.770  -4.474  1.00  0.00     0.000 C 
BRANCH   3   4
ATOM      4  C   UNL     1      -1.409  14.431  -4.416  1.00  0.00     0.000 C 
BRANCH   4   5
ATOM      5  C   UNL     1      -1.320  15.956  -4.250  1.00  0.00     0.006 C 
BRANCH   5   6
ATOM      6  C   UNL     1      -0.262  16.335  -3.210  1.00  0.00     0.053 C 
BRANCH   6   7
ATOM      7  C   UNL     1      -0.717  15.950  -1.837  1.00  0.00     0.041 C 
ATOM      8  O   UNL     1       0.122  15.585  -0.972  1.00  0.00    -0.550 OA
ATOM      9  O   UNL     1      -2.060  16.044  -1.498  1.00  0.00    -0.550 OA
ENDBRANCH   6   7
ENDBRANCH   5   6
ENDBRANCH   4   5
ENDBRANCH   3   4
ENDBRANCH   2   3
ENDBRANCH   1   2
BRANCH   1  10
ATOM     10  C   UNL     1       1.622  10.645  -2.794  1.00  0.00     0.000 C 
BRANCH  10  11
ATOM     11  C   UNL     1       2.790   9.684  -3.095  1.00  0.00    -0.000 C 
BRANCH  11  12
ATOM     12  C   UNL     1       3.927   9.695  -2.060  1.00  0.00    -0.000 C 
BRANCH  12  13
ATOM     13  C   UNL     1       3.979   8.409  -1.216  1.00  0.00    -0.000 C 
BRANCH  13  14
ATOM     14  C   UNL     1       3.629   8.660   0.259  1.00  0.00    -0.000 C 
BRANCH  14  15
ATOM     15  C   UNL     1       2.526   7.721   0.776  1.00  0.00    -0.000 C 
BRANCH  15  16
ATOM     16  C   UNL     1       1.224   7.841  -0.031  1.00  0.00    -0.003 C 
ATOM     17  C   UNL     1       0.486   9.154   0.230  1.00  0.00     0.004 C 
ENDBRANCH  15  16
ENDBRANCH  14  15
ENDBRANCH  13  14
ENDBRANCH  12  13
ENDBRANCH  11  12
ENDBRANCH  10  11
ENDBRANCH   1  10
TORSDOF 13
ENDMDL
MODEL 9
REMARK VINA RESULT:    -3.389      4.314      8.206
REMARK INTER + INTRA:          -6.887
REMARK INTER:                  -5.919
REMARK INTRA:                  -0.968
REMARK UNBOUND:                -0.921
REMARK SMILES CCCCCCCCCCCCCCC(=O)[O-]
REMARK SMILES IDX 9 1 10 2 11 3 12 4 13 5 14 6 15 7 16 8 17 9 8 10 7 11 6 12
REMARK SMILES IDX 5 13 4 14 3 15 2 16 1 17
REMARK H PARENT
REMARK Flexibility Score: inf
ROOT
ATOM      1  C   UNL     1      -2.172  14.978  -4.136  1.00  0.00     0.000 C 
ENDROOT
BRANCH   1   2
ATOM      2  C   UNL     1      -2.333  15.094  -5.662  1.00  0.00     0.000 C 
BRANCH   2   3
ATOM      3  C   UNL     1      -3.011  16.405  -6.091  1.00  0.00     0.000 C 
BRANCH   3   4
ATOM      4  C   UNL     1      -2.306  17.667  -5.547  1.00  0.00     0.000 C 
BRANCH   4   5
ATOM      5  C   UNL     1      -0.849  17.767  -6.026  1.00  0.00     0.006 C 
BRANCH   5   6
ATOM      6  C   UNL     1       0.055  18.320  -4.921  1.00  0.00     0.053 C 
BRANCH   6   7
ATOM      7  C   UNL     1       1.469  17.876  -5.130  1.00  0.00     0.041 C 
ATOM      8  O   UNL     1       2.418  18.517  -4.606  1.00  0.00    -0.550 OA
ATOM      9  O   UNL     1       1.735  16.725  -5.860  1.00  0.00    -0.550 OA
ENDBRANCH   6   7
ENDBRANCH   5   6
ENDBRANCH   4   5
ENDBRANCH   3   4
ENDBRANCH   2   3
ENDBRANCH   1   2
BRANCH   1  10
ATOM     10  C   UNL     1      -0.692  14.887  -3.710  1.00  0.00     0.000 C 
BRANCH  10  11
ATOM     11  C   UNL     1       0.083  13.741  -4.392  1.00  0.00    -0.000 C 
BRANCH  11  12
ATOM     12  C   UNL     1      -0.224  12.334  -3.854  1.00  0.00    -0.000 C 
BRANCH  12  13
ATOM     13  C   UNL     1       1.045  11.550  -3.474  1.00  0.00    -0.000 C 
BRANCH  13  14
ATOM     14  C   UNL     1       0.872  10.748  -2.175  1.00  0.00    -0.000 C 
BRANCH  14  15
ATOM     15  C   UNL     1       2.033   9.771  -1.921  1.00  0.00    -0.000 C 
BRANCH  15  16
ATOM     16  C   UNL     1       1.874   8.998  -0.603  1.00  0.00    -0.003 C 
ATOM     17  C   UNL     1       0.529   9.257   0.074  1.00  0.00     0.004 C 
ENDBRANCH  15  16
ENDBRANCH  14  15
ENDBRANCH  13  14
ENDBRANCH  12  13
ENDBRANCH  11  12
ENDBRANCH  10  11
ENDBRANCH   1  10
TORSDOF 13
ENDMDL
