MODEL 1
REMARK VINA RESULT:    -4.752      0.000      0.000
REMARK INTER + INTRA:          -7.546
REMARK INTER:                  -6.696
REMARK INTRA:                  -0.850
REMARK UNBOUND:                -0.850
REMARK SMILES CC(=O)OCC[C@@H](C)CCC=C(C)C
REMARK SMILES IDX 8 1 7 2 9 3 10 4 11 5 12 6 13 7 14 8 6 9 5 10 4 11 2 12 3 13
REMARK SMILES IDX 1 14
REMARK H PARENT
REMARK Flexibility Score: inf
ROOT
ATOM      1  C   UNL     1     137.123   1.737  94.645  1.00  0.00     0.008 C 
ATOM      2  C   UNL     1     136.005   2.652  95.168  1.00  0.00    -0.011 C 
ENDROOT
BRANCH   2   3
ATOM      3  C   UNL     1     135.075   1.862  96.125  1.00  0.00     0.007 C 
BRANCH   3   4
ATOM      4  C   UNL     1     134.040   0.967  95.417  1.00  0.00     0.027 C 
BRANCH   4   5
ATOM      5  C   UNL     1     133.395   1.657  94.240  1.00  0.00    -0.028 C 
ATOM      6  C   UNL     1     132.759   1.021  93.231  1.00  0.00    -0.080 C 
ATOM      7  C   UNL     1     132.195   1.848  92.104  1.00  0.00     0.039 C 
ATOM      8  C   UNL     1     132.579  -0.479  93.214  1.00  0.00     0.039 C 
ENDBRANCH   4   5
ENDBRANCH   3   4
ENDBRANCH   2   3
BRANCH   2   9
ATOM      9  C   UNL     1     136.580   3.960  95.773  1.00  0.00     0.045 C 
BRANCH   9  10
ATOM     10  C   UNL     1     135.811   5.234  95.392  1.00  0.00     0.233 C 
BRANCH  10  11
ATOM     11  O   UNL     1     134.503   5.210  95.962  1.00  0.00    -0.466 OA
BRANCH  11  12
ATOM     12  C   UNL     1     133.352   5.592  95.263  1.00  0.00     0.302 C 
ATOM     13  O   UNL     1     132.420   6.214  95.843  1.00  0.00    -0.253 OA
ATOM     14  C   UNL     1     133.253   5.311  93.803  1.00  0.00     0.139 C 
ENDBRANCH  11  12
ENDBRANCH  10  11
ENDBRANCH   9  10
ENDBRANCH   2   9
TORSDOF 7
ENDMDL
MODEL 2
REMARK VINA RESULT:    -4.683      2.140      4.422
REMARK INTER + INTRA:          -7.449
REMARK INTER:                  -6.758
REMARK INTRA:                  -0.691
REMARK UNBOUND:                -0.850
REMARK SMILES CC(=O)OCC[C@@H](C)CCC=C(C)C
REMARK SMILES IDX 8 1 7 2 9 3 10 4 11 5 12 6 13 7 14 8 6 9 5 10 4 11 2 12 3 13
REMARK SMILES IDX 1 14
REMARK H PARENT
REMARK Flexibility Score: inf
ROOT
ATOM      1  C   UNL     1     136.716   0.818  94.415  1.00  0.00     0.008 C 
ATOM      2  C   UNL     1     135.543   0.838  95.406  1.00  0.00    -0.011 C 
ENDROOT
BRANCH   2   3
ATOM      3  C   UNL     1     135.373   2.261  96.000  1.00  0.00     0.007 C 
BRANCH   3   4
ATOM      4  C   UNL     1     136.347   3.310  95.437  1.00  0.00     0.027 C 
BRANCH   4   5
ATOM      5  C   UNL     1     135.841   4.721  95.619  1.00  0.00    -0.028 C 
ATOM      6  C   UNL     1     135.063   5.379  94.731  1.00  0.00    -0.080 C 
ATOM      7  C   UNL     1     134.667   6.800  95.038  1.00  0.00     0.039 C 
ATOM      8  C   UNL     1     134.565   4.726  93.462  1.00  0.00     0.039 C 
ENDBRANCH   4   5
ENDBRANCH   3   4
ENDBRANCH   2   3
BRANCH   2   9
ATOM      9  C   UNL     1     134.254   0.253  94.771  1.00  0.00     0.045 C 
BRANCH   9  10
ATOM     10  C   UNL     1     133.252   1.305  94.270  1.00  0.00     0.233 C 
BRANCH  10  11
ATOM     11  O   UNL     1     133.351   1.446  92.854  1.00  0.00    -0.466 OA
BRANCH  11  12
ATOM     12  C   UNL     1     132.306   1.919  92.053  1.00  0.00     0.302 C 
ATOM     13  O   UNL     1     131.599   2.896  92.422  1.00  0.00    -0.253 OA
ATOM     14  C   UNL     1     132.063   1.296  90.721  1.00  0.00     0.139 C 
ENDBRANCH  11  12
ENDBRANCH  10  11
ENDBRANCH   9  10
ENDBRANCH   2   9
TORSDOF 7
ENDMDL
MODEL 3
REMARK VINA RESULT:    -4.643      1.850      3.773
REMARK INTER + INTRA:          -7.392
REMARK INTER:                  -6.467
REMARK INTRA:                  -0.925
REMARK UNBOUND:                -0.850
REMARK SMILES CC(=O)OCC[C@@H](C)CCC=C(C)C
REMARK SMILES IDX 8 1 7 2 9 3 10 4 11 5 12 6 13 7 14 8 6 9 5 10 4 11 2 12 3 13
REMARK SMILES IDX 1 14
REMARK H PARENT
REMARK Flexibility Score: inf
ROOT
ATOM      1  C   UNL     1     134.500   5.117  93.413  1.00  0.00     0.008 C 
ATOM      2  C   UNL     1     134.306   5.111  94.937  1.00  0.00    -0.011 C 
ENDROOT
BRANCH   2   3
ATOM      3  C   UNL     1     135.682   5.175  95.649  1.00  0.00     0.007 C 
BRANCH   3   4
ATOM      4  C   UNL     1     136.435   3.834  95.709  1.00  0.00     0.027 C 
BRANCH   4   5
ATOM      5  C   UNL     1     135.520   2.674  96.021  1.00  0.00    -0.028 C 
ATOM      6  C   UNL     1     135.593   1.458  95.436  1.00  0.00    -0.080 C 
ATOM      7  C   UNL     1     134.583   0.411  95.828  1.00  0.00     0.039 C 
ATOM      8  C   UNL     1     136.666   1.116  94.428  1.00  0.00     0.039 C 
ENDBRANCH   4   5
ENDBRANCH   3   4
ENDBRANCH   2   3
BRANCH   2   9
ATOM      9  C   UNL     1     133.303   6.206  95.385  1.00  0.00     0.045 C 
BRANCH   9  10
ATOM     10  C   UNL     1     131.992   6.243  94.584  1.00  0.00     0.233 C 
BRANCH  10  11
ATOM     11  O   UNL     1     131.184   5.112  94.908  1.00  0.00    -0.466 OA
BRANCH  11  12
ATOM     12  C   UNL     1     130.821   4.134  93.976  1.00  0.00     0.302 C 
ATOM     13  O   UNL     1     129.923   4.359  93.120  1.00  0.00    -0.253 OA
ATOM     14  C   UNL     1     131.543   2.831  93.960  1.00  0.00     0.139 C 
ENDBRANCH  11  12
ENDBRANCH  10  11
ENDBRANCH   9  10
ENDBRANCH   2   9
TORSDOF 7
ENDMDL
MODEL 4
REMARK VINA RESULT:    -4.642      2.033      4.243
REMARK INTER + INTRA:          -7.391
REMARK INTER:                  -6.537
REMARK INTRA:                  -0.854
REMARK UNBOUND:                -0.850
REMARK SMILES CC(=O)OCC[C@@H](C)CCC=C(C)C
REMARK SMILES IDX 8 1 7 2 9 3 10 4 11 5 12 6 13 7 14 8 6 9 5 10 4 11 2 12 3 13
REMARK SMILES IDX 1 14
REMARK H PARENT
REMARK Flexibility Score: inf
ROOT
ATOM      1  C   UNL     1     134.575  -0.374  96.052  1.00  0.00     0.008 C 
ATOM      2  C   UNL     1     134.317   1.027  95.478  1.00  0.00    -0.011 C 
ENDROOT
BRANCH   2   3
ATOM      3  C   UNL     1     135.284   2.053  96.125  1.00  0.00     0.007 C 
BRANCH   3   4
ATOM      4  C   UNL     1     136.226   2.760  95.133  1.00  0.00     0.027 C 
BRANCH   4   5
ATOM      5  C   UNL     1     136.291   4.250  95.365  1.00  0.00    -0.028 C 
ATOM      6  C   UNL     1     135.575   5.167  94.678  1.00  0.00    -0.080 C 
ATOM      7  C   UNL     1     135.777   6.625  95.001  1.00  0.00     0.039 C 
ATOM      8  C   UNL     1     134.570   4.772  93.621  1.00  0.00     0.039 C 
ENDBRANCH   4   5
ENDBRANCH   3   4
ENDBRANCH   2   3
BRANCH   2   9
ATOM      9  C   UNL     1     134.341   1.018  93.927  1.00  0.00     0.045 C 
BRANCH   9  10
ATOM     10  C   UNL     1     133.008   1.395  93.262  1.00  0.00     0.233 C 
BRANCH  10  11
ATOM     11  O   UNL     1     132.114   1.948  94.227  1.00  0.00    -0.466 OA
BRANCH  11  12
ATOM     12  C   UNL     1     131.037   2.775  93.892  1.00  0.00     0.302 C 
ATOM     13  O   UNL     1     130.000   2.809  94.610  1.00  0.00    -0.253 OA
ATOM     14  C   UNL     1     131.139   3.668  92.704  1.00  0.00     0.139 C 
ENDBRANCH  11  12
ENDBRANCH  10  11
ENDBRANCH   9  10
ENDBRANCH   2   9
TORSDOF 7
ENDMDL
MODEL 5
REMARK VINA RESULT:    -4.610      2.281      4.225
REMARK INTER + INTRA:          -7.347
REMARK INTER:                  -6.671
REMARK INTRA:                  -0.676
REMARK UNBOUND:                -0.850
REMARK SMILES CC(=O)OCC[C@@H](C)CCC=C(C)C
REMARK SMILES IDX 8 1 7 2 9 3 10 4 11 5 12 6 13 7 14 8 6 9 5 10 4 11 2 12 3 13
REMARK SMILES IDX 1 14
REMARK H PARENT
REMARK Flexibility Score: inf
ROOT
ATOM      1  C   UNL     1     134.030   4.827  93.459  1.00  0.00     0.008 C 
ATOM      2  C   UNL     1     134.334   5.486  94.813  1.00  0.00    -0.011 C 
ENDROOT
BRANCH   2   3
ATOM      3  C   UNL     1     135.863   5.493  95.071  1.00  0.00     0.007 C 
BRANCH   3   4
ATOM      4  C   UNL     1     136.356   4.392  96.027  1.00  0.00     0.027 C 
BRANCH   4   5
ATOM      5  C   UNL     1     136.826   3.161  95.291  1.00  0.00    -0.028 C 
ATOM      6  C   UNL     1     136.125   2.009  95.193  1.00  0.00    -0.080 C 
ATOM      7  C   UNL     1     136.745   0.852  94.454  1.00  0.00     0.039 C 
ATOM      8  C   UNL     1     134.741   1.860  95.780  1.00  0.00     0.039 C 
ENDBRANCH   4   5
ENDBRANCH   3   4
ENDBRANCH   2   3
BRANCH   2   9
ATOM      9  C   UNL     1     133.660   6.878  94.930  1.00  0.00     0.045 C 
BRANCH   9  10
ATOM     10  C   UNL     1     132.183   6.843  95.350  1.00  0.00     0.233 C 
BRANCH  10  11
ATOM     11  O   UNL     1     131.343   7.077  94.221  1.00  0.00    -0.466 OA
BRANCH  11  12
ATOM     12  C   UNL     1     130.383   8.095  94.173  1.00  0.00     0.302 C 
ATOM     13  O   UNL     1     129.848   8.428  93.080  1.00  0.00    -0.253 OA
ATOM     14  C   UNL     1     129.949   8.754  95.436  1.00  0.00     0.139 C 
ENDBRANCH  11  12
ENDBRANCH  10  11
ENDBRANCH   9  10
ENDBRANCH   2   9
TORSDOF 7
ENDMDL
MODEL 6
REMARK VINA RESULT:    -4.607      2.571      5.089
REMARK INTER + INTRA:          -7.342
REMARK INTER:                  -6.542
REMARK INTRA:                  -0.800
REMARK UNBOUND:                -0.850
REMARK SMILES CC(=O)OCC[C@@H](C)CCC=C(C)C
REMARK SMILES IDX 8 1 7 2 9 3 10 4 11 5 12 6 13 7 14 8 6 9 5 10 4 11 2 12 3 13
REMARK SMILES IDX 1 14
REMARK H PARENT
REMARK Flexibility Score: inf
ROOT
ATOM      1  C   UNL     1     137.105   2.794  95.369  1.00  0.00     0.008 C 
ATOM      2  C   UNL     1     135.781   3.573  95.339  1.00  0.00    -0.011 C 
ENDROOT
BRANCH   2   3
ATOM      3  C   UNL     1     136.060   5.097  95.407  1.00  0.00     0.007 C 
BRANCH   3   4
ATOM      4  C   UNL     1     135.321   5.931  94.344  1.00  0.00     0.027 C 
BRANCH   4   5
ATOM      5  C   UNL     1     134.233   6.790  94.943  1.00  0.00    -0.028 C 
ATOM      6  C   UNL     1     132.936   6.763  94.563  1.00  0.00    -0.080 C 
ATOM      7  C   UNL     1     131.973   7.710  95.231  1.00  0.00     0.039 C 
ATOM      8  C   UNL     1     132.427   5.803  93.512  1.00  0.00     0.039 C 
ENDBRANCH   4   5
ENDBRANCH   3   4
ENDBRANCH   2   3
BRANCH   2   9
ATOM      9  C   UNL     1     134.894   3.139  94.144  1.00  0.00     0.045 C 
BRANCH   9  10
ATOM     10  C   UNL     1     133.693   2.257  94.523  1.00  0.00     0.233 C 
BRANCH  10  11
ATOM     11  O   UNL     1     133.780   0.995  93.863  1.00  0.00    -0.466 OA
BRANCH  11  12
ATOM     12  C   UNL     1     133.902  -0.221  94.543  1.00  0.00     0.302 C 
ATOM     13  O   UNL     1     133.242  -1.234  94.182  1.00  0.00    -0.253 OA
ATOM     14  C   UNL     1     134.867  -0.337  95.673  1.00  0.00     0.139 C 
ENDBRANCH  11  12
ENDBRANCH  10  11
ENDBRANCH   9  10
ENDBRANCH   2   9
TORSDOF 7
ENDMDL
MODEL 7
REMARK VINA RESULT:    -4.476      1.682      2.019
REMARK INTER + INTRA:          -7.157
REMARK INTER:                  -6.421
REMARK INTRA:                  -0.737
REMARK UNBOUND:                -0.850
REMARK SMILES CC(=O)OCC[C@@H](C)CCC=C(C)C
REMARK SMILES IDX 8 1 7 2 9 3 10 4 11 5 12 6 13 7 14 8 6 9 5 10 4 11 2 12 3 13
REMARK SMILES IDX 1 14
REMARK H PARENT
REMARK Flexibility Score: inf
ROOT
ATOM      1  C   UNL     1     137.292   2.149  95.017  1.00  0.00     0.008 C 
ATOM      2  C   UNL     1     135.828   1.820  94.690  1.00  0.00    -0.011 C 
ENDROOT
BRANCH   2   3
ATOM      3  C   UNL     1     135.469   0.407  95.219  1.00  0.00     0.007 C 
BRANCH   3   4
ATOM      4  C   UNL     1     133.962   0.094  95.237  1.00  0.00     0.027 C 
BRANCH   4   5
ATOM      5  C   UNL     1     133.462  -0.403  93.902  1.00  0.00    -0.028 C 
ATOM      6  C   UNL     1     132.495   0.195  93.172  1.00  0.00    -0.080 C 
ATOM      7  C   UNL     1     132.078  -0.444  91.873  1.00  0.00     0.039 C 
ATOM      8  C   UNL     1     131.844   1.487  93.607  1.00  0.00     0.039 C 
ENDBRANCH   4   5
ENDBRANCH   3   4
ENDBRANCH   2   3
BRANCH   2   9
ATOM      9  C   UNL     1     134.873   2.944  95.172  1.00  0.00     0.045 C 
BRANCH   9  10
ATOM     10  C   UNL     1     134.505   3.977  94.096  1.00  0.00     0.233 C 
BRANCH  10  11
ATOM     11  O   UNL     1     135.440   5.054  94.105  1.00  0.00    -0.466 OA
BRANCH  11  12
ATOM     12  C   UNL     1     135.213   6.266  94.768  1.00  0.00     0.302 C 
ATOM     13  O   UNL     1     136.171   7.025  95.075  1.00  0.00    -0.253 OA
ATOM     14  C   UNL     1     133.815   6.689  95.063  1.00  0.00     0.139 C 
ENDBRANCH  11  12
ENDBRANCH  10  11
ENDBRANCH   9  10
ENDBRANCH   2   9
TORSDOF 7
ENDMDL
MODEL 8
REMARK VINA RESULT:    -4.473      2.774      5.873
REMARK INTER + INTRA:          -7.154
REMARK INTER:                  -6.441
REMARK INTRA:                  -0.713
REMARK UNBOUND:                -0.850
REMARK SMILES CC(=O)OCC[C@@H](C)CCC=C(C)C
REMARK SMILES IDX 8 1 7 2 9 3 10 4 11 5 12 6 13 7 14 8 6 9 5 10 4 11 2 12 3 13
REMARK SMILES IDX 1 14
REMARK H PARENT
REMARK Flexibility Score: inf
ROOT
ATOM      1  C   UNL     1     132.715   4.871  93.707  1.00  0.00     0.008 C 
ATOM      2  C   UNL     1     133.676   6.031  94.010  1.00  0.00    -0.011 C 
ENDROOT
BRANCH   2   3
ATOM      3  C   UNL     1     133.225   6.774  95.294  1.00  0.00     0.007 C 
BRANCH   3   4
ATOM      4  C   UNL     1     131.702   6.953  95.429  1.00  0.00     0.027 C 
BRANCH   4   5
ATOM      5  C   UNL     1     131.288   8.404  95.400  1.00  0.00    -0.028 C 
ATOM      6  C   UNL     1     130.871   9.062  94.296  1.00  0.00    -0.080 C 
ATOM      7  C   UNL     1     130.527  10.524  94.419  1.00  0.00     0.039 C 
ATOM      8  C   UNL     1     130.719   8.373  92.960  1.00  0.00     0.039 C 
ENDBRANCH   4   5
ENDBRANCH   3   4
ENDBRANCH   2   3
BRANCH   2   9
ATOM      9  C   UNL     1     135.151   5.554  94.033  1.00  0.00     0.045 C 
BRANCH   9  10
ATOM     10  C   UNL     1     135.655   5.091  95.409  1.00  0.00     0.233 C 
BRANCH  10  11
ATOM     11  O   UNL     1     135.297   3.728  95.632  1.00  0.00    -0.466 OA
BRANCH  11  12
ATOM     12  C   UNL     1     135.784   2.669  94.858  1.00  0.00     0.302 C 
ATOM     13  O   UNL     1     135.063   2.128  93.975  1.00  0.00    -0.253 OA
ATOM     14  C   UNL     1     137.190   2.212  95.041  1.00  0.00     0.139 C 
ENDBRANCH  11  12
ENDBRANCH  10  11
ENDBRANCH   9  10
ENDBRANCH   2   9
TORSDOF 7
ENDMDL
MODEL 9
REMARK VINA RESULT:    -4.292      2.606      4.655
REMARK INTER + INTRA:          -6.898
REMARK INTER:                  -6.085
REMARK INTRA:                  -0.813
REMARK UNBOUND:                -0.850
REMARK SMILES CC(=O)OCC[C@@H](C)CCC=C(C)C
REMARK SMILES IDX 8 1 7 2 9 3 10 4 11 5 12 6 13 7 14 8 6 9 5 10 4 11 2 12 3 13
REMARK SMILES IDX 1 14
REMARK H PARENT
REMARK Flexibility Score: inf
ROOT
ATOM      1  C   UNL     1     134.201   5.498  93.391  1.00  0.00     0.008 C 
ATOM      2  C   UNL     1     133.898   4.245  94.227  1.00  0.00    -0.011 C 
ENDROOT
BRANCH   2   3
ATOM      3  C   UNL     1     134.544   4.373  95.631  1.00  0.00     0.007 C 
BRANCH   3   4
ATOM      4  C   UNL     1     135.686   3.378  95.904  1.00  0.00     0.027 C 
BRANCH   4   5
ATOM      5  C   UNL     1     135.182   1.972  96.125  1.00  0.00    -0.028 C 
ATOM      6  C   UNL     1     135.587   0.891  95.422  1.00  0.00    -0.080 C 
ATOM      7  C   UNL     1     134.962  -0.444  95.736  1.00  0.00     0.039 C 
ATOM      8  C   UNL     1     136.655   0.980  94.358  1.00  0.00     0.039 C 
ENDBRANCH   4   5
ENDBRANCH   3   4
ENDBRANCH   2   3
BRANCH   2   9
ATOM      9  C   UNL     1     132.380   3.932  94.249  1.00  0.00     0.045 C 
BRANCH   9  10
ATOM     10  C   UNL     1     132.018   2.481  93.891  1.00  0.00     0.233 C 
BRANCH  10  11
ATOM     11  O   UNL     1     132.140   2.274  92.485  1.00  0.00    -0.466 OA
BRANCH  11  12
ATOM     12  C   UNL     1     132.414   1.028  91.912  1.00  0.00     0.302 C 
ATOM     13  O   UNL     1     132.577   0.910  90.667  1.00  0.00    -0.253 OA
ATOM     14  C   UNL     1     132.572  -0.166  92.790  1.00  0.00     0.139 C 
ENDBRANCH  11  12
ENDBRANCH  10  11
ENDBRANCH   9  10
ENDBRANCH   2   9
TORSDOF 7
ENDMDL
