MODEL 1
REMARK VINA RESULT:    -4.665      0.000      0.000
REMARK INTER + INTRA:          -5.164
REMARK INTER:                  -5.074
REMARK INTRA:                  -0.090
REMARK UNBOUND:                -0.090
REMARK SMILES C=C(C)[C@@H]1CC[C@@H](C)[C@H](O)C1
REMARK SMILES IDX 8 1 7 2 6 3 5 4 4 5 11 6 9 7 10 8 2 10 1 11 3 12
REMARK H PARENT 10 9
REMARK Flexibility Score: inf
ROOT
ATOM      1  C   UNL     1     -38.125  24.681   4.170  1.00  0.00     0.010 C 
ATOM      2  C   UNL     1     -37.541  23.638   5.132  1.00  0.00     0.015 C 
ATOM      3  C   UNL     1     -37.832  22.216   4.607  1.00  0.00     0.006 C 
ATOM      4  C   UNL     1     -37.275  21.149   5.556  1.00  0.00     0.008 C 
ATOM      5  C   UNL     1     -37.849  21.327   6.975  1.00  0.00     0.017 C 
ATOM      6  C   UNL     1     -37.553  22.743   7.508  1.00  0.00     0.040 C 
ATOM      7  C   UNL     1     -38.109  23.821   6.560  1.00  0.00     0.117 C 
ENDROOT
BRANCH   7   8
ATOM      8  O   UNL     1     -37.759  25.091   7.045  1.00  0.00    -0.393 OA
ATOM      9  H   UNL     1     -37.029  25.429   6.463  1.00  0.00     0.210 HD
ENDBRANCH   7   8
BRANCH   5  10
ATOM     10  C   UNL     1     -37.327  20.255   7.923  1.00  0.00    -0.077 C 
ATOM     11  C   UNL     1     -38.123  19.267   8.367  1.00  0.00     0.008 C 
ATOM     12  C   UNL     1     -35.893  20.286   8.384  1.00  0.00     0.039 C 
ENDBRANCH   5  10
TORSDOF 2
ENDMDL
MODEL 2
REMARK VINA RESULT:    -2.912      1.587      2.383
REMARK INTER + INTRA:          -3.257
REMARK INTER:                  -3.166
REMARK INTRA:                  -0.091
REMARK UNBOUND:                -0.090
REMARK SMILES C=C(C)[C@@H]1CC[C@@H](C)[C@H](O)C1
REMARK SMILES IDX 8 1 7 2 6 3 5 4 4 5 11 6 9 7 10 8 2 10 1 11 3 12
REMARK H PARENT 10 9
REMARK Flexibility Score: inf
ROOT
ATOM      1  C   UNL     1     -38.107  25.115   4.256  1.00  0.00     0.010 C 
ATOM      2  C   UNL     1     -37.983  23.827   5.082  1.00  0.00     0.015 C 
ATOM      3  C   UNL     1     -38.125  24.149   6.584  1.00  0.00     0.006 C 
ATOM      4  C   UNL     1     -37.990  22.883   7.438  1.00  0.00     0.008 C 
ATOM      5  C   UNL     1     -36.647  22.179   7.163  1.00  0.00     0.017 C 
ATOM      6  C   UNL     1     -36.504  21.848   5.664  1.00  0.00     0.040 C 
ATOM      7  C   UNL     1     -36.639  23.115   4.799  1.00  0.00     0.117 C 
ENDROOT
BRANCH   7   8
ATOM      8  O   UNL     1     -36.572  22.759   3.442  1.00  0.00    -0.393 OA
ATOM      9  H   UNL     1     -35.630  22.886   3.158  1.00  0.00     0.210 HD
ENDBRANCH   7   8
BRANCH   5  10
ATOM     10  C   UNL     1     -36.484  20.935   8.026  1.00  0.00    -0.077 C 
ATOM     11  C   UNL     1     -35.352  20.704   8.714  1.00  0.00     0.008 C 
ATOM     12  C   UNL     1     -37.604  19.931   8.124  1.00  0.00     0.039 C 
ENDBRANCH   5  10
TORSDOF 2
ENDMDL
MODEL 3
REMARK VINA RESULT:    -2.211      1.931      4.772
REMARK INTER + INTRA:          -2.494
REMARK INTER:                  -2.399
REMARK INTRA:                  -0.096
REMARK UNBOUND:                -0.090
REMARK SMILES C=C(C)[C@@H]1CC[C@@H](C)[C@H](O)C1
REMARK SMILES IDX 8 1 7 2 6 3 5 4 4 5 11 6 9 7 10 8 2 10 1 11 3 12
REMARK H PARENT 10 9
REMARK Flexibility Score: inf
ROOT
ATOM      1  C   UNL     1     -36.546  20.002   7.965  1.00  0.00     0.010 C 
ATOM      2  C   UNL     1     -36.569  21.265   7.093  1.00  0.00     0.015 C 
ATOM      3  C   UNL     1     -37.014  22.478   7.935  1.00  0.00     0.006 C 
ATOM      4  C   UNL     1     -37.062  23.755   7.087  1.00  0.00     0.008 C 
ATOM      5  C   UNL     1     -37.993  23.570   5.874  1.00  0.00     0.017 C 
ATOM      6  C   UNL     1     -37.547  22.364   5.024  1.00  0.00     0.040 C 
ATOM      7  C   UNL     1     -37.496  21.077   5.869  1.00  0.00     0.117 C 
ENDROOT
BRANCH   7   8
ATOM      8  O   UNL     1     -37.019  20.020   5.076  1.00  0.00    -0.393 OA
ATOM      9  H   UNL     1     -36.508  20.430   4.330  1.00  0.00     0.210 HD
ENDBRANCH   7   8
BRANCH   5  10
ATOM     10  C   UNL     1     -38.075  24.840   5.038  1.00  0.00    -0.077 C 
ATOM     11  C   UNL     1     -38.105  24.792   3.695  1.00  0.00     0.008 C 
ATOM     12  C   UNL     1     -38.124  26.187   5.711  1.00  0.00     0.039 C 
ENDBRANCH   5  10
TORSDOF 2
ENDMDL
MODEL 4
REMARK VINA RESULT:    -1.710      2.039      4.599
REMARK INTER + INTRA:          -1.950
REMARK INTER:                  -1.856
REMARK INTRA:                  -0.094
REMARK UNBOUND:                -0.090
REMARK SMILES C=C(C)[C@@H]1CC[C@@H](C)[C@H](O)C1
REMARK SMILES IDX 8 1 7 2 6 3 5 4 4 5 11 6 9 7 10 8 2 10 1 11 3 12
REMARK H PARENT 10 9
REMARK Flexibility Score: inf
ROOT
ATOM      1  C   UNL     1     -35.394  20.023   8.952  1.00  0.00     0.010 C 
ATOM      2  C   UNL     1     -35.941  20.824   7.763  1.00  0.00     0.015 C 
ATOM      3  C   UNL     1     -35.196  22.170   7.648  1.00  0.00     0.006 C 
ATOM      4  C   UNL     1     -35.731  23.003   6.477  1.00  0.00     0.008 C 
ATOM      5  C   UNL     1     -37.247  23.236   6.620  1.00  0.00     0.017 C 
ATOM      6  C   UNL     1     -37.996  21.894   6.726  1.00  0.00     0.040 C 
ATOM      7  C   UNL     1     -37.465  21.051   7.900  1.00  0.00     0.117 C 
ENDROOT
BRANCH   7   8
ATOM      8  O   UNL     1     -38.125  19.811   7.918  1.00  0.00    -0.393 OA
ATOM      9  H   UNL     1     -39.089  20.002   8.055  1.00  0.00     0.210 HD
ENDBRANCH   7   8
BRANCH   5  10
ATOM     10  C   UNL     1     -37.788  24.088   5.479  1.00  0.00    -0.077 C 
ATOM     11  C   UNL     1     -37.976  23.573   4.252  1.00  0.00     0.008 C 
ATOM     12  C   UNL     1     -38.125  25.538   5.711  1.00  0.00     0.039 C 
ENDBRANCH   5  10
TORSDOF 2
ENDMDL
