MODEL 1
REMARK VINA RESULT:    -5.050      0.000      0.000
REMARK INTER + INTRA:         -10.595
REMARK INTER:                  -9.183
REMARK INTRA:                  -1.412
REMARK UNBOUND:                -1.412
REMARK SMILES CCCCCCCCCCCCCC[C@H](C)C(=O)[O-]
REMARK SMILES IDX 9 1 10 2 11 3 12 4 13 5 14 6 15 7 16 8 17 9 18 10 19 11 8 12
REMARK SMILES IDX 7 13 6 14 5 15 4 16 3 17 2 18 1 19
REMARK H PARENT
REMARK Flexibility Score: inf
ROOT
ATOM      1  C   UNL     1      14.978  16.939  61.055  1.00  0.00     0.000 C 
ENDROOT
BRANCH   1   2
ATOM      2  C   UNL     1      15.364  16.988  62.543  1.00  0.00     0.000 C 
BRANCH   2   3
ATOM      3  C   UNL     1      14.151  17.195  63.467  1.00  0.00     0.000 C 
BRANCH   3   4
ATOM      4  C   UNL     1      14.077  16.235  64.671  1.00  0.00     0.000 C 
BRANCH   4   5
ATOM      5  C   UNL     1      13.067  15.083  64.487  1.00  0.00     0.001 C 
BRANCH   5   6
ATOM      6  C   UNL     1      13.725  13.700  64.671  1.00  0.00     0.009 C 
BRANCH   6   7
ATOM      7  C   UNL     1      14.016  12.950  63.352  1.00  0.00     0.032 C 
ATOM      8  C   UNL     1      12.799  12.913  62.415  1.00  0.00     0.014 C 
BRANCH   7   9
ATOM      9  C   UNL     1      14.565  11.570  63.601  1.00  0.00     0.044 C 
ATOM     10  O   UNL     1      15.725  11.277  63.212  1.00  0.00    -0.550 OA
ATOM     11  O   UNL     1      13.824  10.627  64.306  1.00  0.00    -0.550 OA
ENDBRANCH   7   9
ENDBRANCH   6   7
ENDBRANCH   5   6
ENDBRANCH   4   5
ENDBRANCH   3   4
ENDBRANCH   2   3
ENDBRANCH   1   2
BRANCH   1  12
ATOM     12  C   UNL     1      15.275  15.574  60.414  1.00  0.00     0.000 C 
BRANCH  12  13
ATOM     13  C   UNL     1      15.658  15.685  58.931  1.00  0.00    -0.000 C 
BRANCH  13  14
ATOM     14  C   UNL     1      17.044  15.073  58.677  1.00  0.00    -0.000 C 
BRANCH  14  15
ATOM     15  C   UNL     1      17.874  14.916  59.963  1.00  0.00    -0.000 C 
BRANCH  15  16
ATOM     16  C   UNL     1      18.730  16.142  60.342  1.00  0.00    -0.000 C 
BRANCH  16  17
ATOM     17  C   UNL     1      18.701  16.524  61.833  1.00  0.00    -0.000 C 
BRANCH  17  18
ATOM     18  C   UNL     1      19.966  17.268  62.282  1.00  0.00    -0.003 C 
ATOM     19  C   UNL     1      21.019  17.277  61.178  1.00  0.00     0.004 C 
ENDBRANCH  17  18
ENDBRANCH  16  17
ENDBRANCH  15  16
ENDBRANCH  14  15
ENDBRANCH  13  14
ENDBRANCH  12  13
ENDBRANCH   1  12
TORSDOF 14
ENDMDL
MODEL 2
REMARK VINA RESULT:    -4.982      1.976      3.170
REMARK INTER + INTRA:         -10.472
REMARK INTER:                  -8.835
REMARK INTRA:                  -1.637
REMARK UNBOUND:                -1.412
REMARK SMILES CCCCCCCCCCCCCC[C@H](C)C(=O)[O-]
REMARK SMILES IDX 9 1 10 2 11 3 12 4 13 5 14 6 15 7 16 8 17 9 18 10 19 11 8 12
REMARK SMILES IDX 7 13 6 14 5 15 4 16 3 17 2 18 1 19
REMARK H PARENT
REMARK Flexibility Score: inf
ROOT
ATOM      1  C   UNL     1      13.149  16.712  63.892  1.00  0.00     0.000 C 
ENDROOT
BRANCH   1   2
ATOM      2  C   UNL     1      12.799  15.437  64.678  1.00  0.00     0.000 C 
BRANCH   2   3
ATOM      3  C   UNL     1      13.998  14.486  64.835  1.00  0.00     0.000 C 
BRANCH   3   4
ATOM      4  C   UNL     1      13.885  13.160  64.056  1.00  0.00     0.000 C 
BRANCH   4   5
ATOM      5  C   UNL     1      14.110  13.309  62.537  1.00  0.00     0.001 C 
BRANCH   5   6
ATOM      6  C   UNL     1      14.981  12.171  61.966  1.00  0.00     0.009 C 
BRANCH   6   7
ATOM      7  C   UNL     1      15.593  12.469  60.579  1.00  0.00     0.032 C 
ATOM      8  C   UNL     1      14.600  12.225  59.433  1.00  0.00     0.014 C 
BRANCH   7   9
ATOM      9  C   UNL     1      16.883  11.723  60.363  1.00  0.00     0.044 C 
ATOM     10  O   UNL     1      17.321  11.553  59.195  1.00  0.00    -0.550 OA
ATOM     11  O   UNL     1      17.627  11.264  61.444  1.00  0.00    -0.550 OA
ENDBRANCH   7   9
ENDBRANCH   6   7
ENDBRANCH   5   6
ENDBRANCH   4   5
ENDBRANCH   3   4
ENDBRANCH   2   3
ENDBRANCH   1   2
BRANCH   1  12
ATOM     12  C   UNL     1      14.642  16.797  63.542  1.00  0.00     0.000 C 
BRANCH  12  13
ATOM     13  C   UNL     1      14.893  16.923  62.032  1.00  0.00    -0.000 C 
BRANCH  13  14
ATOM     14  C   UNL     1      16.234  16.281  61.644  1.00  0.00    -0.000 C 
BRANCH  14  15
ATOM     15  C   UNL     1      16.391  16.096  60.125  1.00  0.00    -0.000 C 
BRANCH  15  16
ATOM     16  C   UNL     1      17.738  16.570  59.544  1.00  0.00    -0.000 C 
BRANCH  16  17
ATOM     17  C   UNL     1      18.982  16.131  60.337  1.00  0.00    -0.000 C 
BRANCH  17  18
ATOM     18  C   UNL     1      19.797  17.317  60.872  1.00  0.00    -0.003 C 
ATOM     19  C   UNL     1      19.945  17.243  62.388  1.00  0.00     0.004 C 
ENDBRANCH  17  18
ENDBRANCH  16  17
ENDBRANCH  15  16
ENDBRANCH  14  15
ENDBRANCH  13  14
ENDBRANCH  12  13
ENDBRANCH   1  12
TORSDOF 14
ENDMDL
MODEL 3
REMARK VINA RESULT:    -4.943      3.064      6.016
REMARK INTER + INTRA:         -10.401
REMARK INTER:                  -8.467
REMARK INTRA:                  -1.934
REMARK UNBOUND:                -1.412
REMARK SMILES CCCCCCCCCCCCCC[C@H](C)C(=O)[O-]
REMARK SMILES IDX 9 1 10 2 11 3 12 4 13 5 14 6 15 7 16 8 17 9 18 10 19 11 8 12
REMARK SMILES IDX 7 13 6 14 5 15 4 16 3 17 2 18 1 19
REMARK H PARENT
REMARK Flexibility Score: inf
ROOT
ATOM      1  C   UNL     1      13.675  16.532  63.793  1.00  0.00     0.000 C 
ENDROOT
BRANCH   1   2
ATOM      2  C   UNL     1      14.763  17.399  63.137  1.00  0.00     0.000 C 
BRANCH   2   3
ATOM      3  C   UNL     1      15.664  16.601  62.178  1.00  0.00     0.000 C 
BRANCH   3   4
ATOM      4  C   UNL     1      15.264  16.678  60.691  1.00  0.00     0.000 C 
BRANCH   4   5
ATOM      5  C   UNL     1      15.982  15.641  59.800  1.00  0.00     0.001 C 
BRANCH   5   6
ATOM      6  C   UNL     1      17.286  15.127  60.445  1.00  0.00     0.009 C 
BRANCH   6   7
ATOM      7  C   UNL     1      18.577  15.663  59.789  1.00  0.00     0.032 C 
ATOM      8  C   UNL     1      18.852  17.132  60.142  1.00  0.00     0.014 C 
BRANCH   7   9
ATOM      9  C   UNL     1      18.582  15.441  58.299  1.00  0.00     0.044 C 
ATOM     10  O   UNL     1      18.744  14.281  57.838  1.00  0.00    -0.550 OA
ATOM     11  O   UNL     1      18.356  16.497  57.423  1.00  0.00    -0.550 OA
ENDBRANCH   7   9
ENDBRANCH   6   7
ENDBRANCH   5   6
ENDBRANCH   4   5
ENDBRANCH   3   4
ENDBRANCH   2   3
ENDBRANCH   1   2
BRANCH   1  12
ATOM     12  C   UNL     1      14.177  15.123  64.144  1.00  0.00     0.000 C 
BRANCH  12  13
ATOM     13  C   UNL     1      13.332  14.013  63.502  1.00  0.00    -0.000 C 
BRANCH  13  14
ATOM     14  C   UNL     1      14.203  12.802  63.138  1.00  0.00    -0.000 C 
BRANCH  14  15
ATOM     15  C   UNL     1      14.684  12.828  61.676  1.00  0.00    -0.000 C 
BRANCH  15  16
ATOM     16  C   UNL     1      15.762  11.784  61.324  1.00  0.00    -0.000 C 
BRANCH  16  17
ATOM     17  C   UNL     1      15.561  11.065  59.978  1.00  0.00    -0.000 C 
BRANCH  17  18
ATOM     18  C   UNL     1      16.264  11.775  58.812  1.00  0.00    -0.003 C 
ATOM     19  C   UNL     1      17.473  10.978  58.333  1.00  0.00     0.004 C 
ENDBRANCH  17  18
ENDBRANCH  16  17
ENDBRANCH  15  16
ENDBRANCH  14  15
ENDBRANCH  13  14
ENDBRANCH  12  13
ENDBRANCH   1  12
TORSDOF 14
ENDMDL
MODEL 4
REMARK VINA RESULT:    -4.874      3.069      6.422
REMARK INTER + INTRA:         -10.275
REMARK INTER:                  -8.772
REMARK INTRA:                  -1.504
REMARK UNBOUND:                -1.412
REMARK SMILES CCCCCCCCCCCCCC[C@H](C)C(=O)[O-]
REMARK SMILES IDX 9 1 10 2 11 3 12 4 13 5 14 6 15 7 16 8 17 9 18 10 19 11 8 12
REMARK SMILES IDX 7 13 6 14 5 15 4 16 3 17 2 18 1 19
REMARK H PARENT
REMARK Flexibility Score: inf
ROOT
ATOM      1  C   UNL     1      15.017  12.033  62.445  1.00  0.00     0.000 C 
ENDROOT
BRANCH   1   2
ATOM      2  C   UNL     1      15.791  11.687  61.162  1.00  0.00     0.000 C 
BRANCH   2   3
ATOM      3  C   UNL     1      15.057  12.133  59.885  1.00  0.00     0.000 C 
BRANCH   3   4
ATOM      4  C   UNL     1      15.474  13.514  59.341  1.00  0.00     0.000 C 
BRANCH   4   5
ATOM      5  C   UNL     1      17.002  13.723  59.282  1.00  0.00     0.001 C 
BRANCH   5   6
ATOM      6  C   UNL     1      17.488  14.749  60.326  1.00  0.00     0.009 C 
BRANCH   6   7
ATOM      7  C   UNL     1      18.583  15.712  59.816  1.00  0.00     0.032 C 
ATOM      8  C   UNL     1      19.170  16.583  60.936  1.00  0.00     0.014 C 
BRANCH   7   9
ATOM      9  C   UNL     1      18.101  16.547  58.659  1.00  0.00     0.044 C 
ATOM     10  O   UNL     1      18.356  16.191  57.480  1.00  0.00    -0.550 OA
ATOM     11  O   UNL     1      17.328  17.682  58.877  1.00  0.00    -0.550 OA
ENDBRANCH   7   9
ENDBRANCH   6   7
ENDBRANCH   5   6
ENDBRANCH   4   5
ENDBRANCH   3   4
ENDBRANCH   2   3
ENDBRANCH   1   2
BRANCH   1  12
ATOM     12  C   UNL     1      14.212  13.335  62.315  1.00  0.00     0.000 C 
BRANCH  12  13
ATOM     13  C   UNL     1      13.178  13.509  63.436  1.00  0.00    -0.000 C 
BRANCH  13  14
ATOM     14  C   UNL     1      13.869  13.756  64.786  1.00  0.00    -0.000 C 
BRANCH  14  15
ATOM     15  C   UNL     1      13.977  15.251  65.137  1.00  0.00    -0.000 C 
BRANCH  15  16
ATOM     16  C   UNL     1      13.325  16.210  64.120  1.00  0.00    -0.000 C 
BRANCH  16  17
ATOM     17  C   UNL     1      14.225  17.363  63.641  1.00  0.00    -0.000 C 
BRANCH  17  18
ATOM     18  C   UNL     1      15.393  16.885  62.768  1.00  0.00    -0.003 C 
ATOM     19  C   UNL     1      15.002  16.859  61.293  1.00  0.00     0.004 C 
ENDBRANCH  17  18
ENDBRANCH  16  17
ENDBRANCH  15  16
ENDBRANCH  14  15
ENDBRANCH  13  14
ENDBRANCH  12  13
ENDBRANCH   1  12
TORSDOF 14
ENDMDL
MODEL 5
REMARK VINA RESULT:    -4.841      2.544      3.658
REMARK INTER + INTRA:         -10.215
REMARK INTER:                  -8.342
REMARK INTRA:                  -1.874
REMARK UNBOUND:                -1.412
REMARK SMILES CCCCCCCCCCCCCC[C@H](C)C(=O)[O-]
REMARK SMILES IDX 9 1 10 2 11 3 12 4 13 5 14 6 15 7 16 8 17 9 18 10 19 11 8 12
REMARK SMILES IDX 7 13 6 14 5 15 4 16 3 17 2 18 1 19
REMARK H PARENT
REMARK Flexibility Score: inf
ROOT
ATOM      1  C   UNL     1      14.498  12.921  60.709  1.00  0.00     0.000 C 
ENDROOT
BRANCH   1   2
ATOM      2  C   UNL     1      15.397  11.989  61.539  1.00  0.00     0.000 C 
BRANCH   2   3
ATOM      3  C   UNL     1      14.965  11.900  63.013  1.00  0.00     0.000 C 
BRANCH   3   4
ATOM      4  C   UNL     1      13.682  12.680  63.364  1.00  0.00     0.000 C 
BRANCH   4   5
ATOM      5  C   UNL     1      13.768  13.448  64.701  1.00  0.00     0.001 C 
BRANCH   5   6
ATOM      6  C   UNL     1      14.258  14.898  64.505  1.00  0.00     0.009 C 
BRANCH   6   7
ATOM      7  C   UNL     1      13.835  15.539  63.165  1.00  0.00     0.032 C 
ATOM      8  C   UNL     1      15.017  16.171  62.415  1.00  0.00     0.014 C 
BRANCH   7   9
ATOM      9  C   UNL     1      12.706  16.519  63.344  1.00  0.00     0.044 C 
ATOM     10  O   UNL     1      12.957  17.739  63.526  1.00  0.00    -0.550 OA
ATOM     11  O   UNL     1      11.383  16.102  63.258  1.00  0.00    -0.550 OA
ENDBRANCH   7   9
ENDBRANCH   6   7
ENDBRANCH   5   6
ENDBRANCH   4   5
ENDBRANCH   3   4
ENDBRANCH   2   3
ENDBRANCH   1   2
BRANCH   1  12
ATOM     12  C   UNL     1      15.166  13.375  59.403  1.00  0.00     0.000 C 
BRANCH  12  13
ATOM     13  C   UNL     1      16.665  13.045  59.356  1.00  0.00    -0.000 C 
BRANCH  13  14
ATOM     14  C   UNL     1      17.479  14.260  58.887  1.00  0.00    -0.000 C 
BRANCH  14  15
ATOM     15  C   UNL     1      16.657  15.561  58.873  1.00  0.00    -0.000 C 
BRANCH  15  16
ATOM     16  C   UNL     1      17.302  16.750  59.614  1.00  0.00    -0.000 C 
BRANCH  16  17
ATOM     17  C   UNL     1      18.237  16.366  60.775  1.00  0.00    -0.000 C 
BRANCH  17  18
ATOM     18  C   UNL     1      19.517  17.212  60.815  1.00  0.00    -0.003 C 
ATOM     19  C   UNL     1      20.125  17.222  62.214  1.00  0.00     0.004 C 
ENDBRANCH  17  18
ENDBRANCH  16  17
ENDBRANCH  15  16
ENDBRANCH  14  15
ENDBRANCH  13  14
ENDBRANCH  12  13
ENDBRANCH   1  12
TORSDOF 14
ENDMDL
MODEL 6
REMARK VINA RESULT:    -4.767      3.044      6.571
REMARK INTER + INTRA:         -10.079
REMARK INTER:                  -8.711
REMARK INTRA:                  -1.369
REMARK UNBOUND:                -1.412
REMARK SMILES CCCCCCCCCCCCCC[C@H](C)C(=O)[O-]
REMARK SMILES IDX 9 1 10 2 11 3 12 4 13 5 14 6 15 7 16 8 17 9 18 10 19 11 8 12
REMARK SMILES IDX 7 13 6 14 5 15 4 16 3 17 2 18 1 19
REMARK H PARENT
REMARK Flexibility Score: inf
ROOT
ATOM      1  C   UNL     1      15.266  12.112  59.874  1.00  0.00     0.000 C 
ENDROOT
BRANCH   1   2
ATOM      2  C   UNL     1      16.161  13.043  59.037  1.00  0.00     0.000 C 
BRANCH   2   3
ATOM      3  C   UNL     1      15.842  14.532  59.257  1.00  0.00     0.000 C 
BRANCH   3   4
ATOM      4  C   UNL     1      16.627  15.507  58.356  1.00  0.00     0.000 C 
BRANCH   4   5
ATOM      5  C   UNL     1      17.475  16.531  59.140  1.00  0.00     0.001 C 
BRANCH   5   6
ATOM      6  C   UNL     1      18.555  15.848  60.005  1.00  0.00     0.009 C 
BRANCH   6   7
ATOM      7  C   UNL     1      18.479  16.190  61.509  1.00  0.00     0.032 C 
ATOM      8  C   UNL     1      17.060  16.572  61.956  1.00  0.00     0.014 C 
BRANCH   7   9
ATOM      9  C   UNL     1      19.484  17.243  61.896  1.00  0.00     0.044 C 
ATOM     10  O   UNL     1      20.627  17.243  61.369  1.00  0.00    -0.550 OA
ATOM     11  O   UNL     1      19.146  18.252  62.791  1.00  0.00    -0.550 OA
ENDBRANCH   7   9
ENDBRANCH   6   7
ENDBRANCH   5   6
ENDBRANCH   4   5
ENDBRANCH   3   4
ENDBRANCH   2   3
ENDBRANCH   1   2
BRANCH   1  12
ATOM     12  C   UNL     1      16.043  11.396  60.990  1.00  0.00     0.000 C 
BRANCH  12  13
ATOM     13  C   UNL     1      15.352  11.502  62.357  1.00  0.00    -0.000 C 
BRANCH  13  14
ATOM     14  C   UNL     1      14.509  12.784  62.447  1.00  0.00    -0.000 C 
BRANCH  14  15
ATOM     15  C   UNL     1      13.488  12.749  63.598  1.00  0.00    -0.000 C 
BRANCH  15  16
ATOM     16  C   UNL     1      13.668  13.848  64.664  1.00  0.00    -0.000 C 
BRANCH  16  17
ATOM     17  C   UNL     1      14.447  15.091  64.197  1.00  0.00    -0.000 C 
BRANCH  17  18
ATOM     18  C   UNL     1      13.568  16.347  64.110  1.00  0.00    -0.003 C 
ATOM     19  C   UNL     1      12.200  16.020  63.522  1.00  0.00     0.004 C 
ENDBRANCH  17  18
ENDBRANCH  16  17
ENDBRANCH  15  16
ENDBRANCH  14  15
ENDBRANCH  13  14
ENDBRANCH  12  13
ENDBRANCH   1  12
TORSDOF 14
ENDMDL
MODEL 7
REMARK VINA RESULT:    -4.748      2.500      6.193
REMARK INTER + INTRA:         -10.046
REMARK INTER:                  -8.342
REMARK INTRA:                  -1.705
REMARK UNBOUND:                -1.412
REMARK SMILES CCCCCCCCCCCCCC[C@H](C)C(=O)[O-]
REMARK SMILES IDX 9 1 10 2 11 3 12 4 13 5 14 6 15 7 16 8 17 9 18 10 19 11 8 12
REMARK SMILES IDX 7 13 6 14 5 15 4 16 3 17 2 18 1 19
REMARK H PARENT
REMARK Flexibility Score: inf
ROOT
ATOM      1  C   UNL     1      15.524  11.379  61.017  1.00  0.00     0.000 C 
ENDROOT
BRANCH   1   2
ATOM      2  C   UNL     1      16.804  12.102  60.565  1.00  0.00     0.000 C 
BRANCH   2   3
ATOM      3  C   UNL     1      16.561  13.064  59.389  1.00  0.00     0.000 C 
BRANCH   3   4
ATOM      4  C   UNL     1      15.439  14.098  59.613  1.00  0.00     0.000 C 
BRANCH   4   5
ATOM      5  C   UNL     1      15.602  15.384  58.774  1.00  0.00     0.001 C 
BRANCH   5   6
ATOM      6  C   UNL     1      16.044  16.585  59.636  1.00  0.00     0.009 C 
BRANCH   6   7
ATOM      7  C   UNL     1      17.564  16.858  59.620  1.00  0.00     0.032 C 
ATOM      8  C   UNL     1      18.286  16.108  58.490  1.00  0.00     0.014 C 
BRANCH   7   9
ATOM      9  C   UNL     1      18.197  16.585  60.959  1.00  0.00     0.044 C 
ATOM     10  O   UNL     1      18.142  15.428  61.454  1.00  0.00    -0.550 OA
ATOM     11  O   UNL     1      18.891  17.583  61.634  1.00  0.00    -0.550 OA
ENDBRANCH   7   9
ENDBRANCH   6   7
ENDBRANCH   5   6
ENDBRANCH   4   5
ENDBRANCH   3   4
ENDBRANCH   2   3
ENDBRANCH   1   2
BRANCH   1  12
ATOM     12  C   UNL     1      15.200  11.624  62.499  1.00  0.00     0.000 C 
BRANCH  12  13
ATOM     13  C   UNL     1      14.120  12.696  62.702  1.00  0.00    -0.000 C 
BRANCH  13  14
ATOM     14  C   UNL     1      13.799  12.874  64.194  1.00  0.00    -0.000 C 
BRANCH  14  15
ATOM     15  C   UNL     1      13.448  14.327  64.561  1.00  0.00    -0.000 C 
BRANCH  15  16
ATOM     16  C   UNL     1      13.625  15.350  63.421  1.00  0.00    -0.000 C 
BRANCH  16  17
ATOM     17  C   UNL     1      15.047  15.919  63.269  1.00  0.00    -0.000 C 
BRANCH  17  18
ATOM     18  C   UNL     1      15.060  17.434  63.025  1.00  0.00    -0.003 C 
ATOM     19  C   UNL     1      13.708  18.056  63.360  1.00  0.00     0.004 C 
ENDBRANCH  17  18
ENDBRANCH  16  17
ENDBRANCH  15  16
ENDBRANCH  14  15
ENDBRANCH  13  14
ENDBRANCH  12  13
ENDBRANCH   1  12
TORSDOF 14
ENDMDL
MODEL 8
REMARK VINA RESULT:    -4.678      3.793      6.664
REMARK INTER + INTRA:          -9.918
REMARK INTER:                  -8.991
REMARK INTRA:                  -0.927
REMARK UNBOUND:                -1.412
REMARK SMILES CCCCCCCCCCCCCC[C@H](C)C(=O)[O-]
REMARK SMILES IDX 9 1 10 2 11 3 12 4 13 5 14 6 15 7 16 8 17 9 18 10 19 11 8 12
REMARK SMILES IDX 7 13 6 14 5 15 4 16 3 17 2 18 1 19
REMARK H PARENT
REMARK Flexibility Score: inf
ROOT
ATOM      1  C   UNL     1      12.793  15.832  64.157  1.00  0.00     0.000 C 
ENDROOT
BRANCH   1   2
ATOM      2  C   UNL     1      14.243  15.404  63.869  1.00  0.00     0.000 C 
BRANCH   2   3
ATOM      3  C   UNL     1      14.691  15.744  62.436  1.00  0.00     0.000 C 
BRANCH   3   4
ATOM      4  C   UNL     1      15.961  16.611  62.339  1.00  0.00     0.000 C 
BRANCH   4   5
ATOM      5  C   UNL     1      16.901  16.211  61.181  1.00  0.00     0.001 C 
BRANCH   5   6
ATOM      6  C   UNL     1      16.357  16.664  59.811  1.00  0.00     0.009 C 
BRANCH   6   7
ATOM      7  C   UNL     1      16.341  15.559  58.731  1.00  0.00     0.032 C 
ATOM      8  C   UNL     1      15.725  14.248  59.240  1.00  0.00     0.014 C 
BRANCH   7   9
ATOM      9  C   UNL     1      17.708  15.336  58.138  1.00  0.00     0.044 C 
ATOM     10  O   UNL     1      18.241  14.198  58.203  1.00  0.00    -0.550 OA
ATOM     11  O   UNL     1      18.368  16.361  57.469  1.00  0.00    -0.550 OA
ENDBRANCH   7   9
ENDBRANCH   6   7
ENDBRANCH   5   6
ENDBRANCH   4   5
ENDBRANCH   3   4
ENDBRANCH   2   3
ENDBRANCH   1   2
BRANCH   1  12
ATOM     12  C   UNL     1      12.429  17.166  63.488  1.00  0.00     0.000 C 
BRANCH  12  13
ATOM     13  C   UNL     1      11.002  17.627  63.818  1.00  0.00    -0.000 C 
BRANCH  13  14
ATOM     14  C   UNL     1      10.890  19.157  63.748  1.00  0.00    -0.000 C 
BRANCH  14  15
ATOM     15  C   UNL     1      12.249  19.847  63.528  1.00  0.00    -0.000 C 
BRANCH  15  16
ATOM     16  C   UNL     1      12.268  20.911  62.412  1.00  0.00    -0.000 C 
BRANCH  16  17
ATOM     17  C   UNL     1      13.669  21.315  61.919  1.00  0.00    -0.000 C 
BRANCH  17  18
ATOM     18  C   UNL     1      13.626  22.239  60.693  1.00  0.00    -0.003 C 
ATOM     19  C   UNL     1      13.832  23.696  61.096  1.00  0.00     0.004 C 
ENDBRANCH  17  18
ENDBRANCH  16  17
ENDBRANCH  15  16
ENDBRANCH  14  15
ENDBRANCH  13  14
ENDBRANCH  12  13
ENDBRANCH   1  12
TORSDOF 14
ENDMDL
MODEL 9
REMARK VINA RESULT:    -4.651      2.347      3.864
REMARK INTER + INTRA:          -9.869
REMARK INTER:                  -8.596
REMARK INTRA:                  -1.273
REMARK UNBOUND:                -1.412
REMARK SMILES CCCCCCCCCCCCCC[C@H](C)C(=O)[O-]
REMARK SMILES IDX 9 1 10 2 11 3 12 4 13 5 14 6 15 7 16 8 17 9 18 10 19 11 8 12
REMARK SMILES IDX 7 13 6 14 5 15 4 16 3 17 2 18 1 19
REMARK H PARENT
REMARK Flexibility Score: inf
ROOT
ATOM      1  C   UNL     1      14.191  15.553  64.670  1.00  0.00     0.000 C 
ENDROOT
BRANCH   1   2
ATOM      2  C   UNL     1      13.794  14.087  64.914  1.00  0.00     0.000 C 
BRANCH   2   3
ATOM      3  C   UNL     1      13.766  13.254  63.620  1.00  0.00     0.000 C 
BRANCH   3   4
ATOM      4  C   UNL     1      14.040  11.749  63.807  1.00  0.00     0.000 C 
BRANCH   4   5
ATOM      5  C   UNL     1      15.160  11.203  62.895  1.00  0.00     0.001 C 
BRANCH   5   6
ATOM      6  C   UNL     1      15.374  12.087  61.649  1.00  0.00     0.009 C 
BRANCH   6   7
ATOM      7  C   UNL     1      15.517  11.302  60.326  1.00  0.00     0.032 C 
ATOM      8  C   UNL     1      16.977  10.949  60.006  1.00  0.00     0.014 C 
BRANCH   7   9
ATOM      9  C   UNL     1      14.855  12.015  59.177  1.00  0.00     0.044 C 
ATOM     10  O   UNL     1      14.120  11.375  58.381  1.00  0.00    -0.550 OA
ATOM     11  O   UNL     1      15.003  13.388  59.012  1.00  0.00    -0.550 OA
ENDBRANCH   7   9
ENDBRANCH   6   7
ENDBRANCH   5   6
ENDBRANCH   4   5
ENDBRANCH   3   4
ENDBRANCH   2   3
ENDBRANCH   1   2
BRANCH   1  12
ATOM     12  C   UNL     1      14.080  15.955  63.192  1.00  0.00     0.000 C 
BRANCH  12  13
ATOM     13  C   UNL     1      15.095  17.036  62.792  1.00  0.00    -0.000 C 
BRANCH  13  14
ATOM     14  C   UNL     1      15.324  17.038  61.273  1.00  0.00    -0.000 C 
BRANCH  14  15
ATOM     15  C   UNL     1      16.287  15.929  60.812  1.00  0.00    -0.000 C 
BRANCH  15  16
ATOM     16  C   UNL     1      17.283  16.346  59.711  1.00  0.00    -0.000 C 
BRANCH  16  17
ATOM     17  C   UNL     1      18.592  16.977  60.218  1.00  0.00    -0.000 C 
BRANCH  17  18
ATOM     18  C   UNL     1      19.082  16.356  61.534  1.00  0.00    -0.003 C 
ATOM     19  C   UNL     1      19.842  17.378  62.373  1.00  0.00     0.004 C 
ENDBRANCH  17  18
ENDBRANCH  16  17
ENDBRANCH  15  16
ENDBRANCH  14  15
ENDBRANCH  13  14
ENDBRANCH  12  13
ENDBRANCH   1  12
TORSDOF 14
ENDMDL
