MODEL 1
REMARK VINA RESULT:    -3.706      0.000      0.000
REMARK INTER + INTRA:         -14.497
REMARK INTER:                  -9.338
REMARK INTRA:                  -5.159
REMARK UNBOUND:                -5.159
REMARK SMILES CCCCCCCCCCCCCCCCCCCCCCCCCCCC(=O)[O-]
REMARK SMILES IDX 15 1 16 2 17 3 18 4 19 5 20 6 21 7 22 8 23 9 24 10 25 11
REMARK SMILES IDX 26 12 27 13 28 14 29 15 30 16 14 17 13 18 12 19 11 20 10 21
REMARK SMILES IDX 9 22 8 23 7 24 6 25 5 26 4 27 3 28 2 29 1 30
REMARK H PARENT
REMARK Flexibility Score: inf
ROOT
ATOM      1  C   UNL     1     130.643 142.464 122.019  1.00  0.00     0.000 C 
ENDROOT
BRANCH   1   2
ATOM      2  C   UNL     1     129.895 143.222 123.125  1.00  0.00     0.000 C 
BRANCH   2   3
ATOM      3  C   UNL     1     130.459 142.941 124.526  1.00  0.00     0.000 C 
BRANCH   3   4
ATOM      4  C   UNL     1     129.463 143.293 125.647  1.00  0.00     0.000 C 
BRANCH   4   5
ATOM      5  C   UNL     1     128.065 143.656 125.107  1.00  0.00     0.000 C 
BRANCH   5   6
ATOM      6  C   UNL     1     127.652 145.117 125.374  1.00  0.00     0.000 C 
BRANCH   6   7
ATOM      7  C   UNL     1     127.333 145.945 124.119  1.00  0.00     0.000 C 
BRANCH   7   8
ATOM      8  C   UNL     1     128.552 146.723 123.598  1.00  0.00     0.000 C 
BRANCH   8   9
ATOM      9  C   UNL     1     129.657 146.884 124.655  1.00  0.00     0.000 C 
BRANCH   9  10
ATOM     10  C   UNL     1     131.080 146.555 124.165  1.00  0.00     0.000 C 
BRANCH  10  11
ATOM     11  C   UNL     1     132.097 146.337 125.305  1.00  0.00     0.000 C 
BRANCH  11  12
ATOM     12  C   UNL     1     131.436 146.410 126.692  1.00  0.00     0.006 C 
BRANCH  12  13
ATOM     13  C   UNL     1     131.940 145.313 127.639  1.00  0.00     0.053 C 
BRANCH  13  14
ATOM     14  C   UNL     1     133.142 145.756 128.418  1.00  0.00     0.041 C 
ATOM     15  O   UNL     1     133.031 146.660 129.289  1.00  0.00    -0.550 OA
ATOM     16  O   UNL     1     134.374 145.148 128.207  1.00  0.00    -0.550 OA
ENDBRANCH  13  14
ENDBRANCH  12  13
ENDBRANCH  11  12
ENDBRANCH  10  11
ENDBRANCH   9  10
ENDBRANCH   8   9
ENDBRANCH   7   8
ENDBRANCH   6   7
ENDBRANCH   5   6
ENDBRANCH   4   5
ENDBRANCH   3   4
ENDBRANCH   2   3
ENDBRANCH   1   2
BRANCH   1  17
ATOM     17  C   UNL     1     129.662 141.931 120.967  1.00  0.00     0.000 C 
BRANCH  17  18
ATOM     18  C   UNL     1     128.244 141.802 121.543  1.00  0.00     0.000 C 
BRANCH  18  19
ATOM     19  C   UNL     1     127.156 142.203 120.535  1.00  0.00     0.000 C 
BRANCH  19  20
ATOM     20  C   UNL     1     127.487 143.510 119.794  1.00  0.00     0.000 C 
BRANCH  20  21
ATOM     21  C   UNL     1     127.211 144.762 120.642  1.00  0.00     0.000 C 
BRANCH  21  22
ATOM     22  C   UNL     1     127.925 146.013 120.101  1.00  0.00    -0.000 C 
BRANCH  22  23
ATOM     23  C   UNL     1     129.297 145.691 119.486  1.00  0.00    -0.000 C 
BRANCH  23  24
ATOM     24  C   UNL     1     130.441 145.790 120.511  1.00  0.00    -0.000 C 
BRANCH  24  25
ATOM     25  C   UNL     1     131.422 146.933 120.203  1.00  0.00    -0.000 C 
BRANCH  25  26
ATOM     26  C   UNL     1     132.772 146.762 120.917  1.00  0.00    -0.000 C 
BRANCH  26  27
ATOM     27  C   UNL     1     133.381 145.361 120.715  1.00  0.00    -0.000 C 
BRANCH  27  28
ATOM     28  C   UNL     1     134.039 145.130 119.341  1.00  0.00    -0.000 C 
BRANCH  28  29
ATOM     29  C   UNL     1     134.835 146.346 118.844  1.00  0.00    -0.003 C 
ATOM     30  C   UNL     1     136.072 146.583 119.707  1.00  0.00     0.004 C 
ENDBRANCH  28  29
ENDBRANCH  27  28
ENDBRANCH  26  27
ENDBRANCH  25  26
ENDBRANCH  24  25
ENDBRANCH  23  24
ENDBRANCH  22  23
ENDBRANCH  21  22
ENDBRANCH  20  21
ENDBRANCH  19  20
ENDBRANCH  18  19
ENDBRANCH  17  18
ENDBRANCH   1  17
TORSDOF 26
ENDMDL
MODEL 2
REMARK VINA RESULT:    -3.605      2.604      4.898
REMARK INTER + INTRA:         -14.243
REMARK INTER:                  -8.837
REMARK INTRA:                  -5.406
REMARK UNBOUND:                -5.159
REMARK SMILES CCCCCCCCCCCCCCCCCCCCCCCCCCCC(=O)[O-]
REMARK SMILES IDX 15 1 16 2 17 3 18 4 19 5 20 6 21 7 22 8 23 9 24 10 25 11
REMARK SMILES IDX 26 12 27 13 28 14 29 15 30 16 14 17 13 18 12 19 11 20 10 21
REMARK SMILES IDX 9 22 8 23 7 24 6 25 5 26 4 27 3 28 2 29 1 30
REMARK H PARENT
REMARK Flexibility Score: inf
ROOT
ATOM      1  C   UNL     1     129.035 141.723 120.551  1.00  0.00     0.000 C 
ENDROOT
BRANCH   1   2
ATOM      2  C   UNL     1     128.667 142.715 121.663  1.00  0.00     0.000 C 
BRANCH   2   3
ATOM      3  C   UNL     1     127.734 143.835 121.177  1.00  0.00     0.000 C 
BRANCH   3   4
ATOM      4  C   UNL     1     127.563 143.841 119.646  1.00  0.00     0.000 C 
BRANCH   4   5
ATOM      5  C   UNL     1     128.340 144.988 118.967  1.00  0.00     0.000 C 
BRANCH   5   6
ATOM      6  C   UNL     1     129.043 145.938 119.955  1.00  0.00     0.000 C 
BRANCH   6   7
ATOM      7  C   UNL     1     130.486 146.314 119.584  1.00  0.00     0.000 C 
BRANCH   7   8
ATOM      8  C   UNL     1     131.370 146.558 120.819  1.00  0.00     0.000 C 
BRANCH   8   9
ATOM      9  C   UNL     1     130.616 146.360 122.144  1.00  0.00     0.000 C 
BRANCH   9  10
ATOM     10  C   UNL     1     131.511 146.264 123.394  1.00  0.00     0.000 C 
BRANCH  10  11
ATOM     11  C   UNL     1     130.775 145.746 124.649  1.00  0.00     0.000 C 
BRANCH  11  12
ATOM     12  C   UNL     1     130.393 144.262 124.525  1.00  0.00     0.006 C 
BRANCH  12  13
ATOM     13  C   UNL     1     129.404 143.819 125.611  1.00  0.00     0.053 C 
BRANCH  13  14
ATOM     14  C   UNL     1     127.991 143.802 125.107  1.00  0.00     0.041 C 
ATOM     15  O   UNL     1     127.411 144.882 124.815  1.00  0.00    -0.550 OA
ATOM     16  O   UNL     1     127.330 142.592 124.928  1.00  0.00    -0.550 OA
ENDBRANCH  13  14
ENDBRANCH  12  13
ENDBRANCH  11  12
ENDBRANCH  10  11
ENDBRANCH   9  10
ENDBRANCH   8   9
ENDBRANCH   7   8
ENDBRANCH   6   7
ENDBRANCH   5   6
ENDBRANCH   4   5
ENDBRANCH   3   4
ENDBRANCH   2   3
ENDBRANCH   1   2
BRANCH   1  17
ATOM     17  C   UNL     1     130.555 141.670 120.351  1.00  0.00     0.000 C 
BRANCH  17  18
ATOM     18  C   UNL     1     131.248 142.857 121.036  1.00  0.00     0.000 C 
BRANCH  18  19
ATOM     19  C   UNL     1     132.605 143.198 120.403  1.00  0.00     0.000 C 
BRANCH  19  20
ATOM     20  C   UNL     1     132.547 143.245 118.866  1.00  0.00     0.000 C 
BRANCH  20  21
ATOM     21  C   UNL     1     133.922 143.032 118.211  1.00  0.00     0.000 C 
BRANCH  21  22
ATOM     22  C   UNL     1     135.001 143.968 118.784  1.00  0.00    -0.000 C 
BRANCH  22  23
ATOM     23  C   UNL     1     134.902 145.397 118.226  1.00  0.00    -0.000 C 
BRANCH  23  24
ATOM     24  C   UNL     1     134.825 146.461 119.336  1.00  0.00    -0.000 C 
BRANCH  24  25
ATOM     25  C   UNL     1     136.170 146.680 120.047  1.00  0.00    -0.000 C 
BRANCH  25  26
ATOM     26  C   UNL     1     136.059 146.556 121.575  1.00  0.00    -0.000 C 
BRANCH  26  27
ATOM     27  C   UNL     1     134.847 145.714 122.019  1.00  0.00    -0.000 C 
BRANCH  27  28
ATOM     28  C   UNL     1     134.944 145.135 123.443  1.00  0.00    -0.000 C 
BRANCH  28  29
ATOM     29  C   UNL     1     135.009 143.600 123.464  1.00  0.00    -0.003 C 
ATOM     30  C   UNL     1     135.753 143.065 122.244  1.00  0.00     0.004 C 
ENDBRANCH  28  29
ENDBRANCH  27  28
ENDBRANCH  26  27
ENDBRANCH  25  26
ENDBRANCH  24  25
ENDBRANCH  23  24
ENDBRANCH  22  23
ENDBRANCH  21  22
ENDBRANCH  20  21
ENDBRANCH  19  20
ENDBRANCH  18  19
ENDBRANCH  17  18
ENDBRANCH   1  17
TORSDOF 26
ENDMDL
MODEL 3
REMARK VINA RESULT:    -3.587      2.970      6.674
REMARK INTER + INTRA:         -14.197
REMARK INTER:                  -8.722
REMARK INTRA:                  -5.475
REMARK UNBOUND:                -5.159
REMARK SMILES CCCCCCCCCCCCCCCCCCCCCCCCCCCC(=O)[O-]
REMARK SMILES IDX 15 1 16 2 17 3 18 4 19 5 20 6 21 7 22 8 23 9 24 10 25 11
REMARK SMILES IDX 26 12 27 13 28 14 29 15 30 16 14 17 13 18 12 19 11 20 10 21
REMARK SMILES IDX 9 22 8 23 7 24 6 25 5 26 4 27 3 28 2 29 1 30
REMARK H PARENT
REMARK Flexibility Score: inf
ROOT
ATOM      1  C   UNL     1     130.165 143.298 122.732  1.00  0.00     0.000 C 
ENDROOT
BRANCH   1   2
ATOM      2  C   UNL     1     130.661 142.192 121.789  1.00  0.00     0.000 C 
BRANCH   2   3
ATOM      3  C   UNL     1     129.898 142.160 120.456  1.00  0.00     0.000 C 
BRANCH   3   4
ATOM      4  C   UNL     1     128.607 141.323 120.534  1.00  0.00     0.000 C 
BRANCH   4   5
ATOM      5  C   UNL     1     127.334 142.193 120.548  1.00  0.00     0.000 C 
BRANCH   5   6
ATOM      6  C   UNL     1     127.497 143.550 119.835  1.00  0.00     0.000 C 
BRANCH   6   7
ATOM      7  C   UNL     1     127.242 144.784 120.715  1.00  0.00     0.000 C 
BRANCH   7   8
ATOM      8  C   UNL     1     127.903 146.055 120.156  1.00  0.00     0.000 C 
BRANCH   8   9
ATOM      9  C   UNL     1     129.278 145.786 119.523  1.00  0.00     0.000 C 
BRANCH   9  10
ATOM     10  C   UNL     1     130.472 145.893 120.490  1.00  0.00     0.000 C 
BRANCH  10  11
ATOM     11  C   UNL     1     131.577 146.858 120.012  1.00  0.00     0.000 C 
BRANCH  11  12
ATOM     12  C   UNL     1     132.918 146.139 119.789  1.00  0.00     0.006 C 
BRANCH  12  13
ATOM     13  C   UNL     1     132.834 144.637 120.087  1.00  0.00     0.053 C 
BRANCH  13  14
ATOM     14  C   UNL     1     133.423 143.813 118.981  1.00  0.00     0.041 C 
ATOM     15  O   UNL     1     132.847 142.759 118.603  1.00  0.00    -0.550 OA
ATOM     16  O   UNL     1     134.589 144.228 118.348  1.00  0.00    -0.550 OA
ENDBRANCH  13  14
ENDBRANCH  12  13
ENDBRANCH  11  12
ENDBRANCH  10  11
ENDBRANCH   9  10
ENDBRANCH   8   9
ENDBRANCH   7   8
ENDBRANCH   6   7
ENDBRANCH   5   6
ENDBRANCH   4   5
ENDBRANCH   3   4
ENDBRANCH   2   3
ENDBRANCH   1   2
BRANCH   1  17
ATOM     17  C   UNL     1     129.426 142.694 123.934  1.00  0.00     0.000 C 
BRANCH  17  18
ATOM     18  C   UNL     1     128.008 143.270 124.061  1.00  0.00     0.000 C 
BRANCH  18  19
ATOM     19  C   UNL     1     127.961 144.549 124.910  1.00  0.00     0.000 C 
BRANCH  19  20
ATOM     20  C   UNL     1     127.491 145.776 124.109  1.00  0.00     0.000 C 
BRANCH  20  21
ATOM     21  C   UNL     1     128.652 146.692 123.687  1.00  0.00     0.000 C 
BRANCH  21  22
ATOM     22  C   UNL     1     129.746 146.795 124.764  1.00  0.00    -0.000 C 
BRANCH  22  23
ATOM     23  C   UNL     1     131.130 146.375 124.243  1.00  0.00    -0.000 C 
BRANCH  23  24
ATOM     24  C   UNL     1     132.111 146.035 125.381  1.00  0.00    -0.000 C 
BRANCH  24  25
ATOM     25  C   UNL     1     132.207 144.526 125.655  1.00  0.00    -0.000 C 
BRANCH  25  26
ATOM     26  C   UNL     1     131.848 144.164 127.105  1.00  0.00    -0.000 C 
BRANCH  26  27
ATOM     27  C   UNL     1     130.327 144.125 127.351  1.00  0.00    -0.000 C 
BRANCH  27  28
ATOM     28  C   UNL     1     129.781 145.267 128.228  1.00  0.00    -0.000 C 
BRANCH  28  29
ATOM     29  C   UNL     1     128.248 145.268 128.328  1.00  0.00    -0.003 C 
ATOM     30  C   UNL     1     127.791 145.019 129.764  1.00  0.00     0.004 C 
ENDBRANCH  28  29
ENDBRANCH  27  28
ENDBRANCH  26  27
ENDBRANCH  25  26
ENDBRANCH  24  25
ENDBRANCH  23  24
ENDBRANCH  22  23
ENDBRANCH  21  22
ENDBRANCH  20  21
ENDBRANCH  19  20
ENDBRANCH  18  19
ENDBRANCH  17  18
ENDBRANCH   1  17
TORSDOF 26
ENDMDL
MODEL 4
REMARK VINA RESULT:    -3.539      1.502      4.434
REMARK INTER + INTRA:         -14.078
REMARK INTER:                  -8.832
REMARK INTRA:                  -5.246
REMARK UNBOUND:                -5.159
REMARK SMILES CCCCCCCCCCCCCCCCCCCCCCCCCCCC(=O)[O-]
REMARK SMILES IDX 15 1 16 2 17 3 18 4 19 5 20 6 21 7 22 8 23 9 24 10 25 11
REMARK SMILES IDX 26 12 27 13 28 14 29 15 30 16 14 17 13 18 12 19 11 20 10 21
REMARK SMILES IDX 9 22 8 23 7 24 6 25 5 26 4 27 3 28 2 29 1 30
REMARK H PARENT
REMARK Flexibility Score: inf
ROOT
ATOM      1  C   UNL     1     132.330 145.594 123.382  1.00  0.00     0.000 C 
ENDROOT
BRANCH   1   2
ATOM      2  C   UNL     1     131.152 146.406 123.939  1.00  0.00     0.000 C 
BRANCH   2   3
ATOM      3  C   UNL     1     129.789 145.879 123.466  1.00  0.00     0.000 C 
BRANCH   3   4
ATOM      4  C   UNL     1     128.619 146.774 123.918  1.00  0.00     0.000 C 
BRANCH   4   5
ATOM      5  C   UNL     1     127.432 145.962 124.477  1.00  0.00     0.000 C 
BRANCH   5   6
ATOM      6  C   UNL     1     127.837 144.906 125.524  1.00  0.00     0.000 C 
BRANCH   6   7
ATOM      7  C   UNL     1     127.257 145.126 126.930  1.00  0.00     0.000 C 
BRANCH   7   8
ATOM      8  C   UNL     1     128.349 145.328 127.994  1.00  0.00     0.000 C 
BRANCH   8   9
ATOM      9  C   UNL     1     129.763 145.399 127.396  1.00  0.00     0.000 C 
BRANCH   9  10
ATOM     10  C   UNL     1     130.498 146.735 127.618  1.00  0.00     0.000 C 
BRANCH  10  11
ATOM     11  C   UNL     1     132.034 146.627 127.511  1.00  0.00     0.000 C 
BRANCH  11  12
ATOM     12  C   UNL     1     132.652 145.930 128.735  1.00  0.00     0.006 C 
BRANCH  12  13
ATOM     13  C   UNL     1     134.169 145.743 128.598  1.00  0.00     0.053 C 
BRANCH  13  14
ATOM     14  C   UNL     1     134.821 145.477 129.922  1.00  0.00     0.041 C 
ATOM     15  O   UNL     1     134.791 144.320 130.419  1.00  0.00    -0.550 OA
ATOM     16  O   UNL     1     135.489 146.498 130.588  1.00  0.00    -0.550 OA
ENDBRANCH  13  14
ENDBRANCH  12  13
ENDBRANCH  11  12
ENDBRANCH  10  11
ENDBRANCH   9  10
ENDBRANCH   8   9
ENDBRANCH   7   8
ENDBRANCH   6   7
ENDBRANCH   5   6
ENDBRANCH   4   5
ENDBRANCH   3   4
ENDBRANCH   2   3
ENDBRANCH   1   2
BRANCH   1  17
ATOM     17  C   UNL     1     133.124 146.418 122.360  1.00  0.00     0.000 C 
BRANCH  17  18
ATOM     18  C   UNL     1     132.679 146.103 120.925  1.00  0.00     0.000 C 
BRANCH  18  19
ATOM     19  C   UNL     1     132.248 144.639 120.746  1.00  0.00     0.000 C 
BRANCH  19  20
ATOM     20  C   UNL     1     130.896 144.504 120.024  1.00  0.00     0.000 C 
BRANCH  20  21
ATOM     21  C   UNL     1     130.230 145.862 119.747  1.00  0.00     0.000 C 
BRANCH  21  22
ATOM     22  C   UNL     1     128.799 145.718 119.199  1.00  0.00    -0.000 C 
BRANCH  22  23
ATOM     23  C   UNL     1     127.728 146.108 120.231  1.00  0.00    -0.000 C 
BRANCH  23  24
ATOM     24  C   UNL     1     127.162 144.890 120.983  1.00  0.00    -0.000 C 
BRANCH  24  25
ATOM     25  C   UNL     1     127.254 143.590 120.168  1.00  0.00    -0.000 C 
BRANCH  25  26
ATOM     26  C   UNL     1     127.754 142.401 121.005  1.00  0.00    -0.000 C 
BRANCH  26  27
ATOM     27  C   UNL     1     128.220 142.817 122.414  1.00  0.00    -0.000 C 
BRANCH  27  28
ATOM     28  C   UNL     1     129.633 142.339 122.798  1.00  0.00    -0.000 C 
BRANCH  28  29
ATOM     29  C   UNL     1     129.740 141.900 124.267  1.00  0.00    -0.003 C 
ATOM     30  C   UNL     1     130.903 142.600 124.966  1.00  0.00     0.004 C 
ENDBRANCH  28  29
ENDBRANCH  27  28
ENDBRANCH  26  27
ENDBRANCH  25  26
ENDBRANCH  24  25
ENDBRANCH  23  24
ENDBRANCH  22  23
ENDBRANCH  21  22
ENDBRANCH  20  21
ENDBRANCH  19  20
ENDBRANCH  18  19
ENDBRANCH  17  18
ENDBRANCH   1  17
TORSDOF 26
ENDMDL
MODEL 5
REMARK VINA RESULT:    -3.529      2.513      6.033
REMARK INTER + INTRA:         -14.051
REMARK INTER:                  -8.481
REMARK INTRA:                  -5.570
REMARK UNBOUND:                -5.159
REMARK SMILES CCCCCCCCCCCCCCCCCCCCCCCCCCCC(=O)[O-]
REMARK SMILES IDX 15 1 16 2 17 3 18 4 19 5 20 6 21 7 22 8 23 9 24 10 25 11
REMARK SMILES IDX 26 12 27 13 28 14 29 15 30 16 14 17 13 18 12 19 11 20 10 21
REMARK SMILES IDX 9 22 8 23 7 24 6 25 5 26 4 27 3 28 2 29 1 30
REMARK H PARENT
REMARK Flexibility Score: inf
ROOT
ATOM      1  C   UNL     1     135.523 144.282 118.739  1.00  0.00     0.000 C 
ENDROOT
BRANCH   1   2
ATOM      2  C   UNL     1     134.758 145.607 118.604  1.00  0.00     0.000 C 
BRANCH   2   3
ATOM      3  C   UNL     1     135.237 146.675 119.599  1.00  0.00     0.000 C 
BRANCH   3   4
ATOM      4  C   UNL     1     134.790 146.382 121.043  1.00  0.00     0.000 C 
BRANCH   4   5
ATOM      5  C   UNL     1     135.965 145.977 121.958  1.00  0.00     0.000 C 
BRANCH   5   6
ATOM      6  C   UNL     1     135.700 144.707 122.789  1.00  0.00     0.000 C 
BRANCH   6   7
ATOM      7  C   UNL     1     134.920 144.932 124.094  1.00  0.00     0.000 C 
BRANCH   7   8
ATOM      8  C   UNL     1     133.865 143.843 124.348  1.00  0.00     0.000 C 
BRANCH   8   9
ATOM      9  C   UNL     1     132.463 144.416 124.611  1.00  0.00     0.000 C 
BRANCH   9  10
ATOM     10  C   UNL     1     132.195 145.797 123.981  1.00  0.00     0.000 C 
BRANCH  10  11
ATOM     11  C   UNL     1     130.716 146.231 124.039  1.00  0.00     0.000 C 
BRANCH  11  12
ATOM     12  C   UNL     1     129.765 145.116 123.570  1.00  0.00     0.006 C 
BRANCH  12  13
ATOM     13  C   UNL     1     128.454 145.091 124.367  1.00  0.00     0.053 C 
BRANCH  13  14
ATOM     14  C   UNL     1     128.323 143.844 125.189  1.00  0.00     0.041 C 
ATOM     15  O   UNL     1     127.328 143.087 125.034  1.00  0.00    -0.550 OA
ATOM     16  O   UNL     1     129.316 143.501 126.099  1.00  0.00    -0.550 OA
ENDBRANCH  13  14
ENDBRANCH  12  13
ENDBRANCH  11  12
ENDBRANCH  10  11
ENDBRANCH   9  10
ENDBRANCH   8   9
ENDBRANCH   7   8
ENDBRANCH   6   7
ENDBRANCH   5   6
ENDBRANCH   4   5
ENDBRANCH   3   4
ENDBRANCH   2   3
ENDBRANCH   1   2
BRANCH   1  17
ATOM     17  C   UNL     1     134.736 143.133 118.096  1.00  0.00     0.000 C 
BRANCH  17  18
ATOM     18  C   UNL     1     133.343 142.991 118.727  1.00  0.00     0.000 C 
BRANCH  18  19
ATOM     19  C   UNL     1     133.401 142.646 120.222  1.00  0.00     0.000 C 
BRANCH  19  20
ATOM     20  C   UNL     1     132.406 143.469 121.060  1.00  0.00     0.000 C 
BRANCH  20  21
ATOM     21  C   UNL     1     131.350 144.181 120.200  1.00  0.00     0.000 C 
BRANCH  21  22
ATOM     22  C   UNL     1     131.398 145.712 120.350  1.00  0.00    -0.000 C 
BRANCH  22  23
ATOM     23  C   UNL     1     130.254 146.416 119.603  1.00  0.00    -0.000 C 
BRANCH  23  24
ATOM     24  C   UNL     1     128.868 145.880 120.005  1.00  0.00    -0.000 C 
BRANCH  24  25
ATOM     25  C   UNL     1     128.207 145.045 118.897  1.00  0.00    -0.000 C 
BRANCH  25  26
ATOM     26  C   UNL     1     127.432 143.838 119.449  1.00  0.00    -0.000 C 
BRANCH  26  27
ATOM     27  C   UNL     1     127.501 143.735 120.985  1.00  0.00    -0.000 C 
BRANCH  27  28
ATOM     28  C   UNL     1     128.242 142.496 121.521  1.00  0.00    -0.000 C 
BRANCH  28  29
ATOM     29  C   UNL     1     128.350 141.365 120.485  1.00  0.00    -0.003 C 
ATOM     30  C   UNL     1     129.795 140.896 120.334  1.00  0.00     0.004 C 
ENDBRANCH  28  29
ENDBRANCH  27  28
ENDBRANCH  26  27
ENDBRANCH  25  26
ENDBRANCH  24  25
ENDBRANCH  23  24
ENDBRANCH  22  23
ENDBRANCH  21  22
ENDBRANCH  20  21
ENDBRANCH  19  20
ENDBRANCH  18  19
ENDBRANCH  17  18
ENDBRANCH   1  17
TORSDOF 26
ENDMDL
MODEL 6
REMARK VINA RESULT:    -3.477      2.453      6.159
REMARK INTER + INTRA:         -13.920
REMARK INTER:                  -7.896
REMARK INTRA:                  -6.024
REMARK UNBOUND:                -5.159
REMARK SMILES CCCCCCCCCCCCCCCCCCCCCCCCCCCC(=O)[O-]
REMARK SMILES IDX 15 1 16 2 17 3 18 4 19 5 20 6 21 7 22 8 23 9 24 10 25 11
REMARK SMILES IDX 26 12 27 13 28 14 29 15 30 16 14 17 13 18 12 19 11 20 10 21
REMARK SMILES IDX 9 22 8 23 7 24 6 25 5 26 4 27 3 28 2 29 1 30
REMARK H PARENT
REMARK Flexibility Score: inf
ROOT
ATOM      1  C   UNL     1     129.414 142.635 121.658  1.00  0.00     0.000 C 
ENDROOT
BRANCH   1   2
ATOM      2  C   UNL     1     128.811 142.199 120.315  1.00  0.00     0.000 C 
BRANCH   2   3
ATOM      3  C   UNL     1     127.471 142.887 120.012  1.00  0.00     0.000 C 
BRANCH   3   4
ATOM      4  C   UNL     1     127.626 144.097 119.072  1.00  0.00     0.000 C 
BRANCH   4   5
ATOM      5  C   UNL     1     127.252 145.430 119.754  1.00  0.00     0.000 C 
BRANCH   5   6
ATOM      6  C   UNL     1     128.464 146.319 120.094  1.00  0.00     0.000 C 
BRANCH   6   7
ATOM      7  C   UNL     1     129.824 145.771 119.634  1.00  0.00     0.000 C 
BRANCH   7   8
ATOM      8  C   UNL     1     130.941 146.825 119.702  1.00  0.00     0.000 C 
BRANCH   8   9
ATOM      9  C   UNL     1     132.300 146.234 120.113  1.00  0.00     0.000 C 
BRANCH   9  10
ATOM     10  C   UNL     1     132.302 144.711 120.349  1.00  0.00     0.000 C 
BRANCH  10  11
ATOM     11  C   UNL     1     133.248 143.937 119.407  1.00  0.00     0.000 C 
BRANCH  11  12
ATOM     12  C   UNL     1     134.389 144.821 118.876  1.00  0.00     0.006 C 
BRANCH  12  13
ATOM     13  C   UNL     1     135.768 144.345 119.352  1.00  0.00     0.053 C 
BRANCH  13  14
ATOM     14  C   UNL     1     136.340 145.251 120.401  1.00  0.00     0.041 C 
ATOM     15  O   UNL     1     136.238 144.948 121.620  1.00  0.00    -0.550 OA
ATOM     16  O   UNL     1     137.013 146.410 120.032  1.00  0.00    -0.550 OA
ENDBRANCH  13  14
ENDBRANCH  12  13
ENDBRANCH  11  12
ENDBRANCH  10  11
ENDBRANCH   9  10
ENDBRANCH   8   9
ENDBRANCH   7   8
ENDBRANCH   6   7
ENDBRANCH   5   6
ENDBRANCH   4   5
ENDBRANCH   3   4
ENDBRANCH   2   3
ENDBRANCH   1   2
BRANCH   1  17
ATOM     17  C   UNL     1     128.308 142.919 122.683  1.00  0.00     0.000 C 
BRANCH  17  18
ATOM     18  C   UNL     1     128.477 144.309 123.313  1.00  0.00     0.000 C 
BRANCH  18  19
ATOM     19  C   UNL     1     129.904 144.857 123.168  1.00  0.00     0.000 C 
BRANCH  19  20
ATOM     20  C   UNL     1     129.990 146.368 123.444  1.00  0.00     0.000 C 
BRANCH  20  21
ATOM     21  C   UNL     1     129.613 146.732 124.889  1.00  0.00     0.000 C 
BRANCH  21  22
ATOM     22  C   UNL     1     130.797 146.596 125.863  1.00  0.00    -0.000 C 
BRANCH  22  23
ATOM     23  C   UNL     1     132.130 147.039 125.238  1.00  0.00    -0.000 C 
BRANCH  23  24
ATOM     24  C   UNL     1     133.186 145.919 125.244  1.00  0.00    -0.000 C 
BRANCH  24  25
ATOM     25  C   UNL     1     133.568 145.451 123.831  1.00  0.00    -0.000 C 
BRANCH  25  26
ATOM     26  C   UNL     1     133.521 143.922 123.681  1.00  0.00    -0.000 C 
BRANCH  26  27
ATOM     27  C   UNL     1     132.796 143.229 124.850  1.00  0.00    -0.000 C 
BRANCH  27  28
ATOM     28  C   UNL     1     131.923 142.025 124.452  1.00  0.00    -0.000 C 
BRANCH  28  29
ATOM     29  C   UNL     1     130.667 141.877 125.325  1.00  0.00    -0.003 C 
ATOM     30  C   UNL     1     130.587 142.992 126.365  1.00  0.00     0.004 C 
ENDBRANCH  28  29
ENDBRANCH  27  28
ENDBRANCH  26  27
ENDBRANCH  25  26
ENDBRANCH  24  25
ENDBRANCH  23  24
ENDBRANCH  22  23
ENDBRANCH  21  22
ENDBRANCH  20  21
ENDBRANCH  19  20
ENDBRANCH  18  19
ENDBRANCH  17  18
ENDBRANCH   1  17
TORSDOF 26
ENDMDL
MODEL 7
REMARK VINA RESULT:    -3.467      2.003      4.721
REMARK INTER + INTRA:         -13.897
REMARK INTER:                  -8.209
REMARK INTRA:                  -5.688
REMARK UNBOUND:                -5.159
REMARK SMILES CCCCCCCCCCCCCCCCCCCCCCCCCCCC(=O)[O-]
REMARK SMILES IDX 15 1 16 2 17 3 18 4 19 5 20 6 21 7 22 8 23 9 24 10 25 11
REMARK SMILES IDX 26 12 27 13 28 14 29 15 30 16 14 17 13 18 12 19 11 20 10 21
REMARK SMILES IDX 9 22 8 23 7 24 6 25 5 26 4 27 3 28 2 29 1 30
REMARK H PARENT
REMARK Flexibility Score: inf
ROOT
ATOM      1  C   UNL     1     130.398 141.801 121.816  1.00  0.00     0.000 C 
ENDROOT
BRANCH   1   2
ATOM      2  C   UNL     1     129.411 141.304 120.750  1.00  0.00     0.000 C 
BRANCH   2   3
ATOM      3  C   UNL     1     127.950 141.631 121.094  1.00  0.00     0.000 C 
BRANCH   3   4
ATOM      4  C   UNL     1     127.647 143.139 121.016  1.00  0.00     0.000 C 
BRANCH   4   5
ATOM      5  C   UNL     1     127.320 143.607 119.583  1.00  0.00     0.000 C 
BRANCH   5   6
ATOM      6  C   UNL     1     128.437 144.443 118.929  1.00  0.00     0.000 C 
BRANCH   6   7
ATOM      7  C   UNL     1     128.667 145.828 119.555  1.00  0.00     0.000 C 
BRANCH   7   8
ATOM      8  C   UNL     1     130.104 146.015 120.067  1.00  0.00     0.000 C 
BRANCH   8   9
ATOM      9  C   UNL     1     130.179 146.187 121.593  1.00  0.00     0.000 C 
BRANCH   9  10
ATOM     10  C   UNL     1     128.817 146.334 122.299  1.00  0.00     0.000 C 
BRANCH  10  11
ATOM     11  C   UNL     1     128.721 145.565 123.633  1.00  0.00     0.000 C 
BRANCH  11  12
ATOM     12  C   UNL     1     130.028 144.829 123.974  1.00  0.00     0.006 C 
BRANCH  12  13
ATOM     13  C   UNL     1     130.708 145.394 125.228  1.00  0.00     0.053 C 
BRANCH  13  14
ATOM     14  C   UNL     1     130.079 144.876 126.486  1.00  0.00     0.041 C 
ATOM     15  O   UNL     1     130.062 145.590 127.524  1.00  0.00    -0.550 OA
ATOM     16  O   UNL     1     129.482 143.620 126.502  1.00  0.00    -0.550 OA
ENDBRANCH  13  14
ENDBRANCH  12  13
ENDBRANCH  11  12
ENDBRANCH  10  11
ENDBRANCH   9  10
ENDBRANCH   8   9
ENDBRANCH   7   8
ENDBRANCH   6   7
ENDBRANCH   5   6
ENDBRANCH   4   5
ENDBRANCH   3   4
ENDBRANCH   2   3
ENDBRANCH   1   2
BRANCH   1  17
ATOM     17  C   UNL     1     131.413 142.775 121.204  1.00  0.00     0.000 C 
BRANCH  17  18
ATOM     18  C   UNL     1     131.508 142.596 119.682  1.00  0.00     0.000 C 
BRANCH  18  19
ATOM     19  C   UNL     1     132.703 143.344 119.071  1.00  0.00     0.000 C 
BRANCH  19  20
ATOM     20  C   UNL     1     134.057 142.795 119.555  1.00  0.00     0.000 C 
BRANCH  20  21
ATOM     21  C   UNL     1     135.251 143.608 119.029  1.00  0.00     0.000 C 
BRANCH  21  22
ATOM     22  C   UNL     1     134.819 144.779 118.129  1.00  0.00    -0.000 C 
BRANCH  22  23
ATOM     23  C   UNL     1     135.036 146.147 118.794  1.00  0.00    -0.000 C 
BRANCH  23  24
ATOM     24  C   UNL     1     136.068 146.092 119.936  1.00  0.00    -0.000 C 
BRANCH  24  25
ATOM     25  C   UNL     1     135.497 146.569 121.281  1.00  0.00    -0.000 C 
BRANCH  25  26
ATOM     26  C   UNL     1     133.972 146.395 121.371  1.00  0.00    -0.000 C 
BRANCH  26  27
ATOM     27  C   UNL     1     133.534 145.605 122.620  1.00  0.00    -0.000 C 
BRANCH  27  28
ATOM     28  C   UNL     1     134.324 144.309 122.879  1.00  0.00    -0.000 C 
BRANCH  28  29
ATOM     29  C   UNL     1     134.267 143.854 124.346  1.00  0.00    -0.003 C 
ATOM     30  C   UNL     1     134.441 145.036 125.295  1.00  0.00     0.004 C 
ENDBRANCH  28  29
ENDBRANCH  27  28
ENDBRANCH  26  27
ENDBRANCH  25  26
ENDBRANCH  24  25
ENDBRANCH  23  24
ENDBRANCH  22  23
ENDBRANCH  21  22
ENDBRANCH  20  21
ENDBRANCH  19  20
ENDBRANCH  18  19
ENDBRANCH  17  18
ENDBRANCH   1  17
TORSDOF 26
ENDMDL
MODEL 8
REMARK VINA RESULT:    -3.458      2.538      6.205
REMARK INTER + INTRA:         -13.874
REMARK INTER:                  -8.359
REMARK INTRA:                  -5.514
REMARK UNBOUND:                -5.159
REMARK SMILES CCCCCCCCCCCCCCCCCCCCCCCCCCCC(=O)[O-]
REMARK SMILES IDX 15 1 16 2 17 3 18 4 19 5 20 6 21 7 22 8 23 9 24 10 25 11
REMARK SMILES IDX 26 12 27 13 28 14 29 15 30 16 14 17 13 18 12 19 11 20 10 21
REMARK SMILES IDX 9 22 8 23 7 24 6 25 5 26 4 27 3 28 2 29 1 30
REMARK H PARENT
REMARK Flexibility Score: inf
ROOT
ATOM      1  C   UNL     1     132.370 142.580 121.952  1.00  0.00     0.000 C 
ENDROOT
BRANCH   1   2
ATOM      2  C   UNL     1     132.351 142.841 120.439  1.00  0.00     0.000 C 
BRANCH   2   3
ATOM      3  C   UNL     1     131.102 142.269 119.751  1.00  0.00     0.000 C 
BRANCH   3   4
ATOM      4  C   UNL     1     130.054 141.758 120.757  1.00  0.00     0.000 C 
BRANCH   4   5
ATOM      5  C   UNL     1     128.661 142.381 120.533  1.00  0.00     0.000 C 
BRANCH   5   6
ATOM      6  C   UNL     1     128.635 143.477 119.450  1.00  0.00     0.000 C 
BRANCH   6   7
ATOM      7  C   UNL     1     127.797 144.718 119.797  1.00  0.00     0.000 C 
BRANCH   7   8
ATOM      8  C   UNL     1     128.636 146.006 119.836  1.00  0.00     0.000 C 
BRANCH   8   9
ATOM      9  C   UNL     1     130.143 145.745 119.676  1.00  0.00     0.000 C 
BRANCH   9  10
ATOM     10  C   UNL     1     131.037 146.992 119.808  1.00  0.00     0.000 C 
BRANCH  10  11
ATOM     11  C   UNL     1     132.401 146.713 120.475  1.00  0.00     0.000 C 
BRANCH  11  12
ATOM     12  C   UNL     1     133.474 146.305 119.450  1.00  0.00     0.006 C 
BRANCH  12  13
ATOM     13  C   UNL     1     134.882 146.272 120.059  1.00  0.00     0.053 C 
BRANCH  13  14
ATOM     14  C   UNL     1     135.451 144.885 120.074  1.00  0.00     0.041 C 
ATOM     15  O   UNL     1     135.701 144.293 118.991  1.00  0.00    -0.550 OA
ATOM     16  O   UNL     1     135.737 144.261 121.283  1.00  0.00    -0.550 OA
ENDBRANCH  13  14
ENDBRANCH  12  13
ENDBRANCH  11  12
ENDBRANCH  10  11
ENDBRANCH   9  10
ENDBRANCH   8   9
ENDBRANCH   7   8
ENDBRANCH   6   7
ENDBRANCH   5   6
ENDBRANCH   4   5
ENDBRANCH   3   4
ENDBRANCH   2   3
ENDBRANCH   1   2
BRANCH   1  17
ATOM     17  C   UNL     1     132.492 143.897 122.729  1.00  0.00     0.000 C 
BRANCH  17  18
ATOM     18  C   UNL     1     131.334 144.066 123.722  1.00  0.00     0.000 C 
BRANCH  18  19
ATOM     19  C   UNL     1     130.093 144.707 123.083  1.00  0.00     0.000 C 
BRANCH  19  20
ATOM     20  C   UNL     1     130.010 146.222 123.338  1.00  0.00     0.000 C 
BRANCH  20  21
ATOM     21  C   UNL     1     128.567 146.714 123.535  1.00  0.00     0.000 C 
BRANCH  21  22
ATOM     22  C   UNL     1     127.591 145.570 123.862  1.00  0.00    -0.000 C 
BRANCH  22  23
ATOM     23  C   UNL     1     127.007 145.678 125.280  1.00  0.00    -0.000 C 
BRANCH  23  24
ATOM     24  C   UNL     1     127.392 144.481 126.169  1.00  0.00    -0.000 C 
BRANCH  24  25
ATOM     25  C   UNL     1     128.890 144.448 126.509  1.00  0.00    -0.000 C 
BRANCH  25  26
ATOM     26  C   UNL     1     129.332 145.655 127.353  1.00  0.00    -0.000 C 
BRANCH  26  27
ATOM     27  C   UNL     1     130.578 146.359 126.781  1.00  0.00    -0.000 C 
BRANCH  27  28
ATOM     28  C   UNL     1     131.624 146.781 127.830  1.00  0.00    -0.000 C 
BRANCH  28  29
ATOM     29  C   UNL     1     133.049 146.863 127.259  1.00  0.00    -0.003 C 
ATOM     30  C   UNL     1     133.408 145.591 126.496  1.00  0.00     0.004 C 
ENDBRANCH  28  29
ENDBRANCH  27  28
ENDBRANCH  26  27
ENDBRANCH  25  26
ENDBRANCH  24  25
ENDBRANCH  23  24
ENDBRANCH  22  23
ENDBRANCH  21  22
ENDBRANCH  20  21
ENDBRANCH  19  20
ENDBRANCH  18  19
ENDBRANCH  17  18
ENDBRANCH   1  17
TORSDOF 26
ENDMDL
