MODEL 1
REMARK VINA RESULT:    -6.133      0.000      0.000
REMARK INTER + INTRA:          -7.908
REMARK INTER:                  -7.568
REMARK INTRA:                  -0.340
REMARK UNBOUND:                -0.340
REMARK SMILES O=C1c2c(O)cc(O)cc2O[C@@H](c2cc(O)c(O)c(O)c2)[C@@H]1O
REMARK SMILES IDX 12 1 22 2 2 3 1 4 3 5 4 6 6 7 7 8 9 9 10 10 11 11 13 12
REMARK SMILES IDX 14 13 15 14 21 15 17 16 19 17 16 18 18 20 20 22 23 24 5 26
REMARK SMILES IDX 8 28
REMARK H PARENT 16 19 18 21 20 23 23 25 5 27 8 29
REMARK Flexibility Score: inf
ROOT
ATOM      1  C   UNL     1     -10.680  -7.955  -6.249  1.00  0.00     0.240 C 
ATOM      2  C   UNL     1      -9.399  -8.361  -5.502  1.00  0.00     0.231 C 
ATOM      3  C   UNL     1      -9.286  -9.866  -5.424  1.00  0.00     0.202 C 
ATOM      4  O   UNL     1      -8.152 -10.367  -5.203  1.00  0.00    -0.291 OA
ATOM      5  C   UNL     1     -10.513 -10.715  -5.440  1.00  0.00     0.105 A 
ATOM      6  C   UNL     1     -10.509 -12.132  -5.310  1.00  0.00     0.133 A 
ATOM      7  C   UNL     1     -11.720 -12.812  -5.135  1.00  0.00     0.093 A 
ATOM      8  C   UNL     1     -12.936 -12.127  -5.140  1.00  0.00     0.123 A 
ATOM      9  C   UNL     1     -12.951 -10.744  -5.333  1.00  0.00     0.093 A 
ATOM     10  C   UNL     1     -11.754 -10.044  -5.502  1.00  0.00     0.138 A 
ATOM     11  O   UNL     1     -11.802  -8.666  -5.727  1.00  0.00    -0.481 OA
ENDROOT
BRANCH   1  12
ATOM     12  C   UNL     1     -10.923  -6.467  -6.145  1.00  0.00     0.003 A 
ATOM     13  C   UNL     1     -10.730  -5.796  -4.926  1.00  0.00     0.058 A 
ATOM     14  C   UNL     1     -10.927  -4.412  -4.837  1.00  0.00     0.161 A 
ATOM     15  C   UNL     1     -11.296  -5.730  -7.280  1.00  0.00     0.058 A 
ATOM     16  C   UNL     1     -11.312  -3.684  -5.971  1.00  0.00     0.200 A 
ATOM     17  C   UNL     1     -11.494  -4.345  -7.197  1.00  0.00     0.161 A 
BRANCH  14  18
ATOM     18  O   UNL     1     -10.740  -3.751  -3.624  1.00  0.00    -0.504 OA
ATOM     19  H   UNL     1      -9.863  -3.298  -3.396  1.00  0.00     0.293 HD
ENDBRANCH  14  18
BRANCH  16  20
ATOM     20  O   UNL     1     -11.505  -2.307  -5.863  1.00  0.00    -0.502 OA
ATOM     21  H   UNL     1     -12.043  -1.896  -5.109  1.00  0.00     0.293 HD
ENDBRANCH  16  20
BRANCH  17  22
ATOM     22  O   UNL     1     -11.871  -3.624  -8.330  1.00  0.00    -0.504 OA
ATOM     23  H   UNL     1     -11.404  -3.750  -9.220  1.00  0.00     0.293 HD
ENDBRANCH  17  22
ENDBRANCH   1  12
BRANCH   2  24
ATOM     24  O   UNL     1      -8.285  -7.826  -6.171  1.00  0.00    -0.381 OA
ATOM     25  H   UNL     1      -7.477  -8.165  -5.703  1.00  0.00     0.211 HD
ENDBRANCH   2  24
BRANCH   6  26
ATOM     26  O   UNL     1      -9.348 -12.905  -5.371  1.00  0.00    -0.507 OA
ATOM     27  H   UNL     1      -9.011 -13.358  -6.208  1.00  0.00     0.293 HD
ENDBRANCH   6  26
BRANCH   8  28
ATOM     28  O   UNL     1     -14.124 -12.833  -4.964  1.00  0.00    -0.508 OA
ATOM     29  H   UNL     1     -14.407 -13.564  -5.605  1.00  0.00     0.293 HD
ENDBRANCH   8  28
TORSDOF 7
ENDMDL
MODEL 2
REMARK VINA RESULT:    -5.849      1.771      3.831
REMARK INTER + INTRA:          -7.557
REMARK INTER:                  -7.230
REMARK INTRA:                  -0.327
REMARK UNBOUND:                -0.340
REMARK SMILES O=C1c2c(O)cc(O)cc2O[C@@H](c2cc(O)c(O)c(O)c2)[C@@H]1O
REMARK SMILES IDX 12 1 22 2 2 3 1 4 3 5 4 6 6 7 7 8 9 9 10 10 11 11 13 12
REMARK SMILES IDX 14 13 15 14 21 15 17 16 19 17 16 18 18 20 20 22 23 24 5 26
REMARK SMILES IDX 8 28
REMARK H PARENT 16 19 18 21 20 23 23 25 5 27 8 29
REMARK Flexibility Score: inf
ROOT
ATOM      1  C   UNL     1     -10.255  -7.365  -5.884  1.00  0.00     0.240 C 
ATOM      2  C   UNL     1     -11.315  -8.450  -6.133  1.00  0.00     0.231 C 
ATOM      3  C   UNL     1     -10.897  -9.756  -5.497  1.00  0.00     0.202 C 
ATOM      4  O   UNL     1     -11.786 -10.618  -5.268  1.00  0.00    -0.291 OA
ATOM      5  C   UNL     1      -9.451 -10.070  -5.305  1.00  0.00     0.105 A 
ATOM      6  C   UNL     1      -8.961 -11.295  -4.772  1.00  0.00     0.133 A 
ATOM      7  C   UNL     1      -7.589 -11.570  -4.822  1.00  0.00     0.093 A 
ATOM      8  C   UNL     1      -6.689 -10.638  -5.337  1.00  0.00     0.123 A 
ATOM      9  C   UNL     1      -7.156  -9.406  -5.801  1.00  0.00     0.093 A 
ATOM     10  C   UNL     1      -8.521  -9.113  -5.768  1.00  0.00     0.138 A 
ATOM     11  O   UNL     1      -8.957  -7.861  -6.207  1.00  0.00    -0.481 OA
ENDROOT
BRANCH   1  12
ATOM     12  C   UNL     1     -10.546  -6.123  -6.694  1.00  0.00     0.003 A 
ATOM     13  C   UNL     1     -10.276  -6.091  -8.072  1.00  0.00     0.058 A 
ATOM     14  C   UNL     1     -10.574  -4.949  -8.829  1.00  0.00     0.161 A 
ATOM     15  C   UNL     1     -11.137  -5.005  -6.085  1.00  0.00     0.058 A 
ATOM     16  C   UNL     1     -11.152  -3.831  -8.213  1.00  0.00     0.200 A 
ATOM     17  C   UNL     1     -11.437  -3.860  -6.837  1.00  0.00     0.161 A 
BRANCH  14  18
ATOM     18  O   UNL     1     -10.299  -4.919 -10.195  1.00  0.00    -0.504 OA
ATOM     19  H   UNL     1     -10.849  -5.452 -10.858  1.00  0.00     0.293 HD
ENDBRANCH  14  18
BRANCH  16  20
ATOM     20  O   UNL     1     -11.439  -2.704  -8.982  1.00  0.00    -0.502 OA
ATOM     21  H   UNL     1     -11.108  -2.602  -9.934  1.00  0.00     0.293 HD
ENDBRANCH  16  20
BRANCH  17  22
ATOM     22  O   UNL     1     -12.018  -2.752  -6.222  1.00  0.00    -0.504 OA
ATOM     23  H   UNL     1     -11.918  -2.583  -5.227  1.00  0.00     0.293 HD
ENDBRANCH  17  22
ENDBRANCH   1  12
BRANCH   2  24
ATOM     24  O   UNL     1     -12.545  -8.025  -5.602  1.00  0.00    -0.381 OA
ATOM     25  H   UNL     1     -12.572  -8.329  -4.657  1.00  0.00     0.211 HD
ENDBRANCH   2  24
BRANCH   6  26
ATOM     26  O   UNL     1      -9.780 -12.252  -4.169  1.00  0.00    -0.507 OA
ATOM     27  H   UNL     1     -10.363 -12.074  -3.365  1.00  0.00     0.293 HD
ENDBRANCH   6  26
BRANCH   8  28
ATOM     28  O   UNL     1      -5.329 -10.940  -5.372  1.00  0.00    -0.508 OA
ATOM     29  H   UNL     1      -4.946 -11.724  -4.858  1.00  0.00     0.293 HD
ENDBRANCH   8  28
TORSDOF 7
ENDMDL
MODEL 3
REMARK VINA RESULT:    -5.845      1.742      3.514
REMARK INTER + INTRA:          -7.551
REMARK INTER:                  -7.215
REMARK INTRA:                  -0.337
REMARK UNBOUND:                -0.340
REMARK SMILES O=C1c2c(O)cc(O)cc2O[C@@H](c2cc(O)c(O)c(O)c2)[C@@H]1O
REMARK SMILES IDX 12 1 22 2 2 3 1 4 3 5 4 6 6 7 7 8 9 9 10 10 11 11 13 12
REMARK SMILES IDX 14 13 15 14 21 15 17 16 19 17 16 18 18 20 20 22 23 24 5 26
REMARK SMILES IDX 8 28
REMARK H PARENT 16 19 18 21 20 23 23 25 5 27 8 29
REMARK Flexibility Score: inf
ROOT
ATOM      1  C   UNL     1     -10.299  -7.403  -5.833  1.00  0.00     0.240 C 
ATOM      2  C   UNL     1     -11.346  -8.498  -6.103  1.00  0.00     0.231 C 
ATOM      3  C   UNL     1     -10.915  -9.807  -5.484  1.00  0.00     0.202 C 
ATOM      4  O   UNL     1     -11.795 -10.683  -5.272  1.00  0.00    -0.291 OA
ATOM      5  C   UNL     1      -9.467 -10.108  -5.290  1.00  0.00     0.105 A 
ATOM      6  C   UNL     1      -8.965 -11.335  -4.773  1.00  0.00     0.133 A 
ATOM      7  C   UNL     1      -7.589 -11.592  -4.820  1.00  0.00     0.093 A 
ATOM      8  C   UNL     1      -6.697 -10.642  -5.317  1.00  0.00     0.123 A 
ATOM      9  C   UNL     1      -7.177  -9.409  -5.765  1.00  0.00     0.093 A 
ATOM     10  C   UNL     1      -8.546  -9.133  -5.734  1.00  0.00     0.138 A 
ATOM     11  O   UNL     1      -8.994  -7.880  -6.157  1.00  0.00    -0.481 OA
ENDROOT
BRANCH   1  12
ATOM     12  C   UNL     1     -10.601  -6.153  -6.626  1.00  0.00     0.003 A 
ATOM     13  C   UNL     1     -11.187  -5.038  -6.005  1.00  0.00     0.058 A 
ATOM     14  C   UNL     1     -11.439  -3.869  -6.736  1.00  0.00     0.161 A 
ATOM     15  C   UNL     1     -10.251  -6.077  -7.984  1.00  0.00     0.058 A 
ATOM     16  C   UNL     1     -11.100  -3.803  -8.093  1.00  0.00     0.200 A 
ATOM     17  C   UNL     1     -10.501  -4.910  -8.719  1.00  0.00     0.161 A 
BRANCH  14  18
ATOM     18  O   UNL     1     -12.027  -2.766  -6.117  1.00  0.00    -0.504 OA
ATOM     19  H   UNL     1     -11.470  -1.996  -5.766  1.00  0.00     0.293 HD
ENDBRANCH  14  18
BRANCH  16  20
ATOM     20  O   UNL     1     -11.360  -2.632  -8.804  1.00  0.00    -0.502 OA
ATOM     21  H   UNL     1     -11.564  -1.754  -8.340  1.00  0.00     0.293 HD
ENDBRANCH  16  20
BRANCH  17  22
ATOM     22  O   UNL     1     -10.155  -4.846 -10.068  1.00  0.00    -0.504 OA
ATOM     23  H   UNL     1      -9.885  -5.673 -10.587  1.00  0.00     0.293 HD
ENDBRANCH  17  22
ENDBRANCH   1  12
BRANCH   2  24
ATOM     24  O   UNL     1     -12.583  -8.095  -5.571  1.00  0.00    -0.381 OA
ATOM     25  H   UNL     1     -13.040  -7.562  -6.274  1.00  0.00     0.211 HD
ENDBRANCH   2  24
BRANCH   6  26
ATOM     26  O   UNL     1      -9.775 -12.309  -4.187  1.00  0.00    -0.507 OA
ATOM     27  H   UNL     1      -9.697 -12.609  -3.227  1.00  0.00     0.293 HD
ENDBRANCH   6  26
BRANCH   8  28
ATOM     28  O   UNL     1      -5.334 -10.928  -5.350  1.00  0.00    -0.508 OA
ATOM     29  H   UNL     1      -4.645 -10.267  -5.012  1.00  0.00     0.293 HD
ENDBRANCH   8  28
TORSDOF 7
ENDMDL
MODEL 4
REMARK VINA RESULT:    -5.658      1.491      2.965
REMARK INTER + INTRA:          -7.322
REMARK INTER:                  -7.313
REMARK INTRA:                  -0.009
REMARK UNBOUND:                -0.340
REMARK SMILES O=C1c2c(O)cc(O)cc2O[C@@H](c2cc(O)c(O)c(O)c2)[C@@H]1O
REMARK SMILES IDX 12 1 22 2 2 3 1 4 3 5 4 6 6 7 7 8 9 9 10 10 11 11 13 12
REMARK SMILES IDX 14 13 15 14 21 15 17 16 19 17 16 18 18 20 20 22 23 24 5 26
REMARK SMILES IDX 8 28
REMARK H PARENT 16 19 18 21 20 23 23 25 5 27 8 29
REMARK Flexibility Score: inf
ROOT
ATOM      1  C   UNL     1     -11.434  -7.764  -5.507  1.00  0.00     0.240 C 
ATOM      2  C   UNL     1     -12.915  -8.134  -5.319  1.00  0.00     0.231 C 
ATOM      3  C   UNL     1     -13.044  -9.518  -4.726  1.00  0.00     0.202 C 
ATOM      4  O   UNL     1     -14.125  -9.824  -4.157  1.00  0.00    -0.291 OA
ATOM      5  C   UNL     1     -11.981 -10.539  -4.961  1.00  0.00     0.105 A 
ATOM      6  C   UNL     1     -12.044 -11.882  -4.497  1.00  0.00     0.133 A 
ATOM      7  C   UNL     1     -11.095 -12.812  -4.941  1.00  0.00     0.093 A 
ATOM      8  C   UNL     1     -10.058 -12.428  -5.791  1.00  0.00     0.123 A 
ATOM      9  C   UNL     1      -9.952 -11.096  -6.198  1.00  0.00     0.093 A 
ATOM     10  C   UNL     1     -10.891 -10.154  -5.773  1.00  0.00     0.138 A 
ATOM     11  O   UNL     1     -10.742  -8.822  -6.168  1.00  0.00    -0.481 OA
ENDROOT
BRANCH   1  12
ATOM     12  C   UNL     1     -11.289  -6.484  -6.298  1.00  0.00     0.003 A 
ATOM     13  C   UNL     1     -11.671  -5.253  -5.739  1.00  0.00     0.058 A 
ATOM     14  C   UNL     1     -11.509  -4.064  -6.463  1.00  0.00     0.161 A 
ATOM     15  C   UNL     1     -10.723  -6.508  -7.583  1.00  0.00     0.058 A 
ATOM     16  C   UNL     1     -10.956  -4.095  -7.750  1.00  0.00     0.200 A 
ATOM     17  C   UNL     1     -10.559  -5.321  -8.310  1.00  0.00     0.161 A 
BRANCH  14  18
ATOM     18  O   UNL     1     -11.894  -2.844  -5.907  1.00  0.00    -0.504 OA
ATOM     19  H   UNL     1     -11.253  -2.285  -5.358  1.00  0.00     0.293 HD
ENDBRANCH  14  18
BRANCH  16  20
ATOM     20  O   UNL     1     -10.804  -2.901  -8.454  1.00  0.00    -0.502 OA
ATOM     21  H   UNL     1     -10.023  -2.740  -9.079  1.00  0.00     0.293 HD
ENDBRANCH  16  20
BRANCH  17  22
ATOM     22  O   UNL     1     -10.002  -5.356  -9.588  1.00  0.00    -0.504 OA
ATOM     23  H   UNL     1     -10.293  -6.040 -10.276  1.00  0.00     0.293 HD
ENDBRANCH  17  22
ENDBRANCH   1  12
BRANCH   2  24
ATOM     24  O   UNL     1     -13.523  -7.188  -4.475  1.00  0.00    -0.381 OA
ATOM     25  H   UNL     1     -12.903  -6.416  -4.412  1.00  0.00     0.211 HD
ENDBRANCH   2  24
BRANCH   6  26
ATOM     26  O   UNL     1     -13.000 -12.336  -3.586  1.00  0.00    -0.507 OA
ATOM     27  H   UNL     1     -12.850 -13.092  -2.935  1.00  0.00     0.293 HD
ENDBRANCH   6  26
BRANCH   8  28
ATOM     28  O   UNL     1      -9.128 -13.375  -6.215  1.00  0.00    -0.508 OA
ATOM     29  H   UNL     1      -9.386 -14.124  -6.847  1.00  0.00     0.293 HD
ENDBRANCH   8  28
TORSDOF 7
ENDMDL
MODEL 5
REMARK VINA RESULT:    -5.516      1.585      7.285
REMARK INTER + INTRA:          -7.145
REMARK INTER:                  -6.908
REMARK INTRA:                  -0.238
REMARK UNBOUND:                -0.340
REMARK SMILES O=C1c2c(O)cc(O)cc2O[C@@H](c2cc(O)c(O)c(O)c2)[C@@H]1O
REMARK SMILES IDX 12 1 22 2 2 3 1 4 3 5 4 6 6 7 7 8 9 9 10 10 11 11 13 12
REMARK SMILES IDX 14 13 15 14 21 15 17 16 19 17 16 18 18 20 20 22 23 24 5 26
REMARK SMILES IDX 8 28
REMARK H PARENT 16 19 18 21 20 23 23 25 5 27 8 29
REMARK Flexibility Score: inf
ROOT
ATOM      1  C   UNL     1     -12.084  -8.385  -6.016  1.00  0.00     0.240 C 
ATOM      2  C   UNL     1     -12.278  -7.403  -4.848  1.00  0.00     0.231 C 
ATOM      3  C   UNL     1     -12.470  -5.996  -5.364  1.00  0.00     0.202 C 
ATOM      4  O   UNL     1     -13.014  -5.152  -4.604  1.00  0.00    -0.291 OA
ATOM      5  C   UNL     1     -11.878  -5.587  -6.671  1.00  0.00     0.105 A 
ATOM      6  C   UNL     1     -11.955  -4.272  -7.209  1.00  0.00     0.133 A 
ATOM      7  C   UNL     1     -11.197  -3.943  -8.340  1.00  0.00     0.093 A 
ATOM      8  C   UNL     1     -10.409  -4.900  -8.979  1.00  0.00     0.123 A 
ATOM      9  C   UNL     1     -10.381  -6.210  -8.495  1.00  0.00     0.093 A 
ATOM     10  C   UNL     1     -11.124  -6.559  -7.365  1.00  0.00     0.138 A 
ATOM     11  O   UNL     1     -11.103  -7.884  -6.923  1.00  0.00    -0.481 OA
ENDROOT
BRANCH   1  12
ATOM     12  C   UNL     1     -11.672  -9.750  -5.517  1.00  0.00     0.003 A 
ATOM     13  C   UNL     1     -12.640 -10.717  -5.201  1.00  0.00     0.058 A 
ATOM     14  C   UNL     1     -12.256 -11.993  -4.767  1.00  0.00     0.161 A 
ATOM     15  C   UNL     1     -10.312 -10.083  -5.413  1.00  0.00     0.058 A 
ATOM     16  C   UNL     1     -10.897 -12.315  -4.652  1.00  0.00     0.200 A 
ATOM     17  C   UNL     1      -9.921 -11.357  -4.979  1.00  0.00     0.161 A 
BRANCH  14  18
ATOM     18  O   UNL     1     -13.220 -12.948  -4.448  1.00  0.00    -0.504 OA
ATOM     19  H   UNL     1     -13.121 -13.553  -3.642  1.00  0.00     0.293 HD
ENDBRANCH  14  18
BRANCH  16  20
ATOM     20  O   UNL     1     -10.534 -13.589  -4.217  1.00  0.00    -0.502 OA
ATOM     21  H   UNL     1     -10.510 -14.385  -4.842  1.00  0.00     0.293 HD
ENDBRANCH  16  20
BRANCH  17  22
ATOM     22  O   UNL     1      -8.568 -11.675  -4.873  1.00  0.00    -0.504 OA
ATOM     23  H   UNL     1      -8.074 -12.154  -5.617  1.00  0.00     0.293 HD
ENDBRANCH  17  22
ENDBRANCH   1  12
BRANCH   2  24
ATOM     24  O   UNL     1     -13.395  -7.798  -4.093  1.00  0.00    -0.381 OA
ATOM     25  H   UNL     1     -13.442  -8.789  -4.142  1.00  0.00     0.211 HD
ENDBRANCH   2  24
BRANCH   6  26
ATOM     26  O   UNL     1     -12.775  -3.273  -6.681  1.00  0.00    -0.507 OA
ATOM     27  H   UNL     1     -13.780  -3.341  -6.612  1.00  0.00     0.293 HD
ENDBRANCH   6  26
BRANCH   8  28
ATOM     28  O   UNL     1      -9.667  -4.543 -10.103  1.00  0.00    -0.508 OA
ATOM     29  H   UNL     1      -9.078  -3.719 -10.109  1.00  0.00     0.293 HD
ENDBRANCH   8  28
TORSDOF 7
ENDMDL
MODEL 6
REMARK VINA RESULT:    -4.532      4.166      6.716
REMARK INTER + INTRA:          -5.932
REMARK INTER:                  -5.571
REMARK INTRA:                  -0.360
REMARK UNBOUND:                -0.340
REMARK SMILES O=C1c2c(O)cc(O)cc2O[C@@H](c2cc(O)c(O)c(O)c2)[C@@H]1O
REMARK SMILES IDX 12 1 22 2 2 3 1 4 3 5 4 6 6 7 7 8 9 9 10 10 11 11 13 12
REMARK SMILES IDX 14 13 15 14 21 15 17 16 19 17 16 18 18 20 20 22 23 24 5 26
REMARK SMILES IDX 8 28
REMARK H PARENT 16 19 18 21 20 23 23 25 5 27 8 29
REMARK Flexibility Score: inf
ROOT
ATOM      1  C   UNL     1      -9.108 -11.139  -5.979  1.00  0.00     0.240 C 
ATOM      2  C   UNL     1      -8.073 -10.764  -4.905  1.00  0.00     0.231 C 
ATOM      3  C   UNL     1      -6.696 -10.644  -5.516  1.00  0.00     0.202 C 
ATOM      4  O   UNL     1      -5.823  -9.985  -4.891  1.00  0.00    -0.291 OA
ATOM      5  C   UNL     1      -6.344 -11.424  -6.737  1.00  0.00     0.105 A 
ATOM      6  C   UNL     1      -5.058 -11.422  -7.347  1.00  0.00     0.133 A 
ATOM      7  C   UNL     1      -4.775 -12.341  -8.365  1.00  0.00     0.093 A 
ATOM      8  C   UNL     1      -5.751 -13.223  -8.828  1.00  0.00     0.123 A 
ATOM      9  C   UNL     1      -7.035 -13.185  -8.279  1.00  0.00     0.093 A 
ATOM     10  C   UNL     1      -7.338 -12.282  -7.258  1.00  0.00     0.138 A 
ATOM     11  O   UNL     1      -8.639 -12.244  -6.751  1.00  0.00    -0.481 OA
ENDROOT
BRANCH   1  12
ATOM     12  C   UNL     1     -10.441 -11.480  -5.354  1.00  0.00     0.003 A 
ATOM     13  C   UNL     1     -10.594 -12.651  -4.593  1.00  0.00     0.058 A 
ATOM     14  C   UNL     1     -11.823 -12.951  -3.990  1.00  0.00     0.161 A 
ATOM     15  C   UNL     1     -11.529 -10.602  -5.487  1.00  0.00     0.058 A 
ATOM     16  C   UNL     1     -12.909 -12.078  -4.137  1.00  0.00     0.200 A 
ATOM     17  C   UNL     1     -12.760 -10.898  -4.886  1.00  0.00     0.161 A 
BRANCH  14  18
ATOM     18  O   UNL     1     -11.973 -14.117  -3.240  1.00  0.00    -0.504 OA
ATOM     19  H   UNL     1     -11.397 -14.933  -3.408  1.00  0.00     0.293 HD
ENDBRANCH  14  18
BRANCH  16  20
ATOM     20  O   UNL     1     -14.124 -12.394  -3.531  1.00  0.00    -0.502 OA
ATOM     21  H   UNL     1     -14.174 -12.801  -2.605  1.00  0.00     0.293 HD
ENDBRANCH  16  20
BRANCH  17  22
ATOM     22  O   UNL     1     -13.836 -10.023  -5.030  1.00  0.00    -0.504 OA
ATOM     23  H   UNL     1     -14.539  -9.921  -4.308  1.00  0.00     0.293 HD
ENDBRANCH  17  22
ENDBRANCH   1  12
BRANCH   2  24
ATOM     24  O   UNL     1      -8.446  -9.548  -4.309  1.00  0.00    -0.381 OA
ATOM     25  H   UNL     1      -9.390  -9.377  -4.567  1.00  0.00     0.211 HD
ENDBRANCH   2  24
BRANCH   6  26
ATOM     26  O   UNL     1      -4.046 -10.525  -7.000  1.00  0.00    -0.507 OA
ATOM     27  H   UNL     1      -4.208  -9.622  -6.579  1.00  0.00     0.293 HD
ENDBRANCH   6  26
BRANCH   8  28
ATOM     28  O   UNL     1      -5.439 -14.125  -9.843  1.00  0.00    -0.508 OA
ATOM     29  H   UNL     1      -5.832 -14.035 -10.772  1.00  0.00     0.293 HD
ENDBRANCH   8  28
TORSDOF 7
ENDMDL
MODEL 7
REMARK VINA RESULT:    -4.497      7.077     10.572
REMARK INTER + INTRA:          -5.889
REMARK INTER:                  -5.613
REMARK INTRA:                  -0.276
REMARK UNBOUND:                -0.340
REMARK SMILES O=C1c2c(O)cc(O)cc2O[C@@H](c2cc(O)c(O)c(O)c2)[C@@H]1O
REMARK SMILES IDX 12 1 22 2 2 3 1 4 3 5 4 6 6 7 7 8 9 9 10 10 11 11 13 12
REMARK SMILES IDX 14 13 15 14 21 15 17 16 19 17 16 18 18 20 20 22 23 24 5 26
REMARK SMILES IDX 8 28
REMARK H PARENT 16 19 18 21 20 23 23 25 5 27 8 29
REMARK Flexibility Score: inf
ROOT
ATOM      1  C   UNL     1      -2.789 -12.415  -5.462  1.00  0.00     0.240 C 
ATOM      2  C   UNL     1      -3.207 -13.591  -6.362  1.00  0.00     0.231 C 
ATOM      3  C   UNL     1      -4.222 -13.139  -7.387  1.00  0.00     0.202 C 
ATOM      4  O   UNL     1      -4.379 -13.843  -8.419  1.00  0.00    -0.291 OA
ATOM      5  C   UNL     1      -5.124 -11.987  -7.095  1.00  0.00     0.105 A 
ATOM      6  C   UNL     1      -6.148 -11.530  -7.971  1.00  0.00     0.133 A 
ATOM      7  C   UNL     1      -7.067 -10.575  -7.519  1.00  0.00     0.093 A 
ATOM      8  C   UNL     1      -6.962 -10.026  -6.241  1.00  0.00     0.123 A 
ATOM      9  C   UNL     1      -5.920 -10.422  -5.400  1.00  0.00     0.093 A 
ATOM     10  C   UNL     1      -4.996 -11.378  -5.827  1.00  0.00     0.138 A 
ATOM     11  O   UNL     1      -3.944 -11.731  -4.978  1.00  0.00    -0.481 OA
ENDROOT
BRANCH   1  12
ATOM     12  C   UNL     1      -1.950 -12.891  -4.299  1.00  0.00     0.003 A 
ATOM     13  C   UNL     1      -0.548 -12.882  -4.380  1.00  0.00     0.058 A 
ATOM     14  C   UNL     1       0.230 -13.296  -3.290  1.00  0.00     0.161 A 
ATOM     15  C   UNL     1      -2.565 -13.299  -3.105  1.00  0.00     0.058 A 
ATOM     16  C   UNL     1      -0.390 -13.715  -2.105  1.00  0.00     0.200 A 
ATOM     17  C   UNL     1      -1.792 -13.714  -2.011  1.00  0.00     0.161 A 
BRANCH  14  18
ATOM     18  O   UNL     1       1.621 -13.291  -3.376  1.00  0.00    -0.504 OA
ATOM     19  H   UNL     1       2.139 -14.124  -3.630  1.00  0.00     0.293 HD
ENDBRANCH  14  18
BRANCH  16  20
ATOM     20  O   UNL     1       0.401 -14.125  -1.032  1.00  0.00    -0.502 OA
ATOM     21  H   UNL     1       0.331 -15.054  -0.635  1.00  0.00     0.293 HD
ENDBRANCH  16  20
BRANCH  17  22
ATOM     22  O   UNL     1      -2.413 -14.124  -0.832  1.00  0.00    -0.504 OA
ATOM     23  H   UNL     1      -2.307 -13.606   0.032  1.00  0.00     0.293 HD
ENDBRANCH  17  22
ENDBRANCH   1  12
BRANCH   2  24
ATOM     24  O   UNL     1      -2.069 -14.108  -7.003  1.00  0.00    -0.381 OA
ATOM     25  H   UNL     1      -1.512 -13.333  -7.273  1.00  0.00     0.211 HD
ENDBRANCH   2  24
BRANCH   6  26
ATOM     26  O   UNL     1      -6.281 -11.967  -9.290  1.00  0.00    -0.507 OA
ATOM     27  H   UNL     1      -5.830 -11.530 -10.081  1.00  0.00     0.293 HD
ENDBRANCH   6  26
BRANCH   8  28
ATOM     28  O   UNL     1      -7.892  -9.077  -5.820  1.00  0.00    -0.508 OA
ATOM     29  H   UNL     1      -8.793  -8.982  -6.272  1.00  0.00     0.293 HD
ENDBRANCH   8  28
TORSDOF 7
ENDMDL
