MODEL 1
REMARK VINA RESULT:    80.235      0.000      0.000
REMARK INTER + INTRA:         110.159
REMARK INTER:                 110.724
REMARK INTRA:                  -0.564
REMARK UNBOUND:                -0.564
REMARK SMILES CC[C@@H](CC[C@@H](C)[C@@H]1CC[C@H]2C3=CC[C@H]4C[C@@H](O)CC[C@]4(C)[C@H]3CC[C@]21C)C(C)C
REMARK SMILES IDX 5 1 4 2 3 3 2 4 1 5 28 6 29 7 30 8 6 9 7 10 8 11 9 12 26 13
REMARK SMILES IDX 10 14 11 15 25 16 27 17 12 18 24 19 23 20 13 21 21 22 14 23
REMARK SMILES IDX 15 24 20 25 22 26 16 27 19 28 17 29 18 30
REMARK H PARENT 18 31
REMARK Flexibility Score: inf
ROOT
ATOM      1  C   UNL     1      87.759   6.937  76.491  1.00  0.00     0.004 C 
ENDROOT
BRANCH   1   2
ATOM      2  C   UNL     1      89.031   7.654  75.978  1.00  0.00     0.004 C 
BRANCH   2   3
ATOM      3  C   UNL     1      89.468   8.867  76.851  1.00  0.00    -0.009 C 
BRANCH   3   4
ATOM      4  C   UNL     1      89.174   8.637  78.364  1.00  0.00     0.000 C 
ATOM      5  C   UNL     1      90.368   8.890  79.288  1.00  0.00     0.004 C 
ENDBRANCH   3   4
BRANCH   3   6
ATOM      6  C   UNL     1      88.866  10.211  76.307  1.00  0.00    -0.014 C 
ATOM      7  C   UNL     1      89.733  10.831  75.194  1.00  0.00     0.007 C 
ATOM      8  C   UNL     1      87.433  10.026  75.766  1.00  0.00     0.007 C 
ENDBRANCH   3   6
ENDBRANCH   2   3
ENDBRANCH   1   2
BRANCH   1   9
ATOM      9  C   UNL     1      87.066   6.022  75.440  1.00  0.00    -0.011 C 
ATOM     10  C   UNL     1      88.030   5.764  74.262  1.00  0.00     0.008 C 
BRANCH   9  11
ATOM     11  C   UNL     1      86.431   4.727  76.101  1.00  0.00    -0.002 C 
ATOM     12  C   UNL     1      86.459   3.489  75.183  1.00  0.00     0.005 C 
ATOM     13  C   UNL     1      84.898   4.825  76.442  1.00  0.00    -0.023 C 
ATOM     14  C   UNL     1      85.194   3.558  74.336  1.00  0.00     0.009 C 
ATOM     15  C   UNL     1      84.239   4.517  75.066  1.00  0.00     0.021 C 
ATOM     16  C   UNL     1      84.535   3.766  77.561  1.00  0.00     0.008 C 
ATOM     17  C   UNL     1      84.426   6.214  76.949  1.00  0.00     0.012 C 
ATOM     18  C   UNL     1      82.823   3.966  75.128  1.00  0.00    -0.067 C 
ATOM     19  C   UNL     1      83.499   2.711  77.159  1.00  0.00     0.009 C 
ATOM     20  C   UNL     1      82.310   3.354  76.423  1.00  0.00     0.021 C 
ATOM     21  C   UNL     1      82.037   4.080  74.034  1.00  0.00    -0.027 C 
ATOM     22  C   UNL     1      81.092   2.382  76.200  1.00  0.00    -0.023 C 
ATOM     23  C   UNL     1      80.652   3.497  73.935  1.00  0.00     0.031 C 
ATOM     24  C   UNL     1      80.062   3.155  75.311  1.00  0.00     0.002 C 
ATOM     25  C   UNL     1      80.415   2.056  77.568  1.00  0.00     0.010 C 
ATOM     26  C   UNL     1      81.568   1.062  75.527  1.00  0.00     0.012 C 
ATOM     27  C   UNL     1      78.710   2.425  75.162  1.00  0.00     0.036 C 
ATOM     28  C   UNL     1      79.071   1.325  77.417  1.00  0.00     0.032 C 
ATOM     29  C   UNL     1      78.097   2.125  76.539  1.00  0.00     0.114 C 
BRANCH  29  30
ATOM     30  O   UNL     1      76.875   1.444  76.398  1.00  0.00    -0.393 OA
ATOM     31  H   UNL     1      76.162   2.124  76.285  1.00  0.00     0.210 HD
ENDBRANCH  29  30
ENDBRANCH   9  11
ENDBRANCH   1   9
TORSDOF 7
ENDMDL
MODEL 2
REMARK VINA RESULT:    81.558     10.721     13.504
REMARK INTER + INTRA:         111.985
REMARK INTER:                 111.038
REMARK INTRA:                   0.947
REMARK UNBOUND:                -0.564
REMARK SMILES CC[C@@H](CC[C@@H](C)[C@@H]1CC[C@H]2C3=CC[C@H]4C[C@@H](O)CC[C@]4(C)[C@H]3CC[C@]21C)C(C)C
REMARK SMILES IDX 5 1 4 2 3 3 2 4 1 5 28 6 29 7 30 8 6 9 7 10 8 11 9 12 26 13
REMARK SMILES IDX 10 14 11 15 25 16 27 17 12 18 24 19 23 20 13 21 21 22 14 23
REMARK SMILES IDX 15 24 20 25 22 26 16 27 19 28 17 29 18 30
REMARK H PARENT 18 31
REMARK Flexibility Score: inf
ROOT
ATOM      1  C   UNL     1      87.388  -5.256  69.125  1.00  0.00     0.004 C 
ENDROOT
BRANCH   1   2
ATOM      2  C   UNL     1      87.897  -5.510  67.686  1.00  0.00     0.004 C 
BRANCH   2   3
ATOM      3  C   UNL     1      88.086  -7.016  67.340  1.00  0.00    -0.009 C 
BRANCH   3   4
ATOM      4  C   UNL     1      87.396  -7.948  68.381  1.00  0.00     0.000 C 
ATOM      5  C   UNL     1      88.310  -9.024  68.972  1.00  0.00     0.004 C 
ENDBRANCH   3   4
BRANCH   3   6
ATOM      6  C   UNL     1      89.599  -7.367  67.111  1.00  0.00    -0.014 C 
ATOM      7  C   UNL     1      89.874  -8.877  67.234  1.00  0.00     0.007 C 
ATOM      8  C   UNL     1      90.101  -6.887  65.734  1.00  0.00     0.007 C 
ENDBRANCH   3   6
ENDBRANCH   2   3
ENDBRANCH   1   2
BRANCH   1   9
ATOM      9  C   UNL     1      85.875  -4.903  69.222  1.00  0.00    -0.011 C 
ATOM     10  C   UNL     1      85.371  -5.169  70.657  1.00  0.00     0.008 C 
BRANCH   9  11
ATOM     11  C   UNL     1      85.561  -3.459  68.642  1.00  0.00    -0.002 C 
ATOM     12  C   UNL     1      85.085  -2.456  69.712  1.00  0.00     0.005 C 
ATOM     13  C   UNL     1      84.378  -3.391  67.606  1.00  0.00    -0.023 C 
ATOM     14  C   UNL     1      83.575  -2.635  69.821  1.00  0.00     0.009 C 
ATOM     15  C   UNL     1      83.131  -3.353  68.537  1.00  0.00     0.021 C 
ATOM     16  C   UNL     1      84.532  -2.094  66.712  1.00  0.00     0.008 C 
ATOM     17  C   UNL     1      84.277  -4.605  66.645  1.00  0.00     0.012 C 
ATOM     18  C   UNL     1      81.886  -2.721  67.936  1.00  0.00    -0.067 C 
ATOM     19  C   UNL     1      83.373  -1.094  66.798  1.00  0.00     0.009 C 
ATOM     20  C   UNL     1      82.014  -1.811  66.723  1.00  0.00     0.021 C 
ATOM     21  C   UNL     1      80.684  -3.025  68.474  1.00  0.00    -0.027 C 
ATOM     22  C   UNL     1      80.786  -0.843  66.552  1.00  0.00    -0.023 C 
ATOM     23  C   UNL     1      79.387  -2.398  68.032  1.00  0.00     0.031 C 
ATOM     24  C   UNL     1      79.500  -1.730  66.654  1.00  0.00     0.002 C 
ATOM     25  C   UNL     1      80.819  -0.186  65.137  1.00  0.00     0.010 C 
ATOM     26  C   UNL     1      80.815   0.269  67.642  1.00  0.00     0.012 C 
ATOM     27  C   UNL     1      78.202  -0.972  66.304  1.00  0.00     0.036 C 
ATOM     28  C   UNL     1      79.526   0.571  64.791  1.00  0.00     0.032 C 
ATOM     29  C   UNL     1      78.298  -0.344  64.905  1.00  0.00     0.114 C 
BRANCH  29  30
ATOM     30  O   UNL     1      77.120   0.361  64.598  1.00  0.00    -0.393 OA
ATOM     31  H   UNL     1      76.394  -0.305  64.475  1.00  0.00     0.210 HD
ENDBRANCH  29  30
ENDBRANCH   9  11
ENDBRANCH   1   9
TORSDOF 7
ENDMDL
MODEL 3
REMARK VINA RESULT:    81.670     11.399     13.381
REMARK INTER + INTRA:         112.140
REMARK INTER:                 112.062
REMARK INTRA:                   0.078
REMARK UNBOUND:                -0.564
REMARK SMILES CC[C@@H](CC[C@@H](C)[C@@H]1CC[C@H]2C3=CC[C@H]4C[C@@H](O)CC[C@]4(C)[C@H]3CC[C@]21C)C(C)C
REMARK SMILES IDX 5 1 4 2 3 3 2 4 1 5 28 6 29 7 30 8 6 9 7 10 8 11 9 12 26 13
REMARK SMILES IDX 10 14 11 15 25 16 27 17 12 18 24 19 23 20 13 21 21 22 14 23
REMARK SMILES IDX 15 24 20 25 22 26 16 27 19 28 17 29 18 30
REMARK H PARENT 18 31
REMARK Flexibility Score: inf
ROOT
ATOM      1  C   UNL     1      78.149   4.871  63.990  1.00  0.00     0.004 C 
ENDROOT
BRANCH   1   2
ATOM      2  C   UNL     1      77.467   6.250  63.816  1.00  0.00     0.004 C 
BRANCH   2   3
ATOM      3  C   UNL     1      78.179   7.406  64.577  1.00  0.00    -0.009 C 
BRANCH   3   4
ATOM      4  C   UNL     1      79.660   7.060  64.918  1.00  0.00     0.000 C 
ATOM      5  C   UNL     1      80.662   7.398  63.811  1.00  0.00     0.004 C 
ENDBRANCH   3   4
BRANCH   3   6
ATOM      6  C   UNL     1      77.351   7.863  65.831  1.00  0.00    -0.014 C 
ATOM      7  C   UNL     1      77.770   7.115  67.111  1.00  0.00     0.007 C 
ATOM      8  C   UNL     1      77.479   9.379  66.084  1.00  0.00     0.007 C 
ENDBRANCH   3   6
ENDBRANCH   2   3
ENDBRANCH   1   2
BRANCH   1   9
ATOM      9  C   UNL     1      77.492   3.719  63.174  1.00  0.00    -0.011 C 
ATOM     10  C   UNL     1      76.876   4.288  61.878  1.00  0.00     0.008 C 
BRANCH   9  11
ATOM     11  C   UNL     1      78.475   2.488  62.982  1.00  0.00    -0.002 C 
ATOM     12  C   UNL     1      77.748   1.155  62.714  1.00  0.00     0.005 C 
ATOM     13  C   UNL     1      79.346   2.117  64.239  1.00  0.00    -0.023 C 
ATOM     14  C   UNL     1      77.427   0.562  64.081  1.00  0.00     0.009 C 
ATOM     15  C   UNL     1      78.352   1.268  65.085  1.00  0.00     0.021 C 
ATOM     16  C   UNL     1      80.625   1.308  63.778  1.00  0.00     0.008 C 
ATOM     17  C   UNL     1      79.841   3.328  65.074  1.00  0.00     0.012 C 
ATOM     18  C   UNL     1      78.992   0.286  66.053  1.00  0.00    -0.067 C 
ATOM     19  C   UNL     1      80.749  -0.110  64.347  1.00  0.00     0.009 C 
ATOM     20  C   UNL     1      80.442  -0.131  65.854  1.00  0.00     0.021 C 
ATOM     21  C   UNL     1      78.260  -0.158  67.100  1.00  0.00    -0.027 C 
ATOM     22  C   UNL     1      80.789  -1.493  66.561  1.00  0.00    -0.023 C 
ATOM     23  C   UNL     1      78.743  -1.199  68.076  1.00  0.00     0.031 C 
ATOM     24  C   UNL     1      80.268  -1.379  68.032  1.00  0.00     0.002 C 
ATOM     25  C   UNL     1      82.336  -1.692  66.601  1.00  0.00     0.010 C 
ATOM     26  C   UNL     1      80.132  -2.682  65.801  1.00  0.00     0.012 C 
ATOM     27  C   UNL     1      80.708  -2.553  68.933  1.00  0.00     0.036 C 
ATOM     28  C   UNL     1      82.772  -2.865  67.496  1.00  0.00     0.032 C 
ATOM     29  C   UNL     1      82.237  -2.702  68.926  1.00  0.00     0.114 C 
BRANCH  29  30
ATOM     30  O   UNL     1      82.632  -3.784  69.733  1.00  0.00    -0.393 OA
ATOM     31  H   UNL     1      83.334  -3.458  70.353  1.00  0.00     0.210 HD
ENDBRANCH  29  30
ENDBRANCH   9  11
ENDBRANCH   1   9
TORSDOF 7
ENDMDL
MODEL 4
REMARK VINA RESULT:    82.009     11.214     14.239
REMARK INTER + INTRA:         112.607
REMARK INTER:                 112.938
REMARK INTRA:                  -0.331
REMARK UNBOUND:                -0.564
REMARK SMILES CC[C@@H](CC[C@@H](C)[C@@H]1CC[C@H]2C3=CC[C@H]4C[C@@H](O)CC[C@]4(C)[C@H]3CC[C@]21C)C(C)C
REMARK SMILES IDX 5 1 4 2 3 3 2 4 1 5 28 6 29 7 30 8 6 9 7 10 8 11 9 12 26 13
REMARK SMILES IDX 10 14 11 15 25 16 27 17 12 18 24 19 23 20 13 21 21 22 14 23
REMARK SMILES IDX 15 24 20 25 22 26 16 27 19 28 17 29 18 30
REMARK H PARENT 18 31
REMARK Flexibility Score: inf
ROOT
ATOM      1  C   UNL     1      79.494   0.339  66.189  1.00  0.00     0.004 C 
ENDROOT
BRANCH   1   2
ATOM      2  C   UNL     1      78.343  -0.076  65.241  1.00  0.00     0.004 C 
BRANCH   2   3
ATOM      3  C   UNL     1      78.503   0.452  63.785  1.00  0.00    -0.009 C 
BRANCH   3   4
ATOM      4  C   UNL     1      79.860   1.188  63.574  1.00  0.00     0.000 C 
ATOM      5  C   UNL     1      80.084   1.709  62.152  1.00  0.00     0.004 C 
ENDBRANCH   3   4
BRANCH   3   6
ATOM      6  C   UNL     1      77.264   1.313  63.348  1.00  0.00    -0.014 C 
ATOM      7  C   UNL     1      77.505   2.822  63.538  1.00  0.00     0.007 C 
ATOM      8  C   UNL     1      76.877   1.060  61.876  1.00  0.00     0.007 C 
ENDBRANCH   3   6
ENDBRANCH   2   3
ENDBRANCH   1   2
BRANCH   1   9
ATOM      9  C   UNL     1      79.770  -0.665  67.346  1.00  0.00    -0.011 C 
ATOM     10  C   UNL     1      78.475  -0.890  68.157  1.00  0.00     0.008 C 
BRANCH   9  11
ATOM     11  C   UNL     1      80.495  -1.981  66.834  1.00  0.00    -0.002 C 
ATOM     12  C   UNL     1      80.133  -3.240  67.648  1.00  0.00     0.005 C 
ATOM     13  C   UNL     1      82.064  -1.977  66.953  1.00  0.00    -0.023 C 
ATOM     14  C   UNL     1      81.101  -3.279  68.825  1.00  0.00     0.009 C 
ATOM     15  C   UNL     1      82.279  -2.367  68.445  1.00  0.00     0.021 C 
ATOM     16  C   UNL     1      82.675  -3.025  65.937  1.00  0.00     0.008 C 
ATOM     17  C   UNL     1      82.740  -0.609  66.668  1.00  0.00     0.012 C 
ATOM     18  C   UNL     1      83.619  -3.009  68.766  1.00  0.00    -0.067 C 
ATOM     19  C   UNL     1      83.490  -4.159  66.571  1.00  0.00     0.009 C 
ATOM     20  C   UNL     1      84.449  -3.619  67.645  1.00  0.00     0.021 C 
ATOM     21  C   UNL     1      84.059  -2.980  70.044  1.00  0.00    -0.027 C 
ATOM     22  C   UNL     1      85.494  -4.675  68.163  1.00  0.00    -0.023 C 
ATOM     23  C   UNL     1      85.322  -3.657  70.508  1.00  0.00     0.031 C 
ATOM     24  C   UNL     1      86.265  -3.999  69.345  1.00  0.00     0.002 C 
ATOM     25  C   UNL     1      86.518  -5.008  67.034  1.00  0.00     0.010 C 
ATOM     26  C   UNL     1      84.771  -5.980  68.609  1.00  0.00     0.012 C 
ATOM     27  C   UNL     1      87.473  -4.823  69.842  1.00  0.00     0.036 C 
ATOM     28  C   UNL     1      87.718  -5.832  67.530  1.00  0.00     0.032 C 
ATOM     29  C   UNL     1      88.439  -5.124  68.686  1.00  0.00     0.114 C 
BRANCH  29  30
ATOM     30  O   UNL     1      89.528  -5.890  69.140  1.00  0.00    -0.393 OA
ATOM     31  H   UNL     1      89.199  -6.483  69.864  1.00  0.00     0.210 HD
ENDBRANCH  29  30
ENDBRANCH   9  11
ENDBRANCH   1   9
TORSDOF 7
ENDMDL
MODEL 5
REMARK VINA RESULT:    83.098     11.317     14.490
REMARK INTER + INTRA:         114.111
REMARK INTER:                 113.187
REMARK INTRA:                   0.924
REMARK UNBOUND:                -0.564
REMARK SMILES CC[C@@H](CC[C@@H](C)[C@@H]1CC[C@H]2C3=CC[C@H]4C[C@@H](O)CC[C@]4(C)[C@H]3CC[C@]21C)C(C)C
REMARK SMILES IDX 5 1 4 2 3 3 2 4 1 5 28 6 29 7 30 8 6 9 7 10 8 11 9 12 26 13
REMARK SMILES IDX 10 14 11 15 25 16 27 17 12 18 24 19 23 20 13 21 21 22 14 23
REMARK SMILES IDX 15 24 20 25 22 26 16 27 19 28 17 29 18 30
REMARK H PARENT 18 31
REMARK Flexibility Score: inf
ROOT
ATOM      1  C   UNL     1      80.855  -1.771  67.146  1.00  0.00     0.004 C 
ENDROOT
BRANCH   1   2
ATOM      2  C   UNL     1      80.139  -0.422  66.891  1.00  0.00     0.004 C 
BRANCH   2   3
ATOM      3  C   UNL     1      78.797  -0.556  66.114  1.00  0.00    -0.009 C 
BRANCH   3   4
ATOM      4  C   UNL     1      78.169  -1.974  66.268  1.00  0.00     0.000 C 
ATOM      5  C   UNL     1      77.794  -2.349  67.704  1.00  0.00     0.004 C 
ENDBRANCH   3   4
BRANCH   3   6
ATOM      6  C   UNL     1      78.956  -0.115  64.615  1.00  0.00    -0.014 C 
ATOM      7  C   UNL     1      77.773   0.746  64.132  1.00  0.00     0.007 C 
ATOM      8  C   UNL     1      80.263   0.669  64.379  1.00  0.00     0.007 C 
ENDBRANCH   3   6
ENDBRANCH   2   3
ENDBRANCH   1   2
BRANCH   1   9
ATOM      9  C   UNL     1      81.383  -1.957  68.598  1.00  0.00    -0.011 C 
ATOM     10  C   UNL     1      80.779  -3.240  69.209  1.00  0.00     0.008 C 
BRANCH   9  11
ATOM     11  C   UNL     1      82.964  -1.839  68.678  1.00  0.00    -0.002 C 
ATOM     12  C   UNL     1      83.625  -1.492  67.328  1.00  0.00     0.005 C 
ATOM     13  C   UNL     1      83.721  -3.164  69.061  1.00  0.00    -0.023 C 
ATOM     14  C   UNL     1      83.855  -2.819  66.614  1.00  0.00     0.009 C 
ATOM     15  C   UNL     1      83.785  -3.909  67.695  1.00  0.00     0.021 C 
ATOM     16  C   UNL     1      85.146  -2.809  69.649  1.00  0.00     0.008 C 
ATOM     17  C   UNL     1      82.998  -4.053  70.108  1.00  0.00     0.012 C 
ATOM     18  C   UNL     1      84.913  -4.919  67.555  1.00  0.00    -0.067 C 
ATOM     19  C   UNL     1      86.340  -3.371  68.868  1.00  0.00     0.009 C 
ATOM     20  C   UNL     1      86.111  -4.845  68.490  1.00  0.00     0.021 C 
ATOM     21  C   UNL     1      84.796  -5.891  66.623  1.00  0.00    -0.027 C 
ATOM     22  C   UNL     1      87.385  -5.565  67.912  1.00  0.00    -0.023 C 
ATOM     23  C   UNL     1      85.878  -6.895  66.322  1.00  0.00     0.031 C 
ATOM     24  C   UNL     1      86.922  -6.985  67.445  1.00  0.00     0.002 C 
ATOM     25  C   UNL     1      88.453  -5.740  69.035  1.00  0.00     0.010 C 
ATOM     26  C   UNL     1      87.992  -4.736  66.742  1.00  0.00     0.012 C 
ATOM     27  C   UNL     1      88.090  -7.908  67.036  1.00  0.00     0.036 C 
ATOM     28  C   UNL     1      89.618  -6.657  68.624  1.00  0.00     0.032 C 
ATOM     29  C   UNL     1      89.110  -8.036  68.178  1.00  0.00     0.114 C 
BRANCH  29  30
ATOM     30  O   UNL     1      90.181  -8.862  67.794  1.00  0.00    -0.393 OA
ATOM     31  H   UNL     1      90.927  -8.275  67.506  1.00  0.00     0.210 HD
ENDBRANCH  29  30
ENDBRANCH   9  11
ENDBRANCH   1   9
TORSDOF 7
ENDMDL
