MODEL 1
REMARK VINA RESULT:    -4.635      0.000      0.000
REMARK INTER + INTRA:          -4.635
REMARK INTER:                  -4.635
REMARK INTRA:                   0.000
REMARK UNBOUND:                 0.000
REMARK SMILES CC1=CC[C@H]2C[C@@H]1C2(C)C
REMARK SMILES IDX 1 1 2 2 3 3 4 4 5 5 6 6 7 7 8 8 9 9 10 10
REMARK H PARENT
REMARK Flexibility Score: inf
ROOT
ATOM      1  C   UNL     1      13.663  52.174  24.769  1.00  0.00     0.039 C 
ATOM      2  C   UNL     1      12.336  51.514  24.551  1.00  0.00    -0.074 C 
ATOM      3  C   UNL     1      12.182  50.164  24.682  1.00  0.00    -0.027 C 
ATOM      4  C   UNL     1      10.795  49.545  24.416  1.00  0.00     0.031 C 
ATOM      5  C   UNL     1       9.762  50.673  24.067  1.00  0.00    -0.000 C 
ATOM      6  C   UNL     1       9.976  51.777  25.122  1.00  0.00     0.013 C 
ATOM      7  C   UNL     1      11.079  52.320  24.191  1.00  0.00     0.021 C 
ATOM      8  C   UNL     1      10.355  51.637  23.002  1.00  0.00    -0.026 C 
ATOM      9  C   UNL     1      11.218  51.041  21.855  1.00  0.00     0.012 C 
ATOM     10  C   UNL     1       9.272  52.549  22.371  1.00  0.00     0.012 C 
ENDROOT
TORSDOF 0
ENDMDL
MODEL 2
REMARK VINA RESULT:    -4.574      1.232      2.602
REMARK INTER + INTRA:          -4.574
REMARK INTER:                  -4.574
REMARK INTRA:                   0.000
REMARK UNBOUND:                 0.000
REMARK SMILES CC1=CC[C@H]2C[C@@H]1C2(C)C
REMARK SMILES IDX 1 1 2 2 3 3 4 4 5 5 6 6 7 7 8 8 9 9 10 10
REMARK H PARENT
REMARK Flexibility Score: inf
ROOT
ATOM      1  C   UNL     1      11.783  48.645  24.444  1.00  0.00     0.039 C 
ATOM      2  C   UNL     1      11.323  50.061  24.282  1.00  0.00    -0.074 C 
ATOM      3  C   UNL     1      11.746  51.048  25.124  1.00  0.00    -0.027 C 
ATOM      4  C   UNL     1      11.212  52.479  24.919  1.00  0.00     0.031 C 
ATOM      5  C   UNL     1      10.259  52.524  23.674  1.00  0.00    -0.000 C 
ATOM      6  C   UNL     1      10.995  51.758  22.557  1.00  0.00     0.013 C 
ATOM      7  C   UNL     1      10.371  50.480  23.151  1.00  0.00     0.021 C 
ATOM      8  C   UNL     1       9.234  51.357  23.737  1.00  0.00    -0.026 C 
ATOM      9  C   UNL     1       8.634  50.965  25.116  1.00  0.00     0.012 C 
ATOM     10  C   UNL     1       8.065  51.550  22.737  1.00  0.00     0.012 C 
ENDROOT
TORSDOF 0
ENDMDL
MODEL 3
REMARK VINA RESULT:    -4.567      0.989      3.056
REMARK INTER + INTRA:          -4.567
REMARK INTER:                  -4.567
REMARK INTRA:                   0.000
REMARK UNBOUND:                 0.000
REMARK SMILES CC1=CC[C@H]2C[C@@H]1C2(C)C
REMARK SMILES IDX 1 1 2 2 3 3 4 4 5 5 6 6 7 7 8 8 9 9 10 10
REMARK H PARENT
REMARK Flexibility Score: inf
ROOT
ATOM      1  C   UNL     1       8.199  50.130  24.593  1.00  0.00     0.039 C 
ATOM      2  C   UNL     1       9.541  50.763  24.385  1.00  0.00    -0.074 C 
ATOM      3  C   UNL     1       9.944  51.837  25.124  1.00  0.00    -0.027 C 
ATOM      4  C   UNL     1      11.325  52.459  24.839  1.00  0.00     0.031 C 
ATOM      5  C   UNL     1      12.056  51.651  23.711  1.00  0.00    -0.000 C 
ATOM      6  C   UNL     1      11.889  50.164  24.086  1.00  0.00     0.013 C 
ATOM      7  C   UNL     1      10.538  50.226  23.347  1.00  0.00     0.021 C 
ATOM      8  C   UNL     1      11.096  51.409  22.512  1.00  0.00    -0.026 C 
ATOM      9  C   UNL     1      10.121  52.546  22.098  1.00  0.00     0.012 C 
ATOM     10  C   UNL     1      11.850  50.930  21.245  1.00  0.00     0.012 C 
ENDROOT
TORSDOF 0
ENDMDL
MODEL 4
REMARK VINA RESULT:    -4.516      1.162      3.295
REMARK INTER + INTRA:          -4.516
REMARK INTER:                  -4.516
REMARK INTRA:                   0.000
REMARK UNBOUND:                 0.000
REMARK SMILES CC1=CC[C@H]2C[C@@H]1C2(C)C
REMARK SMILES IDX 1 1 2 2 3 3 4 4 5 5 6 6 7 7 8 8 9 9 10 10
REMARK H PARENT
REMARK Flexibility Score: inf
ROOT
ATOM      1  C   UNL     1      10.168  52.705  21.421  1.00  0.00     0.039 C 
ATOM      2  C   UNL     1       9.968  52.060  22.759  1.00  0.00    -0.074 C 
ATOM      3  C   UNL     1       8.981  52.470  23.606  1.00  0.00    -0.027 C 
ATOM      4  C   UNL     1       8.848  51.783  24.980  1.00  0.00     0.031 C 
ATOM      5  C   UNL     1       9.919  50.645  25.117  1.00  0.00    -0.000 C 
ATOM      6  C   UNL     1       9.858  49.852  23.796  1.00  0.00     0.013 C 
ATOM      7  C   UNL     1      10.847  50.893  23.235  1.00  0.00     0.021 C 
ATOM      8  C   UNL     1      11.318  51.167  24.687  1.00  0.00    -0.026 C 
ATOM      9  C   UNL     1      11.724  52.617  25.072  1.00  0.00     0.012 C 
ATOM     10  C   UNL     1      12.459  50.212  25.125  1.00  0.00     0.012 C 
ENDROOT
TORSDOF 0
ENDMDL
MODEL 5
REMARK VINA RESULT:    -4.471      0.958      2.621
REMARK INTER + INTRA:          -4.471
REMARK INTER:                  -4.471
REMARK INTRA:                   0.000
REMARK UNBOUND:                 0.000
REMARK SMILES CC1=CC[C@H]2C[C@@H]1C2(C)C
REMARK SMILES IDX 1 1 2 2 3 3 4 4 5 5 6 6 7 7 8 8 9 9 10 10
REMARK H PARENT
REMARK Flexibility Score: inf
ROOT
ATOM      1  C   UNL     1      12.167  51.045  20.988  1.00  0.00     0.039 C 
ATOM      2  C   UNL     1      11.760  51.383  22.389  1.00  0.00    -0.074 C 
ATOM      3  C   UNL     1      12.671  51.802  23.314  1.00  0.00    -0.027 C 
ATOM      4  C   UNL     1      12.190  52.106  24.746  1.00  0.00     0.031 C 
ATOM      5  C   UNL     1      10.638  51.900  24.847  1.00  0.00    -0.000 C 
ATOM      6  C   UNL     1      10.042  52.611  23.615  1.00  0.00     0.013 C 
ATOM      7  C   UNL     1      10.297  51.296  22.851  1.00  0.00     0.021 C 
ATOM      8  C   UNL     1      10.231  50.544  24.206  1.00  0.00    -0.026 C 
ATOM      9  C   UNL     1      11.158  49.314  24.414  1.00  0.00     0.012 C 
ATOM     10  C   UNL     1       8.785  50.131  24.579  1.00  0.00     0.012 C 
ENDROOT
TORSDOF 0
ENDMDL
MODEL 6
REMARK VINA RESULT:    -3.657      1.299      2.961
REMARK INTER + INTRA:          -3.657
REMARK INTER:                  -3.657
REMARK INTRA:                   0.000
REMARK UNBOUND:                 0.000
REMARK SMILES CC1=CC[C@H]2C[C@@H]1C2(C)C
REMARK SMILES IDX 1 1 2 2 3 3 4 4 5 5 6 6 7 7 8 8 9 9 10 10
REMARK H PARENT
REMARK Flexibility Score: inf
ROOT
ATOM      1  C   UNL     1      11.652  48.389  24.875  1.00  0.00     0.039 C 
ATOM      2  C   UNL     1      11.780  49.869  24.675  1.00  0.00    -0.074 C 
ATOM      3  C   UNL     1      10.764  50.721  24.999  1.00  0.00    -0.027 C 
ATOM      4  C   UNL     1      10.950  52.229  24.741  1.00  0.00     0.031 C 
ATOM      5  C   UNL     1      12.380  52.502  24.158  1.00  0.00    -0.000 C 
ATOM      6  C   UNL     1      13.353  51.698  25.044  1.00  0.00     0.013 C 
ATOM      7  C   UNL     1      13.062  50.503  24.115  1.00  0.00     0.021 C 
ATOM      8  C   UNL     1      12.689  51.514  22.999  1.00  0.00    -0.026 C 
ATOM      9  C   UNL     1      11.546  51.139  22.015  1.00  0.00     0.012 C 
ATOM     10  C   UNL     1      13.922  51.953  22.168  1.00  0.00     0.012 C 
ENDROOT
TORSDOF 0
ENDMDL
MODEL 7
REMARK VINA RESULT:    -3.508      9.332     11.656
REMARK INTER + INTRA:          -3.508
REMARK INTER:                  -3.508
REMARK INTRA:                   0.000
REMARK UNBOUND:                 0.000
REMARK SMILES CC1=CC[C@H]2C[C@@H]1C2(C)C
REMARK SMILES IDX 1 1 2 2 3 3 4 4 5 5 6 6 7 7 8 8 9 9 10 10
REMARK H PARENT
REMARK Flexibility Score: inf
ROOT
ATOM      1  C   UNL     1       4.416  48.071  14.279  1.00  0.00     0.039 C 
ATOM      2  C   UNL     1       4.061  49.519  14.425  1.00  0.00    -0.074 C 
ATOM      3  C   UNL     1       3.585  50.245  13.373  1.00  0.00    -0.027 C 
ATOM      4  C   UNL     1       3.267  51.739  13.584  1.00  0.00     0.031 C 
ATOM      5  C   UNL     1       3.533  52.139  15.077  1.00  0.00    -0.000 C 
ATOM      6  C   UNL     1       2.875  51.034  15.929  1.00  0.00     0.013 C 
ATOM      7  C   UNL     1       4.195  50.255  15.767  1.00  0.00     0.021 C 
ATOM      8  C   UNL     1       4.918  51.609  15.540  1.00  0.00    -0.026 C 
ATOM      9  C   UNL     1       6.106  51.653  14.538  1.00  0.00     0.012 C 
ATOM     10  C   UNL     1       5.380  52.259  16.869  1.00  0.00     0.012 C 
ENDROOT
TORSDOF 0
ENDMDL
MODEL 8
REMARK VINA RESULT:    -3.381     17.056     19.020
REMARK INTER + INTRA:          -3.381
REMARK INTER:                  -3.381
REMARK INTRA:                   0.000
REMARK UNBOUND:                 0.000
REMARK SMILES CC1=CC[C@H]2C[C@@H]1C2(C)C
REMARK SMILES IDX 1 1 2 2 3 3 4 4 5 5 6 6 7 7 8 8 9 9 10 10
REMARK H PARENT
REMARK Flexibility Score: inf
ROOT
ATOM      1  C   UNL     1      17.126  54.078   4.875  1.00  0.00     0.039 C 
ATOM      2  C   UNL     1      16.912  52.856   5.715  1.00  0.00    -0.074 C 
ATOM      3  C   UNL     1      16.770  52.940   7.069  1.00  0.00    -0.027 C 
ATOM      4  C   UNL     1      16.580  51.640   7.877  1.00  0.00     0.031 C 
ATOM      5  C   UNL     1      16.544  50.406   6.910  1.00  0.00    -0.000 C 
ATOM      6  C   UNL     1      15.592  50.803   5.763  1.00  0.00     0.013 C 
ATOM      7  C   UNL     1      16.819  51.453   5.095  1.00  0.00     0.021 C 
ATOM      8  C   UNL     1      17.721  50.479   5.898  1.00  0.00    -0.026 C 
ATOM      9  C   UNL     1      19.102  50.990   6.396  1.00  0.00     0.012 C 
ATOM     10  C   UNL     1      17.939  49.135   5.157  1.00  0.00     0.012 C 
ENDROOT
TORSDOF 0
ENDMDL
MODEL 9
REMARK VINA RESULT:    -1.702      1.402      2.555
REMARK INTER + INTRA:          -1.702
REMARK INTER:                  -1.702
REMARK INTRA:                   0.000
REMARK UNBOUND:                 0.000
REMARK SMILES CC1=CC[C@H]2C[C@@H]1C2(C)C
REMARK SMILES IDX 1 1 2 2 3 3 4 4 5 5 6 6 7 7 8 8 9 9 10 10
REMARK H PARENT
REMARK Flexibility Score: inf
ROOT
ATOM      1  C   UNL     1      10.763  52.138  21.075  1.00  0.00     0.039 C 
ATOM      2  C   UNL     1      10.575  51.613  22.466  1.00  0.00    -0.074 C 
ATOM      3  C   UNL     1      11.072  50.399  22.841  1.00  0.00    -0.027 C 
ATOM      4  C   UNL     1      10.817  49.906  24.279  1.00  0.00     0.031 C 
ATOM      5  C   UNL     1      10.023  50.991  25.087  1.00  0.00    -0.000 C 
ATOM      6  C   UNL     1      10.729  52.330  24.794  1.00  0.00     0.013 C 
ATOM      7  C   UNL     1       9.834  52.420  23.543  1.00  0.00     0.021 C 
ATOM      8  C   UNL     1       8.811  51.500  24.259  1.00  0.00    -0.026 C 
ATOM      9  C   UNL     1       8.010  50.479  23.404  1.00  0.00     0.012 C 
ATOM     10  C   UNL     1       7.805  52.301  25.125  1.00  0.00     0.012 C 
ENDROOT
TORSDOF 0
ENDMDL
