MODEL 1
REMARK VINA RESULT:    -4.739      0.000      0.000
REMARK INTER + INTRA:          -5.966
REMARK INTER:                  -5.847
REMARK INTRA:                  -0.119
REMARK UNBOUND:                -0.119
REMARK SMILES CCCCCC(=O)[O-]
REMARK SMILES IDX 4 1 5 2 6 3 7 4 8 5 3 6 2 7 1 8
REMARK H PARENT
REMARK Flexibility Score: inf
ROOT
ATOM      1  C   UNL     1     -21.654 -21.641  31.551  1.00  0.00     0.006 C 
ENDROOT
BRANCH   1   2
ATOM      2  C   UNL     1     -22.096 -20.393  30.776  1.00  0.00     0.053 C 
BRANCH   2   3
ATOM      3  C   UNL     1     -21.662 -20.443  29.342  1.00  0.00     0.041 C 
ATOM      4  O   UNL     1     -21.049 -19.470  28.831  1.00  0.00    -0.550 OA
ATOM      5  O   UNL     1     -21.907 -21.579  28.580  1.00  0.00    -0.550 OA
ENDBRANCH   2   3
ENDBRANCH   1   2
BRANCH   1   6
ATOM      6  C   UNL     1     -22.828 -22.592  31.841  1.00  0.00     0.000 C 
BRANCH   6   7
ATOM      7  C   UNL     1     -22.736 -23.903  31.044  1.00  0.00    -0.003 C 
ATOM      8  C   UNL     1     -23.645 -24.999  31.601  1.00  0.00     0.004 C 
ENDBRANCH   6   7
ENDBRANCH   1   6
TORSDOF 4
ENDMDL
MODEL 2
REMARK VINA RESULT:    -4.663      1.228      1.784
REMARK INTER + INTRA:          -5.872
REMARK INTER:                  -5.826
REMARK INTRA:                  -0.046
REMARK UNBOUND:                -0.119
REMARK SMILES CCCCCC(=O)[O-]
REMARK SMILES IDX 4 1 5 2 6 3 7 4 8 5 3 6 2 7 1 8
REMARK H PARENT
REMARK Flexibility Score: inf
ROOT
ATOM      1  C   UNL     1     -22.322 -20.863  30.455  1.00  0.00     0.006 C 
ENDROOT
BRANCH   1   2
ATOM      2  C   UNL     1     -21.358 -19.761  30.916  1.00  0.00     0.053 C 
BRANCH   2   3
ATOM      3  C   UNL     1     -20.616 -19.152  29.766  1.00  0.00     0.041 C 
ATOM      4  O   UNL     1     -21.170 -19.043  28.641  1.00  0.00    -0.550 OA
ATOM      5  O   UNL     1     -19.323 -18.676  29.945  1.00  0.00    -0.550 OA
ENDBRANCH   2   3
ENDBRANCH   1   2
BRANCH   1   6
ATOM      6  C   UNL     1     -22.249 -22.112  31.350  1.00  0.00     0.000 C 
BRANCH   6   7
ATOM      7  C   UNL     1     -22.320 -23.419  30.546  1.00  0.00    -0.003 C 
ATOM      8  C   UNL     1     -23.115 -24.512  31.260  1.00  0.00     0.004 C 
ENDBRANCH   6   7
ENDBRANCH   1   6
TORSDOF 4
ENDMDL
MODEL 3
REMARK VINA RESULT:    -4.641      2.913      4.666
REMARK INTER + INTRA:          -5.846
REMARK INTER:                  -5.804
REMARK INTRA:                  -0.042
REMARK UNBOUND:                -0.119
REMARK SMILES CCCCCC(=O)[O-]
REMARK SMILES IDX 4 1 5 2 6 3 7 4 8 5 3 6 2 7 1 8
REMARK H PARENT
REMARK Flexibility Score: inf
ROOT
ATOM      1  C   UNL     1     -22.357 -23.423  30.586  1.00  0.00     0.006 C 
ENDROOT
BRANCH   1   2
ATOM      2  C   UNL     1     -23.130 -24.549  31.285  1.00  0.00     0.053 C 
BRANCH   2   3
ATOM      3  C   UNL     1     -23.976 -25.326  30.323  1.00  0.00     0.041 C 
ATOM      4  O   UNL     1     -25.140 -25.681  30.646  1.00  0.00    -0.550 OA
ATOM      5  O   UNL     1     -23.491 -25.631  29.057  1.00  0.00    -0.550 OA
ENDBRANCH   2   3
ENDBRANCH   1   2
BRANCH   1   6
ATOM      6  C   UNL     1     -22.296 -22.143  31.437  1.00  0.00     0.000 C 
BRANCH   6   7
ATOM      7  C   UNL     1     -22.177 -20.872  30.582  1.00  0.00    -0.003 C 
ATOM      8  C   UNL     1     -21.234 -19.834  31.193  1.00  0.00     0.004 C 
ENDBRANCH   6   7
ENDBRANCH   1   6
TORSDOF 4
ENDMDL
MODEL 4
REMARK VINA RESULT:    -4.636      2.985      4.678
REMARK INTER + INTRA:          -5.839
REMARK INTER:                  -5.797
REMARK INTRA:                  -0.042
REMARK UNBOUND:                -0.119
REMARK SMILES CCCCCC(=O)[O-]
REMARK SMILES IDX 4 1 5 2 6 3 7 4 8 5 3 6 2 7 1 8
REMARK H PARENT
REMARK Flexibility Score: inf
ROOT
ATOM      1  C   UNL     1     -22.397 -23.458  30.558  1.00  0.00     0.006 C 
ENDROOT
BRANCH   1   2
ATOM      2  C   UNL     1     -23.133 -24.618  31.243  1.00  0.00     0.053 C 
BRANCH   2   3
ATOM      3  C   UNL     1     -23.966 -25.401  30.273  1.00  0.00     0.041 C 
ATOM      4  O   UNL     1     -23.471 -25.786  29.182  1.00  0.00    -0.550 OA
ATOM      5  O   UNL     1     -25.278 -25.730  30.589  1.00  0.00    -0.550 OA
ENDBRANCH   2   3
ENDBRANCH   1   2
BRANCH   1   6
ATOM      6  C   UNL     1     -22.338 -22.202  31.444  1.00  0.00     0.000 C 
BRANCH   6   7
ATOM      7  C   UNL     1     -22.210 -20.908  30.626  1.00  0.00    -0.003 C 
ATOM      8  C   UNL     1     -21.235 -19.908  31.247  1.00  0.00     0.004 C 
ENDBRANCH   6   7
ENDBRANCH   1   6
TORSDOF 4
ENDMDL
MODEL 5
REMARK VINA RESULT:    -4.636      4.153      5.949
REMARK INTER + INTRA:          -5.839
REMARK INTER:                  -5.708
REMARK INTRA:                  -0.131
REMARK UNBOUND:                -0.119
REMARK SMILES CCCCCC(=O)[O-]
REMARK SMILES IDX 4 1 5 2 6 3 7 4 8 5 3 6 2 7 1 8
REMARK H PARENT
REMARK Flexibility Score: inf
ROOT
ATOM      1  C   UNL     1     -23.591 -25.918  29.194  1.00  0.00     0.006 C 
ENDROOT
BRANCH   1   2
ATOM      2  C   UNL     1     -25.097 -26.055  29.456  1.00  0.00     0.053 C 
BRANCH   2   3
ATOM      3  C   UNL     1     -25.379 -26.910  30.655  1.00  0.00     0.041 C 
ATOM      4  O   UNL     1     -25.044 -26.520  31.803  1.00  0.00    -0.550 OA
ATOM      5  O   UNL     1     -26.040 -28.123  30.505  1.00  0.00    -0.550 OA
ENDBRANCH   2   3
ENDBRANCH   1   2
BRANCH   1   6
ATOM      6  C   UNL     1     -23.099 -24.471  29.373  1.00  0.00     0.000 C 
BRANCH   6   7
ATOM      7  C   UNL     1     -22.701 -24.159  30.824  1.00  0.00    -0.003 C 
ATOM      8  C   UNL     1     -22.296 -22.699  31.026  1.00  0.00     0.004 C 
ENDBRANCH   6   7
ENDBRANCH   1   6
TORSDOF 4
ENDMDL
MODEL 6
REMARK VINA RESULT:    -4.615      1.430      1.892
REMARK INTER + INTRA:          -5.813
REMARK INTER:                  -5.773
REMARK INTRA:                  -0.041
REMARK UNBOUND:                -0.119
REMARK SMILES CCCCCC(=O)[O-]
REMARK SMILES IDX 4 1 5 2 6 3 7 4 8 5 3 6 2 7 1 8
REMARK H PARENT
REMARK Flexibility Score: inf
ROOT
ATOM      1  C   UNL     1     -22.040 -20.804  30.475  1.00  0.00     0.006 C 
ENDROOT
BRANCH   1   2
ATOM      2  C   UNL     1     -21.308 -19.668  31.202  1.00  0.00     0.053 C 
BRANCH   2   3
ATOM      3  C   UNL     1     -20.441 -18.877  30.270  1.00  0.00     0.041 C 
ATOM      4  O   UNL     1     -19.256 -18.599  30.590  1.00  0.00    -0.550 OA
ATOM      5  O   UNL     1     -20.933 -18.473  29.035  1.00  0.00    -0.550 OA
ENDBRANCH   2   3
ENDBRANCH   1   2
BRANCH   1   6
ATOM      6  C   UNL     1     -22.173 -22.064  31.348  1.00  0.00     0.000 C 
BRANCH   6   7
ATOM      7  C   UNL     1     -22.232 -23.354  30.516  1.00  0.00    -0.003 C 
ATOM      8  C   UNL     1     -23.021 -24.467  31.206  1.00  0.00     0.004 C 
ENDBRANCH   6   7
ENDBRANCH   1   6
TORSDOF 4
ENDMDL
MODEL 7
REMARK VINA RESULT:    -4.607      1.476      2.213
REMARK INTER + INTRA:          -5.804
REMARK INTER:                  -5.690
REMARK INTRA:                  -0.114
REMARK UNBOUND:                -0.119
REMARK SMILES CCCCCC(=O)[O-]
REMARK SMILES IDX 4 1 5 2 6 3 7 4 8 5 3 6 2 7 1 8
REMARK H PARENT
REMARK Flexibility Score: inf
ROOT
ATOM      1  C   UNL     1     -22.217 -23.350  30.788  1.00  0.00     0.006 C 
ENDROOT
BRANCH   1   2
ATOM      2  C   UNL     1     -22.386 -22.008  31.513  1.00  0.00     0.053 C 
BRANCH   2   3
ATOM      3  C   UNL     1     -22.154 -20.846  30.596  1.00  0.00     0.041 C 
ATOM      4  O   UNL     1     -22.473 -20.924  29.381  1.00  0.00    -0.550 OA
ATOM      5  O   UNL     1     -21.615 -19.665  31.091  1.00  0.00    -0.550 OA
ENDBRANCH   2   3
ENDBRANCH   1   2
BRANCH   1   6
ATOM      6  C   UNL     1     -23.210 -24.412  31.291  1.00  0.00     0.000 C 
BRANCH   6   7
ATOM      7  C   UNL     1     -23.656 -25.376  30.179  1.00  0.00    -0.003 C 
ATOM      8  C   UNL     1     -23.178 -24.943  28.793  1.00  0.00     0.004 C 
ENDBRANCH   6   7
ENDBRANCH   1   6
TORSDOF 4
ENDMDL
MODEL 8
REMARK VINA RESULT:    -4.606      2.182      2.950
REMARK INTER + INTRA:          -5.802
REMARK INTER:                  -5.756
REMARK INTRA:                  -0.046
REMARK UNBOUND:                -0.119
REMARK SMILES CCCCCC(=O)[O-]
REMARK SMILES IDX 4 1 5 2 6 3 7 4 8 5 3 6 2 7 1 8
REMARK H PARENT
REMARK Flexibility Score: inf
ROOT
ATOM      1  C   UNL     1     -21.263 -19.806  31.214  1.00  0.00     0.006 C 
ENDROOT
BRANCH   1   2
ATOM      2  C   UNL     1     -20.823 -18.836  30.108  1.00  0.00     0.053 C 
BRANCH   2   3
ATOM      3  C   UNL     1     -19.416 -18.361  30.310  1.00  0.00     0.041 C 
ATOM      4  O   UNL     1     -18.594 -18.393  29.358  1.00  0.00    -0.550 OA
ATOM      5  O   UNL     1     -19.022 -17.854  31.543  1.00  0.00    -0.550 OA
ENDBRANCH   2   3
ENDBRANCH   1   2
BRANCH   1   6
ATOM      6  C   UNL     1     -22.213 -20.895  30.687  1.00  0.00     0.000 C 
BRANCH   6   7
ATOM      7  C   UNL     1     -22.318 -22.097  31.639  1.00  0.00    -0.003 C 
ATOM      8  C   UNL     1     -22.463 -23.427  30.900  1.00  0.00     0.004 C 
ENDBRANCH   6   7
ENDBRANCH   1   6
TORSDOF 4
ENDMDL
MODEL 9
REMARK VINA RESULT:    -4.548      1.919      4.160
REMARK INTER + INTRA:          -5.731
REMARK INTER:                  -5.622
REMARK INTRA:                  -0.109
REMARK UNBOUND:                -0.119
REMARK SMILES CCCCCC(=O)[O-]
REMARK SMILES IDX 4 1 5 2 6 3 7 4 8 5 3 6 2 7 1 8
REMARK H PARENT
REMARK Flexibility Score: inf
ROOT
ATOM      1  C   UNL     1     -22.030 -20.642  30.868  1.00  0.00     0.006 C 
ENDROOT
BRANCH   1   2
ATOM      2  C   UNL     1     -22.030 -22.000  31.583  1.00  0.00     0.053 C 
BRANCH   2   3
ATOM      3  C   UNL     1     -22.231 -23.135  30.625  1.00  0.00     0.041 C 
ATOM      4  O   UNL     1     -21.994 -22.978  29.399  1.00  0.00    -0.550 OA
ATOM      5  O   UNL     1     -22.650 -24.374  31.091  1.00  0.00    -0.550 OA
ENDBRANCH   2   3
ENDBRANCH   1   2
BRANCH   1   6
ATOM      6  C   UNL     1     -20.921 -19.711  31.389  1.00  0.00     0.000 C 
BRANCH   6   7
ATOM      7  C   UNL     1     -20.565 -18.601  30.387  1.00  0.00    -0.003 C 
ATOM      8  C   UNL     1     -20.993 -18.933  28.958  1.00  0.00     0.004 C 
ENDBRANCH   6   7
ENDBRANCH   1   6
TORSDOF 4
ENDMDL
