MODEL 1
REMARK VINA RESULT:    -4.748      0.000      0.000
REMARK INTER + INTRA:         -10.441
REMARK INTER:                  -9.188
REMARK INTRA:                  -1.253
REMARK UNBOUND:                -1.253
REMARK SMILES CCCCCC=CCC=CCCCCCCCCOC(C)=O
REMARK SMILES IDX 12 1 11 2 10 3 9 4 8 5 7 6 6 7 5 8 4 9 3 10 2 11 1 12 13 13
REMARK SMILES IDX 14 14 15 15 16 16 17 17 18 18 19 19 20 20 22 21 21 22
REMARK H PARENT
REMARK Flexibility Score: inf
ROOT
ATOM      1  C   UNL     1      -3.334  -2.644 -31.797  1.00  0.00     0.004 C 
ENDROOT
BRANCH   1   2
ATOM      2  C   UNL     1      -4.344  -2.945 -32.911  1.00  0.00     0.027 C 
BRANCH   2   3
ATOM      3  C   UNL     1      -3.652  -3.355 -34.182  1.00  0.00    -0.031 C 
ATOM      4  C   UNL     1      -2.696  -2.594 -34.739  1.00  0.00    -0.027 C 
BRANCH   4   5
ATOM      5  C   UNL     1      -1.951  -3.047 -35.963  1.00  0.00     0.054 C 
BRANCH   5   6
ATOM      6  C   UNL     1      -1.156  -1.915 -36.553  1.00  0.00    -0.027 C 
ATOM      7  C   UNL     1      -1.383  -0.642 -36.196  1.00  0.00    -0.031 C 
BRANCH   7   8
ATOM      8  C   UNL     1      -0.515   0.483 -36.691  1.00  0.00     0.027 C 
BRANCH   8   9
ATOM      9  C   UNL     1       0.951   0.297 -36.264  1.00  0.00     0.004 C 
BRANCH   9  10
ATOM     10  C   UNL     1       1.195   0.436 -34.746  1.00  0.00     0.000 C 
BRANCH  10  11
ATOM     11  C   UNL     1       1.553  -0.901 -34.074  1.00  0.00    -0.003 C 
ATOM     12  C   UNL     1       2.032  -1.923 -35.108  1.00  0.00     0.004 C 
ENDBRANCH  10  11
ENDBRANCH   9  10
ENDBRANCH   8   9
ENDBRANCH   7   8
ENDBRANCH   5   6
ENDBRANCH   4   5
ENDBRANCH   2   3
ENDBRANCH   1   2
BRANCH   1  13
ATOM     13  C   UNL     1      -3.849  -3.144 -30.442  1.00  0.00     0.000 C 
BRANCH  13  14
ATOM     14  C   UNL     1      -3.315  -4.552 -30.134  1.00  0.00     0.000 C 
BRANCH  14  15
ATOM     15  C   UNL     1      -2.394  -4.583 -28.900  1.00  0.00     0.000 C 
BRANCH  15  16
ATOM     16  C   UNL     1      -2.398  -5.913 -28.116  1.00  0.00     0.003 C 
BRANCH  16  17
ATOM     17  C   UNL     1      -2.031  -5.790 -26.623  1.00  0.00     0.042 C 
BRANCH  17  18
ATOM     18  C   UNL     1      -3.082  -6.394 -25.678  1.00  0.00     0.233 C 
BRANCH  18  19
ATOM     19  O   UNL     1      -3.027  -5.795 -24.384  1.00  0.00    -0.466 OA
BRANCH  19  20
ATOM     20  C   UNL     1      -3.654  -4.586 -24.065  1.00  0.00     0.302 C 
ATOM     21  O   UNL     1      -3.223  -3.863 -23.126  1.00  0.00    -0.253 OA
ATOM     22  C   UNL     1      -4.819  -4.129 -24.875  1.00  0.00     0.139 C 
ENDBRANCH  19  20
ENDBRANCH  18  19
ENDBRANCH  17  18
ENDBRANCH  16  17
ENDBRANCH  15  16
ENDBRANCH  14  15
ENDBRANCH  13  14
ENDBRANCH   1  13
TORSDOF 16
ENDMDL
MODEL 2
REMARK VINA RESULT:    -4.714      3.895      9.265
REMARK INTER + INTRA:         -10.375
REMARK INTER:                  -8.771
REMARK INTRA:                  -1.604
REMARK UNBOUND:                -1.253
REMARK SMILES CCCCCC=CCC=CCCCCCCCCOC(C)=O
REMARK SMILES IDX 12 1 11 2 10 3 9 4 8 5 7 6 6 7 5 8 4 9 3 10 2 11 1 12 13 13
REMARK SMILES IDX 14 14 15 15 16 16 17 17 18 18 19 19 20 20 22 21 21 22
REMARK H PARENT
REMARK Flexibility Score: inf
ROOT
ATOM      1  C   UNL     1      -1.334  -2.735 -36.323  1.00  0.00     0.004 C 
ENDROOT
BRANCH   1   2
ATOM      2  C   UNL     1      -1.899  -1.982 -35.112  1.00  0.00     0.027 C 
BRANCH   2   3
ATOM      3  C   UNL     1      -3.137  -2.649 -34.580  1.00  0.00    -0.031 C 
ATOM      4  C   UNL     1      -3.602  -2.389 -33.347  1.00  0.00    -0.027 C 
BRANCH   4   5
ATOM      5  C   UNL     1      -4.883  -2.997 -32.851  1.00  0.00     0.054 C 
BRANCH   5   6
ATOM      6  C   UNL     1      -4.648  -3.782 -31.591  1.00  0.00    -0.027 C 
ATOM      7  C   UNL     1      -3.873  -3.306 -30.605  1.00  0.00    -0.031 C 
BRANCH   7   8
ATOM      8  C   UNL     1      -3.727  -4.031 -29.295  1.00  0.00     0.027 C 
BRANCH   8   9
ATOM      9  C   UNL     1      -2.562  -5.035 -29.331  1.00  0.00     0.004 C 
BRANCH   9  10
ATOM     10  C   UNL     1      -1.663  -5.012 -28.076  1.00  0.00     0.000 C 
BRANCH  10  11
ATOM     11  C   UNL     1      -2.376  -5.543 -26.820  1.00  0.00    -0.003 C 
ATOM     12  C   UNL     1      -1.992  -6.999 -26.546  1.00  0.00     0.004 C 
ENDBRANCH  10  11
ENDBRANCH   9  10
ENDBRANCH   8   9
ENDBRANCH   7   8
ENDBRANCH   5   6
ENDBRANCH   4   5
ENDBRANCH   2   3
ENDBRANCH   1   2
BRANCH   1  13
ATOM     13  C   UNL     1      -0.781  -1.757 -37.367  1.00  0.00     0.000 C 
BRANCH  13  14
ATOM     14  C   UNL     1      -1.476  -0.391 -37.266  1.00  0.00     0.000 C 
BRANCH  14  15
ATOM     15  C   UNL     1      -0.481   0.785 -37.254  1.00  0.00     0.000 C 
BRANCH  15  16
ATOM     16  C   UNL     1       0.899   0.467 -36.641  1.00  0.00     0.003 C 
BRANCH  16  17
ATOM     17  C   UNL     1       0.999   0.679 -35.117  1.00  0.00     0.042 C 
BRANCH  17  18
ATOM     18  C   UNL     1       1.966  -0.293 -34.421  1.00  0.00     0.233 C 
BRANCH  18  19
ATOM     19  O   UNL     1       1.552  -1.648 -34.586  1.00  0.00    -0.466 OA
BRANCH  19  20
ATOM     20  C   UNL     1       2.369  -2.646 -35.127  1.00  0.00     0.302 C 
ATOM     21  O   UNL     1       2.775  -3.606 -34.417  1.00  0.00    -0.253 OA
ATOM     22  C   UNL     1       2.726  -2.595 -36.574  1.00  0.00     0.139 C 
ENDBRANCH  19  20
ENDBRANCH  18  19
ENDBRANCH  17  18
ENDBRANCH  16  17
ENDBRANCH  15  16
ENDBRANCH  14  15
ENDBRANCH  13  14
ENDBRANCH   1  13
TORSDOF 16
ENDMDL
MODEL 3
REMARK VINA RESULT:    -4.676      3.867      5.358
REMARK INTER + INTRA:         -10.303
REMARK INTER:                  -8.259
REMARK INTRA:                  -2.044
REMARK UNBOUND:                -1.253
REMARK SMILES CCCCCC=CCC=CCCCCCCCCOC(C)=O
REMARK SMILES IDX 12 1 11 2 10 3 9 4 8 5 7 6 6 7 5 8 4 9 3 10 2 11 1 12 13 13
REMARK SMILES IDX 14 14 15 15 16 16 17 17 18 18 19 19 20 20 22 21 21 22
REMARK H PARENT
REMARK Flexibility Score: inf
ROOT
ATOM      1  C   UNL     1      -3.466  -2.701 -31.532  1.00  0.00     0.004 C 
ENDROOT
BRANCH   1   2
ATOM      2  C   UNL     1      -4.451  -2.734 -32.708  1.00  0.00     0.027 C 
BRANCH   2   3
ATOM      3  C   UNL     1      -3.794  -3.252 -33.959  1.00  0.00    -0.031 C 
ATOM      4  C   UNL     1      -2.839  -2.552 -34.593  1.00  0.00    -0.027 C 
BRANCH   4   5
ATOM      5  C   UNL     1      -2.130  -3.110 -35.795  1.00  0.00     0.054 C 
BRANCH   5   6
ATOM      6  C   UNL     1      -1.325  -2.043 -36.483  1.00  0.00    -0.027 C 
ATOM      7  C   UNL     1      -1.327  -0.775 -36.043  1.00  0.00    -0.031 C 
BRANCH   7   8
ATOM      8  C   UNL     1      -0.435   0.272 -36.653  1.00  0.00     0.027 C 
BRANCH   8   9
ATOM      9  C   UNL     1       0.772   0.582 -35.752  1.00  0.00     0.004 C 
BRANCH   9  10
ATOM     10  C   UNL     1       0.642   0.051 -34.308  1.00  0.00     0.000 C 
BRANCH  10  11
ATOM     11  C   UNL     1       1.733  -0.973 -33.947  1.00  0.00    -0.003 C 
ATOM     12  C   UNL     1       2.016  -1.908 -35.125  1.00  0.00     0.004 C 
ENDBRANCH  10  11
ENDBRANCH   9  10
ENDBRANCH   8   9
ENDBRANCH   7   8
ENDBRANCH   5   6
ENDBRANCH   4   5
ENDBRANCH   2   3
ENDBRANCH   1   2
BRANCH   1  13
ATOM     13  C   UNL     1      -3.991  -3.535 -30.357  1.00  0.00     0.000 C 
BRANCH  13  14
ATOM     14  C   UNL     1      -2.865  -4.372 -29.729  1.00  0.00     0.000 C 
BRANCH  14  15
ATOM     15  C   UNL     1      -2.849  -5.826 -30.235  1.00  0.00     0.000 C 
BRANCH  15  16
ATOM     16  C   UNL     1      -4.234  -6.502 -30.326  1.00  0.00     0.003 C 
BRANCH  16  17
ATOM     17  C   UNL     1      -4.645  -6.957 -31.740  1.00  0.00     0.042 C 
BRANCH  17  18
ATOM     18  C   UNL     1      -3.582  -6.671 -32.814  1.00  0.00     0.233 C 
BRANCH  18  19
ATOM     19  O   UNL     1      -4.102  -6.863 -34.128  1.00  0.00    -0.466 OA
BRANCH  19  20
ATOM     20  C   UNL     1      -3.378  -6.590 -35.293  1.00  0.00     0.302 C 
ATOM     21  O   UNL     1      -3.954  -6.145 -36.323  1.00  0.00    -0.253 OA
ATOM     22  C   UNL     1      -1.900  -6.787 -35.300  1.00  0.00     0.139 C 
ENDBRANCH  19  20
ENDBRANCH  18  19
ENDBRANCH  17  18
ENDBRANCH  16  17
ENDBRANCH  15  16
ENDBRANCH  14  15
ENDBRANCH  13  14
ENDBRANCH   1  13
TORSDOF 16
ENDMDL
MODEL 4
REMARK VINA RESULT:    -4.667      1.158      1.513
REMARK INTER + INTRA:         -10.285
REMARK INTER:                  -9.031
REMARK INTRA:                  -1.254
REMARK UNBOUND:                -1.253
REMARK SMILES CCCCCC=CCC=CCCCCCCCCOC(C)=O
REMARK SMILES IDX 12 1 11 2 10 3 9 4 8 5 7 6 6 7 5 8 4 9 3 10 2 11 1 12 13 13
REMARK SMILES IDX 14 14 15 15 16 16 17 17 18 18 19 19 20 20 22 21 21 22
REMARK H PARENT
REMARK Flexibility Score: inf
ROOT
ATOM      1  C   UNL     1      -3.242  -2.418 -31.887  1.00  0.00     0.004 C 
ENDROOT
BRANCH   1   2
ATOM      2  C   UNL     1      -4.259  -2.855 -32.949  1.00  0.00     0.027 C 
BRANCH   2   3
ATOM      3  C   UNL     1      -3.576  -3.280 -34.220  1.00  0.00    -0.031 C 
ATOM      4  C   UNL     1      -2.616  -2.532 -34.787  1.00  0.00    -0.027 C 
BRANCH   4   5
ATOM      5  C   UNL     1      -1.881  -3.000 -36.011  1.00  0.00     0.054 C 
BRANCH   5   6
ATOM      6  C   UNL     1      -1.056  -1.888 -36.597  1.00  0.00    -0.027 C 
ATOM      7  C   UNL     1      -1.126  -0.638 -36.113  1.00  0.00    -0.031 C 
BRANCH   7   8
ATOM      8  C   UNL     1      -0.220   0.453 -36.615  1.00  0.00     0.027 C 
BRANCH   8   9
ATOM      9  C   UNL     1       1.248   0.187 -36.240  1.00  0.00     0.004 C 
BRANCH   9  10
ATOM     10  C   UNL     1       1.551   0.296 -34.730  1.00  0.00     0.000 C 
BRANCH  10  11
ATOM     11  C   UNL     1       1.537  -1.068 -34.017  1.00  0.00    -0.003 C 
ATOM     12  C   UNL     1       2.129  -2.159 -34.912  1.00  0.00     0.004 C 
ENDBRANCH  10  11
ENDBRANCH   9  10
ENDBRANCH   8   9
ENDBRANCH   7   8
ENDBRANCH   5   6
ENDBRANCH   4   5
ENDBRANCH   2   3
ENDBRANCH   1   2
BRANCH   1  13
ATOM     13  C   UNL     1      -3.332  -3.310 -30.643  1.00  0.00     0.000 C 
BRANCH  13  14
ATOM     14  C   UNL     1      -3.436  -4.792 -31.033  1.00  0.00     0.000 C 
BRANCH  14  15
ATOM     15  C   UNL     1      -2.802  -5.730 -29.989  1.00  0.00     0.000 C 
BRANCH  15  16
ATOM     16  C   UNL     1      -2.110  -5.018 -28.806  1.00  0.00     0.003 C 
BRANCH  16  17
ATOM     17  C   UNL     1      -2.761  -5.261 -27.429  1.00  0.00     0.042 C 
BRANCH  17  18
ATOM     18  C   UNL     1      -1.902  -6.116 -26.484  1.00  0.00     0.233 C 
BRANCH  18  19
ATOM     19  O   UNL     1      -2.313  -5.966 -25.126  1.00  0.00    -0.466 OA
BRANCH  19  20
ATOM     20  C   UNL     1      -1.421  -5.899 -24.050  1.00  0.00     0.302 C 
ATOM     21  O   UNL     1      -1.700  -5.227 -23.020  1.00  0.00    -0.253 OA
ATOM     22  C   UNL     1      -0.147  -6.671 -24.108  1.00  0.00     0.139 C 
ENDBRANCH  19  20
ENDBRANCH  18  19
ENDBRANCH  17  18
ENDBRANCH  16  17
ENDBRANCH  15  16
ENDBRANCH  14  15
ENDBRANCH  13  14
ENDBRANCH   1  13
TORSDOF 16
ENDMDL
MODEL 5
REMARK VINA RESULT:    -4.612      4.417      8.972
REMARK INTER + INTRA:         -10.180
REMARK INTER:                  -8.056
REMARK INTRA:                  -2.124
REMARK UNBOUND:                -1.253
REMARK SMILES CCCCCC=CCC=CCCCCCCCCOC(C)=O
REMARK SMILES IDX 12 1 11 2 10 3 9 4 8 5 7 6 6 7 5 8 4 9 3 10 2 11 1 12 13 13
REMARK SMILES IDX 14 14 15 15 16 16 17 17 18 18 19 19 20 20 22 21 21 22
REMARK H PARENT
REMARK Flexibility Score: inf
ROOT
ATOM      1  C   UNL     1      -1.044  -2.739 -35.973  1.00  0.00     0.004 C 
ENDROOT
BRANCH   1   2
ATOM      2  C   UNL     1      -1.863  -3.879 -36.591  1.00  0.00     0.027 C 
BRANCH   2   3
ATOM      3  C   UNL     1      -2.350  -4.836 -35.538  1.00  0.00    -0.031 C 
ATOM      4  C   UNL     1      -2.103  -6.154 -35.616  1.00  0.00    -0.027 C 
BRANCH   4   5
ATOM      5  C   UNL     1      -2.522  -7.094 -34.522  1.00  0.00     0.054 C 
BRANCH   5   6
ATOM      6  C   UNL     1      -3.360  -6.381 -33.498  1.00  0.00    -0.027 C 
ATOM      7  C   UNL     1      -3.090  -6.473 -32.186  1.00  0.00    -0.031 C 
BRANCH   7   8
ATOM      8  C   UNL     1      -3.850  -5.671 -31.166  1.00  0.00     0.027 C 
BRANCH   8   9
ATOM      9  C   UNL     1      -3.062  -4.426 -30.723  1.00  0.00     0.004 C 
BRANCH   9  10
ATOM     10  C   UNL     1      -3.847  -3.102 -30.834  1.00  0.00     0.000 C 
BRANCH  10  11
ATOM     11  C   UNL     1      -4.602  -2.965 -32.169  1.00  0.00    -0.003 C 
ATOM     12  C   UNL     1      -3.689  -2.398 -33.258  1.00  0.00     0.004 C 
ENDBRANCH  10  11
ENDBRANCH   9  10
ENDBRANCH   8   9
ENDBRANCH   7   8
ENDBRANCH   5   6
ENDBRANCH   4   5
ENDBRANCH   2   3
ENDBRANCH   1   2
BRANCH   1  13
ATOM     13  C   UNL     1      -1.742  -1.389 -36.180  1.00  0.00     0.000 C 
BRANCH  13  14
ATOM     14  C   UNL     1      -1.421  -0.809 -37.566  1.00  0.00     0.000 C 
BRANCH  14  15
ATOM     15  C   UNL     1      -1.257   0.723 -37.548  1.00  0.00     0.000 C 
BRANCH  15  16
ATOM     16  C   UNL     1       0.200   1.225 -37.637  1.00  0.00     0.003 C 
BRANCH  16  17
ATOM     17  C   UNL     1       1.267   0.116 -37.729  1.00  0.00     0.042 C 
BRANCH  17  18
ATOM     18  C   UNL     1       2.166   0.020 -36.486  1.00  0.00     0.233 C 
BRANCH  18  19
ATOM     19  O   UNL     1       1.547   0.613 -35.346  1.00  0.00    -0.466 OA
BRANCH  19  20
ATOM     20  C   UNL     1       1.070  -0.121 -34.255  1.00  0.00     0.302 C 
ATOM     21  O   UNL     1       0.044   0.253 -33.623  1.00  0.00    -0.253 OA
ATOM     22  C   UNL     1       1.758  -1.385 -33.867  1.00  0.00     0.139 C 
ENDBRANCH  19  20
ENDBRANCH  18  19
ENDBRANCH  17  18
ENDBRANCH  16  17
ENDBRANCH  15  16
ENDBRANCH  14  15
ENDBRANCH  13  14
ENDBRANCH   1  13
TORSDOF 16
ENDMDL
MODEL 6
REMARK VINA RESULT:    -4.570      1.692      2.435
REMARK INTER + INTRA:         -10.097
REMARK INTER:                  -8.197
REMARK INTRA:                  -1.900
REMARK UNBOUND:                -1.253
REMARK SMILES CCCCCC=CCC=CCCCCCCCCOC(C)=O
REMARK SMILES IDX 12 1 11 2 10 3 9 4 8 5 7 6 6 7 5 8 4 9 3 10 2 11 1 12 13 13
REMARK SMILES IDX 14 14 15 15 16 16 17 17 18 18 19 19 20 20 22 21 21 22
REMARK H PARENT
REMARK Flexibility Score: inf
ROOT
ATOM      1  C   UNL     1      -3.594  -3.168 -31.635  1.00  0.00     0.004 C 
ENDROOT
BRANCH   1   2
ATOM      2  C   UNL     1      -4.125  -2.432 -32.872  1.00  0.00     0.027 C 
BRANCH   2   3
ATOM      3  C   UNL     1      -3.458  -2.921 -34.129  1.00  0.00    -0.031 C 
ATOM      4  C   UNL     1      -2.549  -2.176 -34.777  1.00  0.00    -0.027 C 
BRANCH   4   5
ATOM      5  C   UNL     1      -1.827  -2.701 -35.986  1.00  0.00     0.054 C 
BRANCH   5   6
ATOM      6  C   UNL     1      -0.882  -1.668 -36.534  1.00  0.00    -0.027 C 
ATOM      7  C   UNL     1      -0.935  -0.389 -36.131  1.00  0.00    -0.031 C 
BRANCH   7   8
ATOM      8  C   UNL     1       0.080   0.624 -36.585  1.00  0.00     0.027 C 
BRANCH   8   9
ATOM      9  C   UNL     1       1.512   0.189 -36.229  1.00  0.00     0.004 C 
BRANCH   9  10
ATOM     10  C   UNL     1       1.834   0.229 -34.720  1.00  0.00     0.000 C 
BRANCH  10  11
ATOM     11  C   UNL     1       1.712  -1.149 -34.045  1.00  0.00    -0.003 C 
ATOM     12  C   UNL     1       2.250  -2.254 -34.956  1.00  0.00     0.004 C 
ENDBRANCH  10  11
ENDBRANCH   9  10
ENDBRANCH   8   9
ENDBRANCH   7   8
ENDBRANCH   5   6
ENDBRANCH   4   5
ENDBRANCH   2   3
ENDBRANCH   1   2
BRANCH   1  13
ATOM     13  C   UNL     1      -4.700  -4.001 -30.977  1.00  0.00     0.000 C 
BRANCH  13  14
ATOM     14  C   UNL     1      -4.763  -5.412 -31.583  1.00  0.00     0.000 C 
BRANCH  14  15
ATOM     15  C   UNL     1      -3.380  -5.939 -32.010  1.00  0.00     0.000 C 
BRANCH  15  16
ATOM     16  C   UNL     1      -2.883  -7.176 -31.232  1.00  0.00     0.003 C 
BRANCH  16  17
ATOM     17  C   UNL     1      -3.907  -7.784 -30.252  1.00  0.00     0.042 C 
BRANCH  17  18
ATOM     18  C   UNL     1      -3.492  -7.666 -28.776  1.00  0.00     0.233 C 
BRANCH  18  19
ATOM     19  O   UNL     1      -4.044  -6.498 -28.171  1.00  0.00    -0.466 OA
BRANCH  19  20
ATOM     20  C   UNL     1      -3.270  -5.434 -27.696  1.00  0.00     0.302 C 
ATOM     21  O   UNL     1      -3.605  -4.803 -26.657  1.00  0.00    -0.253 OA
ATOM     22  C   UNL     1      -2.009  -5.072 -28.405  1.00  0.00     0.139 C 
ENDBRANCH  19  20
ENDBRANCH  18  19
ENDBRANCH  17  18
ENDBRANCH  16  17
ENDBRANCH  15  16
ENDBRANCH  14  15
ENDBRANCH  13  14
ENDBRANCH   1  13
TORSDOF 16
ENDMDL
MODEL 7
REMARK VINA RESULT:    -4.543      4.053      9.980
REMARK INTER + INTRA:         -10.046
REMARK INTER:                  -8.952
REMARK INTRA:                  -1.094
REMARK UNBOUND:                -1.253
REMARK SMILES CCCCCC=CCC=CCCCCCCCCOC(C)=O
REMARK SMILES IDX 12 1 11 2 10 3 9 4 8 5 7 6 6 7 5 8 4 9 3 10 2 11 1 12 13 13
REMARK SMILES IDX 14 14 15 15 16 16 17 17 18 18 19 19 20 20 22 21 21 22
REMARK H PARENT
REMARK Flexibility Score: inf
ROOT
ATOM      1  C   UNL     1      -4.214  -2.405 -33.199  1.00  0.00     0.004 C 
ENDROOT
BRANCH   1   2
ATOM      2  C   UNL     1      -3.697  -2.556 -31.763  1.00  0.00     0.027 C 
BRANCH   2   3
ATOM      3  C   UNL     1      -3.463  -4.001 -31.414  1.00  0.00    -0.031 C 
ATOM      4  C   UNL     1      -2.976  -4.365 -30.217  1.00  0.00    -0.027 C 
BRANCH   4   5
ATOM      5  C   UNL     1      -2.820  -5.812 -29.843  1.00  0.00     0.054 C 
BRANCH   5   6
ATOM      6  C   UNL     1      -2.978  -6.001 -28.361  1.00  0.00    -0.027 C 
ATOM      7  C   UNL     1      -2.062  -5.537 -27.496  1.00  0.00    -0.031 C 
BRANCH   7   8
ATOM      8  C   UNL     1      -2.270  -5.618 -26.008  1.00  0.00     0.027 C 
BRANCH   8   9
ATOM      9  C   UNL     1      -1.316  -6.636 -25.358  1.00  0.00     0.004 C 
BRANCH   9  10
ATOM     10  C   UNL     1      -1.363  -6.657 -23.815  1.00  0.00     0.000 C 
BRANCH  10  11
ATOM     11  C   UNL     1       0.015  -6.424 -23.172  1.00  0.00    -0.003 C 
ATOM     12  C   UNL     1       0.577  -5.056 -23.563  1.00  0.00     0.004 C 
ENDBRANCH  10  11
ENDBRANCH   9  10
ENDBRANCH   8   9
ENDBRANCH   7   8
ENDBRANCH   5   6
ENDBRANCH   4   5
ENDBRANCH   2   3
ENDBRANCH   1   2
BRANCH   1  13
ATOM     13  C   UNL     1      -3.268  -3.087 -34.196  1.00  0.00     0.000 C 
BRANCH  13  14
ATOM     14  C   UNL     1      -2.338  -2.062 -34.863  1.00  0.00     0.000 C 
BRANCH  14  15
ATOM     15  C   UNL     1      -1.634  -2.622 -36.114  1.00  0.00     0.000 C 
BRANCH  15  16
ATOM     16  C   UNL     1      -1.174  -1.560 -37.135  1.00  0.00     0.003 C 
BRANCH  16  17
ATOM     17  C   UNL     1      -1.095  -0.121 -36.587  1.00  0.00     0.042 C 
BRANCH  17  18
ATOM     18  C   UNL     1       0.283   0.535 -36.774  1.00  0.00     0.233 C 
BRANCH  18  19
ATOM     19  O   UNL     1       0.919   0.780 -35.520  1.00  0.00    -0.466 OA
BRANCH  19  20
ATOM     20  C   UNL     1       0.824  -0.083 -34.424  1.00  0.00     0.302 C 
ATOM     21  O   UNL     1       0.017   0.153 -33.484  1.00  0.00    -0.253 OA
ATOM     22  C   UNL     1       1.656  -1.319 -34.391  1.00  0.00     0.139 C 
ENDBRANCH  19  20
ENDBRANCH  18  19
ENDBRANCH  17  18
ENDBRANCH  16  17
ENDBRANCH  15  16
ENDBRANCH  14  15
ENDBRANCH  13  14
ENDBRANCH   1  13
TORSDOF 16
ENDMDL
MODEL 8
REMARK VINA RESULT:    -4.492      4.783      9.352
REMARK INTER + INTRA:          -9.946
REMARK INTER:                  -8.088
REMARK INTRA:                  -1.858
REMARK UNBOUND:                -1.253
REMARK SMILES CCCCCC=CCC=CCCCCCCCCOC(C)=O
REMARK SMILES IDX 12 1 11 2 10 3 9 4 8 5 7 6 6 7 5 8 4 9 3 10 2 11 1 12 13 13
REMARK SMILES IDX 14 14 15 15 16 16 17 17 18 18 19 19 20 20 22 21 21 22
REMARK H PARENT
REMARK Flexibility Score: inf
ROOT
ATOM      1  C   UNL     1      -3.082  -2.960 -34.426  1.00  0.00     0.004 C 
ENDROOT
BRANCH   1   2
ATOM      2  C   UNL     1      -3.997  -2.272 -33.405  1.00  0.00     0.027 C 
BRANCH   2   3
ATOM      3  C   UNL     1      -4.223  -3.142 -32.198  1.00  0.00    -0.031 C 
ATOM      4  C   UNL     1      -3.417  -3.079 -31.126  1.00  0.00    -0.027 C 
BRANCH   4   5
ATOM      5  C   UNL     1      -3.694  -3.891 -29.892  1.00  0.00     0.054 C 
BRANCH   5   6
ATOM      6  C   UNL     1      -3.869  -5.344 -30.237  1.00  0.00    -0.027 C 
ATOM      7  C   UNL     1      -2.903  -6.034 -30.863  1.00  0.00    -0.031 C 
BRANCH   7   8
ATOM      8  C   UNL     1      -3.023  -7.514 -31.106  1.00  0.00     0.027 C 
BRANCH   8   9
ATOM      9  C   UNL     1      -3.164  -7.831 -32.605  1.00  0.00     0.004 C 
BRANCH   9  10
ATOM     10  C   UNL     1      -3.134  -6.591 -33.524  1.00  0.00     0.000 C 
BRANCH  10  11
ATOM     11  C   UNL     1      -4.489  -6.314 -34.199  1.00  0.00    -0.003 C 
ATOM     12  C   UNL     1      -4.812  -7.387 -35.240  1.00  0.00     0.004 C 
ENDBRANCH  10  11
ENDBRANCH   9  10
ENDBRANCH   8   9
ENDBRANCH   7   8
ENDBRANCH   5   6
ENDBRANCH   4   5
ENDBRANCH   2   3
ENDBRANCH   1   2
BRANCH   1  13
ATOM     13  C   UNL     1      -2.125  -1.950 -35.070  1.00  0.00     0.000 C 
BRANCH  13  14
ATOM     14  C   UNL     1      -1.424  -2.558 -36.295  1.00  0.00     0.000 C 
BRANCH  14  15
ATOM     15  C   UNL     1      -1.376  -1.593 -37.495  1.00  0.00     0.000 C 
BRANCH  15  16
ATOM     16  C   UNL     1      -1.790  -0.139 -37.181  1.00  0.00     0.003 C 
BRANCH  16  17
ATOM     17  C   UNL     1      -0.859   0.944 -37.762  1.00  0.00     0.042 C 
BRANCH  17  18
ATOM     18  C   UNL     1       0.570   0.895 -37.198  1.00  0.00     0.233 C 
BRANCH  18  19
ATOM     19  O   UNL     1       0.568   0.698 -35.785  1.00  0.00    -0.466 OA
BRANCH  19  20
ATOM     20  C   UNL     1       1.571   0.005 -35.099  1.00  0.00     0.302 C 
ATOM     21  O   UNL     1       2.782   0.130 -35.427  1.00  0.00    -0.253 OA
ATOM     22  C   UNL     1       1.203  -0.855 -33.938  1.00  0.00     0.139 C 
ENDBRANCH  19  20
ENDBRANCH  18  19
ENDBRANCH  17  18
ENDBRANCH  16  17
ENDBRANCH  15  16
ENDBRANCH  14  15
ENDBRANCH  13  14
ENDBRANCH   1  13
TORSDOF 16
ENDMDL
MODEL 9
REMARK VINA RESULT:    -4.484      3.639     10.056
REMARK INTER + INTRA:          -9.931
REMARK INTER:                  -8.578
REMARK INTRA:                  -1.353
REMARK UNBOUND:                -1.253
REMARK SMILES CCCCCC=CCC=CCCCCCCCCOC(C)=O
REMARK SMILES IDX 12 1 11 2 10 3 9 4 8 5 7 6 6 7 5 8 4 9 3 10 2 11 1 12 13 13
REMARK SMILES IDX 14 14 15 15 16 16 17 17 18 18 19 19 20 20 22 21 21 22
REMARK H PARENT
REMARK Flexibility Score: inf
ROOT
ATOM      1  C   UNL     1      -3.846  -3.412 -30.690  1.00  0.00     0.004 C 
ENDROOT
BRANCH   1   2
ATOM      2  C   UNL     1      -3.426  -4.839 -31.065  1.00  0.00     0.027 C 
BRANCH   2   3
ATOM      3  C   UNL     1      -2.843  -5.566 -29.884  1.00  0.00    -0.031 C 
ATOM      4  C   UNL     1      -2.423  -4.909 -28.791  1.00  0.00    -0.027 C 
BRANCH   4   5
ATOM      5  C   UNL     1      -1.916  -5.646 -27.583  1.00  0.00     0.054 C 
BRANCH   5   6
ATOM      6  C   UNL     1      -2.774  -5.358 -26.384  1.00  0.00    -0.027 C 
ATOM      7  C   UNL     1      -4.108  -5.247 -26.489  1.00  0.00    -0.031 C 
BRANCH   7   8
ATOM      8  C   UNL     1      -4.983  -5.075 -25.277  1.00  0.00     0.027 C 
BRANCH   8   9
ATOM      9  C   UNL     1      -4.410  -4.026 -24.309  1.00  0.00     0.004 C 
BRANCH   9  10
ATOM     10  C   UNL     1      -4.035  -4.580 -22.918  1.00  0.00     0.000 C 
BRANCH  10  11
ATOM     11  C   UNL     1      -2.521  -4.794 -22.748  1.00  0.00    -0.003 C 
ATOM     12  C   UNL     1      -2.161  -6.277 -22.869  1.00  0.00     0.004 C 
ENDBRANCH  10  11
ENDBRANCH   9  10
ENDBRANCH   8   9
ENDBRANCH   7   8
ENDBRANCH   5   6
ENDBRANCH   4   5
ENDBRANCH   2   3
ENDBRANCH   1   2
BRANCH   1  13
ATOM     13  C   UNL     1      -3.368  -2.406 -31.744  1.00  0.00     0.000 C 
BRANCH  13  14
ATOM     14  C   UNL     1      -3.867  -2.795 -33.145  1.00  0.00     0.000 C 
BRANCH  14  15
ATOM     15  C   UNL     1      -2.932  -2.310 -34.268  1.00  0.00     0.000 C 
BRANCH  15  16
ATOM     16  C   UNL     1      -2.603  -3.364 -35.346  1.00  0.00     0.003 C 
BRANCH  16  17
ATOM     17  C   UNL     1      -1.442  -2.990 -36.290  1.00  0.00     0.042 C 
BRANCH  17  18
ATOM     18  C   UNL     1      -0.957  -1.541 -36.127  1.00  0.00     0.233 C 
BRANCH  18  19
ATOM     19  O   UNL     1       0.281  -1.480 -35.420  1.00  0.00    -0.466 OA
BRANCH  19  20
ATOM     20  C   UNL     1       0.553  -0.546 -34.416  1.00  0.00     0.302 C 
ATOM     21  O   UNL     1      -0.122  -0.526 -33.350  1.00  0.00    -0.253 OA
ATOM     22  C   UNL     1       1.685   0.408 -34.591  1.00  0.00     0.139 C 
ENDBRANCH  19  20
ENDBRANCH  18  19
ENDBRANCH  17  18
ENDBRANCH  16  17
ENDBRANCH  15  16
ENDBRANCH  14  15
ENDBRANCH  13  14
ENDBRANCH   1  13
TORSDOF 16
ENDMDL
