MODEL 1
REMARK VINA RESULT:    -4.609      0.000      0.000
REMARK INTER + INTRA:          -8.065
REMARK INTER:                  -7.303
REMARK INTRA:                  -0.762
REMARK UNBOUND:                -0.762
REMARK SMILES CCCCCCCCCCCC(=O)[O-]
REMARK SMILES IDX 7 1 8 2 9 3 10 4 11 5 12 6 13 7 14 8 6 9 5 10 4 11 3 12 2 13
REMARK SMILES IDX 1 14
REMARK H PARENT
REMARK Flexibility Score: inf
ROOT
ATOM      1  C   UNL     1      49.559  29.774  16.918  1.00  0.00     0.000 C 
ENDROOT
BRANCH   1   2
ATOM      2  C   UNL     1      48.158  30.139  17.444  1.00  0.00     0.000 C 
BRANCH   2   3
ATOM      3  C   UNL     1      48.105  31.533  18.094  1.00  0.00     0.000 C 
BRANCH   3   4
ATOM      4  C   UNL     1      49.283  32.430  17.670  1.00  0.00     0.006 C 
BRANCH   4   5
ATOM      5  C   UNL     1      48.882  33.861  17.275  1.00  0.00     0.053 C 
BRANCH   5   6
ATOM      6  C   UNL     1      47.789  33.877  16.251  1.00  0.00     0.041 C 
ATOM      7  O   UNL     1      46.655  34.341  16.540  1.00  0.00    -0.550 OA
ATOM      8  O   UNL     1      48.033  33.408  14.966  1.00  0.00    -0.550 OA
ENDBRANCH   5   6
ENDBRANCH   4   5
ENDBRANCH   3   4
ENDBRANCH   2   3
ENDBRANCH   1   2
BRANCH   1   9
ATOM      9  C   UNL     1      49.675  28.392  16.248  1.00  0.00     0.000 C 
BRANCH   9  10
ATOM     10  C   UNL     1      48.310  27.784  15.886  1.00  0.00    -0.000 C 
BRANCH  10  11
ATOM     11  C   UNL     1      48.087  26.395  16.511  1.00  0.00    -0.000 C 
BRANCH  11  12
ATOM     12  C   UNL     1      49.201  25.911  17.459  1.00  0.00    -0.000 C 
BRANCH  12  13
ATOM     13  C   UNL     1      48.725  25.489  18.860  1.00  0.00    -0.003 C 
ATOM     14  C   UNL     1      49.645  25.984  19.976  1.00  0.00     0.004 C 
ENDBRANCH  12  13
ENDBRANCH  11  12
ENDBRANCH  10  11
ENDBRANCH   9  10
ENDBRANCH   1   9
TORSDOF 10
ENDMDL
MODEL 2
REMARK VINA RESULT:    -4.598      8.846     12.321
REMARK INTER + INTRA:          -8.048
REMARK INTER:                  -6.765
REMARK INTRA:                  -1.283
REMARK UNBOUND:                -0.762
REMARK SMILES CCCCCCCCCCCC(=O)[O-]
REMARK SMILES IDX 7 1 8 2 9 3 10 4 11 5 12 6 13 7 14 8 6 9 5 10 4 11 3 12 2 13
REMARK SMILES IDX 1 14
REMARK H PARENT
REMARK Flexibility Score: inf
ROOT
ATOM      1  C   UNL     1      40.122  34.638  11.380  1.00  0.00     0.000 C 
ENDROOT
BRANCH   1   2
ATOM      2  C   UNL     1      40.987  35.134  10.206  1.00  0.00     0.000 C 
BRANCH   2   3
ATOM      3  C   UNL     1      41.969  36.247  10.612  1.00  0.00     0.000 C 
BRANCH   3   4
ATOM      4  C   UNL     1      42.464  36.101  12.064  1.00  0.00     0.006 C 
BRANCH   4   5
ATOM      5  C   UNL     1      43.797  36.810  12.355  1.00  0.00     0.053 C 
BRANCH   5   6
ATOM      6  C   UNL     1      44.755  35.926  13.093  1.00  0.00     0.041 C 
ATOM      7  O   UNL     1      45.796  35.506  12.524  1.00  0.00    -0.550 OA
ATOM      8  O   UNL     1      44.513  35.592  14.420  1.00  0.00    -0.550 OA
ENDBRANCH   5   6
ENDBRANCH   4   5
ENDBRANCH   3   4
ENDBRANCH   2   3
ENDBRANCH   1   2
BRANCH   1   9
ATOM      9  C   UNL     1      38.628  35.001  11.300  1.00  0.00     0.000 C 
BRANCH   9  10
ATOM     10  C   UNL     1      38.387  36.494  11.020  1.00  0.00    -0.000 C 
BRANCH  10  11
ATOM     11  C   UNL     1      38.809  37.399  12.192  1.00  0.00    -0.000 C 
BRANCH  11  12
ATOM     12  C   UNL     1      39.359  38.784  11.793  1.00  0.00    -0.000 C 
BRANCH  12  13
ATOM     13  C   UNL     1      40.601  39.241  12.578  1.00  0.00    -0.003 C 
ATOM     14  C   UNL     1      41.676  39.858  11.684  1.00  0.00     0.004 C 
ENDBRANCH  12  13
ENDBRANCH  11  12
ENDBRANCH  10  11
ENDBRANCH   9  10
ENDBRANCH   1   9
TORSDOF 10
ENDMDL
MODEL 3
REMARK VINA RESULT:    -4.586      3.457      6.854
REMARK INTER + INTRA:          -8.029
REMARK INTER:                  -7.389
REMARK INTRA:                  -0.640
REMARK UNBOUND:                -0.762
REMARK SMILES CCCCCCCCCCCC(=O)[O-]
REMARK SMILES IDX 7 1 8 2 9 3 10 4 11 5 12 6 13 7 14 8 6 9 5 10 4 11 3 12 2 13
REMARK SMILES IDX 1 14
REMARK H PARENT
REMARK Flexibility Score: inf
ROOT
ATOM      1  C   UNL     1      48.495  34.213  16.269  1.00  0.00     0.000 C 
ENDROOT
BRANCH   1   2
ATOM      2  C   UNL     1      48.680  33.390  17.559  1.00  0.00     0.000 C 
BRANCH   2   3
ATOM      3  C   UNL     1      48.114  31.963  17.446  1.00  0.00     0.000 C 
BRANCH   3   4
ATOM      4  C   UNL     1      49.218  30.893  17.347  1.00  0.00     0.006 C 
BRANCH   4   5
ATOM      5  C   UNL     1      49.297  30.185  15.984  1.00  0.00     0.053 C 
BRANCH   5   6
ATOM      6  C   UNL     1      47.992  29.559  15.599  1.00  0.00     0.041 C 
ATOM      7  O   UNL     1      47.430  29.877  14.518  1.00  0.00    -0.550 OA
ATOM      8  O   UNL     1      47.412  28.599  16.420  1.00  0.00    -0.550 OA
ENDBRANCH   5   6
ENDBRANCH   4   5
ENDBRANCH   3   4
ENDBRANCH   2   3
ENDBRANCH   1   2
BRANCH   1   9
ATOM      9  C   UNL     1      47.904  33.444  15.073  1.00  0.00     0.000 C 
BRANCH   9  10
ATOM     10  C   UNL     1      47.600  34.349  13.868  1.00  0.00    -0.000 C 
BRANCH  10  11
ATOM     11  C   UNL     1      48.580  34.140  12.699  1.00  0.00    -0.000 C 
BRANCH  11  12
ATOM     12  C   UNL     1      47.932  33.759  11.353  1.00  0.00    -0.000 C 
BRANCH  12  13
ATOM     13  C   UNL     1      48.924  33.415  10.228  1.00  0.00    -0.003 C 
ATOM     14  C   UNL     1      50.378  33.682  10.615  1.00  0.00     0.004 C 
ENDBRANCH  12  13
ENDBRANCH  11  12
ENDBRANCH  10  11
ENDBRANCH   9  10
ENDBRANCH   1   9
TORSDOF 10
ENDMDL
MODEL 4
REMARK VINA RESULT:    -4.529      2.275      4.062
REMARK INTER + INTRA:          -7.939
REMARK INTER:                  -7.148
REMARK INTRA:                  -0.791
REMARK UNBOUND:                -0.762
REMARK SMILES CCCCCCCCCCCC(=O)[O-]
REMARK SMILES IDX 7 1 8 2 9 3 10 4 11 5 12 6 13 7 14 8 6 9 5 10 4 11 3 12 2 13
REMARK SMILES IDX 1 14
REMARK H PARENT
REMARK Flexibility Score: inf
ROOT
ATOM      1  C   UNL     1      48.832  33.251  17.094  1.00  0.00     0.000 C 
ENDROOT
BRANCH   1   2
ATOM      2  C   UNL     1      47.552  34.073  16.844  1.00  0.00     0.000 C 
BRANCH   2   3
ATOM      3  C   UNL     1      47.104  34.053  15.373  1.00  0.00     0.000 C 
BRANCH   3   4
ATOM      4  C   UNL     1      48.190  33.503  14.429  1.00  0.00     0.006 C 
BRANCH   4   5
ATOM      5  C   UNL     1      48.574  34.451  13.281  1.00  0.00     0.053 C 
BRANCH   5   6
ATOM      6  C   UNL     1      48.950  33.706  12.037  1.00  0.00     0.041 C 
ATOM      7  O   UNL     1      48.114  32.950  11.474  1.00  0.00    -0.550 OA
ATOM      8  O   UNL     1      50.212  33.871  11.481  1.00  0.00    -0.550 OA
ENDBRANCH   5   6
ENDBRANCH   4   5
ENDBRANCH   3   4
ENDBRANCH   2   3
ENDBRANCH   1   2
BRANCH   1   9
ATOM      9  C   UNL     1      48.699  32.118  18.128  1.00  0.00     0.000 C 
BRANCH   9  10
ATOM     10  C   UNL     1      48.047  30.851  17.550  1.00  0.00    -0.000 C 
BRANCH  10  11
ATOM     11  C   UNL     1      48.798  30.295  16.326  1.00  0.00    -0.000 C 
BRANCH  11  12
ATOM     12  C   UNL     1      48.076  29.166  15.563  1.00  0.00    -0.000 C 
BRANCH  12  13
ATOM     13  C   UNL     1      48.785  27.801  15.596  1.00  0.00    -0.003 C 
ATOM     14  C   UNL     1      48.158  26.828  16.593  1.00  0.00     0.004 C 
ENDBRANCH  12  13
ENDBRANCH  11  12
ENDBRANCH  10  11
ENDBRANCH   9  10
ENDBRANCH   1   9
TORSDOF 10
ENDMDL
MODEL 5
REMARK VINA RESULT:    -4.477      2.598      4.957
REMARK INTER + INTRA:          -7.857
REMARK INTER:                  -7.166
REMARK INTRA:                  -0.691
REMARK UNBOUND:                -0.762
REMARK SMILES CCCCCCCCCCCC(=O)[O-]
REMARK SMILES IDX 7 1 8 2 9 3 10 4 11 5 12 6 13 7 14 8 6 9 5 10 4 11 3 12 2 13
REMARK SMILES IDX 1 14
REMARK H PARENT
REMARK Flexibility Score: inf
ROOT
ATOM      1  C   UNL     1      49.235  26.235  19.228  1.00  0.00     0.000 C 
ENDROOT
BRANCH   1   2
ATOM      2  C   UNL     1      49.105  25.610  17.825  1.00  0.00     0.000 C 
BRANCH   2   3
ATOM      3  C   UNL     1      48.087  26.342  16.934  1.00  0.00     0.000 C 
BRANCH   3   4
ATOM      4  C   UNL     1      48.748  27.373  16.000  1.00  0.00     0.006 C 
BRANCH   4   5
ATOM      5  C   UNL     1      49.018  28.740  16.652  1.00  0.00     0.053 C 
BRANCH   5   6
ATOM      6  C   UNL     1      47.799  29.610  16.662  1.00  0.00     0.041 C 
ATOM      7  O   UNL     1      46.969  29.547  15.717  1.00  0.00    -0.550 OA
ATOM      8  O   UNL     1      47.564  30.466  17.730  1.00  0.00    -0.550 OA
ENDBRANCH   5   6
ENDBRANCH   4   5
ENDBRANCH   3   4
ENDBRANCH   2   3
ENDBRANCH   1   2
BRANCH   1   9
ATOM      9  C   UNL     1      48.546  25.457  20.364  1.00  0.00     0.000 C 
BRANCH   9  10
ATOM     10  C   UNL     1      48.183  26.344  21.566  1.00  0.00    -0.000 C 
BRANCH  10  11
ATOM     11  C   UNL     1      49.331  26.473  22.584  1.00  0.00    -0.000 C 
BRANCH  11  12
ATOM     12  C   UNL     1      50.301  25.276  22.642  1.00  0.00    -0.000 C 
BRANCH  12  13
ATOM     13  C   UNL     1      51.768  25.612  22.321  1.00  0.00    -0.003 C 
ATOM     14  C   UNL     1      52.061  27.111  22.375  1.00  0.00     0.004 C 
ENDBRANCH  12  13
ENDBRANCH  11  12
ENDBRANCH  10  11
ENDBRANCH   9  10
ENDBRANCH   1   9
TORSDOF 10
ENDMDL
MODEL 6
REMARK VINA RESULT:    -4.466      8.765     12.065
REMARK INTER + INTRA:          -7.839
REMARK INTER:                  -6.442
REMARK INTRA:                  -1.396
REMARK UNBOUND:                -0.762
REMARK SMILES CCCCCCCCCCCC(=O)[O-]
REMARK SMILES IDX 7 1 8 2 9 3 10 4 11 5 12 6 13 7 14 8 6 9 5 10 4 11 3 12 2 13
REMARK SMILES IDX 1 14
REMARK H PARENT
REMARK Flexibility Score: inf
ROOT
ATOM      1  C   UNL     1      41.614  39.861  11.829  1.00  0.00     0.000 C 
ENDROOT
BRANCH   1   2
ATOM      2  C   UNL     1      42.142  39.278  10.504  1.00  0.00     0.000 C 
BRANCH   2   3
ATOM      3  C   UNL     1      42.684  37.845  10.652  1.00  0.00     0.000 C 
BRANCH   3   4
ATOM      4  C   UNL     1      43.327  37.594  12.029  1.00  0.00     0.006 C 
BRANCH   4   5
ATOM      5  C   UNL     1      43.395  36.113  12.438  1.00  0.00     0.053 C 
BRANCH   5   6
ATOM      6  C   UNL     1      44.685  35.777  13.122  1.00  0.00     0.041 C 
ATOM      7  O   UNL     1      45.747  35.667  12.454  1.00  0.00    -0.550 OA
ATOM      8  O   UNL     1      44.719  35.618  14.502  1.00  0.00    -0.550 OA
ENDBRANCH   5   6
ENDBRANCH   4   5
ENDBRANCH   3   4
ENDBRANCH   2   3
ENDBRANCH   1   2
BRANCH   1   9
ATOM      9  C   UNL     1      40.198  39.409  12.232  1.00  0.00     0.000 C 
BRANCH   9  10
ATOM     10  C   UNL     1      40.184  38.527  13.491  1.00  0.00    -0.000 C 
BRANCH  10  11
ATOM     11  C   UNL     1      39.382  37.226  13.304  1.00  0.00    -0.000 C 
BRANCH  11  12
ATOM     12  C   UNL     1      39.325  36.686  11.860  1.00  0.00    -0.000 C 
BRANCH  12  13
ATOM     13  C   UNL     1      39.636  35.187  11.714  1.00  0.00    -0.003 C 
ATOM     14  C   UNL     1      40.480  34.872  10.480  1.00  0.00     0.004 C 
ENDBRANCH  12  13
ENDBRANCH  11  12
ENDBRANCH  10  11
ENDBRANCH   9  10
ENDBRANCH   1   9
TORSDOF 10
ENDMDL
MODEL 7
REMARK VINA RESULT:    -4.456      1.735      2.400
REMARK INTER + INTRA:          -7.823
REMARK INTER:                  -7.402
REMARK INTRA:                  -0.421
REMARK UNBOUND:                -0.762
REMARK SMILES CCCCCCCCCCCC(=O)[O-]
REMARK SMILES IDX 7 1 8 2 9 3 10 4 11 5 12 6 13 7 14 8 6 9 5 10 4 11 3 12 2 13
REMARK SMILES IDX 1 14
REMARK H PARENT
REMARK Flexibility Score: inf
ROOT
ATOM      1  C   UNL     1      48.916  27.933  15.890  1.00  0.00     0.000 C 
ENDROOT
BRANCH   1   2
ATOM      2  C   UNL     1      47.721  28.799  16.331  1.00  0.00     0.000 C 
BRANCH   2   3
ATOM      3  C   UNL     1      47.391  29.921  15.330  1.00  0.00     0.000 C 
BRANCH   3   4
ATOM      4  C   UNL     1      48.501  30.986  15.246  1.00  0.00     0.006 C 
BRANCH   4   5
ATOM      5  C   UNL     1      48.031  32.419  15.542  1.00  0.00     0.053 C 
BRANCH   5   6
ATOM      6  C   UNL     1      48.326  32.829  16.952  1.00  0.00     0.041 C 
ATOM      7  O   UNL     1      48.139  32.022  17.899  1.00  0.00    -0.550 OA
ATOM      8  O   UNL     1      48.840  34.093  17.216  1.00  0.00    -0.550 OA
ENDBRANCH   5   6
ENDBRANCH   4   5
ENDBRANCH   3   4
ENDBRANCH   2   3
ENDBRANCH   1   2
BRANCH   1   9
ATOM      9  C   UNL     1      48.647  26.418  15.829  1.00  0.00     0.000 C 
BRANCH   9  10
ATOM     10  C   UNL     1      49.252  25.652  17.017  1.00  0.00    -0.000 C 
BRANCH  10  11
ATOM     11  C   UNL     1      48.360  25.687  18.270  1.00  0.00    -0.000 C 
BRANCH  11  12
ATOM     12  C   UNL     1      49.095  25.489  19.611  1.00  0.00    -0.000 C 
BRANCH  12  13
ATOM     13  C   UNL     1      48.182  25.404  20.847  1.00  0.00    -0.003 C 
ATOM     14  C   UNL     1      48.394  26.559  21.825  1.00  0.00     0.004 C 
ENDBRANCH  12  13
ENDBRANCH  11  12
ENDBRANCH  10  11
ENDBRANCH   9  10
ENDBRANCH   1   9
TORSDOF 10
ENDMDL
MODEL 8
REMARK VINA RESULT:    -4.438      1.900      3.528
REMARK INTER + INTRA:          -7.795
REMARK INTER:                  -7.180
REMARK INTRA:                  -0.615
REMARK UNBOUND:                -0.762
REMARK SMILES CCCCCCCCCCCC(=O)[O-]
REMARK SMILES IDX 7 1 8 2 9 3 10 4 11 5 12 6 13 7 14 8 6 9 5 10 4 11 3 12 2 13
REMARK SMILES IDX 1 14
REMARK H PARENT
REMARK Flexibility Score: inf
ROOT
ATOM      1  C   UNL     1      48.460  25.974  16.911  1.00  0.00     0.000 C 
ENDROOT
BRANCH   1   2
ATOM      2  C   UNL     1      48.575  27.080  15.844  1.00  0.00     0.000 C 
BRANCH   2   3
ATOM      3  C   UNL     1      48.135  28.461  16.361  1.00  0.00     0.000 C 
BRANCH   3   4
ATOM      4  C   UNL     1      49.328  29.377  16.695  1.00  0.00     0.006 C 
BRANCH   4   5
ATOM      5  C   UNL     1      49.074  30.871  16.436  1.00  0.00     0.053 C 
BRANCH   5   6
ATOM      6  C   UNL     1      49.054  31.667  17.704  1.00  0.00     0.041 C 
ATOM      7  O   UNL     1      50.015  32.430  17.988  1.00  0.00    -0.550 OA
ATOM      8  O   UNL     1      47.960  31.591  18.557  1.00  0.00    -0.550 OA
ENDBRANCH   5   6
ENDBRANCH   4   5
ENDBRANCH   3   4
ENDBRANCH   2   3
ENDBRANCH   1   2
BRANCH   1   9
ATOM      9  C   UNL     1      49.797  25.390  17.404  1.00  0.00     0.000 C 
BRANCH   9  10
ATOM     10  C   UNL     1      49.832  25.171  18.926  1.00  0.00    -0.000 C 
BRANCH  10  11
ATOM     11  C   UNL     1      48.503  25.531  19.615  1.00  0.00    -0.000 C 
BRANCH  11  12
ATOM     12  C   UNL     1      48.474  25.326  21.143  1.00  0.00    -0.000 C 
BRANCH  12  13
ATOM     13  C   UNL     1      48.699  26.601  21.974  1.00  0.00    -0.003 C 
ATOM     14  C   UNL     1      50.088  26.660  22.610  1.00  0.00     0.004 C 
ENDBRANCH  12  13
ENDBRANCH  11  12
ENDBRANCH  10  11
ENDBRANCH   9  10
ENDBRANCH   1   9
TORSDOF 10
ENDMDL
MODEL 9
REMARK VINA RESULT:    -4.363     11.185     12.739
REMARK INTER + INTRA:          -7.675
REMARK INTER:                  -6.218
REMARK INTRA:                  -1.457
REMARK UNBOUND:                -0.762
REMARK SMILES CCCCCCCCCCCC(=O)[O-]
REMARK SMILES IDX 7 1 8 2 9 3 10 4 11 5 12 6 13 7 14 8 6 9 5 10 4 11 3 12 2 13
REMARK SMILES IDX 1 14
REMARK H PARENT
REMARK Flexibility Score: inf
ROOT
ATOM      1  C   UNL     1      39.586  35.128  11.734  1.00  0.00     0.000 C 
ENDROOT
BRANCH   1   2
ATOM      2  C   UNL     1      38.571  36.274  11.555  1.00  0.00     0.000 C 
BRANCH   2   3
ATOM      3  C   UNL     1      38.909  37.513  12.402  1.00  0.00     0.000 C 
BRANCH   3   4
ATOM      4  C   UNL     1      39.616  37.154  13.723  1.00  0.00     0.006 C 
BRANCH   4   5
ATOM      5  C   UNL     1      40.225  38.356  14.464  1.00  0.00     0.053 C 
BRANCH   5   6
ATOM      6  C   UNL     1      39.181  39.178  15.156  1.00  0.00     0.041 C 
ATOM      7  O   UNL     1      38.456  38.663  16.047  1.00  0.00    -0.550 OA
ATOM      8  O   UNL     1      39.031  40.523  14.838  1.00  0.00    -0.550 OA
ENDBRANCH   5   6
ENDBRANCH   4   5
ENDBRANCH   3   4
ENDBRANCH   2   3
ENDBRANCH   1   2
BRANCH   1   9
ATOM      9  C   UNL     1      40.545  34.903  10.551  1.00  0.00     0.000 C 
BRANCH   9  10
ATOM     10  C   UNL     1      41.604  36.010  10.416  1.00  0.00    -0.000 C 
BRANCH  10  11
ATOM     11  C   UNL     1      42.536  36.100  11.638  1.00  0.00    -0.000 C 
BRANCH  11  12
ATOM     12  C   UNL     1      43.049  37.515  11.975  1.00  0.00    -0.000 C 
BRANCH  12  13
ATOM     13  C   UNL     1      42.783  38.577  10.895  1.00  0.00    -0.003 C 
ATOM     14  C   UNL     1      41.958  39.756  11.409  1.00  0.00     0.004 C 
ENDBRANCH  12  13
ENDBRANCH  11  12
ENDBRANCH  10  11
ENDBRANCH   9  10
ENDBRANCH   1   9
TORSDOF 10
ENDMDL
