MODEL 1
REMARK VINA RESULT:    -4.320      0.000      0.000
REMARK INTER + INTRA:          -8.165
REMARK INTER:                  -7.350
REMARK INTRA:                  -0.815
REMARK UNBOUND:                -0.815
REMARK SMILES CCCCCCCCCCCCCC(=O)[O-]
REMARK SMILES IDX 8 1 9 2 10 3 11 4 12 5 13 6 14 7 15 8 16 9 7 10 6 11 5 12
REMARK SMILES IDX 4 13 3 14 2 15 1 16
REMARK H PARENT
REMARK Flexibility Score: inf
ROOT
ATOM      1  C   UNL     1     -31.871  23.030  29.559  1.00  0.00     0.000 C 
ENDROOT
BRANCH   1   2
ATOM      2  C   UNL     1     -31.035  22.272  28.514  1.00  0.00     0.000 C 
BRANCH   2   3
ATOM      3  C   UNL     1     -29.600  21.993  28.993  1.00  0.00     0.000 C 
BRANCH   3   4
ATOM      4  C   UNL     1     -28.554  22.169  27.878  1.00  0.00     0.000 C 
BRANCH   4   5
ATOM      5  C   UNL     1     -29.088  22.805  26.578  1.00  0.00     0.006 C 
BRANCH   5   6
ATOM      6  C   UNL     1     -28.927  21.930  25.325  1.00  0.00     0.053 C 
BRANCH   6   7
ATOM      7  C   UNL     1     -29.456  20.545  25.537  1.00  0.00     0.041 C 
ATOM      8  O   UNL     1     -30.698  20.342  25.580  1.00  0.00    -0.550 OA
ATOM      9  O   UNL     1     -28.579  19.475  25.655  1.00  0.00    -0.550 OA
ENDBRANCH   6   7
ENDBRANCH   5   6
ENDBRANCH   4   5
ENDBRANCH   3   4
ENDBRANCH   2   3
ENDBRANCH   1   2
BRANCH   1  10
ATOM     10  C   UNL     1     -31.233  24.371  29.962  1.00  0.00     0.000 C 
BRANCH  10  11
ATOM     11  C   UNL     1     -32.215  25.288  30.711  1.00  0.00    -0.000 C 
BRANCH  11  12
ATOM     12  C   UNL     1     -33.686  24.978  30.382  1.00  0.00    -0.000 C 
BRANCH  12  13
ATOM     13  C   UNL     1     -34.576  26.231  30.427  1.00  0.00    -0.000 C 
BRANCH  13  14
ATOM     14  C   UNL     1     -35.949  26.002  29.773  1.00  0.00    -0.000 C 
BRANCH  14  15
ATOM     15  C   UNL     1     -36.354  27.154  28.839  1.00  0.00    -0.003 C 
ATOM     16  C   UNL     1     -35.791  28.502  29.285  1.00  0.00     0.004 C 
ENDBRANCH  14  15
ENDBRANCH  13  14
ENDBRANCH  12  13
ENDBRANCH  11  12
ENDBRANCH  10  11
ENDBRANCH   1  10
TORSDOF 12
ENDMDL
MODEL 2
REMARK VINA RESULT:    -4.243      3.656      7.527
REMARK INTER + INTRA:          -8.034
REMARK INTER:                  -7.136
REMARK INTRA:                  -0.898
REMARK UNBOUND:                -0.815
REMARK SMILES CCCCCCCCCCCCCC(=O)[O-]
REMARK SMILES IDX 8 1 9 2 10 3 11 4 12 5 13 6 14 7 15 8 16 9 7 10 6 11 5 12
REMARK SMILES IDX 4 13 3 14 2 15 1 16
REMARK H PARENT
REMARK Flexibility Score: inf
ROOT
ATOM      1  C   UNL     1     -29.079  22.586  26.878  1.00  0.00     0.000 C 
ENDROOT
BRANCH   1   2
ATOM      2  C   UNL     1     -29.845  21.332  27.326  1.00  0.00     0.000 C 
BRANCH   2   3
ATOM      3  C   UNL     1     -30.772  21.600  28.525  1.00  0.00     0.000 C 
BRANCH   3   4
ATOM      4  C   UNL     1     -30.903  23.098  28.855  1.00  0.00     0.000 C 
BRANCH   4   5
ATOM      5  C   UNL     1     -31.938  23.435  29.948  1.00  0.00     0.006 C 
BRANCH   5   6
ATOM      6  C   UNL     1     -32.058  24.933  30.272  1.00  0.00     0.053 C 
BRANCH   6   7
ATOM      7  C   UNL     1     -33.361  25.260  30.934  1.00  0.00     0.041 C 
ATOM      8  O   UNL     1     -34.287  25.803  30.276  1.00  0.00    -0.550 OA
ATOM      9  O   UNL     1     -33.565  24.935  32.269  1.00  0.00    -0.550 OA
ENDBRANCH   6   7
ENDBRANCH   5   6
ENDBRANCH   4   5
ENDBRANCH   3   4
ENDBRANCH   2   3
ENDBRANCH   1   2
BRANCH   1  10
ATOM     10  C   UNL     1     -28.512  22.452  25.453  1.00  0.00     0.000 C 
BRANCH  10  11
ATOM     11  C   UNL     1     -28.853  21.098  24.809  1.00  0.00    -0.000 C 
BRANCH  11  12
ATOM     12  C   UNL     1     -29.292  21.233  23.339  1.00  0.00    -0.000 C 
BRANCH  12  13
ATOM     13  C   UNL     1     -30.532  20.385  23.015  1.00  0.00    -0.000 C 
BRANCH  13  14
ATOM     14  C   UNL     1     -31.017  19.564  24.223  1.00  0.00    -0.000 C 
BRANCH  14  15
ATOM     15  C   UNL     1     -32.427  19.968  24.680  1.00  0.00    -0.003 C 
ATOM     16  C   UNL     1     -33.409  18.798  24.668  1.00  0.00     0.004 C 
ENDBRANCH  14  15
ENDBRANCH  13  14
ENDBRANCH  12  13
ENDBRANCH  11  12
ENDBRANCH  10  11
ENDBRANCH   1  10
TORSDOF 12
ENDMDL
MODEL 3
REMARK VINA RESULT:    -4.205      3.540      7.665
REMARK INTER + INTRA:          -7.969
REMARK INTER:                  -7.159
REMARK INTRA:                  -0.810
REMARK UNBOUND:                -0.815
REMARK SMILES CCCCCCCCCCCCCC(=O)[O-]
REMARK SMILES IDX 8 1 9 2 10 3 11 4 12 5 13 6 14 7 15 8 16 9 7 10 6 11 5 12
REMARK SMILES IDX 4 13 3 14 2 15 1 16
REMARK H PARENT
REMARK Flexibility Score: inf
ROOT
ATOM      1  C   UNL     1     -30.456  21.513  29.076  1.00  0.00     0.000 C 
ENDROOT
BRANCH   1   2
ATOM      2  C   UNL     1     -31.612  22.454  29.451  1.00  0.00     0.000 C 
BRANCH   2   3
ATOM      3  C   UNL     1     -31.272  23.935  29.209  1.00  0.00     0.000 C 
BRANCH   3   4
ATOM      4  C   UNL     1     -31.668  24.839  30.391  1.00  0.00     0.000 C 
BRANCH   4   5
ATOM      5  C   UNL     1     -33.169  25.182  30.474  1.00  0.00     0.006 C 
BRANCH   5   6
ATOM      6  C   UNL     1     -33.756  25.142  31.894  1.00  0.00     0.053 C 
BRANCH   6   7
ATOM      7  C   UNL     1     -34.434  23.839  32.184  1.00  0.00     0.041 C 
ATOM      8  O   UNL     1     -33.752  22.814  32.445  1.00  0.00    -0.550 OA
ATOM      9  O   UNL     1     -35.821  23.764  32.197  1.00  0.00    -0.550 OA
ENDBRANCH   6   7
ENDBRANCH   5   6
ENDBRANCH   4   5
ENDBRANCH   3   4
ENDBRANCH   2   3
ENDBRANCH   1   2
BRANCH   1  10
ATOM     10  C   UNL     1     -29.077  22.172  29.260  1.00  0.00     0.000 C 
BRANCH  10  11
ATOM     11  C   UNL     1     -28.187  22.033  28.014  1.00  0.00    -0.000 C 
BRANCH  11  12
ATOM     12  C   UNL     1     -28.843  22.614  26.748  1.00  0.00    -0.000 C 
BRANCH  12  13
ATOM     13  C   UNL     1     -28.658  21.708  25.521  1.00  0.00    -0.000 C 
BRANCH  13  14
ATOM     14  C   UNL     1     -27.799  22.366  24.426  1.00  0.00    -0.000 C 
BRANCH  14  15
ATOM     15  C   UNL     1     -28.141  21.848  23.021  1.00  0.00    -0.003 C 
ATOM     16  C   UNL     1     -29.575  21.332  22.913  1.00  0.00     0.004 C 
ENDBRANCH  14  15
ENDBRANCH  13  14
ENDBRANCH  12  13
ENDBRANCH  11  12
ENDBRANCH  10  11
ENDBRANCH   1  10
TORSDOF 12
ENDMDL
MODEL 4
REMARK VINA RESULT:    -4.188      2.127      3.672
REMARK INTER + INTRA:          -7.941
REMARK INTER:                  -6.997
REMARK INTRA:                  -0.944
REMARK UNBOUND:                -0.815
REMARK SMILES CCCCCCCCCCCCCC(=O)[O-]
REMARK SMILES IDX 8 1 9 2 10 3 11 4 12 5 13 6 14 7 15 8 16 9 7 10 6 11 5 12
REMARK SMILES IDX 4 13 3 14 2 15 1 16
REMARK H PARENT
REMARK Flexibility Score: inf
ROOT
ATOM      1  C   UNL     1     -28.839  22.122  27.584  1.00  0.00     0.000 C 
ENDROOT
BRANCH   1   2
ATOM      2  C   UNL     1     -28.229  22.684  26.290  1.00  0.00     0.000 C 
BRANCH   2   3
ATOM      3  C   UNL     1     -28.731  21.955  25.032  1.00  0.00     0.000 C 
BRANCH   3   4
ATOM      4  C   UNL     1     -29.272  20.546  25.335  1.00  0.00     0.000 C 
BRANCH   4   5
ATOM      5  C   UNL     1     -30.694  20.267  24.805  1.00  0.00     0.006 C 
BRANCH   5   6
ATOM      6  C   UNL     1     -31.699  19.822  25.880  1.00  0.00     0.053 C 
BRANCH   6   7
ATOM      7  C   UNL     1     -32.765  18.935  25.316  1.00  0.00     0.041 C 
ATOM      8  O   UNL     1     -33.606  19.395  24.499  1.00  0.00    -0.550 OA
ATOM      9  O   UNL     1     -32.812  17.592  25.667  1.00  0.00    -0.550 OA
ENDBRANCH   6   7
ENDBRANCH   5   6
ENDBRANCH   4   5
ENDBRANCH   3   4
ENDBRANCH   2   3
ENDBRANCH   1   2
BRANCH   1  10
ATOM     10  C   UNL     1     -30.089  22.900  28.032  1.00  0.00     0.000 C 
BRANCH  10  11
ATOM     11  C   UNL     1     -31.087  22.019  28.800  1.00  0.00    -0.000 C 
BRANCH  11  12
ATOM     12  C   UNL     1     -31.872  22.802  29.869  1.00  0.00    -0.000 C 
BRANCH  12  13
ATOM     13  C   UNL     1     -31.823  24.321  29.638  1.00  0.00    -0.000 C 
BRANCH  13  14
ATOM     14  C   UNL     1     -32.245  25.120  30.884  1.00  0.00    -0.000 C 
BRANCH  14  15
ATOM     15  C   UNL     1     -33.696  25.618  30.799  1.00  0.00    -0.003 C 
ATOM     16  C   UNL     1     -34.651  24.807  31.673  1.00  0.00     0.004 C 
ENDBRANCH  14  15
ENDBRANCH  13  14
ENDBRANCH  12  13
ENDBRANCH  11  12
ENDBRANCH  10  11
ENDBRANCH   1  10
TORSDOF 12
ENDMDL
MODEL 5
REMARK VINA RESULT:    -4.125      2.116      3.376
REMARK INTER + INTRA:          -7.833
REMARK INTER:                  -6.772
REMARK INTRA:                  -1.061
REMARK UNBOUND:                -0.815
REMARK SMILES CCCCCCCCCCCCCC(=O)[O-]
REMARK SMILES IDX 8 1 9 2 10 3 11 4 12 5 13 6 14 7 15 8 16 9 7 10 6 11 5 12
REMARK SMILES IDX 4 13 3 14 2 15 1 16
REMARK H PARENT
REMARK Flexibility Score: inf
ROOT
ATOM      1  C   UNL     1     -31.733  24.331  29.675  1.00  0.00     0.000 C 
ENDROOT
BRANCH   1   2
ATOM      2  C   UNL     1     -31.966  22.817  29.799  1.00  0.00     0.000 C 
BRANCH   2   3
ATOM      3  C   UNL     1     -31.149  22.006  28.778  1.00  0.00     0.000 C 
BRANCH   3   4
ATOM      4  C   UNL     1     -30.009  22.823  28.142  1.00  0.00     0.000 C 
BRANCH   4   5
ATOM      5  C   UNL     1     -28.929  21.985  27.427  1.00  0.00     0.006 C 
BRANCH   5   6
ATOM      6  C   UNL     1     -28.330  22.649  26.176  1.00  0.00     0.053 C 
BRANCH   6   7
ATOM      7  C   UNL     1     -28.639  21.878  24.930  1.00  0.00     0.041 C 
ATOM      8  O   UNL     1     -29.649  21.127  24.884  1.00  0.00    -0.550 OA
ATOM      9  O   UNL     1     -27.831  22.014  23.809  1.00  0.00    -0.550 OA
ENDBRANCH   6   7
ENDBRANCH   5   6
ENDBRANCH   4   5
ENDBRANCH   3   4
ENDBRANCH   2   3
ENDBRANCH   1   2
BRANCH   1  10
ATOM     10  C   UNL     1     -32.377  25.122  30.828  1.00  0.00     0.000 C 
BRANCH  10  11
ATOM     11  C   UNL     1     -33.807  25.581  30.501  1.00  0.00    -0.000 C 
BRANCH  11  12
ATOM     12  C   UNL     1     -34.868  24.886  31.373  1.00  0.00    -0.000 C 
BRANCH  12  13
ATOM     13  C   UNL     1     -34.329  24.500  32.759  1.00  0.00    -0.000 C 
BRANCH  13  14
ATOM     14  C   UNL     1     -34.948  23.195  33.290  1.00  0.00    -0.000 C 
BRANCH  14  15
ATOM     15  C   UNL     1     -33.920  22.059  33.402  1.00  0.00    -0.003 C 
ATOM     16  C   UNL     1     -32.487  22.571  33.540  1.00  0.00     0.004 C 
ENDBRANCH  14  15
ENDBRANCH  13  14
ENDBRANCH  12  13
ENDBRANCH  11  12
ENDBRANCH  10  11
ENDBRANCH   1  10
TORSDOF 12
ENDMDL
MODEL 6
REMARK VINA RESULT:    -4.121      4.235      7.691
REMARK INTER + INTRA:          -7.826
REMARK INTER:                  -6.560
REMARK INTRA:                  -1.266
REMARK UNBOUND:                -0.815
REMARK SMILES CCCCCCCCCCCCCC(=O)[O-]
REMARK SMILES IDX 8 1 9 2 10 3 11 4 12 5 13 6 14 7 15 8 16 9 7 10 6 11 5 12
REMARK SMILES IDX 4 13 3 14 2 15 1 16
REMARK H PARENT
REMARK Flexibility Score: inf
ROOT
ATOM      1  C   UNL     1     -29.553  20.054  23.286  1.00  0.00     0.000 C 
ENDROOT
BRANCH   1   2
ATOM      2  C   UNL     1     -29.451  21.543  23.653  1.00  0.00     0.000 C 
BRANCH   2   3
ATOM      3  C   UNL     1     -28.414  21.812  24.757  1.00  0.00     0.000 C 
BRANCH   3   4
ATOM      4  C   UNL     1     -29.048  22.342  26.056  1.00  0.00     0.000 C 
BRANCH   4   5
ATOM      5  C   UNL     1     -29.480  21.255  27.060  1.00  0.00     0.006 C 
BRANCH   5   6
ATOM      6  C   UNL     1     -30.804  21.545  27.785  1.00  0.00     0.053 C 
BRANCH   6   7
ATOM      7  C   UNL     1     -30.612  22.447  28.965  1.00  0.00     0.041 C 
ATOM      8  O   UNL     1     -29.569  22.359  29.665  1.00  0.00    -0.550 OA
ATOM      9  O   UNL     1     -31.569  23.406  29.272  1.00  0.00    -0.550 OA
ENDBRANCH   6   7
ENDBRANCH   5   6
ENDBRANCH   4   5
ENDBRANCH   3   4
ENDBRANCH   2   3
ENDBRANCH   1   2
BRANCH   1  10
ATOM     10  C   UNL     1     -31.007  19.550  23.267  1.00  0.00     0.000 C 
BRANCH  10  11
ATOM     11  C   UNL     1     -31.789  19.961  24.525  1.00  0.00    -0.000 C 
BRANCH  11  12
ATOM     12  C   UNL     1     -33.292  19.647  24.420  1.00  0.00    -0.000 C 
BRANCH  12  13
ATOM     13  C   UNL     1     -33.707  18.456  25.298  1.00  0.00    -0.000 C 
BRANCH  13  14
ATOM     14  C   UNL     1     -34.000  17.189  24.474  1.00  0.00    -0.000 C 
BRANCH  14  15
ATOM     15  C   UNL     1     -32.810  16.217  24.448  1.00  0.00    -0.003 C 
ATOM     16  C   UNL     1     -32.227  16.035  23.047  1.00  0.00     0.004 C 
ENDBRANCH  14  15
ENDBRANCH  13  14
ENDBRANCH  12  13
ENDBRANCH  11  12
ENDBRANCH  10  11
ENDBRANCH   1  10
TORSDOF 12
ENDMDL
MODEL 7
REMARK VINA RESULT:    -4.092      2.473      3.314
REMARK INTER + INTRA:          -7.777
REMARK INTER:                  -7.170
REMARK INTRA:                  -0.607
REMARK UNBOUND:                -0.815
REMARK SMILES CCCCCCCCCCCCCC(=O)[O-]
REMARK SMILES IDX 8 1 9 2 10 3 11 4 12 5 13 6 14 7 15 8 16 9 7 10 6 11 5 12
REMARK SMILES IDX 4 13 3 14 2 15 1 16
REMARK H PARENT
REMARK Flexibility Score: inf
ROOT
ATOM      1  C   UNL     1     -30.827  21.927  28.209  1.00  0.00     0.000 C 
ENDROOT
BRANCH   1   2
ATOM      2  C   UNL     1     -29.359  22.358  28.057  1.00  0.00     0.000 C 
BRANCH   2   3
ATOM      3  C   UNL     1     -29.000  22.740  26.610  1.00  0.00     0.000 C 
BRANCH   3   4
ATOM      4  C   UNL     1     -28.710  21.515  25.724  1.00  0.00     0.000 C 
BRANCH   4   5
ATOM      5  C   UNL     1     -29.748  21.256  24.612  1.00  0.00     0.006 C 
BRANCH   5   6
ATOM      6  C   UNL     1     -29.212  21.444  23.183  1.00  0.00     0.053 C 
BRANCH   6   7
ATOM      7  C   UNL     1     -27.716  21.491  23.147  1.00  0.00     0.041 C 
ATOM      8  O   UNL     1     -27.052  20.429  23.021  1.00  0.00    -0.550 OA
ATOM      9  O   UNL     1     -27.056  22.711  23.218  1.00  0.00    -0.550 OA
ENDBRANCH   6   7
ENDBRANCH   5   6
ENDBRANCH   4   5
ENDBRANCH   3   4
ENDBRANCH   2   3
ENDBRANCH   1   2
BRANCH   1  10
ATOM     10  C   UNL     1     -31.512  22.586  29.419  1.00  0.00     0.000 C 
BRANCH  10  11
ATOM     11  C   UNL     1     -31.622  24.113  29.273  1.00  0.00    -0.000 C 
BRANCH  11  12
ATOM     12  C   UNL     1     -31.607  24.841  30.629  1.00  0.00    -0.000 C 
BRANCH  12  13
ATOM     13  C   UNL     1     -32.034  23.930  31.791  1.00  0.00    -0.000 C 
BRANCH  13  14
ATOM     14  C   UNL     1     -32.915  24.660  32.820  1.00  0.00    -0.000 C 
BRANCH  14  15
ATOM     15  C   UNL     1     -34.299  25.020  32.258  1.00  0.00    -0.003 C 
ATOM     16  C   UNL     1     -35.271  23.841  32.281  1.00  0.00     0.004 C 
ENDBRANCH  14  15
ENDBRANCH  13  14
ENDBRANCH  12  13
ENDBRANCH  11  12
ENDBRANCH  10  11
ENDBRANCH   1  10
TORSDOF 12
ENDMDL
MODEL 8
REMARK VINA RESULT:    -4.092      5.382      7.716
REMARK INTER + INTRA:          -7.777
REMARK INTER:                  -6.357
REMARK INTRA:                  -1.419
REMARK UNBOUND:                -0.815
REMARK SMILES CCCCCCCCCCCCCC(=O)[O-]
REMARK SMILES IDX 8 1 9 2 10 3 11 4 12 5 13 6 14 7 15 8 16 9 7 10 6 11 5 12
REMARK SMILES IDX 4 13 3 14 2 15 1 16
REMARK H PARENT
REMARK Flexibility Score: inf
ROOT
ATOM      1  C   UNL     1     -29.386  21.516  23.018  1.00  0.00     0.000 C 
ENDROOT
BRANCH   1   2
ATOM      2  C   UNL     1     -27.865  21.309  23.093  1.00  0.00     0.000 C 
BRANCH   2   3
ATOM      3  C   UNL     1     -27.481  19.868  23.470  1.00  0.00     0.000 C 
BRANCH   3   4
ATOM      4  C   UNL     1     -26.447  19.255  22.508  1.00  0.00     0.000 C 
BRANCH   4   5
ATOM      5  C   UNL     1     -26.747  17.807  22.068  1.00  0.00     0.006 C 
BRANCH   5   6
ATOM      6  C   UNL     1     -26.378  17.494  20.609  1.00  0.00     0.053 C 
BRANCH   6   7
ATOM      7  C   UNL     1     -27.555  17.000  19.826  1.00  0.00     0.041 C 
ATOM      8  O   UNL     1     -27.393  16.528  18.670  1.00  0.00    -0.550 OA
ATOM      9  O   UNL     1     -28.826  17.030  20.386  1.00  0.00    -0.550 OA
ENDBRANCH   6   7
ENDBRANCH   5   6
ENDBRANCH   4   5
ENDBRANCH   3   4
ENDBRANCH   2   3
ENDBRANCH   1   2
BRANCH   1  10
ATOM     10  C   UNL     1     -30.156  20.189  22.897  1.00  0.00     0.000 C 
BRANCH  10  11
ATOM     11  C   UNL     1     -31.266  20.053  23.952  1.00  0.00    -0.000 C 
BRANCH  11  12
ATOM     12  C   UNL     1     -30.788  19.335  25.227  1.00  0.00    -0.000 C 
BRANCH  12  13
ATOM     13  C   UNL     1     -30.833  20.244  26.466  1.00  0.00    -0.000 C 
BRANCH  13  14
ATOM     14  C   UNL     1     -29.445  20.789  26.847  1.00  0.00    -0.000 C 
BRANCH  14  15
ATOM     15  C   UNL     1     -29.432  22.320  26.984  1.00  0.00    -0.003 C 
ATOM     16  C   UNL     1     -28.205  22.960  26.338  1.00  0.00     0.004 C 
ENDBRANCH  14  15
ENDBRANCH  13  14
ENDBRANCH  12  13
ENDBRANCH  11  12
ENDBRANCH  10  11
ENDBRANCH   1  10
TORSDOF 12
ENDMDL
MODEL 9
REMARK VINA RESULT:    -4.058      5.073      7.346
REMARK INTER + INTRA:          -7.720
REMARK INTER:                  -6.547
REMARK INTRA:                  -1.172
REMARK UNBOUND:                -0.815
REMARK SMILES CCCCCCCCCCCCCC(=O)[O-]
REMARK SMILES IDX 8 1 9 2 10 3 11 4 12 5 13 6 14 7 15 8 16 9 7 10 6 11 5 12
REMARK SMILES IDX 4 13 3 14 2 15 1 16
REMARK H PARENT
REMARK Flexibility Score: inf
ROOT
ATOM      1  C   UNL     1     -30.261  19.567  24.954  1.00  0.00     0.000 C 
ENDROOT
BRANCH   1   2
ATOM      2  C   UNL     1     -30.076  20.289  23.610  1.00  0.00     0.000 C 
BRANCH   2   3
ATOM      3  C   UNL     1     -29.332  21.628  23.755  1.00  0.00     0.000 C 
BRANCH   3   4
ATOM      4  C   UNL     1     -28.280  21.608  24.878  1.00  0.00     0.000 C 
BRANCH   4   5
ATOM      5  C   UNL     1     -28.369  22.783  25.874  1.00  0.00     0.006 C 
BRANCH   5   6
ATOM      6  C   UNL     1     -29.292  22.531  27.078  1.00  0.00     0.053 C 
BRANCH   6   7
ATOM      7  C   UNL     1     -28.531  22.059  28.278  1.00  0.00     0.041 C 
ATOM      8  O   UNL     1     -27.280  22.196  28.329  1.00  0.00    -0.550 OA
ATOM      9  O   UNL     1     -29.206  21.498  29.355  1.00  0.00    -0.550 OA
ENDBRANCH   6   7
ENDBRANCH   5   6
ENDBRANCH   4   5
ENDBRANCH   3   4
ENDBRANCH   2   3
ENDBRANCH   1   2
BRANCH   1  10
ATOM     10  C   UNL     1     -31.614  19.889  25.614  1.00  0.00     0.000 C 
BRANCH  10  11
ATOM     11  C   UNL     1     -32.786  19.812  24.622  1.00  0.00    -0.000 C 
BRANCH  11  12
ATOM     12  C   UNL     1     -33.874  18.817  25.064  1.00  0.00    -0.000 C 
BRANCH  12  13
ATOM     13  C   UNL     1     -33.730  17.447  24.382  1.00  0.00    -0.000 C 
BRANCH  13  14
ATOM     14  C   UNL     1     -33.148  16.378  25.324  1.00  0.00    -0.000 C 
BRANCH  14  15
ATOM     15  C   UNL     1     -33.561  16.597  26.788  1.00  0.00    -0.003 C 
ATOM     16  C   UNL     1     -34.485  15.499  27.311  1.00  0.00     0.004 C 
ENDBRANCH  14  15
ENDBRANCH  13  14
ENDBRANCH  12  13
ENDBRANCH  11  12
ENDBRANCH  10  11
ENDBRANCH   1  10
TORSDOF 12
ENDMDL
