MODEL 1
REMARK VINA RESULT:    -4.383      0.000      0.000
REMARK INTER + INTRA:          -4.884
REMARK INTER:                  -4.768
REMARK INTRA:                  -0.116
REMARK UNBOUND:                -0.116
REMARK SMILES O=C([O-])c1ccccc1O
REMARK SMILES IDX 4 1 9 2 5 3 8 4 6 5 7 6 2 7 1 8 3 9 10 10
REMARK H PARENT 10 11
REMARK Flexibility Score: inf
ROOT
ATOM      1  C   UNL     1     -27.234 -17.505  12.315  1.00  0.00     0.039 A 
ATOM      2  C   UNL     1     -26.247 -17.205  13.283  1.00  0.00     0.124 A 
ATOM      3  C   UNL     1     -28.125 -18.568  12.561  1.00  0.00     0.014 A 
ATOM      4  C   UNL     1     -26.170 -17.962  14.462  1.00  0.00     0.047 A 
ATOM      5  C   UNL     1     -28.037 -19.313  13.739  1.00  0.00     0.001 A 
ATOM      6  C   UNL     1     -27.062 -19.011  14.688  1.00  0.00     0.004 A 
ENDROOT
BRANCH   1   7
ATOM      7  C   UNL     1     -27.356 -16.735  11.051  1.00  0.00     0.075 C 
ATOM      8  O   UNL     1     -28.123 -17.117  10.128  1.00  0.00    -0.545 OA
ATOM      9  O   UNL     1     -26.618 -15.571  10.865  1.00  0.00    -0.545 OA
ENDBRANCH   1   7
BRANCH   2  10
ATOM     10  O   UNL     1     -25.343 -16.161  13.082  1.00  0.00    -0.507 OA
ATOM     11  H   UNL     1     -24.843 -15.732  13.851  1.00  0.00     0.293 HD
ENDBRANCH   2  10
TORSDOF 2
ENDMDL
MODEL 2
REMARK VINA RESULT:    -3.550      2.663      3.672
REMARK INTER + INTRA:          -3.977
REMARK INTER:                  -3.723
REMARK INTRA:                  -0.254
REMARK UNBOUND:                -0.116
REMARK SMILES O=C([O-])c1ccccc1O
REMARK SMILES IDX 4 1 9 2 5 3 8 4 6 5 7 6 2 7 1 8 3 9 10 10
REMARK H PARENT 10 11
REMARK Flexibility Score: inf
ROOT
ATOM      1  C   UNL     1     -27.403 -18.720  13.730  1.00  0.00     0.039 A 
ATOM      2  C   UNL     1     -26.269 -17.918  14.002  1.00  0.00     0.124 A 
ATOM      3  C   UNL     1     -28.121 -18.497  12.539  1.00  0.00     0.014 A 
ATOM      4  C   UNL     1     -25.881 -16.923  13.092  1.00  0.00     0.047 A 
ATOM      5  C   UNL     1     -27.723 -17.503  11.641  1.00  0.00     0.001 A 
ATOM      6  C   UNL     1     -26.605 -16.718  11.918  1.00  0.00     0.004 A 
ENDROOT
BRANCH   1   7
ATOM      7  C   UNL     1     -27.855 -19.784  14.660  1.00  0.00     0.075 C 
ATOM      8  O   UNL     1     -28.111 -20.945  14.245  1.00  0.00    -0.545 OA
ATOM      9  O   UNL     1     -28.006 -19.513  16.016  1.00  0.00    -0.545 OA
ENDBRANCH   1   7
BRANCH   2  10
ATOM     10  O   UNL     1     -25.528 -18.102  15.170  1.00  0.00    -0.507 OA
ATOM     11  H   UNL     1     -25.952 -18.446  16.023  1.00  0.00     0.293 HD
ENDBRANCH   2  10
TORSDOF 2
ENDMDL
MODEL 3
REMARK VINA RESULT:    -3.510      2.014      3.528
REMARK INTER + INTRA:          -3.934
REMARK INTER:                  -3.702
REMARK INTRA:                  -0.232
REMARK UNBOUND:                -0.116
REMARK SMILES O=C([O-])c1ccccc1O
REMARK SMILES IDX 4 1 9 2 5 3 8 4 6 5 7 6 2 7 1 8 3 9 10 10
REMARK H PARENT 10 11
REMARK Flexibility Score: inf
ROOT
ATOM      1  C   UNL     1     -27.285 -17.772  12.717  1.00  0.00     0.039 A 
ATOM      2  C   UNL     1     -26.348 -16.712  12.710  1.00  0.00     0.124 A 
ATOM      3  C   UNL     1     -28.125 -17.943  11.599  1.00  0.00     0.014 A 
ATOM      4  C   UNL     1     -26.269 -15.855  11.601  1.00  0.00     0.047 A 
ATOM      5  C   UNL     1     -28.035 -17.083  10.502  1.00  0.00     0.001 A 
ATOM      6  C   UNL     1     -27.109 -16.042  10.503  1.00  0.00     0.004 A 
ENDROOT
BRANCH   1   7
ATOM      7  C   UNL     1     -27.409 -18.705  13.865  1.00  0.00     0.075 C 
ATOM      8  O   UNL     1     -27.196 -18.316  15.044  1.00  0.00    -0.545 OA
ATOM      9  O   UNL     1     -27.762 -20.033  13.655  1.00  0.00    -0.545 OA
ENDBRANCH   1   7
BRANCH   2  10
ATOM     10  O   UNL     1     -25.497 -16.503  13.796  1.00  0.00    -0.507 OA
ATOM     11  H   UNL     1     -25.045 -17.273  14.274  1.00  0.00     0.293 HD
ENDBRANCH   2  10
TORSDOF 2
ENDMDL
MODEL 4
REMARK VINA RESULT:    -3.349     22.820     23.321
REMARK INTER + INTRA:          -3.759
REMARK INTER:                  -3.510
REMARK INTRA:                  -0.249
REMARK UNBOUND:                -0.116
REMARK SMILES O=C([O-])c1ccccc1O
REMARK SMILES IDX 4 1 9 2 5 3 8 4 6 5 7 6 2 7 1 8 3 9 10 10
REMARK H PARENT 10 11
REMARK Flexibility Score: inf
ROOT
ATOM      1  C   UNL     1      -9.342 -20.425  -1.944  1.00  0.00     0.039 A 
ATOM      2  C   UNL     1      -9.980 -20.813  -3.146  1.00  0.00     0.124 A 
ATOM      3  C   UNL     1      -9.042 -21.412  -0.985  1.00  0.00     0.014 A 
ATOM      4  C   UNL     1     -10.301 -22.161  -3.363  1.00  0.00     0.047 A 
ATOM      5  C   UNL     1      -9.367 -22.751  -1.215  1.00  0.00     0.001 A 
ATOM      6  C   UNL     1      -9.995 -23.125  -2.402  1.00  0.00     0.004 A 
ENDROOT
BRANCH   1   7
ATOM      7  C   UNL     1      -8.982 -19.011  -1.666  1.00  0.00     0.075 C 
ATOM      8  O   UNL     1      -7.896 -18.716  -1.102  1.00  0.00    -0.545 OA
ATOM      9  O   UNL     1      -9.848 -17.984  -2.025  1.00  0.00    -0.545 OA
ENDBRANCH   1   7
BRANCH   2  10
ATOM     10  O   UNL     1     -10.296 -19.869  -4.124  1.00  0.00    -0.507 OA
ATOM     11  H   UNL     1      -9.663 -19.116  -4.364  1.00  0.00     0.293 HD
ENDBRANCH   2  10
TORSDOF 2
ENDMDL
MODEL 5
REMARK VINA RESULT:    -3.345     22.892     23.539
REMARK INTER + INTRA:          -3.754
REMARK INTER:                  -3.507
REMARK INTRA:                  -0.247
REMARK UNBOUND:                -0.116
REMARK SMILES O=C([O-])c1ccccc1O
REMARK SMILES IDX 4 1 9 2 5 3 8 4 6 5 7 6 2 7 1 8 3 9 10 10
REMARK H PARENT 10 11
REMARK Flexibility Score: inf
ROOT
ATOM      1  C   UNL     1      -9.196 -19.760  -1.949  1.00  0.00     0.039 A 
ATOM      2  C   UNL     1      -9.635 -19.235  -3.188  1.00  0.00     0.124 A 
ATOM      3  C   UNL     1      -8.559 -18.898  -1.035  1.00  0.00     0.014 A 
ATOM      4  C   UNL     1      -9.433 -17.879  -3.485  1.00  0.00     0.047 A 
ATOM      5  C   UNL     1      -8.365 -17.549  -1.344  1.00  0.00     0.001 A 
ATOM      6  C   UNL     1      -8.801 -17.041  -2.566  1.00  0.00     0.004 A 
ENDROOT
BRANCH   1   7
ATOM      7  C   UNL     1      -9.385 -21.188  -1.588  1.00  0.00     0.075 C 
ATOM      8  O   UNL     1      -8.499 -21.822  -0.958  1.00  0.00    -0.545 OA
ATOM      9  O   UNL     1     -10.554 -21.852  -1.945  1.00  0.00    -0.545 OA
ENDBRANCH   1   7
BRANCH   2  10
ATOM     10  O   UNL     1     -10.270 -20.052  -4.125  1.00  0.00    -0.507 OA
ATOM     11  H   UNL     1     -11.155 -19.794  -4.546  1.00  0.00     0.293 HD
ENDBRANCH   2  10
TORSDOF 2
ENDMDL
MODEL 6
REMARK VINA RESULT:    -3.153     16.685     17.760
REMARK INTER + INTRA:          -3.545
REMARK INTER:                  -3.297
REMARK INTRA:                  -0.248
REMARK UNBOUND:                -0.116
REMARK SMILES O=C([O-])c1ccccc1O
REMARK SMILES IDX 4 1 9 2 5 3 8 4 6 5 7 6 2 7 1 8 3 9 10 10
REMARK H PARENT 10 11
REMARK Flexibility Score: inf
ROOT
ATOM      1  C   UNL     1      -9.742 -17.853  12.164  1.00  0.00     0.039 A 
ATOM      2  C   UNL     1      -9.296 -19.196  12.148  1.00  0.00     0.124 A 
ATOM      3  C   UNL     1      -9.784 -17.138  10.951  1.00  0.00     0.014 A 
ATOM      4  C   UNL     1      -8.906 -19.790  10.939  1.00  0.00     0.047 A 
ATOM      5  C   UNL     1      -9.394 -17.743   9.753  1.00  0.00     0.001 A 
ATOM      6  C   UNL     1      -8.956 -19.066   9.747  1.00  0.00     0.004 A 
ENDROOT
BRANCH   1   7
ATOM      7  C   UNL     1     -10.164 -17.179  13.417  1.00  0.00     0.075 C 
ATOM      8  O   UNL     1      -9.502 -17.309  14.480  1.00  0.00    -0.545 OA
ATOM      9  O   UNL     1     -11.307 -16.387  13.437  1.00  0.00    -0.545 OA
ENDBRANCH   1   7
BRANCH   2  10
ATOM     10  O   UNL     1      -9.236 -19.942  13.326  1.00  0.00    -0.507 OA
ATOM     11  H   UNL     1      -9.201 -20.954  13.315  1.00  0.00     0.293 HD
ENDBRANCH   2  10
TORSDOF 2
ENDMDL
MODEL 7
REMARK VINA RESULT:    -3.057     23.144     23.444
REMARK INTER + INTRA:          -3.441
REMARK INTER:                  -3.196
REMARK INTRA:                  -0.245
REMARK UNBOUND:                -0.116
REMARK SMILES O=C([O-])c1ccccc1O
REMARK SMILES IDX 4 1 9 2 5 3 8 4 6 5 7 6 2 7 1 8 3 9 10 10
REMARK H PARENT 10 11
REMARK Flexibility Score: inf
ROOT
ATOM      1  C   UNL     1      -9.327 -19.951  -2.276  1.00  0.00     0.039 A 
ATOM      2  C   UNL     1      -8.380 -19.889  -1.226  1.00  0.00     0.124 A 
ATOM      3  C   UNL     1      -9.808 -18.747  -2.826  1.00  0.00     0.014 A 
ATOM      4  C   UNL     1      -7.938 -18.643  -0.754  1.00  0.00     0.047 A 
ATOM      5  C   UNL     1      -9.360 -17.514  -2.347  1.00  0.00     0.001 A 
ATOM      6  C   UNL     1      -8.427 -17.462  -1.313  1.00  0.00     0.004 A 
ENDROOT
BRANCH   1   7
ATOM      7  C   UNL     1      -9.825 -21.243  -2.810  1.00  0.00     0.075 C 
ATOM      8  O   UNL     1      -9.736 -21.518  -4.035  1.00  0.00    -0.545 OA
ATOM      9  O   UNL     1     -10.406 -22.177  -1.958  1.00  0.00    -0.545 OA
ENDBRANCH   1   7
BRANCH   2  10
ATOM     10  O   UNL     1      -7.875 -21.055  -0.649  1.00  0.00    -0.507 OA
ATOM     11  H   UNL     1      -8.485 -21.791  -0.312  1.00  0.00     0.293 HD
ENDBRANCH   2  10
TORSDOF 2
ENDMDL
MODEL 8
REMARK VINA RESULT:    -2.987     22.875     23.304
REMARK INTER + INTRA:          -3.365
REMARK INTER:                  -3.132
REMARK INTRA:                  -0.233
REMARK UNBOUND:                -0.116
REMARK SMILES O=C([O-])c1ccccc1O
REMARK SMILES IDX 4 1 9 2 5 3 8 4 6 5 7 6 2 7 1 8 3 9 10 10
REMARK H PARENT 10 11
REMARK Flexibility Score: inf
ROOT
ATOM      1  C   UNL     1      -9.143 -20.890  -1.918  1.00  0.00     0.039 A 
ATOM      2  C   UNL     1      -9.936 -22.060  -1.986  1.00  0.00     0.124 A 
ATOM      3  C   UNL     1      -8.113 -20.822  -0.960  1.00  0.00     0.014 A 
ATOM      4  C   UNL     1      -9.687 -23.125  -1.107  1.00  0.00     0.047 A 
ATOM      5  C   UNL     1      -7.876 -21.891  -0.091  1.00  0.00     0.001 A 
ATOM      6  C   UNL     1      -8.662 -23.039  -0.165  1.00  0.00     0.004 A 
ENDROOT
BRANCH   1   7
ATOM      7  C   UNL     1      -9.366 -19.735  -2.825  1.00  0.00     0.075 C 
ATOM      8  O   UNL     1      -9.764 -19.904  -4.008  1.00  0.00    -0.545 OA
ATOM      9  O   UNL     1      -9.136 -18.438  -2.378  1.00  0.00    -0.545 OA
ENDBRANCH   1   7
BRANCH   2  10
ATOM     10  O   UNL     1     -10.967 -22.171  -2.919  1.00  0.00    -0.507 OA
ATOM     11  H   UNL     1     -10.929 -22.839  -3.680  1.00  0.00     0.293 HD
ENDBRANCH   2  10
TORSDOF 2
ENDMDL
MODEL 9
REMARK VINA RESULT:    -2.898     17.227     18.221
REMARK INTER + INTRA:          -3.269
REMARK INTER:                  -3.015
REMARK INTRA:                  -0.254
REMARK UNBOUND:                -0.116
REMARK SMILES O=C([O-])c1ccccc1O
REMARK SMILES IDX 4 1 9 2 5 3 8 4 6 5 7 6 2 7 1 8 3 9 10 10
REMARK H PARENT 10 11
REMARK Flexibility Score: inf
ROOT
ATOM      1  C   UNL     1      -9.117 -19.058  12.113  1.00  0.00     0.039 A 
ATOM      2  C   UNL     1      -9.771 -17.844  11.797  1.00  0.00     0.124 A 
ATOM      3  C   UNL     1      -8.531 -19.804  11.071  1.00  0.00     0.014 A 
ATOM      4  C   UNL     1      -9.827 -17.404  10.466  1.00  0.00     0.047 A 
ATOM      5  C   UNL     1      -8.594 -19.354   9.750  1.00  0.00     0.001 A 
ATOM      6  C   UNL     1      -9.240 -18.157   9.448  1.00  0.00     0.004 A 
ENDROOT
BRANCH   1   7
ATOM      7  C   UNL     1      -9.031 -19.567  13.505  1.00  0.00     0.075 C 
ATOM      8  O   UNL     1      -7.933 -19.944  13.993  1.00  0.00    -0.545 OA
ATOM      9  O   UNL     1     -10.172 -19.637  14.297  1.00  0.00    -0.545 OA
ENDBRANCH   1   7
BRANCH   2  10
ATOM     10  O   UNL     1     -10.366 -17.073  12.796  1.00  0.00    -0.507 OA
ATOM     11  H   UNL     1     -10.781 -16.170  12.598  1.00  0.00     0.293 HD
ENDBRANCH   2  10
TORSDOF 2
ENDMDL
