MODEL 1
REMARK VINA RESULT:    -5.265      0.000      0.000
REMARK INTER + INTRA:          -9.546
REMARK INTER:                  -8.344
REMARK INTRA:                  -1.203
REMARK UNBOUND:                -1.203
REMARK SMILES C[C@H]1O[C@H](O[C@@H]2[C@@H](Oc3cc(O)c4c(c3)O[C@@H](c3ccc(O)cc3)CC4=O)O[C@@H](CO)[C@H](O)[C@@H]2O)[C@H](O)[C@H](O)[C@H]1O
REMARK SMILES IDX 6 1 34 2 32 3 29 4 28 5 7 6 5 7 4 8 1 9 2 10 40 11 3 12
REMARK SMILES IDX 38 13 36 14 41 15 39 17 37 19 35 21 8 23 9 24 10 25 15 26
REMARK SMILES IDX 11 27 14 28 13 29 16 30 26 31 17 32 27 33 25 34 12 35 18 37
REMARK SMILES IDX 19 38 24 39 20 40 23 41 21 42 22 43 33 45 30 47 31 48
REMARK H PARENT 41 16 39 18 37 20 35 22 12 36 22 44 33 46 31 49
REMARK Flexibility Score: inf
ROOT
ATOM      1  C   UNL     1       8.576   6.163   6.476  1.00  0.00     0.221 C 
ATOM      2  C   UNL     1       7.457   5.116   6.530  1.00  0.00     0.181 C 
ATOM      3  C   UNL     1       6.135   5.703   5.992  1.00  0.00     0.177 C 
ATOM      4  C   UNL     1       6.363   6.335   4.601  1.00  0.00     0.179 C 
ATOM      5  O   UNL     1       7.396   7.314   4.615  1.00  0.00    -0.332 OA
ATOM      6  C   UNL     1       8.651   6.838   5.086  1.00  0.00     0.339 C 
ENDROOT
BRANCH   1   7
ATOM      7  O   UNL     1       8.326   7.144   7.476  1.00  0.00    -0.337 OA
BRANCH   7   8
ATOM      8  C   UNL     1       9.484   7.478   8.229  1.00  0.00     0.282 C 
ATOM      9  C   UNL     1       9.743  11.024   7.264  1.00  0.00     0.041 C 
ATOM     10  C   UNL     1       9.154   9.789   7.951  1.00  0.00     0.150 C 
ATOM     11  C   UNL     1       8.886  10.049   9.452  1.00  0.00     0.174 C 
ATOM     12  O   UNL     1      10.054   8.702   7.782  1.00  0.00    -0.344 OA
ATOM     13  C   UNL     1       8.328   8.777  10.124  1.00  0.00     0.179 C 
ATOM     14  C   UNL     1       9.151   7.529   9.740  1.00  0.00     0.202 C 
BRANCH  11  15
ATOM     15  O   UNL     1      10.085  10.427  10.082  1.00  0.00    -0.388 OA
ATOM     16  H   UNL     1      10.363   9.656  10.650  1.00  0.00     0.211 HD
ENDBRANCH  11  15
BRANCH  13  17
ATOM     17  O   UNL     1       6.955   8.612   9.857  1.00  0.00    -0.387 OA
ATOM     18  H   UNL     1       6.486   9.436  10.137  1.00  0.00     0.211 HD
ENDBRANCH  13  17
BRANCH  14  19
ATOM     19  O   UNL     1       8.459   6.369  10.123  1.00  0.00    -0.385 OA
ATOM     20  H   UNL     1       7.712   6.664  10.709  1.00  0.00     0.211 HD
ENDBRANCH  14  19
ENDBRANCH   7   8
ENDBRANCH   1   7
BRANCH   2  21
ATOM     21  O   UNL     1       7.296   4.664   7.851  1.00  0.00    -0.387 OA
ATOM     22  H   UNL     1       6.925   5.421   8.372  1.00  0.00     0.211 HD
ENDBRANCH   2  21
BRANCH   6  23
ATOM     23  O   UNL     1       9.252   5.968   4.119  1.00  0.00    -0.462 OA
BRANCH  23  24
ATOM     24  C   UNL     1       9.419   6.295   2.766  1.00  0.00     0.130 A 
ATOM     25  C   UNL     1       9.611   7.619   2.342  1.00  0.00     0.093 A 
ATOM     26  C   UNL     1       9.392   5.271   1.818  1.00  0.00     0.094 A 
ATOM     27  C   UNL     1       9.669   7.938   0.980  1.00  0.00     0.133 A 
ATOM     28  C   UNL     1       9.478   5.560   0.454  1.00  0.00     0.138 A 
ATOM     29  C   UNL     1       9.599   6.898   0.015  1.00  0.00     0.102 A 
ATOM     30  O   UNL     1       9.410   4.502  -0.469  1.00  0.00    -0.484 OA
ATOM     31  C   UNL     1       9.620   7.114  -1.453  1.00  0.00     0.174 C 
ATOM     32  C   UNL     1       9.652   4.682  -1.873  1.00  0.00     0.211 C 
ATOM     33  O   UNL     1      10.125   8.145  -1.974  1.00  0.00    -0.294 OA
ATOM     34  C   UNL     1       9.081   6.031  -2.340  1.00  0.00     0.131 C 
BRANCH  27  35
ATOM     35  O   UNL     1       9.761   9.292   0.646  1.00  0.00    -0.507 OA
ATOM     36  H   UNL     1       9.226   9.737  -0.087  1.00  0.00     0.293 HD
ENDBRANCH  27  35
BRANCH  32  37
ATOM     37  C   UNL     1       9.081   3.535  -2.684  1.00  0.00    -0.007 A 
ATOM     38  C   UNL     1       8.560   2.376  -2.074  1.00  0.00     0.011 A 
ATOM     39  C   UNL     1       9.070   3.624  -4.089  1.00  0.00     0.011 A 
ATOM     40  C   UNL     1       8.055   1.327  -2.852  1.00  0.00     0.046 A 
ATOM     41  C   UNL     1       8.555   2.580  -4.869  1.00  0.00     0.046 A 
ATOM     42  C   UNL     1       8.046   1.428  -4.249  1.00  0.00     0.115 A 
BRANCH  42  43
ATOM     43  O   UNL     1       7.528   0.384  -5.007  1.00  0.00    -0.508 OA
ATOM     44  H   UNL     1       6.959   0.562  -5.832  1.00  0.00     0.293 HD
ENDBRANCH  42  43
ENDBRANCH  32  37
ENDBRANCH  23  24
ENDBRANCH   6  23
BRANCH   3  45
ATOM     45  O   UNL     1       5.648   6.689   6.860  1.00  0.00    -0.387 OA
ATOM     46  H   UNL     1       5.392   7.469   6.301  1.00  0.00     0.211 HD
ENDBRANCH   3  45
BRANCH   4  47
ATOM     47  C   UNL     1       6.525   5.288   3.482  1.00  0.00     0.191 C 
BRANCH  47  48
ATOM     48  O   UNL     1       6.029   5.806   2.280  1.00  0.00    -0.394 OA
ATOM     49  H   UNL     1       5.645   6.693   2.500  1.00  0.00     0.210 HD
ENDBRANCH  47  48
ENDBRANCH   4  47
TORSDOF 14
ENDMDL
MODEL 2
REMARK VINA RESULT:    -5.217      2.210      4.590
REMARK INTER + INTRA:          -9.469
REMARK INTER:                  -8.269
REMARK INTRA:                  -1.200
REMARK UNBOUND:                -1.203
REMARK SMILES C[C@H]1O[C@H](O[C@@H]2[C@@H](Oc3cc(O)c4c(c3)O[C@@H](c3ccc(O)cc3)CC4=O)O[C@@H](CO)[C@H](O)[C@@H]2O)[C@H](O)[C@H](O)[C@H]1O
REMARK SMILES IDX 6 1 34 2 32 3 29 4 28 5 7 6 5 7 4 8 1 9 2 10 40 11 3 12
REMARK SMILES IDX 38 13 36 14 41 15 39 17 37 19 35 21 8 23 9 24 10 25 15 26
REMARK SMILES IDX 11 27 14 28 13 29 16 30 26 31 17 32 27 33 25 34 12 35 18 37
REMARK SMILES IDX 19 38 24 39 20 40 23 41 21 42 22 43 33 45 30 47 31 48
REMARK H PARENT 41 16 39 18 37 20 35 22 12 36 22 44 33 46 31 49
REMARK Flexibility Score: inf
ROOT
ATOM      1  C   UNL     1       7.667   6.993   4.339  1.00  0.00     0.221 C 
ATOM      2  C   UNL     1       7.649   8.526   4.307  1.00  0.00     0.181 C 
ATOM      3  C   UNL     1       9.037   9.095   4.669  1.00  0.00     0.177 C 
ATOM      4  C   UNL     1      10.125   8.442   3.786  1.00  0.00     0.179 C 
ATOM      5  O   UNL     1      10.109   7.021   3.872  1.00  0.00    -0.332 OA
ATOM      6  C   UNL     1       8.862   6.425   3.535  1.00  0.00     0.339 C 
ENDROOT
BRANCH   1   7
ATOM      7  O   UNL     1       7.752   6.570   5.695  1.00  0.00    -0.337 OA
BRANCH   7   8
ATOM      8  C   UNL     1       6.513   6.662   6.384  1.00  0.00     0.282 C 
ATOM      9  C   UNL     1       5.616   3.089   6.349  1.00  0.00     0.041 C 
ATOM     10  C   UNL     1       6.399   4.343   6.749  1.00  0.00     0.150 C 
ATOM     11  C   UNL     1       6.530   4.461   8.286  1.00  0.00     0.174 C 
ATOM     12  O   UNL     1       5.739   5.481   6.213  1.00  0.00    -0.344 OA
ATOM     13  C   UNL     1       7.291   5.751   8.661  1.00  0.00     0.179 C 
ATOM     14  C   UNL     1       6.749   6.970   7.883  1.00  0.00     0.202 C 
BRANCH  11  15
ATOM     15  O   UNL     1       5.249   4.485   8.866  1.00  0.00    -0.388 OA
ATOM     16  H   UNL     1       4.600   4.320   8.127  1.00  0.00     0.211 HD
ENDBRANCH  11  15
BRANCH  13  17
ATOM     17  O   UNL     1       8.681   5.594   8.503  1.00  0.00    -0.387 OA
ATOM     18  H   UNL     1       8.907   4.650   8.692  1.00  0.00     0.211 HD
ENDBRANCH  13  17
BRANCH  14  19
ATOM     19  O   UNL     1       7.634   8.052   8.022  1.00  0.00    -0.385 OA
ATOM     20  H   UNL     1       7.518   8.397   8.947  1.00  0.00     0.211 HD
ENDBRANCH  14  19
ENDBRANCH   7   8
ENDBRANCH   1   7
BRANCH   2  21
ATOM     21  O   UNL     1       6.672   9.005   5.195  1.00  0.00    -0.387 OA
ATOM     22  H   UNL     1       6.102   8.233   5.441  1.00  0.00     0.211 HD
ENDBRANCH   2  21
BRANCH   6  23
ATOM     23  O   UNL     1       8.627   6.514   2.126  1.00  0.00    -0.462 OA
BRANCH  23  24
ATOM     24  C   UNL     1       8.419   5.406   1.293  1.00  0.00     0.130 A 
ATOM     25  C   UNL     1       8.201   4.120   1.813  1.00  0.00     0.093 A 
ATOM     26  C   UNL     1       8.428   5.591  -0.090  1.00  0.00     0.094 A 
ATOM     27  C   UNL     1       8.101   3.009   0.967  1.00  0.00     0.133 A 
ATOM     28  C   UNL     1       8.300   4.502  -0.956  1.00  0.00     0.138 A 
ATOM     29  C   UNL     1       8.152   3.194  -0.440  1.00  0.00     0.102 A 
ATOM     30  O   UNL     1       8.351   4.728  -2.343  1.00  0.00    -0.484 OA
ATOM     31  C   UNL     1       8.087   2.093  -1.433  1.00  0.00     0.174 C 
ATOM     32  C   UNL     1       8.066   3.701  -3.306  1.00  0.00     0.211 C 
ATOM     33  O   UNL     1       7.557   0.981  -1.170  1.00  0.00    -0.294 OA
ATOM     34  C   UNL     1       8.611   2.350  -2.815  1.00  0.00     0.131 C 
BRANCH  27  35
ATOM     35  O   UNL     1       7.986   1.755   1.574  1.00  0.00    -0.507 OA
ATOM     36  H   UNL     1       8.194   0.878   1.117  1.00  0.00     0.293 HD
ENDBRANCH  27  35
BRANCH  32  37
ATOM     37  C   UNL     1       8.625   4.054  -4.671  1.00  0.00    -0.007 A 
ATOM     38  C   UNL     1       9.434   5.190  -4.875  1.00  0.00     0.011 A 
ATOM     39  C   UNL     1       8.328   3.227  -5.771  1.00  0.00     0.011 A 
ATOM     40  C   UNL     1       9.921   5.498  -6.152  1.00  0.00     0.046 A 
ATOM     41  C   UNL     1       8.823   3.528  -7.046  1.00  0.00     0.046 A 
ATOM     42  C   UNL     1       9.622   4.667  -7.238  1.00  0.00     0.115 A 
BRANCH  42  43
ATOM     43  O   UNL     1      10.124   4.977  -8.497  1.00  0.00    -0.508 OA
ATOM     44  H   UNL     1      10.985   5.510  -8.605  1.00  0.00     0.293 HD
ENDBRANCH  42  43
ENDBRANCH  32  37
ENDBRANCH  23  24
ENDBRANCH   6  23
BRANCH   3  45
ATOM     45  O   UNL     1       9.336   8.839   6.013  1.00  0.00    -0.387 OA
ATOM     46  H   UNL     1       8.690   8.157   6.332  1.00  0.00     0.211 HD
ENDBRANCH   3  45
BRANCH   4  47
ATOM     47  C   UNL     1      10.122   8.969   2.339  1.00  0.00     0.191 C 
BRANCH  47  48
ATOM     48  O   UNL     1      10.002  10.364   2.348  1.00  0.00    -0.394 OA
ATOM     49  H   UNL     1      10.916  10.720   2.200  1.00  0.00     0.210 HD
ENDBRANCH  47  48
ENDBRANCH   4  47
TORSDOF 14
ENDMDL
MODEL 3
REMARK VINA RESULT:    -4.272      3.175      5.623
REMARK INTER + INTRA:          -7.973
REMARK INTER:                  -7.227
REMARK INTRA:                  -0.746
REMARK UNBOUND:                -1.203
REMARK SMILES C[C@H]1O[C@H](O[C@@H]2[C@@H](Oc3cc(O)c4c(c3)O[C@@H](c3ccc(O)cc3)CC4=O)O[C@@H](CO)[C@H](O)[C@@H]2O)[C@H](O)[C@H](O)[C@H]1O
REMARK SMILES IDX 6 1 34 2 32 3 29 4 28 5 7 6 5 7 4 8 1 9 2 10 40 11 3 12
REMARK SMILES IDX 38 13 36 14 41 15 39 17 37 19 35 21 8 23 9 24 10 25 15 26
REMARK SMILES IDX 11 27 14 28 13 29 16 30 26 31 17 32 27 33 25 34 12 35 18 37
REMARK SMILES IDX 19 38 24 39 20 40 23 41 21 42 22 43 33 45 30 47 31 48
REMARK H PARENT 41 16 39 18 37 20 35 22 12 36 22 44 33 46 31 49
REMARK Flexibility Score: inf
ROOT
ATOM      1  C   UNL     1       9.501   5.310   1.112  1.00  0.00     0.221 C 
ATOM      2  C   UNL     1       9.273   3.929   1.738  1.00  0.00     0.181 C 
ATOM      3  C   UNL     1       7.841   3.429   1.450  1.00  0.00     0.177 C 
ATOM      4  C   UNL     1       7.547   3.509  -0.066  1.00  0.00     0.179 C 
ATOM      5  O   UNL     1       7.754   4.818  -0.587  1.00  0.00    -0.332 OA
ATOM      6  C   UNL     1       9.060   5.338  -0.371  1.00  0.00     0.339 C 
ENDROOT
BRANCH   1   7
ATOM      7  O   UNL     1       8.758   6.271   1.854  1.00  0.00    -0.337 OA
BRANCH   7   8
ATOM      8  C   UNL     1       9.420   6.691   3.038  1.00  0.00     0.282 C 
ATOM      9  C   UNL     1      10.077  10.185   2.070  1.00  0.00     0.041 C 
ATOM     10  C   UNL     1       9.243   8.968   2.481  1.00  0.00     0.150 C 
ATOM     11  C   UNL     1       8.297   9.303   3.657  1.00  0.00     0.174 C 
ATOM     12  O   UNL     1      10.125   7.910   2.830  1.00  0.00    -0.344 OA
ATOM     13  C   UNL     1       7.497   8.050   4.073  1.00  0.00     0.179 C 
ATOM     14  C   UNL     1       8.414   6.815   4.208  1.00  0.00     0.202 C 
BRANCH  11  15
ATOM     15  O   UNL     1       9.053   9.762   4.751  1.00  0.00    -0.388 OA
ATOM     16  H   UNL     1       8.422  10.254   5.346  1.00  0.00     0.211 HD
ENDBRANCH  11  15
BRANCH  13  17
ATOM     17  O   UNL     1       6.414   7.817   3.203  1.00  0.00    -0.387 OA
ATOM     18  H   UNL     1       6.178   6.859   3.257  1.00  0.00     0.211 HD
ENDBRANCH  13  17
BRANCH  14  19
ATOM     19  O   UNL     1       7.631   5.652   4.298  1.00  0.00    -0.385 OA
ATOM     20  H   UNL     1       8.020   5.104   5.031  1.00  0.00     0.211 HD
ENDBRANCH  14  19
ENDBRANCH   7   8
ENDBRANCH   1   7
BRANCH   2  21
ATOM     21  O   UNL     1       9.503   3.994   3.123  1.00  0.00    -0.387 OA
ATOM     22  H   UNL     1       9.657   3.066   3.434  1.00  0.00     0.211 HD
ENDBRANCH   2  21
BRANCH   6  23
ATOM     23  O   UNL     1      10.012   4.668  -1.206  1.00  0.00    -0.462 OA
BRANCH  23  24
ATOM     24  C   UNL     1       9.999   4.718  -2.607  1.00  0.00     0.130 A 
ATOM     25  C   UNL     1      10.124   5.929  -3.306  1.00  0.00     0.093 A 
ATOM     26  C   UNL     1       9.857   3.528  -3.323  1.00  0.00     0.094 A 
ATOM     27  C   UNL     1      10.003   5.972  -4.700  1.00  0.00     0.133 A 
ATOM     28  C   UNL     1       9.763   3.541  -4.716  1.00  0.00     0.138 A 
ATOM     29  C   UNL     1       9.816   4.764  -5.424  1.00  0.00     0.102 A 
ATOM     30  O   UNL     1       9.584   2.323  -5.396  1.00  0.00    -0.484 OA
ATOM     31  C   UNL     1       9.645   4.686  -6.896  1.00  0.00     0.174 C 
ATOM     32  C   UNL     1       9.641   2.219  -6.827  1.00  0.00     0.211 C 
ATOM     33  O   UNL     1      10.070   5.585  -7.671  1.00  0.00    -0.294 OA
ATOM     34  C   UNL     1       9.003   3.459  -7.473  1.00  0.00     0.131 C 
BRANCH  27  35
ATOM     35  O   UNL     1      10.040   7.232  -5.304  1.00  0.00    -0.507 OA
ATOM     36  H   UNL     1       9.243   7.847  -5.393  1.00  0.00     0.293 HD
ENDBRANCH  27  35
BRANCH  32  37
ATOM     37  C   UNL     1       8.978   0.945  -7.315  1.00  0.00    -0.007 A 
ATOM     38  C   UNL     1       8.267   0.893  -8.531  1.00  0.00     0.011 A 
ATOM     39  C   UNL     1       9.069  -0.222  -6.532  1.00  0.00     0.011 A 
ATOM     40  C   UNL     1       7.652  -0.295  -8.946  1.00  0.00     0.046 A 
ATOM     41  C   UNL     1       8.464  -1.413  -6.951  1.00  0.00     0.046 A 
ATOM     42  C   UNL     1       7.753  -1.451  -8.162  1.00  0.00     0.115 A 
BRANCH  42  43
ATOM     43  O   UNL     1       7.149  -2.626  -8.594  1.00  0.00    -0.508 OA
ATOM     44  H   UNL     1       7.533  -3.537  -8.352  1.00  0.00     0.293 HD
ENDBRANCH  42  43
ENDBRANCH  32  37
ENDBRANCH  23  24
ENDBRANCH   6  23
BRANCH   3  45
ATOM     45  O   UNL     1       6.902   4.212   2.131  1.00  0.00    -0.387 OA
ATOM     46  H   UNL     1       7.283   4.414   3.025  1.00  0.00     0.211 HD
ENDBRANCH   3  45
BRANCH   4  47
ATOM     47  C   UNL     1       8.255   2.407  -0.876  1.00  0.00     0.191 C 
BRANCH  47  48
ATOM     48  O   UNL     1       7.409   1.298  -0.998  1.00  0.00    -0.394 OA
ATOM     49  H   UNL     1       7.964   0.569  -1.378  1.00  0.00     0.210 HD
ENDBRANCH  47  48
ENDBRANCH   4  47
TORSDOF 14
ENDMDL
MODEL 4
REMARK VINA RESULT:    -4.181      2.700     12.351
REMARK INTER + INTRA:          -7.828
REMARK INTER:                  -8.388
REMARK INTRA:                   0.560
REMARK UNBOUND:                -1.203
REMARK SMILES C[C@H]1O[C@H](O[C@@H]2[C@@H](Oc3cc(O)c4c(c3)O[C@@H](c3ccc(O)cc3)CC4=O)O[C@@H](CO)[C@H](O)[C@@H]2O)[C@H](O)[C@H](O)[C@H]1O
REMARK SMILES IDX 6 1 34 2 32 3 29 4 28 5 7 6 5 7 4 8 1 9 2 10 40 11 3 12
REMARK SMILES IDX 38 13 36 14 41 15 39 17 37 19 35 21 8 23 9 24 10 25 15 26
REMARK SMILES IDX 11 27 14 28 13 29 16 30 26 31 17 32 27 33 25 34 12 35 18 37
REMARK SMILES IDX 19 38 24 39 20 40 23 41 21 42 22 43 33 45 30 47 31 48
REMARK H PARENT 41 16 39 18 37 20 35 22 12 36 22 44 33 46 31 49
REMARK Flexibility Score: inf
ROOT
ATOM      1  C   UNL     1       7.413   1.569  -4.863  1.00  0.00     0.221 C 
ATOM      2  C   UNL     1       8.235   0.515  -4.112  1.00  0.00     0.181 C 
ATOM      3  C   UNL     1       9.746   0.750  -4.321  1.00  0.00     0.177 C 
ATOM      4  C   UNL     1      10.106   2.215  -3.982  1.00  0.00     0.179 C 
ATOM      5  O   UNL     1       9.328   3.148  -4.724  1.00  0.00    -0.332 OA
ATOM      6  C   UNL     1       7.922   3.000  -4.566  1.00  0.00     0.339 C 
ENDROOT
BRANCH   1   7
ATOM      7  O   UNL     1       7.505   1.304  -6.258  1.00  0.00    -0.337 OA
BRANCH   7   8
ATOM      8  C   UNL     1       6.497   0.416  -6.723  1.00  0.00     0.282 C 
ATOM      9  C   UNL     1       4.721   2.747  -8.957  1.00  0.00     0.041 C 
ATOM     10  C   UNL     1       5.865   1.848  -8.476  1.00  0.00     0.150 C 
ATOM     11  C   UNL     1       6.330   0.881  -9.590  1.00  0.00     0.174 C 
ATOM     12  O   UNL     1       5.426   1.126  -7.334  1.00  0.00    -0.344 OA
ATOM     13  C   UNL     1       7.457  -0.035  -9.066  1.00  0.00     0.179 C 
ATOM     14  C   UNL     1       7.102  -0.632  -7.687  1.00  0.00     0.202 C 
BRANCH  11  15
ATOM     15  O   UNL     1       5.243   0.095 -10.012  1.00  0.00    -0.388 OA
ATOM     16  H   UNL     1       5.036   0.375 -10.946  1.00  0.00     0.211 HD
ENDBRANCH  11  15
BRANCH  13  17
ATOM     17  O   UNL     1       8.699   0.629  -9.055  1.00  0.00    -0.387 OA
ATOM     18  H   UNL     1       8.528   1.600  -9.139  1.00  0.00     0.211 HD
ENDBRANCH  13  17
BRANCH  14  19
ATOM     19  O   UNL     1       8.246  -1.215  -7.115  1.00  0.00    -0.385 OA
ATOM     20  H   UNL     1       9.023  -0.679  -7.425  1.00  0.00     0.211 HD
ENDBRANCH  14  19
ENDBRANCH   7   8
ENDBRANCH   1   7
BRANCH   2  21
ATOM     21  O   UNL     1       7.870  -0.769  -4.550  1.00  0.00    -0.387 OA
ATOM     22  H   UNL     1       7.001  -0.679  -5.017  1.00  0.00     0.211 HD
ENDBRANCH   2  21
BRANCH   6  23
ATOM     23  O   UNL     1       7.515   3.434  -3.263  1.00  0.00    -0.462 OA
BRANCH  23  24
ATOM     24  C   UNL     1       8.032   4.566  -2.616  1.00  0.00     0.130 A 
ATOM     25  C   UNL     1       8.721   5.568  -3.316  1.00  0.00     0.093 A 
ATOM     26  C   UNL     1       7.854   4.694  -1.238  1.00  0.00     0.094 A 
ATOM     27  C   UNL     1       9.322   6.636  -2.639  1.00  0.00     0.133 A 
ATOM     28  C   UNL     1       8.418   5.766  -0.543  1.00  0.00     0.138 A 
ATOM     29  C   UNL     1       9.175   6.742  -1.230  1.00  0.00     0.102 A 
ATOM     30  O   UNL     1       8.244   5.838   0.851  1.00  0.00    -0.484 OA
ATOM     31  C   UNL     1       9.788   7.809  -0.400  1.00  0.00     0.174 C 
ATOM     32  C   UNL     1       8.644   6.980   1.623  1.00  0.00     0.211 C 
ATOM     33  O   UNL     1      10.115   8.928  -0.879  1.00  0.00    -0.294 OA
ATOM     34  C   UNL     1       9.955   7.560   1.069  1.00  0.00     0.131 C 
BRANCH  27  35
ATOM     35  O   UNL     1      10.073   7.534  -3.402  1.00  0.00    -0.507 OA
ATOM     36  H   UNL     1      10.663   7.269  -4.178  1.00  0.00     0.293 HD
ENDBRANCH  27  35
BRANCH  32  37
ATOM     37  C   UNL     1       8.777   6.633   3.094  1.00  0.00    -0.007 A 
ATOM     38  C   UNL     1      10.020   6.313   3.676  1.00  0.00     0.011 A 
ATOM     39  C   UNL     1       7.627   6.628   3.906  1.00  0.00     0.011 A 
ATOM     40  C   UNL     1      10.107   5.981   5.034  1.00  0.00     0.046 A 
ATOM     41  C   UNL     1       7.713   6.307   5.267  1.00  0.00     0.046 A 
ATOM     42  C   UNL     1       8.957   5.982   5.833  1.00  0.00     0.115 A 
BRANCH  42  43
ATOM     43  O   UNL     1       9.061   5.665   7.183  1.00  0.00    -0.508 OA
ATOM     44  H   UNL     1       9.347   6.360   7.869  1.00  0.00     0.293 HD
ENDBRANCH  42  43
ENDBRANCH  32  37
ENDBRANCH  23  24
ENDBRANCH   6  23
BRANCH   3  45
ATOM     45  O   UNL     1      10.101   0.498  -5.652  1.00  0.00    -0.387 OA
ATOM     46  H   UNL     1       9.434   0.957  -6.225  1.00  0.00     0.211 HD
ENDBRANCH   3  45
BRANCH   4  47
ATOM     47  C   UNL     1      10.121   2.496  -2.467  1.00  0.00     0.191 C 
BRANCH  47  48
ATOM     48  O   UNL     1       9.231   1.630  -1.821  1.00  0.00    -0.394 OA
ATOM     49  H   UNL     1       8.573   1.348  -2.507  1.00  0.00     0.210 HD
ENDBRANCH  47  48
ENDBRANCH   4  47
TORSDOF 14
ENDMDL
MODEL 5
REMARK VINA RESULT:    -3.398      2.540     11.903
REMARK INTER + INTRA:          -6.587
REMARK INTER:                  -6.776
REMARK INTRA:                   0.190
REMARK UNBOUND:                -1.203
REMARK SMILES C[C@H]1O[C@H](O[C@@H]2[C@@H](Oc3cc(O)c4c(c3)O[C@@H](c3ccc(O)cc3)CC4=O)O[C@@H](CO)[C@H](O)[C@@H]2O)[C@H](O)[C@H](O)[C@H]1O
REMARK SMILES IDX 6 1 34 2 32 3 29 4 28 5 7 6 5 7 4 8 1 9 2 10 40 11 3 12
REMARK SMILES IDX 38 13 36 14 41 15 39 17 37 19 35 21 8 23 9 24 10 25 15 26
REMARK SMILES IDX 11 27 14 28 13 29 16 30 26 31 17 32 27 33 25 34 12 35 18 37
REMARK SMILES IDX 19 38 24 39 20 40 23 41 21 42 22 43 33 45 30 47 31 48
REMARK H PARENT 41 16 39 18 37 20 35 22 12 36 22 44 33 46 31 49
REMARK Flexibility Score: inf
ROOT
ATOM      1  C   UNL     1       7.431   2.020  -4.261  1.00  0.00     0.221 C 
ATOM      2  C   UNL     1       8.092   0.943  -3.392  1.00  0.00     0.181 C 
ATOM      3  C   UNL     1       9.628   1.086  -3.422  1.00  0.00     0.177 C 
ATOM      4  C   UNL     1      10.033   2.537  -3.074  1.00  0.00     0.179 C 
ATOM      5  O   UNL     1       9.407   3.490  -3.926  1.00  0.00    -0.332 OA
ATOM      6  C   UNL     1       7.986   3.427  -3.936  1.00  0.00     0.339 C 
ENDROOT
BRANCH   1   7
ATOM      7  O   UNL     1       7.673   1.709  -5.628  1.00  0.00    -0.337 OA
BRANCH   7   8
ATOM      8  C   UNL     1       6.534   1.907  -6.453  1.00  0.00     0.282 C 
ATOM      9  C   UNL     1       8.222   3.473  -9.330  1.00  0.00     0.041 C 
ATOM     10  C   UNL     1       7.834   2.352  -8.361  1.00  0.00     0.150 C 
ATOM     11  C   UNL     1       7.366   1.087  -9.118  1.00  0.00     0.174 C 
ATOM     12  O   UNL     1       6.809   2.830  -7.500  1.00  0.00    -0.344 OA
ATOM     13  C   UNL     1       6.947  -0.011  -8.117  1.00  0.00     0.179 C 
ATOM     14  C   UNL     1       6.029   0.554  -7.012  1.00  0.00     0.202 C 
BRANCH  11  15
ATOM     15  O   UNL     1       6.275   1.411  -9.944  1.00  0.00    -0.388 OA
ATOM     16  H   UNL     1       6.586   1.294 -10.884  1.00  0.00     0.211 HD
ENDBRANCH  11  15
BRANCH  13  17
ATOM     17  O   UNL     1       8.067  -0.681  -7.587  1.00  0.00    -0.387 OA
ATOM     18  H   UNL     1       8.600  -1.033  -8.341  1.00  0.00     0.211 HD
ENDBRANCH  13  17
BRANCH  14  19
ATOM     19  O   UNL     1       5.904  -0.383  -5.974  1.00  0.00    -0.385 OA
ATOM     20  H   UNL     1       5.137  -0.088  -5.414  1.00  0.00     0.211 HD
ENDBRANCH  14  19
ENDBRANCH   7   8
ENDBRANCH   1   7
BRANCH   2  21
ATOM     21  O   UNL     1       7.705  -0.330  -3.843  1.00  0.00    -0.387 OA
ATOM     22  H   UNL     1       8.152  -0.992  -3.257  1.00  0.00     0.211 HD
ENDBRANCH   2  21
BRANCH   6  23
ATOM     23  O   UNL     1       7.453   3.922  -2.703  1.00  0.00    -0.462 OA
BRANCH  23  24
ATOM     24  C   UNL     1       7.987   5.010  -1.997  1.00  0.00     0.130 A 
ATOM     25  C   UNL     1       8.674   6.048  -2.646  1.00  0.00     0.093 A 
ATOM     26  C   UNL     1       7.828   5.058  -0.612  1.00  0.00     0.094 A 
ATOM     27  C   UNL     1       9.291   7.070  -1.916  1.00  0.00     0.133 A 
ATOM     28  C   UNL     1       8.409   6.084   0.138  1.00  0.00     0.138 A 
ATOM     29  C   UNL     1       9.164   7.094  -0.501  1.00  0.00     0.102 A 
ATOM     30  O   UNL     1       8.255   6.074   1.535  1.00  0.00    -0.484 OA
ATOM     31  C   UNL     1       9.796   8.106   0.381  1.00  0.00     0.174 C 
ATOM     32  C   UNL     1       8.674   7.166   2.368  1.00  0.00     0.211 C 
ATOM     33  O   UNL     1      10.125   9.250  -0.035  1.00  0.00    -0.294 OA
ATOM     34  C   UNL     1       9.981   7.770   1.831  1.00  0.00     0.131 C 
BRANCH  27  35
ATOM     35  O   UNL     1      10.039   8.006  -2.635  1.00  0.00    -0.507 OA
ATOM     36  H   UNL     1      10.850   7.782  -3.195  1.00  0.00     0.293 HD
ENDBRANCH  27  35
BRANCH  32  37
ATOM     37  C   UNL     1       8.824   6.733   3.814  1.00  0.00    -0.007 A 
ATOM     38  C   UNL     1      10.000   6.119   4.291  1.00  0.00     0.011 A 
ATOM     39  C   UNL     1       7.759   6.945   4.710  1.00  0.00     0.011 A 
ATOM     40  C   UNL     1      10.101   5.715   5.628  1.00  0.00     0.046 A 
ATOM     41  C   UNL     1       7.862   6.552   6.050  1.00  0.00     0.046 A 
ATOM     42  C   UNL     1       9.037   5.935   6.511  1.00  0.00     0.115 A 
BRANCH  42  43
ATOM     43  O   UNL     1       9.157   5.541   7.839  1.00  0.00    -0.508 OA
ATOM     44  H   UNL     1       9.654   6.115   8.518  1.00  0.00     0.293 HD
ENDBRANCH  42  43
ENDBRANCH  32  37
ENDBRANCH  23  24
ENDBRANCH   6  23
BRANCH   3  45
ATOM     45  O   UNL     1      10.125   0.774  -4.694  1.00  0.00    -0.387 OA
ATOM     46  H   UNL     1       9.421   1.016  -5.350  1.00  0.00     0.211 HD
ENDBRANCH   3  45
BRANCH   4  47
ATOM     47  C   UNL     1       9.883   2.861  -1.576  1.00  0.00     0.191 C 
BRANCH  47  48
ATOM     48  O   UNL     1       8.972   1.972  -0.992  1.00  0.00    -0.394 OA
ATOM     49  H   UNL     1       9.393   1.075  -1.041  1.00  0.00     0.210 HD
ENDBRANCH  47  48
ENDBRANCH   4  47
TORSDOF 14
ENDMDL
MODEL 6
REMARK VINA RESULT:    -2.646      1.777      4.643
REMARK INTER + INTRA:          -5.396
REMARK INTER:                  -3.856
REMARK INTRA:                  -1.540
REMARK UNBOUND:                -1.203
REMARK SMILES C[C@H]1O[C@H](O[C@@H]2[C@@H](Oc3cc(O)c4c(c3)O[C@@H](c3ccc(O)cc3)CC4=O)O[C@@H](CO)[C@H](O)[C@@H]2O)[C@H](O)[C@H](O)[C@H]1O
REMARK SMILES IDX 6 1 34 2 32 3 29 4 28 5 7 6 5 7 4 8 1 9 2 10 40 11 3 12
REMARK SMILES IDX 38 13 36 14 41 15 39 17 37 19 35 21 8 23 9 24 10 25 15 26
REMARK SMILES IDX 11 27 14 28 13 29 16 30 26 31 17 32 27 33 25 34 12 35 18 37
REMARK SMILES IDX 19 38 24 39 20 40 23 41 21 42 22 43 33 45 30 47 31 48
REMARK H PARENT 41 16 39 18 37 20 35 22 12 36 22 44 33 46 31 49
REMARK Flexibility Score: inf
ROOT
ATOM      1  C   UNL     1       7.664   7.405   7.167  1.00  0.00     0.221 C 
ATOM      2  C   UNL     1       7.287   8.396   8.275  1.00  0.00     0.181 C 
ATOM      3  C   UNL     1       8.259   8.277   9.468  1.00  0.00     0.177 C 
ATOM      4  C   UNL     1       9.720   8.384   8.974  1.00  0.00     0.179 C 
ATOM      5  O   UNL     1      10.020   7.427   7.964  1.00  0.00    -0.332 OA
ATOM      6  C   UNL     1       9.171   7.489   6.823  1.00  0.00     0.339 C 
ENDROOT
BRANCH   1   7
ATOM      7  O   UNL     1       7.342   6.090   7.608  1.00  0.00    -0.337 OA
BRANCH   7   8
ATOM      8  C   UNL     1       5.993   5.731   7.344  1.00  0.00     0.282 C 
ATOM      9  C   UNL     1       6.404   4.649   3.846  1.00  0.00     0.041 C 
ATOM     10  C   UNL     1       6.552   4.585   5.370  1.00  0.00     0.150 C 
ATOM     11  C   UNL     1       6.141   3.199   5.920  1.00  0.00     0.174 C 
ATOM     12  O   UNL     1       5.756   5.611   5.947  1.00  0.00    -0.344 OA
ATOM     13  C   UNL     1       6.265   3.176   7.458  1.00  0.00     0.179 C 
ATOM     14  C   UNL     1       5.624   4.428   8.094  1.00  0.00     0.202 C 
BRANCH  11  15
ATOM     15  O   UNL     1       4.812   2.923   5.551  1.00  0.00    -0.388 OA
ATOM     16  H   UNL     1       4.855   2.284   4.787  1.00  0.00     0.211 HD
ENDBRANCH  11  15
BRANCH  13  17
ATOM     17  O   UNL     1       7.601   2.997   7.865  1.00  0.00    -0.387 OA
ATOM     18  H   UNL     1       8.170   2.994   7.057  1.00  0.00     0.211 HD
ENDBRANCH  13  17
BRANCH  14  19
ATOM     19  O   UNL     1       6.002   4.521   9.443  1.00  0.00    -0.385 OA
ATOM     20  H   UNL     1       5.476   3.835   9.934  1.00  0.00     0.211 HD
ENDBRANCH  14  19
ENDBRANCH   7   8
ENDBRANCH   1   7
BRANCH   2  21
ATOM     21  O   UNL     1       5.965   8.160   8.689  1.00  0.00    -0.387 OA
ATOM     22  H   UNL     1       5.402   8.857   8.268  1.00  0.00     0.211 HD
ENDBRANCH   2  21
BRANCH   6  23
ATOM     23  O   UNL     1       9.460   8.656   6.045  1.00  0.00    -0.462 OA
BRANCH  23  24
ATOM     24  C   UNL     1       9.583   8.656   4.649  1.00  0.00     0.130 A 
ATOM     25  C   UNL     1       9.738   9.846   3.920  1.00  0.00     0.093 A 
ATOM     26  C   UNL     1       9.551   7.438   3.969  1.00  0.00     0.094 A 
ATOM     27  C   UNL     1       9.753   9.836   2.520  1.00  0.00     0.133 A 
ATOM     28  C   UNL     1       9.595   7.398   2.573  1.00  0.00     0.138 A 
ATOM     29  C   UNL     1       9.677   8.597   1.828  1.00  0.00     0.102 A 
ATOM     30  O   UNL     1       9.523   6.152   1.927  1.00  0.00    -0.484 OA
ATOM     31  C   UNL     1       9.654   8.461   0.350  1.00  0.00     0.174 C 
ATOM     32  C   UNL     1       9.723   6.000   0.513  1.00  0.00     0.211 C 
ATOM     33  O   UNL     1      10.124   9.347  -0.413  1.00  0.00    -0.294 OA
ATOM     34  C   UNL     1       9.113   7.193  -0.239  1.00  0.00     0.131 C 
BRANCH  27  35
ATOM     35  O   UNL     1       9.808  11.074   1.874  1.00  0.00    -0.507 OA
ATOM     36  H   UNL     1      10.270  11.237   0.990  1.00  0.00     0.293 HD
ENDBRANCH  27  35
BRANCH  32  37
ATOM     37  C   UNL     1       9.153   4.686   0.012  1.00  0.00    -0.007 A 
ATOM     38  C   UNL     1       8.374   3.849   0.836  1.00  0.00     0.011 A 
ATOM     39  C   UNL     1       9.409   4.286  -1.313  1.00  0.00     0.011 A 
ATOM     40  C   UNL     1       7.876   2.634   0.349  1.00  0.00     0.046 A 
ATOM     41  C   UNL     1       8.902   3.077  -1.805  1.00  0.00     0.046 A 
ATOM     42  C   UNL     1       8.133   2.247  -0.972  1.00  0.00     0.115 A 
BRANCH  42  43
ATOM     43  O   UNL     1       7.620   1.045  -1.446  1.00  0.00    -0.508 OA
ATOM     44  H   UNL     1       7.254   0.964  -2.393  1.00  0.00     0.293 HD
ENDBRANCH  42  43
ENDBRANCH  32  37
ENDBRANCH  23  24
ENDBRANCH   6  23
BRANCH   3  45
ATOM     45  O   UNL     1       8.093   7.046  10.115  1.00  0.00    -0.387 OA
ATOM     46  H   UNL     1       8.812   6.445   9.789  1.00  0.00     0.211 HD
ENDBRANCH   3  45
BRANCH   4  47
ATOM     47  C   UNL     1      10.124   9.822   8.596  1.00  0.00     0.191 C 
BRANCH  47  48
ATOM     48  O   UNL     1       9.761  10.697   9.626  1.00  0.00    -0.394 OA
ATOM     49  H   UNL     1       9.695  10.144  10.446  1.00  0.00     0.210 HD
ENDBRANCH  47  48
ENDBRANCH   4  47
TORSDOF 14
ENDMDL
MODEL 7
REMARK VINA RESULT:    -2.498      2.045      4.338
REMARK INTER + INTRA:          -5.162
REMARK INTER:                  -4.928
REMARK INTRA:                  -0.234
REMARK UNBOUND:                -1.203
REMARK SMILES C[C@H]1O[C@H](O[C@@H]2[C@@H](Oc3cc(O)c4c(c3)O[C@@H](c3ccc(O)cc3)CC4=O)O[C@@H](CO)[C@H](O)[C@@H]2O)[C@H](O)[C@H](O)[C@H]1O
REMARK SMILES IDX 6 1 34 2 32 3 29 4 28 5 7 6 5 7 4 8 1 9 2 10 40 11 3 12
REMARK SMILES IDX 38 13 36 14 41 15 39 17 37 19 35 21 8 23 9 24 10 25 15 26
REMARK SMILES IDX 11 27 14 28 13 29 16 30 26 31 17 32 27 33 25 34 12 35 18 37
REMARK SMILES IDX 19 38 24 39 20 40 23 41 21 42 22 43 33 45 30 47 31 48
REMARK H PARENT 41 16 39 18 37 20 35 22 12 36 22 44 33 46 31 49
REMARK Flexibility Score: inf
ROOT
ATOM      1  C   UNL     1       7.404   6.103   7.323  1.00  0.00     0.221 C 
ATOM      2  C   UNL     1       7.571   7.237   8.343  1.00  0.00     0.181 C 
ATOM      3  C   UNL     1       9.059   7.429   8.706  1.00  0.00     0.177 C 
ATOM      4  C   UNL     1       9.902   7.586   7.419  1.00  0.00     0.179 C 
ATOM      5  O   UNL     1       9.724   6.496   6.521  1.00  0.00    -0.332 OA
ATOM      6  C   UNL     1       8.376   6.269   6.130  1.00  0.00     0.339 C 
ENDROOT
BRANCH   1   7
ATOM      7  O   UNL     1       7.653   4.865   7.979  1.00  0.00    -0.337 OA
BRANCH   7   8
ATOM      8  C   UNL     1       6.791   3.823   7.543  1.00  0.00     0.282 C 
ATOM      9  C   UNL     1       7.684   1.298  10.073  1.00  0.00     0.041 C 
ATOM     10  C   UNL     1       7.070   2.589   9.524  1.00  0.00     0.150 C 
ATOM     11  C   UNL     1       5.598   2.750   9.969  1.00  0.00     0.174 C 
ATOM     12  O   UNL     1       7.168   2.572   8.106  1.00  0.00    -0.344 OA
ATOM     13  C   UNL     1       4.996   4.039   9.372  1.00  0.00     0.179 C 
ATOM     14  C   UNL     1       5.318   4.167   7.867  1.00  0.00     0.202 C 
BRANCH  11  15
ATOM     15  O   UNL     1       4.853   1.638   9.535  1.00  0.00    -0.388 OA
ATOM     16  H   UNL     1       4.778   1.717   8.544  1.00  0.00     0.211 HD
ENDBRANCH  11  15
BRANCH  13  17
ATOM     17  O   UNL     1       5.393   5.178  10.099  1.00  0.00    -0.387 OA
ATOM     18  H   UNL     1       6.342   5.360   9.892  1.00  0.00     0.211 HD
ENDBRANCH  13  17
BRANCH  14  19
ATOM     19  O   UNL     1       5.015   5.466   7.427  1.00  0.00    -0.385 OA
ATOM     20  H   UNL     1       4.504   5.903   8.159  1.00  0.00     0.211 HD
ENDBRANCH  14  19
ENDBRANCH   7   8
ENDBRANCH   1   7
BRANCH   2  21
ATOM     21  O   UNL     1       6.815   6.952   9.493  1.00  0.00    -0.387 OA
ATOM     22  H   UNL     1       7.433   7.005  10.265  1.00  0.00     0.211 HD
ENDBRANCH   2  21
BRANCH   6  23
ATOM     23  O   UNL     1       7.931   7.300   5.240  1.00  0.00    -0.462 OA
BRANCH  23  24
ATOM     24  C   UNL     1       8.378   7.442   3.919  1.00  0.00     0.130 A 
ATOM     25  C   UNL     1       8.758   8.688   3.396  1.00  0.00     0.093 A 
ATOM     26  C   UNL     1       8.446   6.311   3.105  1.00  0.00     0.094 A 
ATOM     27  C   UNL     1       9.100   8.828   2.045  1.00  0.00     0.133 A 
ATOM     28  C   UNL     1       8.813   6.419   1.762  1.00  0.00     0.138 A 
ATOM     29  C   UNL     1       9.128   7.681   1.208  1.00  0.00     0.102 A 
ATOM     30  O   UNL     1       8.833   5.259   0.968  1.00  0.00    -0.484 OA
ATOM     31  C   UNL     1       9.445   7.708  -0.241  1.00  0.00     0.174 C 
ATOM     32  C   UNL     1       9.352   5.245  -0.371  1.00  0.00     0.211 C 
ATOM     33  O   UNL     1      10.125   8.632  -0.764  1.00  0.00    -0.294 OA
ATOM     34  C   UNL     1       8.995   6.556  -1.090  1.00  0.00     0.131 C 
BRANCH  27  35
ATOM     35  O   UNL     1       9.368  10.121   1.586  1.00  0.00    -0.507 OA
ATOM     36  H   UNL     1       8.675  10.741   1.189  1.00  0.00     0.293 HD
ENDBRANCH  27  35
BRANCH  32  37
ATOM     37  C   UNL     1       8.850   4.042  -1.146  1.00  0.00    -0.007 A 
ATOM     38  C   UNL     1       8.815   4.023  -2.555  1.00  0.00     0.011 A 
ATOM     39  C   UNL     1       8.403   2.908  -0.442  1.00  0.00     0.011 A 
ATOM     40  C   UNL     1       8.330   2.902  -3.241  1.00  0.00     0.046 A 
ATOM     41  C   UNL     1       7.928   1.782  -1.126  1.00  0.00     0.046 A 
ATOM     42  C   UNL     1       7.891   1.778  -2.530  1.00  0.00     0.115 A 
BRANCH  42  43
ATOM     43  O   UNL     1       7.426   0.667  -3.225  1.00  0.00    -0.508 OA
ATOM     44  H   UNL     1       6.479   0.319  -3.093  1.00  0.00     0.293 HD
ENDBRANCH  42  43
ENDBRANCH  32  37
ENDBRANCH  23  24
ENDBRANCH   6  23
BRANCH   3  45
ATOM     45  O   UNL     1       9.536   6.324   9.423  1.00  0.00    -0.387 OA
ATOM     46  H   UNL     1       9.555   6.583  10.380  1.00  0.00     0.211 HD
ENDBRANCH   3  45
BRANCH   4  47
ATOM     47  C   UNL     1       9.733   8.964   6.753  1.00  0.00     0.191 C 
BRANCH  47  48
ATOM     48  O   UNL     1       9.642   9.954   7.739  1.00  0.00    -0.394 OA
ATOM     49  H   UNL     1      10.153  10.731   7.397  1.00  0.00     0.210 HD
ENDBRANCH  47  48
ENDBRANCH   4  47
TORSDOF 14
ENDMDL
