MODEL 1
REMARK VINA RESULT:    -3.950      0.000      0.000
REMARK INTER + INTRA:          -4.025
REMARK INTER:                  -4.874
REMARK INTRA:                   0.848
REMARK UNBOUND:                 0.848
REMARK SMILES CC1=CC=CC(C)(C)CC1=O
REMARK SMILES IDX 1 1 2 2 3 3 10 4 11 5 9 6 4 8 5 9 6 10 7 11 8 12
REMARK H PARENT
REMARK Flexibility Score: 80.00
ROOT
ATOM      1  C   UNL     1      11.960 -28.400  23.927  1.00  0.00     0.048 C 
ATOM      2  C   UNL     1      12.946 -29.280  23.193  1.00  0.00    -0.008 C 
ATOM      3  C   UNL     1      14.255 -28.956  23.263  1.00  0.00     0.007 C 
ENDROOT
BRANCH   2   4
ATOM      4  C   UNL     1      12.378 -30.406  22.404  1.00  0.00     0.159 C 
ATOM      5  O   UNL     1      11.138 -30.625  22.472  1.00  0.00    -0.295 OA
BRANCH   4   6
ATOM      6  C   UNL     1      13.184 -31.285  21.493  1.00  0.00     0.091 CG0
ATOM      7  G   UNL     1      14.430 -31.906  22.162  1.00  0.00     0.000 G0
ENDBRANCH   4   6
ENDBRANCH   2   4
BRANCH   3   8
ATOM      8  C   UNL     1      15.431 -29.629  22.666  1.00  0.00    -0.003 C 
ATOM      9  C   UNL     1      15.535 -30.886  22.221  1.00  0.00    -0.020 C 
BRANCH   9  10
ATOM     10  C   UNL     1      14.424 -31.907  22.165  1.00  0.00    -0.010 CG0
ATOM     11  C   UNL     1      14.894 -33.084  21.280  1.00  0.00     0.016 C 
ATOM     12  C   UNL     1      14.134 -32.461  23.579  1.00  0.00     0.016 C 
ATOM     13  G   UNL     1      13.179 -31.275  21.503  1.00  0.00     0.000 G0
ENDBRANCH   9  10
ENDBRANCH   3   8
TORSDOF 0
ENDMDL
MODEL 2
REMARK VINA RESULT:    -3.945      0.886      1.097
REMARK INTER + INTRA:          -4.019
REMARK INTER:                  -4.858
REMARK INTRA:                   0.840
REMARK UNBOUND:                 0.848
REMARK SMILES CC1=CC=CC(C)(C)CC1=O
REMARK SMILES IDX 1 1 2 2 3 3 10 4 11 5 9 6 4 8 5 9 6 10 7 11 8 12
REMARK H PARENT
REMARK Flexibility Score: 80.00
ROOT
ATOM      1  C   UNL     1      13.305 -28.670  23.569  1.00  0.00     0.048 C 
ATOM      2  C   UNL     1      14.005 -29.720  22.737  1.00  0.00    -0.008 C 
ATOM      3  C   UNL     1      15.341 -29.608  22.573  1.00  0.00     0.007 C 
ENDROOT
BRANCH   2   4
ATOM      4  C   UNL     1      13.145 -30.766  22.120  1.00  0.00     0.159 C 
ATOM      5  O   UNL     1      11.913 -30.771  22.391  1.00  0.00    -0.295 OA
BRANCH   4   6
ATOM      6  C   UNL     1      13.643 -31.801  21.156  1.00  0.00     0.091 CG0
ATOM      7  G   UNL     1      14.867 -32.595  21.665  1.00  0.00     0.000 G0
ENDBRANCH   4   6
ENDBRANCH   2   4
BRANCH   3   8
ATOM      8  C   UNL     1      16.280 -30.480  21.834  1.00  0.00    -0.003 C 
ATOM      9  C   UNL     1      16.118 -31.754  21.461  1.00  0.00    -0.020 C 
BRANCH   9  10
ATOM     10  C   UNL     1      14.875 -32.589  21.658  1.00  0.00    -0.010 CG0
ATOM     11  C   UNL     1      15.002 -33.859  20.786  1.00  0.00     0.016 C 
ATOM     12  C   UNL     1      14.759 -33.037  23.134  1.00  0.00     0.016 C 
ATOM     13  G   UNL     1      13.640 -31.796  21.176  1.00  0.00     0.000 G0
ENDBRANCH   9  10
ENDBRANCH   3   8
TORSDOF 0
ENDMDL
MODEL 3
REMARK VINA RESULT:    -3.941      1.547      2.554
REMARK INTER + INTRA:          -4.014
REMARK INTER:                  -4.842
REMARK INTRA:                   0.828
REMARK UNBOUND:                 0.848
REMARK SMILES CC1=CC=CC(C)(C)CC1=O
REMARK SMILES IDX 1 1 2 2 3 3 10 4 11 5 9 6 4 8 5 9 6 10 7 11 8 12
REMARK H PARENT
REMARK Flexibility Score: 80.00
ROOT
ATOM      1  C   UNL     1      11.028 -29.895  22.122  1.00  0.00     0.048 C 
ATOM      2  C   UNL     1      12.368 -30.594  22.148  1.00  0.00    -0.008 C 
ATOM      3  C   UNL     1      12.696 -31.371  21.093  1.00  0.00     0.007 C 
ENDROOT
BRANCH   2   4
ATOM      4  C   UNL     1      13.196 -30.405  23.370  1.00  0.00     0.159 C 
ATOM      5  O   UNL     1      12.776 -29.626  24.269  1.00  0.00    -0.295 OA
BRANCH   4   6
ATOM      6  C   UNL     1      14.491 -31.118  23.626  1.00  0.00     0.091 CG0
ATOM      7  G   UNL     1      15.505 -31.011  22.465  1.00  0.00     0.000 G0
ENDBRANCH   4   6
ENDBRANCH   2   4
BRANCH   3   8
ATOM      8  C   UNL     1      13.926 -32.154  20.840  1.00  0.00    -0.003 C 
ATOM      9  C   UNL     1      15.137 -32.007  21.389  1.00  0.00    -0.020 C 
BRANCH   9  10
ATOM     10  C   UNL     1      15.511 -31.022  22.471  1.00  0.00    -0.010 CG0
ATOM     11  C   UNL     1      16.886 -31.432  23.044  1.00  0.00     0.016 C 
ATOM     12  C   UNL     1      15.649 -29.600  21.878  1.00  0.00     0.016 C 
ATOM     13  G   UNL     1      14.473 -31.094  23.613  1.00  0.00     0.000 G0
ENDBRANCH   9  10
ENDBRANCH   3   8
TORSDOF 0
ENDMDL
MODEL 4
REMARK VINA RESULT:    -3.861      1.944      2.989
REMARK INTER + INTRA:          -3.916
REMARK INTER:                  -4.770
REMARK INTRA:                   0.854
REMARK UNBOUND:                 0.848
REMARK SMILES CC1=CC=CC(C)(C)CC1=O
REMARK SMILES IDX 1 1 2 2 3 3 10 4 11 5 9 6 4 8 5 9 6 10 7 11 8 12
REMARK H PARENT
REMARK Flexibility Score: 80.00
ROOT
ATOM      1  C   UNL     1      13.123 -29.944  23.578  1.00  0.00     0.048 C 
ATOM      2  C   UNL     1      14.072 -31.095  23.332  1.00  0.00    -0.008 C 
ATOM      3  C   UNL     1      13.875 -32.235  24.029  1.00  0.00     0.007 C 
ENDROOT
BRANCH   2   4
ATOM      4  C   UNL     1      15.184 -30.850  22.375  1.00  0.00     0.159 C 
ATOM      5  O   UNL     1      15.229 -29.743  21.772  1.00  0.00    -0.295 OA
BRANCH   4   6
ATOM      6  C   UNL     1      16.290 -31.827  22.104  1.00  0.00     0.091 CG0
ATOM      7  G   UNL     1      15.799 -33.254  21.773  1.00  0.00     0.000 G0
ENDBRANCH   4   6
ENDBRANCH   2   4
BRANCH   3   8
ATOM      8  C   UNL     1      14.625 -33.510  23.988  1.00  0.00    -0.003 C 
ATOM      9  C   UNL     1      15.425 -33.977  23.023  1.00  0.00    -0.020 C 
BRANCH   9  10
ATOM     10  C   UNL     1      15.805 -33.254  21.753  1.00  0.00    -0.010 CG0
ATOM     11  C   UNL     1      16.985 -34.011  21.101  1.00  0.00     0.016 C 
ATOM     12  C   UNL     1      14.624 -33.266  20.755  1.00  0.00     0.016 C 
ATOM     13  G   UNL     1      16.282 -31.826  22.098  1.00  0.00     0.000 G0
ENDBRANCH   9  10
ENDBRANCH   3   8
TORSDOF 0
ENDMDL
MODEL 5
REMARK VINA RESULT:    -3.607      9.085     10.523
REMARK INTER + INTRA:          -3.602
REMARK INTER:                  -4.450
REMARK INTRA:                   0.848
REMARK UNBOUND:                 0.848
REMARK SMILES CC1=CC=CC(C)(C)CC1=O
REMARK SMILES IDX 1 1 2 2 3 3 10 4 11 5 9 6 4 8 5 9 6 10 7 11 8 12
REMARK H PARENT
REMARK Flexibility Score: 80.00
ROOT
ATOM      1  C   UNL     1      24.315 -23.512  19.603  1.00  0.00     0.048 C 
ATOM      2  C   UNL     1      23.548 -24.551  20.389  1.00  0.00    -0.008 C 
ATOM      3  C   UNL     1      23.137 -24.224  21.633  1.00  0.00     0.007 C 
ENDROOT
BRANCH   2   4
ATOM      4  C   UNL     1      23.359 -25.875  19.737  1.00  0.00     0.159 C 
ATOM      5  O   UNL     1      23.768 -26.029  18.554  1.00  0.00    -0.295 OA
BRANCH   4   6
ATOM      6  C   UNL     1      22.742 -27.064  20.414  1.00  0.00     0.091 CG0
ATOM      7  G   UNL     1      21.377 -26.770  21.075  1.00  0.00     0.000 G0
ENDBRANCH   4   6
ENDBRANCH   2   4
BRANCH   3   8
ATOM      8  C   UNL     1      22.368 -25.021  22.615  1.00  0.00    -0.003 C 
ATOM      9  C   UNL     1      21.595 -26.092  22.399  1.00  0.00    -0.020 C 
BRANCH   9  10
ATOM     10  C   UNL     1      21.384 -26.786  21.075  1.00  0.00    -0.010 CG0
ATOM     11  C   UNL     1      20.703 -28.146  21.345  1.00  0.00     0.016 C 
ATOM     12  C   UNL     1      20.439 -25.952  20.178  1.00  0.00     0.016 C 
ATOM     13  G   UNL     1      22.753 -27.056  20.412  1.00  0.00     0.000 G0
ENDBRANCH   9  10
ENDBRANCH   3   8
TORSDOF 0
ENDMDL
MODEL 6
REMARK VINA RESULT:    -3.462      9.075     10.397
REMARK INTER + INTRA:          -3.424
REMARK INTER:                  -4.268
REMARK INTRA:                   0.845
REMARK UNBOUND:                 0.848
REMARK SMILES CC1=CC=CC(C)(C)CC1=O
REMARK SMILES IDX 1 1 2 2 3 3 10 4 11 5 9 6 4 8 5 9 6 10 7 11 8 12
REMARK H PARENT
REMARK Flexibility Score: 80.00
ROOT
ATOM      1  C   UNL     1      23.523 -22.586  22.511  1.00  0.00     0.048 C 
ATOM      2  C   UNL     1      23.044 -23.811  21.765  1.00  0.00    -0.008 C 
ATOM      3  C   UNL     1      23.677 -24.139  20.618  1.00  0.00     0.007 C 
ENDROOT
BRANCH   2   4
ATOM      4  C   UNL     1      21.871 -24.525  22.337  1.00  0.00     0.159 C 
ATOM      5  O   UNL     1      21.399 -24.126  23.437  1.00  0.00    -0.295 OA
BRANCH   4   6
ATOM      6  C   UNL     1      21.179 -25.676  21.667  1.00  0.00     0.091 CG0
ATOM      7  G   UNL     1      22.131 -26.812  21.232  1.00  0.00     0.000 G0
ENDBRANCH   4   6
ENDBRANCH   2   4
BRANCH   3   8
ATOM      8  C   UNL     1      23.440 -25.272  19.697  1.00  0.00    -0.003 C 
ATOM      9  C   UNL     1      22.808 -26.427  19.939  1.00  0.00    -0.020 C 
BRANCH   9  10
ATOM     10  C   UNL     1      22.118 -26.812  21.226  1.00  0.00    -0.010 CG0
ATOM     11  C   UNL     1      21.250 -28.061  20.954  1.00  0.00     0.016 C 
ATOM     12  C   UNL     1      23.163 -27.186  22.303  1.00  0.00     0.016 C 
ATOM     13  G   UNL     1      21.185 -25.665  21.672  1.00  0.00     0.000 G0
ENDBRANCH   9  10
ENDBRANCH   3   8
TORSDOF 0
ENDMDL
MODEL 7
REMARK VINA RESULT:    -3.422      2.661      4.216
REMARK INTER + INTRA:          -3.373
REMARK INTER:                  -4.222
REMARK INTRA:                   0.848
REMARK UNBOUND:                 0.848
REMARK SMILES CC1=CC=CC(C)(C)CC1=O
REMARK SMILES IDX 1 1 2 2 3 3 10 4 11 5 9 6 4 8 5 9 6 10 7 11 8 12
REMARK H PARENT
REMARK Flexibility Score: 80.00
ROOT
ATOM      1  C   UNL     1      13.638 -31.243  21.609  1.00  0.00     0.048 C 
ATOM      2  C   UNL     1      14.500 -32.481  21.704  1.00  0.00    -0.008 C 
ATOM      3  C   UNL     1      14.645 -33.237  20.594  1.00  0.00     0.007 C 
ENDROOT
BRANCH   2   4
ATOM      4  C   UNL     1      15.077 -32.793  23.040  1.00  0.00     0.159 C 
ATOM      5  O   UNL     1      14.902 -31.969  23.980  1.00  0.00    -0.295 OA
BRANCH   4   6
ATOM      6  C   UNL     1      15.826 -34.052  23.359  1.00  0.00     0.091 CG0
ATOM      7  G   UNL     1      16.999 -34.345  22.397  1.00  0.00     0.000 G0
ENDBRANCH   4   6
ENDBRANCH   2   4
BRANCH   3   8
ATOM      8  C   UNL     1      15.426 -34.477  20.389  1.00  0.00    -0.003 C 
ATOM      9  C   UNL     1      16.441 -34.955  21.118  1.00  0.00    -0.020 C 
BRANCH   9  10
ATOM     10  C   UNL     1      16.986 -34.350  22.390  1.00  0.00    -0.010 CG0
ATOM     11  C   UNL     1      17.906 -35.393  23.065  1.00  0.00     0.016 C 
ATOM     12  C   UNL     1      17.840 -33.102  22.066  1.00  0.00     0.016 C 
ATOM     13  G   UNL     1      15.819 -34.043  23.354  1.00  0.00     0.000 G0
ENDBRANCH   9  10
ENDBRANCH   3   8
TORSDOF 0
ENDMDL
MODEL 8
REMARK VINA RESULT:    -3.404      3.506      5.629
REMARK INTER + INTRA:          -3.351
REMARK INTER:                  -4.196
REMARK INTRA:                   0.845
REMARK UNBOUND:                 0.848
REMARK SMILES CC1=CC=CC(C)(C)CC1=O
REMARK SMILES IDX 1 1 2 2 3 3 10 4 11 5 9 6 4 8 5 9 6 10 7 11 8 12
REMARK H PARENT
REMARK Flexibility Score: 80.00
ROOT
ATOM      1  C   UNL     1      17.291 -36.239  19.488  1.00  0.00     0.048 C 
ATOM      2  C   UNL     1      16.985 -35.537  20.792  1.00  0.00    -0.008 C 
ATOM      3  C   UNL     1      17.745 -35.840  21.866  1.00  0.00     0.007 C 
ENDROOT
BRANCH   2   4
ATOM      4  C   UNL     1      15.825 -34.604  20.792  1.00  0.00     0.159 C 
ATOM      5  O   UNL     1      15.223 -34.391  19.704  1.00  0.00    -0.295 OA
BRANCH   4   6
ATOM      6  C   UNL     1      15.295 -33.923  22.019  1.00  0.00     0.091 CG0
ATOM      7  G   UNL     1      16.375 -33.191  22.845  1.00  0.00     0.000 G0
ENDBRANCH   4   6
ENDBRANCH   2   4
BRANCH   3   8
ATOM      8  C   UNL     1      17.687 -35.312  23.247  1.00  0.00    -0.003 C 
ATOM      9  C   UNL     1      17.135 -34.173  23.681  1.00  0.00    -0.020 C 
BRANCH   9  10
ATOM     10  C   UNL     1      16.369 -33.177  22.844  1.00  0.00    -0.010 CG0
ATOM     11  C   UNL     1      15.640 -32.203  23.797  1.00  0.00     0.016 C 
ATOM     12  C   UNL     1      17.341 -32.350  21.971  1.00  0.00     0.016 C 
ATOM     13  G   UNL     1      15.302 -33.921  22.010  1.00  0.00     0.000 G0
ENDBRANCH   9  10
ENDBRANCH   3   8
TORSDOF 0
ENDMDL
MODEL 9
REMARK VINA RESULT:    -3.370      2.418      3.310
REMARK INTER + INTRA:          -3.309
REMARK INTER:                  -4.185
REMARK INTRA:                   0.876
REMARK UNBOUND:                 0.848
REMARK SMILES CC1=CC=CC(C)(C)CC1=O
REMARK SMILES IDX 1 1 2 2 3 3 10 4 11 5 9 6 4 8 5 9 6 10 7 11 8 12
REMARK H PARENT
REMARK Flexibility Score: 80.00
ROOT
ATOM      1  C   UNL     1      13.457 -31.728  24.007  1.00  0.00     0.048 C 
ATOM      2  C   UNL     1      14.616 -31.321  23.127  1.00  0.00    -0.008 C 
ATOM      3  C   UNL     1      14.839 -30.002  22.946  1.00  0.00     0.007 C 
ENDROOT
BRANCH   2   4
ATOM      4  C   UNL     1      15.386 -32.422  22.486  1.00  0.00     0.159 C 
ATOM      5  O   UNL     1      15.089 -33.614  22.774  1.00  0.00    -0.295 OA
BRANCH   4   6
ATOM      6  C   UNL     1      16.479 -32.208  21.480  1.00  0.00     0.091 CG0
ATOM      7  G   UNL     1      17.570 -31.217  21.941  1.00  0.00     0.000 G0
ENDBRANCH   4   6
ENDBRANCH   2   4
BRANCH   3   8
ATOM      8  C   UNL     1      15.892 -29.319  22.160  1.00  0.00    -0.003 C 
ATOM      9  C   UNL     1      17.068 -29.801  21.744  1.00  0.00    -0.020 C 
BRANCH   9  10
ATOM     10  C   UNL     1      17.568 -31.213  21.931  1.00  0.00    -0.010 CG0
ATOM     11  C   UNL     1      18.815 -31.407  21.038  1.00  0.00     0.016 C 
ATOM     12  C   UNL     1      17.996 -31.440  23.400  1.00  0.00     0.016 C 
ATOM     13  G   UNL     1      16.484 -32.209  21.464  1.00  0.00     0.000 G0
ENDBRANCH   9  10
ENDBRANCH   3   8
TORSDOF 0
ENDMDL
