MODEL 1
REMARK VINA RESULT:    -4.130      0.000      0.000
REMARK INTER + INTRA:          -5.508
REMARK INTER:                  -5.820
REMARK INTRA:                   0.312
REMARK UNBOUND:                 0.312
REMARK SMILES CC1=CCC(=C(C)C)C(=O)CC(C)=CCC1
REMARK SMILES IDX 12 1 14 2 13 3 15 4 16 5 2 6 1 7 3 8 11 10 9 11 10 12 5 13
REMARK SMILES IDX 6 14 7 15 8 16 4 17
REMARK H PARENT
REMARK Flexibility Score: 60.00
ROOT
ATOM      1  C   UNL     1     -12.956  14.401 -30.858  1.00  0.00    -0.070 C 
ATOM      2  C   UNL     1     -14.096  14.601 -31.561  1.00  0.00    -0.027 C 
ATOM      3  C   UNL     1     -11.642  14.655 -31.551  1.00  0.00     0.039 C 
ENDROOT
BRANCH   2   4
ATOM      4  C   UNL     1     -15.494  14.338 -31.048  1.00  0.00     0.032 C 
BRANCH   4   5
ATOM      5  C   UNL     1     -15.909  12.875 -31.262  1.00  0.00     0.034 C 
BRANCH   5   6
ATOM      6  C   UNL     1     -16.613  12.261 -30.059  1.00  0.00    -0.077 C 
ATOM      7  C   UNL     1     -18.038  12.661 -29.769  1.00  0.00     0.039 C 
ATOM      8  C   UNL     1     -16.021  11.382 -29.219  1.00  0.00    -0.023 CG0
ATOM      9  G   UNL     1     -14.632  10.812 -29.384  1.00  0.00     0.000 G0
ENDBRANCH   5   6
ENDBRANCH   4   5
ENDBRANCH   2   4
BRANCH   1  10
ATOM     10  C   UNL     1     -12.949  13.938 -29.414  1.00  0.00     0.111 C 
BRANCH  10  11
ATOM     11  C   UNL     1     -12.648  12.469 -29.318  1.00  0.00     0.163 C 
ATOM     12  O   UNL     1     -11.617  12.010 -29.881  1.00  0.00    -0.294 OA
BRANCH  11  13
ATOM     13  C   UNL     1     -13.554  11.541 -28.593  1.00  0.00    -0.002 C 
ATOM     14  C   UNL     1     -13.421  11.363 -27.250  1.00  0.00    -0.069 C 
ATOM     15  C   UNL     1     -14.367  10.464 -26.486  1.00  0.00     0.039 C 
ATOM     16  C   UNL     1     -12.299  12.022 -26.480  1.00  0.00     0.039 C 
BRANCH  13  17
ATOM     17  C   UNL     1     -14.631  10.794 -29.372  1.00  0.00     0.066 CG0
ATOM     18  G   UNL     1     -16.014  11.381 -29.213  1.00  0.00     0.000 G0
ENDBRANCH  13  17
ENDBRANCH  11  13
ENDBRANCH  10  11
ENDBRANCH   1  10
TORSDOF 0
ENDMDL
MODEL 2
REMARK VINA RESULT:    -4.026      1.969      4.902
REMARK INTER + INTRA:          -5.363
REMARK INTER:                  -5.719
REMARK INTRA:                   0.356
REMARK UNBOUND:                 0.312
REMARK SMILES CC1=CCC(=C(C)C)C(=O)CC(C)=CCC1
REMARK SMILES IDX 12 1 14 2 13 3 15 4 16 5 2 6 1 7 3 8 11 10 9 11 10 12 5 13
REMARK SMILES IDX 6 14 7 15 8 16 4 17
REMARK H PARENT
REMARK Flexibility Score: 60.00
ROOT
ATOM      1  C   UNL     1     -16.954  12.092 -29.227  1.00  0.00    -0.070 C 
ATOM      2  C   UNL     1     -16.791  11.427 -28.059  1.00  0.00    -0.027 C 
ATOM      3  C   UNL     1     -18.332  12.600 -29.567  1.00  0.00     0.039 C 
ENDROOT
BRANCH   2   4
ATOM      4  C   UNL     1     -15.499  10.798 -27.587  1.00  0.00     0.032 C 
BRANCH   4   5
ATOM      5  C   UNL     1     -14.526  11.851 -27.037  1.00  0.00     0.034 C 
BRANCH   5   6
ATOM      6  C   UNL     1     -13.088  11.649 -27.495  1.00  0.00    -0.077 C 
ATOM      7  C   UNL     1     -12.394  10.353 -27.159  1.00  0.00     0.039 C 
ATOM      8  C   UNL     1     -12.386  12.582 -28.177  1.00  0.00    -0.023 CG0
ATOM      9  G   UNL     1     -12.929  13.906 -28.662  1.00  0.00     0.000 G0
ENDBRANCH   5   6
ENDBRANCH   4   5
ENDBRANCH   2   4
BRANCH   1  10
ATOM     10  C   UNL     1     -15.817  12.348 -30.196  1.00  0.00     0.111 C 
BRANCH  10  11
ATOM     11  C   UNL     1     -15.170  13.679 -29.932  1.00  0.00     0.163 C 
ATOM     12  O   UNL     1     -15.894  14.680 -29.682  1.00  0.00    -0.294 OA
BRANCH  11  13
ATOM     13  C   UNL     1     -13.693  13.843 -29.984  1.00  0.00    -0.002 C 
ATOM     14  C   UNL     1     -13.054  13.919 -31.183  1.00  0.00    -0.069 C 
ATOM     15  C   UNL     1     -11.560  14.139 -31.256  1.00  0.00     0.039 C 
ATOM     16  C   UNL     1     -13.805  13.746 -32.484  1.00  0.00     0.039 C 
BRANCH  13  17
ATOM     17  C   UNL     1     -12.909  13.924 -28.679  1.00  0.00     0.066 CG0
ATOM     18  G   UNL     1     -12.415  12.585 -28.183  1.00  0.00     0.000 G0
ENDBRANCH  13  17
ENDBRANCH  11  13
ENDBRANCH  10  11
ENDBRANCH   1  10
TORSDOF 0
ENDMDL
MODEL 3
REMARK VINA RESULT:    -3.946      1.634      2.286
REMARK INTER + INTRA:          -5.250
REMARK INTER:                  -5.878
REMARK INTRA:                   0.628
REMARK UNBOUND:                 0.312
REMARK SMILES CC1=CCC(=C(C)C)C(=O)CC(C)=CCC1
REMARK SMILES IDX 12 1 14 2 13 3 15 4 16 5 2 6 1 7 3 8 11 10 9 11 10 12 5 13
REMARK SMILES IDX 6 14 7 15 8 16 4 17
REMARK H PARENT
REMARK Flexibility Score: 60.00
ROOT
ATOM      1  C   UNL     1     -14.926  13.786 -30.693  1.00  0.00    -0.070 C 
ATOM      2  C   UNL     1     -16.247  13.982 -30.470  1.00  0.00    -0.027 C 
ATOM      3  C   UNL     1     -13.989  14.945 -30.470  1.00  0.00     0.039 C 
ENDROOT
BRANCH   2   4
ATOM      4  C   UNL     1     -17.332  12.955 -30.699  1.00  0.00     0.032 C 
BRANCH   4   5
ATOM      5  C   UNL     1     -18.079  12.621 -29.400  1.00  0.00     0.034 C 
BRANCH   5   6
ATOM      6  C   UNL     1     -17.739  11.247 -28.838  1.00  0.00    -0.077 C 
ATOM      7  C   UNL     1     -18.683  10.100 -29.102  1.00  0.00     0.039 C 
ATOM      8  C   UNL     1     -16.638  10.999 -28.094  1.00  0.00    -0.023 CG0
ATOM      9  G   UNL     1     -15.547  11.997 -27.783  1.00  0.00     0.000 G0
ENDBRANCH   5   6
ENDBRANCH   4   5
ENDBRANCH   2   4
BRANCH   1  10
ATOM     10  C   UNL     1     -14.356  12.457 -31.150  1.00  0.00     0.111 C 
BRANCH  10  11
ATOM     11  C   UNL     1     -14.431  11.430 -30.055  1.00  0.00     0.163 C 
ATOM     12  O   UNL     1     -14.644  10.224 -30.352  1.00  0.00    -0.294 OA
BRANCH  11  13
ATOM     13  C   UNL     1     -14.282  11.813 -28.627  1.00  0.00    -0.002 C 
ATOM     14  C   UNL     1     -13.045  12.006 -28.094  1.00  0.00    -0.069 C 
ATOM     15  C   UNL     1     -12.875  12.447 -26.658  1.00  0.00     0.039 C 
ATOM     16  C   UNL     1     -11.794  11.749 -28.905  1.00  0.00     0.039 C 
BRANCH  13  17
ATOM     17  C   UNL     1     -15.532  11.983 -27.769  1.00  0.00     0.066 CG0
ATOM     18  G   UNL     1     -16.631  11.000 -28.095  1.00  0.00     0.000 G0
ENDBRANCH  13  17
ENDBRANCH  11  13
ENDBRANCH  10  11
ENDBRANCH   1  10
TORSDOF 0
ENDMDL
MODEL 4
REMARK VINA RESULT:    -3.921      1.768      3.543
REMARK INTER + INTRA:          -5.215
REMARK INTER:                  -5.670
REMARK INTRA:                   0.455
REMARK UNBOUND:                 0.312
REMARK SMILES CC1=CCC(=C(C)C)C(=O)CC(C)=CCC1
REMARK SMILES IDX 12 1 14 2 13 3 15 4 16 5 2 6 1 7 3 8 11 10 9 11 10 12 5 13
REMARK SMILES IDX 6 14 7 15 8 16 4 17
REMARK H PARENT
REMARK Flexibility Score: 60.00
ROOT
ATOM      1  C   UNL     1     -15.333  13.832 -30.886  1.00  0.00    -0.070 C 
ATOM      2  C   UNL     1     -14.245  14.598 -31.140  1.00  0.00    -0.027 C 
ATOM      3  C   UNL     1     -16.319  13.607 -32.003  1.00  0.00     0.039 C 
ENDROOT
BRANCH   2   4
ATOM      4  C   UNL     1     -13.190  14.976 -30.126  1.00  0.00     0.032 C 
BRANCH   4   5
ATOM      5  C   UNL     1     -11.788  14.544 -30.581  1.00  0.00     0.034 C 
BRANCH   5   6
ATOM      6  C   UNL     1     -11.714  13.089 -31.025  1.00  0.00    -0.077 C 
ATOM      7  C   UNL     1     -11.290  12.782 -32.439  1.00  0.00     0.039 C 
ATOM      8  C   UNL     1     -12.028  12.048 -30.221  1.00  0.00    -0.023 CG0
ATOM      9  G   UNL     1     -12.405  12.152 -28.761  1.00  0.00     0.000 G0
ENDBRANCH   5   6
ENDBRANCH   4   5
ENDBRANCH   2   4
BRANCH   1  10
ATOM     10  C   UNL     1     -15.595  13.195 -29.535  1.00  0.00     0.111 C 
BRANCH  10  11
ATOM     11  C   UNL     1     -14.898  11.868 -29.419  1.00  0.00     0.163 C 
ATOM     12  O   UNL     1     -15.255  10.914 -30.161  1.00  0.00    -0.294 OA
BRANCH  11  13
ATOM     13  C   UNL     1     -13.811  11.651 -28.428  1.00  0.00    -0.002 C 
ATOM     14  C   UNL     1     -14.071  11.020 -27.252  1.00  0.00    -0.069 C 
ATOM     15  C   UNL     1     -12.968  10.744 -26.255  1.00  0.00     0.039 C 
ATOM     16  C   UNL     1     -15.478  10.608 -26.879  1.00  0.00     0.039 C 
BRANCH  13  17
ATOM     17  C   UNL     1     -12.405  12.147 -28.749  1.00  0.00     0.066 CG0
ATOM     18  G   UNL     1     -12.044  12.046 -30.213  1.00  0.00     0.000 G0
ENDBRANCH  13  17
ENDBRANCH  11  13
ENDBRANCH  10  11
ENDBRANCH   1  10
TORSDOF 0
ENDMDL
MODEL 5
REMARK VINA RESULT:    -3.916      1.820      3.776
REMARK INTER + INTRA:          -5.206
REMARK INTER:                  -6.000
REMARK INTRA:                   0.794
REMARK UNBOUND:                 0.312
REMARK SMILES CC1=CCC(=C(C)C)C(=O)CC(C)=CCC1
REMARK SMILES IDX 12 1 14 2 13 3 15 4 16 5 2 6 1 7 3 8 11 10 9 11 10 12 5 13
REMARK SMILES IDX 6 14 7 15 8 16 4 17
REMARK H PARENT
REMARK Flexibility Score: 60.00
ROOT
ATOM      1  C   UNL     1     -12.523  12.213 -29.516  1.00  0.00    -0.070 C 
ATOM      2  C   UNL     1     -12.245  13.483 -29.893  1.00  0.00    -0.027 C 
ATOM      3  C   UNL     1     -11.493  11.148 -29.792  1.00  0.00     0.039 C 
ENDROOT
BRANCH   2   4
ATOM      4  C   UNL     1     -13.183  14.660 -29.751  1.00  0.00     0.032 C 
BRANCH   4   5
ATOM      5  C   UNL     1     -13.788  15.068 -31.102  1.00  0.00     0.034 C 
BRANCH   5   6
ATOM      6  C   UNL     1     -13.937  13.909 -32.077  1.00  0.00    -0.077 C 
ATOM      7  C   UNL     1     -12.843  13.663 -33.087  1.00  0.00     0.039 C 
ATOM      8  C   UNL     1     -15.012  13.090 -32.101  1.00  0.00    -0.023 CG0
ATOM      9  G   UNL     1     -16.169  13.134 -31.130  1.00  0.00     0.000 G0
ENDBRANCH   5   6
ENDBRANCH   4   5
ENDBRANCH   2   4
BRANCH   1  10
ATOM     10  C   UNL     1     -13.818  11.822 -28.830  1.00  0.00     0.111 C 
BRANCH  10  11
ATOM     11  C   UNL     1     -14.829  11.324 -29.825  1.00  0.00     0.163 C 
ATOM     12  O   UNL     1     -14.580  10.284 -30.493  1.00  0.00    -0.294 OA
BRANCH  11  13
ATOM     13  C   UNL     1     -16.107  12.047 -30.053  1.00  0.00    -0.002 C 
ATOM     14  C   UNL     1     -17.209  11.740 -29.318  1.00  0.00    -0.069 C 
ATOM     15  C   UNL     1     -18.504  12.500 -29.500  1.00  0.00     0.039 C 
ATOM     16  C   UNL     1     -17.194  10.602 -28.322  1.00  0.00     0.039 C 
BRANCH  13  17
ATOM     17  C   UNL     1     -16.164  13.133 -31.122  1.00  0.00     0.066 CG0
ATOM     18  G   UNL     1     -15.005  13.096 -32.090  1.00  0.00     0.000 G0
ENDBRANCH  13  17
ENDBRANCH  11  13
ENDBRANCH  10  11
ENDBRANCH   1  10
TORSDOF 0
ENDMDL
MODEL 6
REMARK VINA RESULT:    -3.871      1.629      2.894
REMARK INTER + INTRA:          -5.144
REMARK INTER:                  -5.498
REMARK INTRA:                   0.354
REMARK UNBOUND:                 0.312
REMARK SMILES CC1=CCC(=C(C)C)C(=O)CC(C)=CCC1
REMARK SMILES IDX 12 1 14 2 13 3 15 4 16 5 2 6 1 7 3 8 11 10 9 11 10 12 5 13
REMARK SMILES IDX 6 14 7 15 8 16 4 17
REMARK H PARENT
REMARK Flexibility Score: 60.00
ROOT
ATOM      1  C   UNL     1     -11.309  12.125 -30.441  1.00  0.00    -0.070 C 
ATOM      2  C   UNL     1     -11.257  13.229 -31.222  1.00  0.00    -0.027 C 
ATOM      3  C   UNL     1     -10.488  10.928 -30.848  1.00  0.00     0.039 C 
ENDROOT
BRANCH   2   4
ATOM      4  C   UNL     1     -12.058  14.492 -31.000  1.00  0.00     0.032 C 
BRANCH   4   5
ATOM      5  C   UNL     1     -13.435  14.416 -31.677  1.00  0.00     0.034 C 
BRANCH   5   6
ATOM      6  C   UNL     1     -14.585  14.818 -30.764  1.00  0.00    -0.077 C 
ATOM      7  C   UNL     1     -14.821  16.283 -30.496  1.00  0.00     0.039 C 
ATOM      8  C   UNL     1     -15.402  13.926 -30.159  1.00  0.00    -0.023 CG0
ATOM      9  G   UNL     1     -15.366  12.429 -30.359  1.00  0.00     0.000 G0
ENDBRANCH   5   6
ENDBRANCH   4   5
ENDBRANCH   2   4
BRANCH   1  10
ATOM     10  C   UNL     1     -12.149  12.045 -29.181  1.00  0.00     0.111 C 
BRANCH  10  11
ATOM     11  C   UNL     1     -13.338  11.146 -29.380  1.00  0.00     0.163 C 
ATOM     12  O   UNL     1     -13.157   9.947 -29.724  1.00  0.00    -0.294 OA
BRANCH  11  13
ATOM     13  C   UNL     1     -14.725  11.650 -29.202  1.00  0.00    -0.002 C 
ATOM     14  C   UNL     1     -15.389  11.431 -28.035  1.00  0.00    -0.069 C 
ATOM     15  C   UNL     1     -16.780  11.981 -27.815  1.00  0.00     0.039 C 
ATOM     16  C   UNL     1     -14.779  10.597 -26.931  1.00  0.00     0.039 C 
BRANCH  13  17
ATOM     17  C   UNL     1     -15.390  12.412 -30.343  1.00  0.00     0.066 CG0
ATOM     18  G   UNL     1     -15.401  13.910 -30.149  1.00  0.00     0.000 G0
ENDBRANCH  13  17
ENDBRANCH  11  13
ENDBRANCH  10  11
ENDBRANCH   1  10
TORSDOF 0
ENDMDL
MODEL 7
REMARK VINA RESULT:    -3.835      8.993     12.255
REMARK INTER + INTRA:          -5.094
REMARK INTER:                  -5.656
REMARK INTRA:                   0.563
REMARK UNBOUND:                 0.312
REMARK SMILES CC1=CCC(=C(C)C)C(=O)CC(C)=CCC1
REMARK SMILES IDX 12 1 14 2 13 3 15 4 16 5 2 6 1 7 3 8 11 10 9 11 10 12 5 13
REMARK SMILES IDX 6 14 7 15 8 16 4 17
REMARK H PARENT
REMARK Flexibility Score: 60.00
ROOT
ATOM      1  C   UNL     1     -28.071  12.845 -30.998  1.00  0.00    -0.070 C 
ATOM      2  C   UNL     1     -28.133  11.520 -30.724  1.00  0.00    -0.027 C 
ATOM      3  C   UNL     1     -29.286  13.687 -30.705  1.00  0.00     0.039 C 
ENDROOT
BRANCH   2   4
ATOM      4  C   UNL     1     -27.036  10.519 -31.009  1.00  0.00     0.032 C 
BRANCH   4   5
ATOM      5  C   UNL     1     -26.508   9.877 -29.718  1.00  0.00     0.034 C 
BRANCH   5   6
ATOM      6  C   UNL     1     -26.389  10.854 -28.556  1.00  0.00    -0.077 C 
ATOM      7  C   UNL     1     -27.310  10.692 -27.373  1.00  0.00     0.039 C 
ATOM      8  C   UNL     1     -25.508  11.880 -28.534  1.00  0.00    -0.023 CG0
ATOM      9  G   UNL     1     -24.464  12.162 -29.589  1.00  0.00     0.000 G0
ENDBRANCH   5   6
ENDBRANCH   4   5
ENDBRANCH   2   4
BRANCH   1  10
ATOM     10  C   UNL     1     -26.839  13.509 -31.580  1.00  0.00     0.111 C 
BRANCH  10  11
ATOM     11  C   UNL     1     -25.972  14.086 -30.496  1.00  0.00     0.163 C 
ATOM     12  O   UNL     1     -26.399  15.055 -29.812  1.00  0.00    -0.294 OA
BRANCH  11  13
ATOM     13  C   UNL     1     -24.611  13.552 -30.230  1.00  0.00    -0.002 C 
ATOM     14  C   UNL     1     -23.511  14.285 -30.553  1.00  0.00    -0.069 C 
ATOM     15  C   UNL     1     -22.120  13.781 -30.243  1.00  0.00     0.039 C 
ATOM     16  C   UNL     1     -23.637  15.611 -31.270  1.00  0.00     0.039 C 
BRANCH  13  17
ATOM     17  C   UNL     1     -24.466  12.173 -29.594  1.00  0.00     0.066 CG0
ATOM     18  G   UNL     1     -25.496  11.885 -28.527  1.00  0.00     0.000 G0
ENDBRANCH  13  17
ENDBRANCH  11  13
ENDBRANCH  10  11
ENDBRANCH   1  10
TORSDOF 0
ENDMDL
MODEL 8
REMARK VINA RESULT:    -3.793      1.492      3.163
REMARK INTER + INTRA:          -5.034
REMARK INTER:                  -5.716
REMARK INTRA:                   0.682
REMARK UNBOUND:                 0.312
REMARK SMILES CC1=CCC(=C(C)C)C(=O)CC(C)=CCC1
REMARK SMILES IDX 12 1 14 2 13 3 15 4 16 5 2 6 1 7 3 8 11 10 9 11 10 12 5 13
REMARK SMILES IDX 6 14 7 15 8 16 4 17
REMARK H PARENT
REMARK Flexibility Score: 60.00
ROOT
ATOM      1  C   UNL     1     -16.482  12.970 -30.136  1.00  0.00    -0.070 C 
ATOM      2  C   UNL     1     -17.509  12.408 -29.457  1.00  0.00    -0.027 C 
ATOM      3  C   UNL     1     -16.182  14.426 -29.891  1.00  0.00     0.039 C 
ENDROOT
BRANCH   2   4
ATOM      4  C   UNL     1     -17.988  10.983 -29.623  1.00  0.00     0.032 C 
BRANCH   4   5
ATOM      5  C   UNL     1     -16.940   9.974 -29.131  1.00  0.00     0.034 C 
BRANCH   5   6
ATOM      6  C   UNL     1     -16.314  10.349 -27.795  1.00  0.00    -0.077 C 
ATOM      7  C   UNL     1     -17.182  10.354 -26.561  1.00  0.00     0.039 C 
ATOM      8  C   UNL     1     -15.015  10.700 -27.654  1.00  0.00    -0.023 CG0
ATOM      9  G   UNL     1     -13.980  10.688 -28.754  1.00  0.00     0.000 G0
ENDBRANCH   5   6
ENDBRANCH   4   5
ENDBRANCH   2   4
BRANCH   1  10
ATOM     10  C   UNL     1     -15.626  12.200 -31.123  1.00  0.00     0.111 C 
BRANCH  10  11
ATOM     11  C   UNL     1     -14.169  12.300 -30.769  1.00  0.00     0.163 C 
ATOM     12  O   UNL     1     -13.333  12.594 -31.665  1.00  0.00    -0.294 OA
BRANCH  11  13
ATOM     13  C   UNL     1     -13.690  12.034 -29.387  1.00  0.00    -0.002 C 
ATOM     14  C   UNL     1     -13.007  12.991 -28.702  1.00  0.00    -0.069 C 
ATOM     15  C   UNL     1     -12.558  12.758 -27.277  1.00  0.00     0.039 C 
ATOM     16  C   UNL     1     -12.635  14.304 -29.353  1.00  0.00     0.039 C 
BRANCH  13  17
ATOM     17  C   UNL     1     -13.975  10.678 -28.750  1.00  0.00     0.066 CG0
ATOM     18  G   UNL     1     -15.020  10.724 -27.661  1.00  0.00     0.000 G0
ENDBRANCH  13  17
ENDBRANCH  11  13
ENDBRANCH  10  11
ENDBRANCH   1  10
TORSDOF 0
ENDMDL
MODEL 9
REMARK VINA RESULT:    -3.764      1.506      3.928
REMARK INTER + INTRA:          -4.992
REMARK INTER:                  -5.554
REMARK INTRA:                   0.562
REMARK UNBOUND:                 0.312
REMARK SMILES CC1=CCC(=C(C)C)C(=O)CC(C)=CCC1
REMARK SMILES IDX 12 1 14 2 13 3 15 4 16 5 2 6 1 7 3 8 11 10 9 11 10 12 5 13
REMARK SMILES IDX 6 14 7 15 8 16 4 17
REMARK H PARENT
REMARK Flexibility Score: 60.00
ROOT
ATOM      1  C   UNL     1     -13.136  12.215 -27.497  1.00  0.00    -0.070 C 
ATOM      2  C   UNL     1     -14.242  11.441 -27.607  1.00  0.00    -0.027 C 
ATOM      3  C   UNL     1     -12.811  12.800 -26.147  1.00  0.00     0.039 C 
ENDROOT
BRANCH   2   4
ATOM      4  C   UNL     1     -14.751  10.827 -28.891  1.00  0.00     0.032 C 
BRANCH   4   5
ATOM      5  C   UNL     1     -16.202  11.241 -29.180  1.00  0.00     0.034 C 
BRANCH   5   6
ATOM      6  C   UNL     1     -16.369  12.734 -29.428  1.00  0.00    -0.077 C 
ATOM      7  C   UNL     1     -17.410  13.489 -28.638  1.00  0.00     0.039 C 
ATOM      8  C   UNL     1     -15.644  13.425 -30.336  1.00  0.00    -0.023 CG0
ATOM      9  G   UNL     1     -14.515  12.861 -31.168  1.00  0.00     0.000 G0
ENDBRANCH   5   6
ENDBRANCH   4   5
ENDBRANCH   2   4
BRANCH   1  10
ATOM     10  C   UNL     1     -12.219  12.513 -28.667  1.00  0.00     0.111 C 
BRANCH  10  11
ATOM     11  C   UNL     1     -12.731  13.672 -29.476  1.00  0.00     0.163 C 
ATOM     12  O   UNL     1     -12.821  14.809 -28.940  1.00  0.00    -0.294 OA
BRANCH  11  13
ATOM     13  C   UNL     1     -13.156  13.498 -30.889  1.00  0.00    -0.002 C 
ATOM     14  C   UNL     1     -12.342  13.897 -31.904  1.00  0.00    -0.069 C 
ATOM     15  C   UNL     1     -12.734  13.681 -33.348  1.00  0.00     0.039 C 
ATOM     16  C   UNL     1     -11.036  14.606 -31.627  1.00  0.00     0.039 C 
BRANCH  13  17
ATOM     17  C   UNL     1     -14.515  12.870 -31.184  1.00  0.00     0.066 CG0
ATOM     18  G   UNL     1     -15.636  13.421 -30.335  1.00  0.00     0.000 G0
ENDBRANCH  13  17
ENDBRANCH  11  13
ENDBRANCH  10  11
ENDBRANCH   1  10
TORSDOF 0
ENDMDL
