MODEL 1
REMARK VINA RESULT:    -5.264      0.000      0.000
REMARK INTER + INTRA:         -12.537
REMARK INTER:                 -10.188
REMARK INTRA:                  -2.349
REMARK UNBOUND:                -2.349
REMARK SMILES CCCCCCCCCCCCCCCCCC(=O)[O-]
REMARK SMILES IDX 10 1 11 2 12 3 13 4 14 5 15 6 16 7 17 8 18 9 19 10 20 11
REMARK SMILES IDX 9 12 8 13 7 14 6 15 5 16 4 17 3 18 2 19 1 20
REMARK H PARENT
REMARK Flexibility Score: inf
ROOT
ATOM      1  C   UNL     1     -19.564  56.245  -2.777  1.00  0.00     0.000 C 
ENDROOT
BRANCH   1   2
ATOM      2  C   UNL     1     -18.295  56.623  -3.566  1.00  0.00     0.000 C 
BRANCH   2   3
ATOM      3  C   UNL     1     -17.011  55.887  -3.134  1.00  0.00     0.000 C 
BRANCH   3   4
ATOM      4  C   UNL     1     -17.228  54.733  -2.140  1.00  0.00     0.000 C 
BRANCH   4   5
ATOM      5  C   UNL     1     -16.516  54.960  -0.797  1.00  0.00     0.000 C 
BRANCH   5   6
ATOM      6  C   UNL     1     -17.490  55.512   0.254  1.00  0.00     0.000 C 
BRANCH   6   7
ATOM      7  C   UNL     1     -17.550  57.051   0.262  1.00  0.00     0.006 C 
BRANCH   7   8
ATOM      8  C   UNL     1     -16.594  57.716   1.264  1.00  0.00     0.053 C 
BRANCH   8   9
ATOM      9  C   UNL     1     -15.468  58.426   0.578  1.00  0.00     0.041 C 
ATOM     10  O   UNL     1     -14.624  59.076   1.250  1.00  0.00    -0.550 OA
ATOM     11  O   UNL     1     -15.369  58.396  -0.808  1.00  0.00    -0.550 OA
ENDBRANCH   8   9
ENDBRANCH   7   8
ENDBRANCH   6   7
ENDBRANCH   5   6
ENDBRANCH   4   5
ENDBRANCH   3   4
ENDBRANCH   2   3
ENDBRANCH   1   2
BRANCH   1  12
ATOM     12  C   UNL     1     -20.885  56.461  -3.537  1.00  0.00     0.000 C 
BRANCH  12  13
ATOM     13  C   UNL     1     -22.105  56.524  -2.602  1.00  0.00    -0.000 C 
BRANCH  13  14
ATOM     14  C   UNL     1     -23.205  55.525  -2.994  1.00  0.00    -0.000 C 
BRANCH  14  15
ATOM     15  C   UNL     1     -23.792  54.789  -1.778  1.00  0.00    -0.000 C 
BRANCH  15  16
ATOM     16  C   UNL     1     -23.554  55.542  -0.460  1.00  0.00    -0.000 C 
BRANCH  16  17
ATOM     17  C   UNL     1     -22.587  54.805   0.483  1.00  0.00    -0.000 C 
BRANCH  17  18
ATOM     18  C   UNL     1     -22.092  53.472  -0.118  1.00  0.00    -0.000 C 
BRANCH  18  19
ATOM     19  C   UNL     1     -20.612  53.498  -0.534  1.00  0.00    -0.003 C 
ATOM     20  C   UNL     1     -20.334  52.704  -1.810  1.00  0.00     0.004 C 
ENDBRANCH  18  19
ENDBRANCH  17  18
ENDBRANCH  16  17
ENDBRANCH  15  16
ENDBRANCH  14  15
ENDBRANCH  13  14
ENDBRANCH  12  13
ENDBRANCH   1  12
TORSDOF 16
ENDMDL
MODEL 2
REMARK VINA RESULT:    -5.259      1.514      4.038
REMARK INTER + INTRA:         -12.528
REMARK INTER:                 -10.377
REMARK INTRA:                  -2.150
REMARK UNBOUND:                -2.349
REMARK SMILES CCCCCCCCCCCCCCCCCC(=O)[O-]
REMARK SMILES IDX 10 1 11 2 12 3 13 4 14 5 15 6 16 7 17 8 18 9 19 10 20 11
REMARK SMILES IDX 9 12 8 13 7 14 6 15 5 16 4 17 3 18 2 19 1 20
REMARK H PARENT
REMARK Flexibility Score: inf
ROOT
ATOM      1  C   UNL     1     -23.239  56.671   0.553  1.00  0.00     0.000 C 
ENDROOT
BRANCH   1   2
ATOM      2  C   UNL     1     -22.645  57.348   1.804  1.00  0.00     0.000 C 
BRANCH   2   3
ATOM      3  C   UNL     1     -21.147  57.700   1.711  1.00  0.00     0.000 C 
BRANCH   3   4
ATOM      4  C   UNL     1     -20.361  56.913   0.647  1.00  0.00     0.000 C 
BRANCH   4   5
ATOM      5  C   UNL     1     -18.882  57.321   0.574  1.00  0.00     0.000 C 
BRANCH   5   6
ATOM      6  C   UNL     1     -17.981  56.090   0.396  1.00  0.00     0.000 C 
BRANCH   6   7
ATOM      7  C   UNL     1     -16.489  56.408   0.598  1.00  0.00     0.006 C 
BRANCH   7   8
ATOM      8  C   UNL     1     -16.215  57.771   1.251  1.00  0.00     0.053 C 
BRANCH   8   9
ATOM      9  C   UNL     1     -15.155  58.538   0.522  1.00  0.00     0.041 C 
ATOM     10  O   UNL     1     -15.212  58.667  -0.729  1.00  0.00    -0.550 OA
ATOM     11  O   UNL     1     -14.086  59.084   1.223  1.00  0.00    -0.550 OA
ENDBRANCH   8   9
ENDBRANCH   7   8
ENDBRANCH   6   7
ENDBRANCH   5   6
ENDBRANCH   4   5
ENDBRANCH   3   4
ENDBRANCH   2   3
ENDBRANCH   1   2
BRANCH   1  12
ATOM     12  C   UNL     1     -23.684  55.212   0.758  1.00  0.00     0.000 C 
BRANCH  12  13
ATOM     13  C   UNL     1     -22.652  54.197   0.236  1.00  0.00    -0.000 C 
BRANCH  13  14
ATOM     14  C   UNL     1     -22.739  53.994  -1.286  1.00  0.00    -0.000 C 
BRANCH  14  15
ATOM     15  C   UNL     1     -21.524  54.578  -2.027  1.00  0.00    -0.000 C 
BRANCH  15  16
ATOM     16  C   UNL     1     -21.881  55.819  -2.861  1.00  0.00    -0.000 C 
BRANCH  16  17
ATOM     17  C   UNL     1     -20.642  56.625  -3.290  1.00  0.00    -0.000 C 
BRANCH  17  18
ATOM     18  C   UNL     1     -19.342  55.802  -3.171  1.00  0.00    -0.000 C 
BRANCH  18  19
ATOM     19  C   UNL     1     -18.173  56.377  -3.988  1.00  0.00    -0.003 C 
ATOM     20  C   UNL     1     -16.992  56.809  -3.122  1.00  0.00     0.004 C 
ENDBRANCH  18  19
ENDBRANCH  17  18
ENDBRANCH  16  17
ENDBRANCH  15  16
ENDBRANCH  14  15
ENDBRANCH  13  14
ENDBRANCH  12  13
ENDBRANCH   1  12
TORSDOF 16
ENDMDL
MODEL 3
REMARK VINA RESULT:    -5.193      1.739      2.784
REMARK INTER + INTRA:         -12.399
REMARK INTER:                  -9.800
REMARK INTRA:                  -2.599
REMARK UNBOUND:                -2.349
REMARK SMILES CCCCCCCCCCCCCCCCCC(=O)[O-]
REMARK SMILES IDX 10 1 11 2 12 3 13 4 14 5 15 6 16 7 17 8 18 9 19 10 20 11
REMARK SMILES IDX 9 12 8 13 7 14 6 15 5 16 4 17 3 18 2 19 1 20
REMARK H PARENT
REMARK Flexibility Score: inf
ROOT
ATOM      1  C   UNL     1     -20.370  56.231  -2.548  1.00  0.00     0.000 C 
ENDROOT
BRANCH   1   2
ATOM      2  C   UNL     1     -19.214  56.612  -3.494  1.00  0.00     0.000 C 
BRANCH   2   3
ATOM      3  C   UNL     1     -18.163  55.508  -3.723  1.00  0.00     0.000 C 
BRANCH   3   4
ATOM      4  C   UNL     1     -18.390  54.219  -2.914  1.00  0.00     0.000 C 
BRANCH   4   5
ATOM      5  C   UNL     1     -17.457  54.105  -1.698  1.00  0.00     0.000 C 
BRANCH   5   6
ATOM      6  C   UNL     1     -18.264  53.944  -0.401  1.00  0.00     0.000 C 
BRANCH   6   7
ATOM      7  C   UNL     1     -17.846  54.947   0.689  1.00  0.00     0.006 C 
BRANCH   7   8
ATOM      8  C   UNL     1     -18.079  56.420   0.318  1.00  0.00     0.053 C 
BRANCH   8   9
ATOM      9  C   UNL     1     -16.792  57.179   0.206  1.00  0.00     0.041 C 
ATOM     10  O   UNL     1     -16.284  57.403  -0.924  1.00  0.00    -0.550 OA
ATOM     11  O   UNL     1     -16.138  57.611   1.353  1.00  0.00    -0.550 OA
ENDBRANCH   8   9
ENDBRANCH   7   8
ENDBRANCH   6   7
ENDBRANCH   5   6
ENDBRANCH   4   5
ENDBRANCH   3   4
ENDBRANCH   2   3
ENDBRANCH   1   2
BRANCH   1  12
ATOM     12  C   UNL     1     -21.690  55.873  -3.254  1.00  0.00     0.000 C 
BRANCH  12  13
ATOM     13  C   UNL     1     -22.624  55.026  -2.372  1.00  0.00    -0.000 C 
BRANCH  13  14
ATOM     14  C   UNL     1     -21.873  53.938  -1.589  1.00  0.00    -0.000 C 
BRANCH  14  15
ATOM     15  C   UNL     1     -22.161  53.995  -0.079  1.00  0.00    -0.000 C 
BRANCH  15  16
ATOM     16  C   UNL     1     -23.340  54.920   0.264  1.00  0.00    -0.000 C 
BRANCH  16  17
ATOM     17  C   UNL     1     -22.962  56.021   1.270  1.00  0.00    -0.000 C 
BRANCH  17  18
ATOM     18  C   UNL     1     -21.687  56.782   0.848  1.00  0.00    -0.000 C 
BRANCH  18  19
ATOM     19  C   UNL     1     -21.385  58.009   1.723  1.00  0.00    -0.003 C 
ATOM     20  C   UNL     1     -22.551  58.400   2.630  1.00  0.00     0.004 C 
ENDBRANCH  18  19
ENDBRANCH  17  18
ENDBRANCH  16  17
ENDBRANCH  15  16
ENDBRANCH  14  15
ENDBRANCH  13  14
ENDBRANCH  12  13
ENDBRANCH   1  12
TORSDOF 16
ENDMDL
MODEL 4
REMARK VINA RESULT:    -5.188      2.972      6.452
REMARK INTER + INTRA:         -12.389
REMARK INTER:                 -10.937
REMARK INTRA:                  -1.453
REMARK UNBOUND:                -2.349
REMARK SMILES CCCCCCCCCCCCCCCCCC(=O)[O-]
REMARK SMILES IDX 10 1 11 2 12 3 13 4 14 5 15 6 16 7 17 8 18 9 19 10 20 11
REMARK SMILES IDX 9 12 8 13 7 14 6 15 5 16 4 17 3 18 2 19 1 20
REMARK H PARENT
REMARK Flexibility Score: inf
ROOT
ATOM      1  C   UNL     1     -18.094  56.088  -3.992  1.00  0.00     0.000 C 
ENDROOT
BRANCH   1   2
ATOM      2  C   UNL     1     -19.489  56.597  -3.580  1.00  0.00     0.000 C 
BRANCH   2   3
ATOM      3  C   UNL     1     -20.383  55.560  -2.872  1.00  0.00     0.000 C 
BRANCH   3   4
ATOM      4  C   UNL     1     -21.868  55.600  -3.276  1.00  0.00     0.000 C 
BRANCH   4   5
ATOM      5  C   UNL     1     -22.807  55.161  -2.143  1.00  0.00     0.000 C 
BRANCH   5   6
ATOM      6  C   UNL     1     -22.197  54.000  -1.343  1.00  0.00     0.000 C 
BRANCH   6   7
ATOM      7  C   UNL     1     -22.544  54.060   0.155  1.00  0.00     0.006 C 
BRANCH   7   8
ATOM      8  C   UNL     1     -23.915  54.682   0.463  1.00  0.00     0.053 C 
BRANCH   8   9
ATOM      9  C   UNL     1     -23.790  56.071   1.011  1.00  0.00     0.041 C 
ATOM     10  O   UNL     1     -22.985  56.312   1.950  1.00  0.00    -0.550 OA
ATOM     11  O   UNL     1     -24.585  57.091   0.506  1.00  0.00    -0.550 OA
ENDBRANCH   8   9
ENDBRANCH   7   8
ENDBRANCH   6   7
ENDBRANCH   5   6
ENDBRANCH   4   5
ENDBRANCH   3   4
ENDBRANCH   2   3
ENDBRANCH   1   2
BRANCH   1  12
ATOM     12  C   UNL     1     -17.036  56.128  -2.874  1.00  0.00     0.000 C 
BRANCH  12  13
ATOM     13  C   UNL     1     -16.713  54.734  -2.312  1.00  0.00    -0.000 C 
BRANCH  13  14
ATOM     14  C   UNL     1     -17.597  54.359  -1.112  1.00  0.00    -0.000 C 
BRANCH  14  15
ATOM     15  C   UNL     1     -17.281  55.199   0.137  1.00  0.00    -0.000 C 
BRANCH  15  16
ATOM     16  C   UNL     1     -18.363  56.250   0.433  1.00  0.00    -0.000 C 
BRANCH  16  17
ATOM     17  C   UNL     1     -17.775  57.625   0.797  1.00  0.00    -0.000 C 
BRANCH  17  18
ATOM     18  C   UNL     1     -16.236  57.589   0.909  1.00  0.00    -0.000 C 
BRANCH  18  19
ATOM     19  C   UNL     1     -15.561  58.918   0.532  1.00  0.00    -0.003 C 
ATOM     20  C   UNL     1     -14.156  59.062   1.114  1.00  0.00     0.004 C 
ENDBRANCH  18  19
ENDBRANCH  17  18
ENDBRANCH  16  17
ENDBRANCH  15  16
ENDBRANCH  14  15
ENDBRANCH  13  14
ENDBRANCH  12  13
ENDBRANCH   1  12
TORSDOF 16
ENDMDL
MODEL 5
REMARK VINA RESULT:    -5.178      3.160      6.457
REMARK INTER + INTRA:         -12.371
REMARK INTER:                 -10.196
REMARK INTRA:                  -2.175
REMARK UNBOUND:                -2.349
REMARK SMILES CCCCCCCCCCCCCCCCCC(=O)[O-]
REMARK SMILES IDX 10 1 11 2 12 3 13 4 14 5 15 6 16 7 17 8 18 9 19 10 20 11
REMARK SMILES IDX 9 12 8 13 7 14 6 15 5 16 4 17 3 18 2 19 1 20
REMARK H PARENT
REMARK Flexibility Score: inf
ROOT
ATOM      1  C   UNL     1     -20.022  53.012  -2.069  1.00  0.00     0.000 C 
ENDROOT
BRANCH   1   2
ATOM      2  C   UNL     1     -19.097  53.262  -3.277  1.00  0.00     0.000 C 
BRANCH   2   3
ATOM      3  C   UNL     1     -17.983  54.302  -3.046  1.00  0.00     0.000 C 
BRANCH   3   4
ATOM      4  C   UNL     1     -18.132  55.603  -3.855  1.00  0.00     0.000 C 
BRANCH   4   5
ATOM      5  C   UNL     1     -18.999  56.652  -3.143  1.00  0.00     0.000 C 
BRANCH   5   6
ATOM      6  C   UNL     1     -20.458  56.573  -3.618  1.00  0.00     0.000 C 
BRANCH   6   7
ATOM      7  C   UNL     1     -21.456  56.410  -2.458  1.00  0.00     0.006 C 
BRANCH   7   8
ATOM      8  C   UNL     1     -22.604  55.430  -2.743  1.00  0.00     0.053 C 
BRANCH   8   9
ATOM      9  C   UNL     1     -23.415  55.145  -1.516  1.00  0.00     0.041 C 
ATOM     10  O   UNL     1     -24.514  55.733  -1.332  1.00  0.00    -0.550 OA
ATOM     11  O   UNL     1     -22.942  54.255  -0.561  1.00  0.00    -0.550 OA
ENDBRANCH   8   9
ENDBRANCH   7   8
ENDBRANCH   6   7
ENDBRANCH   5   6
ENDBRANCH   4   5
ENDBRANCH   3   4
ENDBRANCH   2   3
ENDBRANCH   1   2
BRANCH   1  12
ATOM     12  C   UNL     1     -19.293  52.770  -0.736  1.00  0.00     0.000 C 
BRANCH  12  13
ATOM     13  C   UNL     1     -19.504  53.912   0.273  1.00  0.00    -0.000 C 
BRANCH  13  14
ATOM     14  C   UNL     1     -18.353  54.931   0.264  1.00  0.00    -0.000 C 
BRANCH  14  15
ATOM     15  C   UNL     1     -18.851  56.382   0.381  1.00  0.00    -0.000 C 
BRANCH  15  16
ATOM     16  C   UNL     1     -17.726  57.366   0.738  1.00  0.00    -0.000 C 
BRANCH  16  17
ATOM     17  C   UNL     1     -16.396  57.031   0.041  1.00  0.00    -0.000 C 
BRANCH  17  18
ATOM     18  C   UNL     1     -15.642  58.298  -0.415  1.00  0.00    -0.000 C 
BRANCH  18  19
ATOM     19  C   UNL     1     -15.287  59.250   0.738  1.00  0.00    -0.003 C 
ATOM     20  C   UNL     1     -13.847  59.092   1.224  1.00  0.00     0.004 C 
ENDBRANCH  18  19
ENDBRANCH  17  18
ENDBRANCH  16  17
ENDBRANCH  15  16
ENDBRANCH  14  15
ENDBRANCH  13  14
ENDBRANCH  12  13
ENDBRANCH   1  12
TORSDOF 16
ENDMDL
MODEL 6
REMARK VINA RESULT:    -5.125      2.700      6.116
REMARK INTER + INTRA:         -12.269
REMARK INTER:                 -10.018
REMARK INTRA:                  -2.251
REMARK UNBOUND:                -2.349
REMARK SMILES CCCCCCCCCCCCCCCCCC(=O)[O-]
REMARK SMILES IDX 10 1 11 2 12 3 13 4 14 5 15 6 16 7 17 8 18 9 19 10 20 11
REMARK SMILES IDX 9 12 8 13 7 14 6 15 5 16 4 17 3 18 2 19 1 20
REMARK H PARENT
REMARK Flexibility Score: inf
ROOT
ATOM      1  C   UNL     1     -19.087  56.623  -3.633  1.00  0.00     0.000 C 
ENDROOT
BRANCH   1   2
ATOM      2  C   UNL     1     -20.378  55.924  -3.161  1.00  0.00     0.000 C 
BRANCH   2   3
ATOM      3  C   UNL     1     -21.586  56.855  -2.942  1.00  0.00     0.000 C 
BRANCH   3   4
ATOM      4  C   UNL     1     -22.279  56.708  -1.575  1.00  0.00     0.000 C 
BRANCH   4   5
ATOM      5  C   UNL     1     -23.293  55.554  -1.542  1.00  0.00     0.000 C 
BRANCH   5   6
ATOM      6  C   UNL     1     -23.191  54.772  -0.224  1.00  0.00     0.000 C 
BRANCH   6   7
ATOM      7  C   UNL     1     -21.923  53.903  -0.143  1.00  0.00     0.006 C 
BRANCH   7   8
ATOM      8  C   UNL     1     -21.637  53.079  -1.408  1.00  0.00     0.053 C 
BRANCH   8   9
ATOM      9  C   UNL     1     -20.231  52.563  -1.434  1.00  0.00     0.041 C 
ATOM     10  O   UNL     1     -19.549  52.635  -2.490  1.00  0.00    -0.550 OA
ATOM     11  O   UNL     1     -19.686  51.973  -0.301  1.00  0.00    -0.550 OA
ENDBRANCH   8   9
ENDBRANCH   7   8
ENDBRANCH   6   7
ENDBRANCH   5   6
ENDBRANCH   4   5
ENDBRANCH   3   4
ENDBRANCH   2   3
ENDBRANCH   1   2
BRANCH   1  12
ATOM     12  C   UNL     1     -17.820  55.751  -3.570  1.00  0.00     0.000 C 
BRANCH  12  13
ATOM     13  C   UNL     1     -17.045  55.925  -2.252  1.00  0.00    -0.000 C 
BRANCH  13  14
ATOM     14  C   UNL     1     -17.039  54.648  -1.396  1.00  0.00    -0.000 C 
BRANCH  14  15
ATOM     15  C   UNL     1     -17.572  54.891   0.026  1.00  0.00    -0.000 C 
BRANCH  15  16
ATOM     16  C   UNL     1     -18.746  55.882   0.056  1.00  0.00    -0.000 C 
BRANCH  16  17
ATOM     17  C   UNL     1     -18.383  57.218   0.727  1.00  0.00    -0.000 C 
BRANCH  17  18
ATOM     18  C   UNL     1     -16.908  57.259   1.183  1.00  0.00    -0.000 C 
BRANCH  18  19
ATOM     19  C   UNL     1     -16.233  58.622   0.962  1.00  0.00    -0.003 C 
ATOM     20  C   UNL     1     -14.811  58.505   0.418  1.00  0.00     0.004 C 
ENDBRANCH  18  19
ENDBRANCH  17  18
ENDBRANCH  16  17
ENDBRANCH  15  16
ENDBRANCH  14  15
ENDBRANCH  13  14
ENDBRANCH  12  13
ENDBRANCH   1  12
TORSDOF 16
ENDMDL
MODEL 7
REMARK VINA RESULT:    -5.078      3.207      6.574
REMARK INTER + INTRA:         -12.178
REMARK INTER:                 -10.180
REMARK INTRA:                  -1.998
REMARK UNBOUND:                -2.349
REMARK SMILES CCCCCCCCCCCCCCCCCC(=O)[O-]
REMARK SMILES IDX 10 1 11 2 12 3 13 4 14 5 15 6 16 7 17 8 18 9 19 10 20 11
REMARK SMILES IDX 9 12 8 13 7 14 6 15 5 16 4 17 3 18 2 19 1 20
REMARK H PARENT
REMARK Flexibility Score: inf
ROOT
ATOM      1  C   UNL     1     -19.634  56.444  -2.681  1.00  0.00     0.000 C 
ENDROOT
BRANCH   1   2
ATOM      2  C   UNL     1     -20.904  55.690  -3.120  1.00  0.00     0.000 C 
BRANCH   2   3
ATOM      3  C   UNL     1     -21.214  54.406  -2.324  1.00  0.00     0.000 C 
BRANCH   3   4
ATOM      4  C   UNL     1     -21.272  54.589  -0.797  1.00  0.00     0.000 C 
BRANCH   4   5
ATOM      5  C   UNL     1     -22.116  53.512  -0.099  1.00  0.00     0.000 C 
BRANCH   5   6
ATOM      6  C   UNL     1     -23.172  54.150   0.816  1.00  0.00     0.000 C 
BRANCH   6   7
ATOM      7  C   UNL     1     -23.296  55.671   0.614  1.00  0.00     0.006 C 
BRANCH   7   8
ATOM      8  C   UNL     1     -24.607  56.116  -0.052  1.00  0.00     0.053 C 
BRANCH   8   9
ATOM      9  C   UNL     1     -24.486  56.173  -1.544  1.00  0.00     0.041 C 
ATOM     10  O   UNL     1     -24.186  57.254  -2.116  1.00  0.00    -0.550 OA
ATOM     11  O   UNL     1     -24.737  55.037  -2.305  1.00  0.00    -0.550 OA
ENDBRANCH   8   9
ENDBRANCH   7   8
ENDBRANCH   6   7
ENDBRANCH   5   6
ENDBRANCH   4   5
ENDBRANCH   3   4
ENDBRANCH   2   3
ENDBRANCH   1   2
BRANCH   1  12
ATOM     12  C   UNL     1     -18.519  56.504  -3.740  1.00  0.00     0.000 C 
BRANCH  12  13
ATOM     13  C   UNL     1     -17.213  55.842  -3.266  1.00  0.00    -0.000 C 
BRANCH  13  14
ATOM     14  C   UNL     1     -17.460  54.654  -2.323  1.00  0.00    -0.000 C 
BRANCH  14  15
ATOM     15  C   UNL     1     -16.693  54.787  -0.996  1.00  0.00    -0.000 C 
BRANCH  15  16
ATOM     16  C   UNL     1     -17.604  55.186   0.176  1.00  0.00    -0.000 C 
BRANCH  16  17
ATOM     17  C   UNL     1     -17.774  56.710   0.308  1.00  0.00    -0.000 C 
BRANCH  17  18
ATOM     18  C   UNL     1     -16.712  57.335   1.237  1.00  0.00    -0.000 C 
BRANCH  18  19
ATOM     19  C   UNL     1     -15.437  57.779   0.502  1.00  0.00    -0.003 C 
ATOM     20  C   UNL     1     -15.047  59.227   0.798  1.00  0.00     0.004 C 
ENDBRANCH  18  19
ENDBRANCH  17  18
ENDBRANCH  16  17
ENDBRANCH  15  16
ENDBRANCH  14  15
ENDBRANCH  13  14
ENDBRANCH  12  13
ENDBRANCH   1  12
TORSDOF 16
ENDMDL
MODEL 8
REMARK VINA RESULT:    -5.033      3.152      4.319
REMARK INTER + INTRA:         -12.090
REMARK INTER:                  -9.426
REMARK INTRA:                  -2.664
REMARK UNBOUND:                -2.349
REMARK SMILES CCCCCCCCCCCCCCCCCC(=O)[O-]
REMARK SMILES IDX 10 1 11 2 12 3 13 4 14 5 15 6 16 7 17 8 18 9 19 10 20 11
REMARK SMILES IDX 9 12 8 13 7 14 6 15 5 16 4 17 3 18 2 19 1 20
REMARK H PARENT
REMARK Flexibility Score: inf
ROOT
ATOM      1  C   UNL     1     -17.159  56.407  -2.805  1.00  0.00     0.000 C 
ENDROOT
BRANCH   1   2
ATOM      2  C   UNL     1     -16.913  55.266  -1.799  1.00  0.00     0.000 C 
BRANCH   2   3
ATOM      3  C   UNL     1     -16.643  55.715  -0.350  1.00  0.00     0.000 C 
BRANCH   3   4
ATOM      4  C   UNL     1     -17.841  55.578   0.606  1.00  0.00     0.000 C 
BRANCH   4   5
ATOM      5  C   UNL     1     -18.673  56.866   0.709  1.00  0.00     0.000 C 
BRANCH   5   6
ATOM      6  C   UNL     1     -20.164  56.576   0.480  1.00  0.00     0.000 C 
BRANCH   6   7
ATOM      7  C   UNL     1     -21.084  57.506   1.290  1.00  0.00     0.006 C 
BRANCH   7   8
ATOM      8  C   UNL     1     -22.477  56.924   1.579  1.00  0.00     0.053 C 
BRANCH   8   9
ATOM      9  C   UNL     1     -23.571  57.864   1.175  1.00  0.00     0.041 C 
ATOM     10  O   UNL     1     -24.308  58.392   2.049  1.00  0.00    -0.550 OA
ATOM     11  O   UNL     1     -23.797  58.131  -0.169  1.00  0.00    -0.550 OA
ENDBRANCH   8   9
ENDBRANCH   7   8
ENDBRANCH   6   7
ENDBRANCH   5   6
ENDBRANCH   4   5
ENDBRANCH   3   4
ENDBRANCH   2   3
ENDBRANCH   1   2
BRANCH   1  12
ATOM     12  C   UNL     1     -18.235  56.113  -3.865  1.00  0.00     0.000 C 
BRANCH  12  13
ATOM     13  C   UNL     1     -19.582  55.701  -3.247  1.00  0.00    -0.000 C 
BRANCH  13  14
ATOM     14  C   UNL     1     -20.698  56.721  -3.524  1.00  0.00    -0.000 C 
BRANCH  14  15
ATOM     15  C   UNL     1     -21.899  56.550  -2.578  1.00  0.00    -0.000 C 
BRANCH  15  16
ATOM     16  C   UNL     1     -22.569  55.174  -2.715  1.00  0.00    -0.000 C 
BRANCH  16  17
ATOM     17  C   UNL     1     -23.184  54.675  -1.395  1.00  0.00    -0.000 C 
BRANCH  17  18
ATOM     18  C   UNL     1     -22.203  53.796  -0.591  1.00  0.00    -0.000 C 
BRANCH  18  19
ATOM     19  C   UNL     1     -21.236  52.989  -1.472  1.00  0.00    -0.003 C 
ATOM     20  C   UNL     1     -19.828  52.895  -0.886  1.00  0.00     0.004 C 
ENDBRANCH  18  19
ENDBRANCH  17  18
ENDBRANCH  16  17
ENDBRANCH  15  16
ENDBRANCH  14  15
ENDBRANCH  13  14
ENDBRANCH  12  13
ENDBRANCH   1  12
TORSDOF 16
ENDMDL
MODEL 9
REMARK VINA RESULT:    -5.022      1.447      3.581
REMARK INTER + INTRA:         -12.070
REMARK INTER:                  -9.417
REMARK INTRA:                  -2.652
REMARK UNBOUND:                -2.349
REMARK SMILES CCCCCCCCCCCCCCCCCC(=O)[O-]
REMARK SMILES IDX 10 1 11 2 12 3 13 4 14 5 15 6 16 7 17 8 18 9 19 10 20 11
REMARK SMILES IDX 9 12 8 13 7 14 6 15 5 16 4 17 3 18 2 19 1 20
REMARK H PARENT
REMARK Flexibility Score: inf
ROOT
ATOM      1  C   UNL     1     -21.331  54.220  -0.150  1.00  0.00     0.000 C 
ENDROOT
BRANCH   1   2
ATOM      2  C   UNL     1     -20.098  53.435  -0.639  1.00  0.00     0.000 C 
BRANCH   2   3
ATOM      3  C   UNL     1     -20.223  52.830  -2.051  1.00  0.00     0.000 C 
BRANCH   3   4
ATOM      4  C   UNL     1     -19.325  53.483  -3.118  1.00  0.00     0.000 C 
BRANCH   4   5
ATOM      5  C   UNL     1     -18.070  54.139  -2.523  1.00  0.00     0.000 C 
BRANCH   5   6
ATOM      6  C   UNL     1     -17.637  55.353  -3.358  1.00  0.00     0.000 C 
BRANCH   6   7
ATOM      7  C   UNL     1     -17.461  56.627  -2.512  1.00  0.00     0.006 C 
BRANCH   7   8
ATOM      8  C   UNL     1     -18.111  56.559  -1.122  1.00  0.00     0.053 C 
BRANCH   8   9
ATOM      9  C   UNL     1     -17.107  56.735  -0.024  1.00  0.00     0.041 C 
ATOM     10  O   UNL     1     -17.167  57.737   0.736  1.00  0.00    -0.550 OA
ATOM     11  O   UNL     1     -16.084  55.809   0.137  1.00  0.00    -0.550 OA
ENDBRANCH   8   9
ENDBRANCH   7   8
ENDBRANCH   6   7
ENDBRANCH   5   6
ENDBRANCH   4   5
ENDBRANCH   3   4
ENDBRANCH   2   3
ENDBRANCH   1   2
BRANCH   1  12
ATOM     12  C   UNL     1     -22.457  53.352   0.440  1.00  0.00     0.000 C 
BRANCH  12  13
ATOM     13  C   UNL     1     -23.403  54.147   1.356  1.00  0.00    -0.000 C 
BRANCH  13  14
ATOM     14  C   UNL     1     -23.579  55.606   0.903  1.00  0.00    -0.000 C 
BRANCH  14  15
ATOM     15  C   UNL     1     -24.956  55.863   0.268  1.00  0.00    -0.000 C 
BRANCH  15  16
ATOM     16  C   UNL     1     -24.860  56.254  -1.215  1.00  0.00    -0.000 C 
BRANCH  16  17
ATOM     17  C   UNL     1     -24.572  55.052  -2.132  1.00  0.00    -0.000 C 
BRANCH  17  18
ATOM     18  C   UNL     1     -23.256  55.223  -2.921  1.00  0.00    -0.000 C 
BRANCH  18  19
ATOM     19  C   UNL     1     -22.489  56.507  -2.565  1.00  0.00    -0.003 C 
ATOM     20  C   UNL     1     -21.139  56.613  -3.272  1.00  0.00     0.004 C 
ENDBRANCH  18  19
ENDBRANCH  17  18
ENDBRANCH  16  17
ENDBRANCH  15  16
ENDBRANCH  14  15
ENDBRANCH  13  14
ENDBRANCH  12  13
ENDBRANCH   1  12
TORSDOF 16
ENDMDL
