MODEL 1
REMARK VINA RESULT:    -4.296      0.000      0.000
REMARK INTER + INTRA:          -9.788
REMARK INTER:                  -7.561
REMARK INTRA:                  -2.226
REMARK UNBOUND:                -2.226
REMARK SMILES CCCCCCC=CCCCCCCCC(=O)[O-]
REMARK SMILES IDX 10 1 11 2 12 3 13 4 14 5 15 6 16 7 17 8 18 9 9 10 8 11 7 12
REMARK SMILES IDX 6 13 5 14 4 15 3 16 2 17 1 18
REMARK H PARENT
REMARK Flexibility Score: inf
ROOT
ATOM      1  C   UNL     1       9.431  -1.386  29.973  1.00  0.00     0.004 C 
ENDROOT
BRANCH   1   2
ATOM      2  C   UNL     1       8.840  -1.923  28.660  1.00  0.00     0.000 C 
BRANCH   2   3
ATOM      3  C   UNL     1       8.667  -3.452  28.669  1.00  0.00     0.000 C 
BRANCH   3   4
ATOM      4  C   UNL     1       9.212  -4.112  27.392  1.00  0.00     0.000 C 
BRANCH   4   5
ATOM      5  C   UNL     1      10.509  -3.453  26.891  1.00  0.00     0.006 C 
BRANCH   5   6
ATOM      6  C   UNL     1      11.283  -4.360  25.926  1.00  0.00     0.053 C 
BRANCH   6   7
ATOM      7  C   UNL     1      10.968  -4.044  24.496  1.00  0.00     0.041 C 
ATOM      8  O   UNL     1      10.342  -2.992  24.201  1.00  0.00    -0.550 OA
ATOM      9  O   UNL     1      11.398  -4.895  23.485  1.00  0.00    -0.550 OA
ENDBRANCH   6   7
ENDBRANCH   5   6
ENDBRANCH   4   5
ENDBRANCH   3   4
ENDBRANCH   2   3
ENDBRANCH   1   2
BRANCH   1  10
ATOM     10  C   UNL     1      10.085  -2.487  30.823  1.00  0.00     0.027 C 
BRANCH  10  11
ATOM     11  C   UNL     1      11.584  -2.498  30.654  1.00  0.00    -0.031 C 
ATOM     12  C   UNL     1      12.319  -3.569  30.297  1.00  0.00    -0.031 C 
BRANCH  12  13
ATOM     13  C   UNL     1      11.775  -4.956  30.037  1.00  0.00     0.027 C 
BRANCH  13  14
ATOM     14  C   UNL     1      11.709  -5.785  31.327  1.00  0.00     0.004 C 
BRANCH  14  15
ATOM     15  C   UNL     1      12.977  -5.641  32.186  1.00  0.00     0.000 C 
BRANCH  15  16
ATOM     16  C   UNL     1      12.655  -5.196  33.628  1.00  0.00    -0.000 C 
BRANCH  16  17
ATOM     17  C   UNL     1      11.175  -4.834  33.844  1.00  0.00    -0.003 C 
ATOM     18  C   UNL     1      10.969  -3.383  34.272  1.00  0.00     0.004 C 
ENDBRANCH  16  17
ENDBRANCH  15  16
ENDBRANCH  14  15
ENDBRANCH  13  14
ENDBRANCH  12  13
ENDBRANCH  10  11
ENDBRANCH   1  10
TORSDOF 13
ENDMDL
MODEL 2
REMARK VINA RESULT:    -4.042      3.647      6.533
REMARK INTER + INTRA:          -9.341
REMARK INTER:                  -7.362
REMARK INTRA:                  -1.979
REMARK UNBOUND:                -2.226
REMARK SMILES CCCCCCC=CCCCCCCCC(=O)[O-]
REMARK SMILES IDX 10 1 11 2 12 3 13 4 14 5 15 6 16 7 17 8 18 9 9 10 8 11 7 12
REMARK SMILES IDX 6 13 5 14 4 15 3 16 2 17 1 18
REMARK H PARENT
REMARK Flexibility Score: inf
ROOT
ATOM      1  C   UNL     1      12.173  -1.065  27.760  1.00  0.00     0.004 C 
ENDROOT
BRANCH   1   2
ATOM      2  C   UNL     1      12.239  -1.350  29.268  1.00  0.00     0.000 C 
BRANCH   2   3
ATOM      3  C   UNL     1      12.683  -2.790  29.582  1.00  0.00     0.000 C 
BRANCH   3   4
ATOM      4  C   UNL     1      12.177  -3.275  30.950  1.00  0.00     0.000 C 
BRANCH   4   5
ATOM      5  C   UNL     1      12.010  -4.803  31.013  1.00  0.00     0.006 C 
BRANCH   5   6
ATOM      6  C   UNL     1      11.081  -5.236  32.155  1.00  0.00     0.053 C 
BRANCH   6   7
ATOM      7  C   UNL     1      11.601  -4.795  33.488  1.00  0.00     0.041 C 
ATOM      8  O   UNL     1      12.678  -5.267  33.938  1.00  0.00    -0.550 OA
ATOM      9  O   UNL     1      10.912  -3.835  34.219  1.00  0.00    -0.550 OA
ENDBRANCH   6   7
ENDBRANCH   5   6
ENDBRANCH   4   5
ENDBRANCH   3   4
ENDBRANCH   2   3
ENDBRANCH   1   2
BRANCH   1  10
ATOM     10  C   UNL     1      10.787  -1.357  27.162  1.00  0.00     0.027 C 
BRANCH  10  11
ATOM     11  C   UNL     1       9.747  -1.535  28.240  1.00  0.00    -0.031 C 
ATOM     12  C   UNL     1       9.030  -2.656  28.451  1.00  0.00    -0.031 C 
BRANCH  12  13
ATOM     13  C   UNL     1       9.117  -3.919  27.624  1.00  0.00     0.027 C 
BRANCH  13  14
ATOM     14  C   UNL     1      10.191  -4.873  28.168  1.00  0.00     0.004 C 
BRANCH  14  15
ATOM     15  C   UNL     1      10.927  -5.630  27.049  1.00  0.00     0.000 C 
BRANCH  15  16
ATOM     16  C   UNL     1      11.832  -4.698  26.216  1.00  0.00    -0.000 C 
BRANCH  16  17
ATOM     17  C   UNL     1      11.415  -4.595  24.739  1.00  0.00    -0.003 C 
ATOM     18  C   UNL     1      10.213  -5.470  24.392  1.00  0.00     0.004 C 
ENDBRANCH  16  17
ENDBRANCH  15  16
ENDBRANCH  14  15
ENDBRANCH  13  14
ENDBRANCH  12  13
ENDBRANCH  10  11
ENDBRANCH   1  10
TORSDOF 13
ENDMDL
MODEL 3
REMARK VINA RESULT:    -4.033      3.557      5.327
REMARK INTER + INTRA:          -9.324
REMARK INTER:                  -6.562
REMARK INTRA:                  -2.762
REMARK UNBOUND:                -2.226
REMARK SMILES CCCCCCC=CCCCCCCCC(=O)[O-]
REMARK SMILES IDX 10 1 11 2 12 3 13 4 14 5 15 6 16 7 17 8 18 9 9 10 8 11 7 12
REMARK SMILES IDX 6 13 5 14 4 15 3 16 2 17 1 18
REMARK H PARENT
REMARK Flexibility Score: inf
ROOT
ATOM      1  C   UNL     1       8.991  -4.021  28.110  1.00  0.00     0.004 C 
ENDROOT
BRANCH   1   2
ATOM      2  C   UNL     1       8.544  -2.786  28.909  1.00  0.00     0.000 C 
BRANCH   2   3
ATOM      3  C   UNL     1       8.924  -1.464  28.220  1.00  0.00     0.000 C 
BRANCH   3   4
ATOM      4  C   UNL     1       8.777  -0.252  29.153  1.00  0.00     0.000 C 
BRANCH   4   5
ATOM      5  C   UNL     1       9.027  -0.606  30.630  1.00  0.00     0.006 C 
BRANCH   5   6
ATOM      6  C   UNL     1      10.117   0.271  31.258  1.00  0.00     0.053 C 
BRANCH   6   7
ATOM      7  C   UNL     1       9.738   1.721  31.242  1.00  0.00     0.041 C 
ATOM      8  O   UNL     1       8.696   2.111  31.832  1.00  0.00    -0.550 OA
ATOM      9  O   UNL     1      10.556   2.646  30.606  1.00  0.00    -0.550 OA
ENDBRANCH   6   7
ENDBRANCH   5   6
ENDBRANCH   4   5
ENDBRANCH   3   4
ENDBRANCH   2   3
ENDBRANCH   1   2
BRANCH   1  10
ATOM     10  C   UNL     1       9.829  -3.656  26.874  1.00  0.00     0.027 C 
BRANCH  10  11
ATOM     11  C   UNL     1      11.237  -4.185  26.987  1.00  0.00    -0.031 C 
ATOM     12  C   UNL     1      12.305  -3.473  27.395  1.00  0.00    -0.031 C 
BRANCH  12  13
ATOM     13  C   UNL     1      12.286  -2.011  27.781  1.00  0.00     0.027 C 
BRANCH  13  14
ATOM     14  C   UNL     1      12.544  -1.823  29.283  1.00  0.00     0.004 C 
BRANCH  14  15
ATOM     15  C   UNL     1      12.578  -3.157  30.047  1.00  0.00     0.000 C 
BRANCH  15  16
ATOM     16  C   UNL     1      11.490  -3.230  31.138  1.00  0.00    -0.000 C 
BRANCH  16  17
ATOM     17  C   UNL     1      10.929  -4.647  31.355  1.00  0.00    -0.003 C 
ATOM     18  C   UNL     1      11.467  -5.665  30.351  1.00  0.00     0.004 C 
ENDBRANCH  16  17
ENDBRANCH  15  16
ENDBRANCH  14  15
ENDBRANCH  13  14
ENDBRANCH  12  13
ENDBRANCH  10  11
ENDBRANCH   1  10
TORSDOF 13
ENDMDL
MODEL 4
REMARK VINA RESULT:    -3.993      3.606      5.874
REMARK INTER + INTRA:          -9.255
REMARK INTER:                  -6.773
REMARK INTRA:                  -2.482
REMARK UNBOUND:                -2.226
REMARK SMILES CCCCCCC=CCCCCCCCC(=O)[O-]
REMARK SMILES IDX 10 1 11 2 12 3 13 4 14 5 15 6 16 7 17 8 18 9 9 10 8 11 7 12
REMARK SMILES IDX 6 13 5 14 4 15 3 16 2 17 1 18
REMARK H PARENT
REMARK Flexibility Score: inf
ROOT
ATOM      1  C   UNL     1      10.073  -0.251  29.095  1.00  0.00     0.004 C 
ENDROOT
BRANCH   1   2
ATOM      2  C   UNL     1       9.905  -0.553  30.592  1.00  0.00     0.000 C 
BRANCH   2   3
ATOM      3  C   UNL     1      11.115  -0.100  31.428  1.00  0.00     0.000 C 
BRANCH   3   4
ATOM      4  C   UNL     1      11.144  -0.753  32.820  1.00  0.00     0.000 C 
BRANCH   4   5
ATOM      5  C   UNL     1      10.397  -2.098  32.860  1.00  0.00     0.006 C 
BRANCH   5   6
ATOM      6  C   UNL     1      10.791  -2.941  34.080  1.00  0.00     0.053 C 
BRANCH   6   7
ATOM      7  C   UNL     1      11.349  -4.271  33.675  1.00  0.00     0.041 C 
ATOM      8  O   UNL     1      10.607  -5.132  33.132  1.00  0.00    -0.550 OA
ATOM      9  O   UNL     1      12.697  -4.547  33.867  1.00  0.00    -0.550 OA
ENDBRANCH   6   7
ENDBRANCH   5   6
ENDBRANCH   4   5
ENDBRANCH   3   4
ENDBRANCH   2   3
ENDBRANCH   1   2
BRANCH   1  10
ATOM     10  C   UNL     1      11.548  -0.162  28.670  1.00  0.00     0.027 C 
BRANCH  10  11
ATOM     11  C   UNL     1      11.957  -1.356  27.845  1.00  0.00    -0.031 C 
ATOM     12  C   UNL     1      12.398  -2.529  28.339  1.00  0.00    -0.031 C 
BRANCH  12  13
ATOM     13  C   UNL     1      12.590  -2.843  29.806  1.00  0.00     0.027 C 
BRANCH  13  14
ATOM     14  C   UNL     1      12.281  -4.316  30.110  1.00  0.00     0.004 C 
BRANCH  14  15
ATOM     15  C   UNL     1      11.025  -4.818  29.379  1.00  0.00     0.000 C 
BRANCH  15  16
ATOM     16  C   UNL     1       9.753  -4.067  29.826  1.00  0.00    -0.000 C 
BRANCH  16  17
ATOM     17  C   UNL     1       8.848  -3.640  28.657  1.00  0.00    -0.003 C 
ATOM     18  C   UNL     1       9.301  -4.201  27.311  1.00  0.00     0.004 C 
ENDBRANCH  16  17
ENDBRANCH  15  16
ENDBRANCH  14  15
ENDBRANCH  13  14
ENDBRANCH  12  13
ENDBRANCH  10  11
ENDBRANCH   1  10
TORSDOF 13
ENDMDL
MODEL 5
REMARK VINA RESULT:    -3.986      2.857      4.636
REMARK INTER + INTRA:          -9.241
REMARK INTER:                  -6.920
REMARK INTRA:                  -2.321
REMARK UNBOUND:                -2.226
REMARK SMILES CCCCCCC=CCCCCCCCC(=O)[O-]
REMARK SMILES IDX 10 1 11 2 12 3 13 4 14 5 15 6 16 7 17 8 18 9 9 10 8 11 7 12
REMARK SMILES IDX 6 13 5 14 4 15 3 16 2 17 1 18
REMARK H PARENT
REMARK Flexibility Score: inf
ROOT
ATOM      1  C   UNL     1      11.686  -3.914  26.986  1.00  0.00     0.004 C 
ENDROOT
BRANCH   1   2
ATOM      2  C   UNL     1      11.175  -2.520  26.591  1.00  0.00     0.000 C 
BRANCH   2   3
ATOM      3  C   UNL     1      11.922  -1.387  27.316  1.00  0.00     0.000 C 
BRANCH   3   4
ATOM      4  C   UNL     1      10.967  -0.334  27.901  1.00  0.00     0.000 C 
BRANCH   4   5
ATOM      5  C   UNL     1       9.543  -0.442  27.329  1.00  0.00     0.006 C 
BRANCH   5   6
ATOM      6  C   UNL     1       8.471  -0.273  28.413  1.00  0.00     0.053 C 
BRANCH   6   7
ATOM      7  C   UNL     1       7.739   1.027  28.270  1.00  0.00     0.041 C 
ATOM      8  O   UNL     1       7.567   1.772  29.270  1.00  0.00    -0.550 OA
ATOM      9  O   UNL     1       7.278   1.431  27.023  1.00  0.00    -0.550 OA
ENDBRANCH   6   7
ENDBRANCH   5   6
ENDBRANCH   4   5
ENDBRANCH   3   4
ENDBRANCH   2   3
ENDBRANCH   1   2
BRANCH   1  10
ATOM     10  C   UNL     1      10.550  -4.876  27.372  1.00  0.00     0.027 C 
BRANCH  10  11
ATOM     11  C   UNL     1       9.309  -4.125  27.785  1.00  0.00    -0.031 C 
ATOM     12  C   UNL     1       9.008  -3.752  29.044  1.00  0.00    -0.031 C 
BRANCH  12  13
ATOM     13  C   UNL     1       9.845  -4.048  30.268  1.00  0.00     0.027 C 
BRANCH  13  14
ATOM     14  C   UNL     1      10.486  -2.772  30.832  1.00  0.00     0.004 C 
BRANCH  14  15
ATOM     15  C   UNL     1      12.012  -2.747  30.644  1.00  0.00     0.000 C 
BRANCH  15  16
ATOM     16  C   UNL     1      12.638  -4.150  30.783  1.00  0.00    -0.000 C 
BRANCH  16  17
ATOM     17  C   UNL     1      12.781  -4.619  32.241  1.00  0.00    -0.003 C 
ATOM     18  C   UNL     1      13.876  -5.667  32.430  1.00  0.00     0.004 C 
ENDBRANCH  16  17
ENDBRANCH  15  16
ENDBRANCH  14  15
ENDBRANCH  13  14
ENDBRANCH  12  13
ENDBRANCH  10  11
ENDBRANCH   1  10
TORSDOF 13
ENDMDL
MODEL 6
REMARK VINA RESULT:    -3.926      1.946      3.944
REMARK INTER + INTRA:          -9.136
REMARK INTER:                  -7.172
REMARK INTRA:                  -1.964
REMARK UNBOUND:                -2.226
REMARK SMILES CCCCCCC=CCCCCCCCC(=O)[O-]
REMARK SMILES IDX 10 1 11 2 12 3 13 4 14 5 15 6 16 7 17 8 18 9 9 10 8 11 7 12
REMARK SMILES IDX 6 13 5 14 4 15 3 16 2 17 1 18
REMARK H PARENT
REMARK Flexibility Score: inf
ROOT
ATOM      1  C   UNL     1      10.762  -5.834  26.642  1.00  0.00     0.004 C 
ENDROOT
BRANCH   1   2
ATOM      2  C   UNL     1       9.728  -5.636  25.523  1.00  0.00     0.000 C 
BRANCH   2   3
ATOM      3  C   UNL     1      10.378  -5.335  24.160  1.00  0.00     0.000 C 
BRANCH   3   4
ATOM      4  C   UNL     1      11.025  -3.941  24.113  1.00  0.00     0.000 C 
BRANCH   4   5
ATOM      5  C   UNL     1      10.032  -2.815  24.452  1.00  0.00     0.006 C 
BRANCH   5   6
ATOM      6  C   UNL     1      10.713  -1.643  25.171  1.00  0.00     0.053 C 
BRANCH   6   7
ATOM      7  C   UNL     1      11.029  -0.524  24.227  1.00  0.00     0.041 C 
ATOM      8  O   UNL     1      11.972   0.272  24.480  1.00  0.00    -0.550 OA
ATOM      9  O   UNL     1      10.304  -0.381  23.051  1.00  0.00    -0.550 OA
ENDBRANCH   6   7
ENDBRANCH   5   6
ENDBRANCH   4   5
ENDBRANCH   3   4
ENDBRANCH   2   3
ENDBRANCH   1   2
BRANCH   1  10
ATOM     10  C   UNL     1      10.541  -4.882  27.828  1.00  0.00     0.027 C 
BRANCH  10  11
ATOM     11  C   UNL     1       9.172  -4.251  27.782  1.00  0.00    -0.031 C 
ATOM     12  C   UNL     1       8.822  -3.105  28.398  1.00  0.00    -0.031 C 
BRANCH  12  13
ATOM     13  C   UNL     1       9.731  -2.267  29.269  1.00  0.00     0.027 C 
BRANCH  13  14
ATOM     14  C   UNL     1       9.449  -2.499  30.761  1.00  0.00     0.004 C 
BRANCH  14  15
ATOM     15  C   UNL     1      10.615  -3.200  31.478  1.00  0.00     0.000 C 
BRANCH  15  16
ATOM     16  C   UNL     1      10.469  -4.736  31.461  1.00  0.00    -0.000 C 
BRANCH  16  17
ATOM     17  C   UNL     1      11.812  -5.481  31.366  1.00  0.00    -0.003 C 
ATOM     18  C   UNL     1      13.014  -4.543  31.278  1.00  0.00     0.004 C 
ENDBRANCH  16  17
ENDBRANCH  15  16
ENDBRANCH  14  15
ENDBRANCH  13  14
ENDBRANCH  12  13
ENDBRANCH  10  11
ENDBRANCH   1  10
TORSDOF 13
ENDMDL
MODEL 7
REMARK VINA RESULT:    -3.909      3.001      6.014
REMARK INTER + INTRA:          -9.106
REMARK INTER:                  -6.643
REMARK INTRA:                  -2.463
REMARK UNBOUND:                -2.226
REMARK SMILES CCCCCCC=CCCCCCCCC(=O)[O-]
REMARK SMILES IDX 10 1 11 2 12 3 13 4 14 5 15 6 16 7 17 8 18 9 9 10 8 11 7 12
REMARK SMILES IDX 6 13 5 14 4 15 3 16 2 17 1 18
REMARK H PARENT
REMARK Flexibility Score: inf
ROOT
ATOM      1  C   UNL     1      12.293  -4.016  31.078  1.00  0.00     0.004 C 
ENDROOT
BRANCH   1   2
ATOM      2  C   UNL     1      10.881  -3.639  31.551  1.00  0.00     0.000 C 
BRANCH   2   3
ATOM      3  C   UNL     1      10.892  -2.769  32.820  1.00  0.00     0.000 C 
BRANCH   3   4
ATOM      4  C   UNL     1      10.022  -1.510  32.677  1.00  0.00     0.000 C 
BRANCH   4   5
ATOM      5  C   UNL     1       9.223  -1.487  31.363  1.00  0.00     0.006 C 
BRANCH   5   6
ATOM      6  C   UNL     1       9.111  -0.073  30.779  1.00  0.00     0.053 C 
BRANCH   6   7
ATOM      7  C   UNL     1       7.691   0.285  30.462  1.00  0.00     0.041 C 
ATOM      8  O   UNL     1       6.981   0.881  31.314  1.00  0.00    -0.550 OA
ATOM      9  O   UNL     1       7.164  -0.010  29.211  1.00  0.00    -0.550 OA
ENDBRANCH   6   7
ENDBRANCH   5   6
ENDBRANCH   4   5
ENDBRANCH   3   4
ENDBRANCH   2   3
ENDBRANCH   1   2
BRANCH   1  10
ATOM     10  C   UNL     1      12.600  -3.509  29.659  1.00  0.00     0.027 C 
BRANCH  10  11
ATOM     11  C   UNL     1      12.508  -2.006  29.579  1.00  0.00    -0.031 C 
ATOM     12  C   UNL     1      11.863  -1.316  28.619  1.00  0.00    -0.031 C 
BRANCH  12  13
ATOM     13  C   UNL     1      11.145  -1.926  27.435  1.00  0.00     0.027 C 
BRANCH  13  14
ATOM     14  C   UNL     1       9.649  -2.116  27.722  1.00  0.00     0.004 C 
BRANCH  14  15
ATOM     15  C   UNL     1       9.306  -3.556  28.139  1.00  0.00     0.000 C 
BRANCH  15  16
ATOM     16  C   UNL     1       9.454  -4.550  26.968  1.00  0.00    -0.000 C 
BRANCH  16  17
ATOM     17  C   UNL     1      10.654  -5.502  27.116  1.00  0.00    -0.003 C 
ATOM     18  C   UNL     1      11.751  -5.250  26.083  1.00  0.00     0.004 C 
ENDBRANCH  16  17
ENDBRANCH  15  16
ENDBRANCH  14  15
ENDBRANCH  13  14
ENDBRANCH  12  13
ENDBRANCH  10  11
ENDBRANCH   1  10
TORSDOF 13
ENDMDL
MODEL 8
REMARK VINA RESULT:    -3.898      3.150      4.875
REMARK INTER + INTRA:          -9.086
REMARK INTER:                  -6.478
REMARK INTRA:                  -2.608
REMARK UNBOUND:                -2.226
REMARK SMILES CCCCCCC=CCCCCCCCC(=O)[O-]
REMARK SMILES IDX 10 1 11 2 12 3 13 4 14 5 15 6 16 7 17 8 18 9 9 10 8 11 7 12
REMARK SMILES IDX 6 13 5 14 4 15 3 16 2 17 1 18
REMARK H PARENT
REMARK Flexibility Score: inf
ROOT
ATOM      1  C   UNL     1       9.813  -4.497  27.685  1.00  0.00     0.004 C 
ENDROOT
BRANCH   1   2
ATOM      2  C   UNL     1       9.931  -3.132  26.990  1.00  0.00     0.000 C 
BRANCH   2   3
ATOM      3  C   UNL     1      11.369  -2.584  26.997  1.00  0.00     0.000 C 
BRANCH   3   4
ATOM      4  C   UNL     1      11.415  -1.052  26.887  1.00  0.00     0.000 C 
BRANCH   4   5
ATOM      5  C   UNL     1      12.506  -0.426  27.773  1.00  0.00     0.006 C 
BRANCH   5   6
ATOM      6  C   UNL     1      12.157   1.008  28.193  1.00  0.00     0.053 C 
BRANCH   6   7
ATOM      7  C   UNL     1      13.085   2.007  27.573  1.00  0.00     0.041 C 
ATOM      8  O   UNL     1      13.655   2.873  28.288  1.00  0.00    -0.550 OA
ATOM      9  O   UNL     1      13.346   1.960  26.209  1.00  0.00    -0.550 OA
ENDBRANCH   6   7
ENDBRANCH   5   6
ENDBRANCH   4   5
ENDBRANCH   3   4
ENDBRANCH   2   3
ENDBRANCH   1   2
BRANCH   1  10
ATOM     10  C   UNL     1      11.180  -5.098  28.049  1.00  0.00     0.027 C 
BRANCH  10  11
ATOM     11  C   UNL     1      11.239  -5.496  29.503  1.00  0.00    -0.031 C 
ATOM     12  C   UNL     1      11.871  -4.807  30.472  1.00  0.00    -0.031 C 
BRANCH  12  13
ATOM     13  C   UNL     1      12.661  -3.534  30.269  1.00  0.00     0.027 C 
BRANCH  13  14
ATOM     14  C   UNL     1      11.847  -2.297  30.677  1.00  0.00     0.004 C 
BRANCH  14  15
ATOM     15  C   UNL     1      10.577  -2.661  31.464  1.00  0.00     0.000 C 
BRANCH  15  16
ATOM     16  C   UNL     1       9.291  -2.307  30.688  1.00  0.00    -0.000 C 
BRANCH  16  17
ATOM     17  C   UNL     1       9.347  -0.933  29.997  1.00  0.00    -0.003 C 
ATOM     18  C   UNL     1       8.164  -0.681  29.065  1.00  0.00     0.004 C 
ENDBRANCH  16  17
ENDBRANCH  15  16
ENDBRANCH  14  15
ENDBRANCH  13  14
ENDBRANCH  12  13
ENDBRANCH  10  11
ENDBRANCH   1  10
TORSDOF 13
ENDMDL
MODEL 9
REMARK VINA RESULT:    -3.882      3.340      6.565
REMARK INTER + INTRA:          -9.058
REMARK INTER:                  -6.950
REMARK INTRA:                  -2.108
REMARK UNBOUND:                -2.226
REMARK SMILES CCCCCCC=CCCCCCCCC(=O)[O-]
REMARK SMILES IDX 10 1 11 2 12 3 13 4 14 5 15 6 16 7 17 8 18 9 9 10 8 11 7 12
REMARK SMILES IDX 6 13 5 14 4 15 3 16 2 17 1 18
REMARK H PARENT
REMARK Flexibility Score: inf
ROOT
ATOM      1  C   UNL     1      12.789  -4.591  31.994  1.00  0.00     0.004 C 
ENDROOT
BRANCH   1   2
ATOM      2  C   UNL     1      12.312  -4.474  33.450  1.00  0.00     0.000 C 
BRANCH   2   3
ATOM      3  C   UNL     1      11.072  -3.574  33.598  1.00  0.00     0.000 C 
BRANCH   3   4
ATOM      4  C   UNL     1      11.388  -2.254  34.321  1.00  0.00     0.000 C 
BRANCH   4   5
ATOM      5  C   UNL     1      10.345  -1.158  34.037  1.00  0.00     0.006 C 
BRANCH   5   6
ATOM      6  C   UNL     1       9.612  -1.389  32.709  1.00  0.00     0.053 C 
BRANCH   6   7
ATOM      7  C   UNL     1       8.517  -0.388  32.501  1.00  0.00     0.041 C 
ATOM      8  O   UNL     1       7.638  -0.216  33.385  1.00  0.00    -0.550 OA
ATOM      9  O   UNL     1       8.490   0.380  31.344  1.00  0.00    -0.550 OA
ENDBRANCH   6   7
ENDBRANCH   5   6
ENDBRANCH   4   5
ENDBRANCH   3   4
ENDBRANCH   2   3
ENDBRANCH   1   2
BRANCH   1  10
ATOM     10  C   UNL     1      11.886  -3.829  31.011  1.00  0.00     0.027 C 
BRANCH  10  11
ATOM     11  C   UNL     1      12.691  -3.182  29.911  1.00  0.00    -0.031 C 
ATOM     12  C   UNL     1      12.339  -2.067  29.242  1.00  0.00    -0.031 C 
BRANCH  12  13
ATOM     13  C   UNL     1      11.059  -1.288  29.452  1.00  0.00     0.027 C 
BRANCH  13  14
ATOM     14  C   UNL     1      10.067  -1.518  28.303  1.00  0.00     0.004 C 
BRANCH  14  15
ATOM     15  C   UNL     1       8.803  -2.268  28.757  1.00  0.00     0.000 C 
BRANCH  15  16
ATOM     16  C   UNL     1       8.972  -3.799  28.666  1.00  0.00    -0.000 C 
BRANCH  16  17
ATOM     17  C   UNL     1       9.699  -4.264  27.392  1.00  0.00    -0.003 C 
ATOM     18  C   UNL     1      10.757  -5.332  27.659  1.00  0.00     0.004 C 
ENDBRANCH  16  17
ENDBRANCH  15  16
ENDBRANCH  14  15
ENDBRANCH  13  14
ENDBRANCH  12  13
ENDBRANCH  10  11
ENDBRANCH   1  10
TORSDOF 13
ENDMDL
