MODEL 1
REMARK VINA RESULT:    -2.889      0.000      0.000
REMARK INTER + INTRA:          -6.227
REMARK INTER:                  -4.577
REMARK INTRA:                  -1.650
REMARK UNBOUND:                -1.650
REMARK SMILES CCCCCCCCCCCC(=O)[O-]
REMARK SMILES IDX 7 1 8 2 9 3 10 4 11 5 12 6 13 7 14 8 6 9 5 10 4 11 3 12 2 13
REMARK SMILES IDX 1 14
REMARK H PARENT
REMARK Flexibility Score: inf
ROOT
ATOM      1  C   UNL     1      18.586   8.515  37.299  1.00  0.00     0.000 C 
ENDROOT
BRANCH   1   2
ATOM      2  C   UNL     1      19.148   8.005  35.961  1.00  0.00     0.000 C 
BRANCH   2   3
ATOM      3  C   UNL     1      19.792   6.614  36.084  1.00  0.00     0.000 C 
BRANCH   3   4
ATOM      4  C   UNL     1      21.110   6.500  35.299  1.00  0.00     0.006 C 
BRANCH   4   5
ATOM      5  C   UNL     1      21.341   7.706  34.378  1.00  0.00     0.053 C 
BRANCH   5   6
ATOM      6  C   UNL     1      21.680   7.283  32.982  1.00  0.00     0.041 C 
ATOM      7  O   UNL     1      22.490   7.958  32.293  1.00  0.00    -0.550 OA
ATOM      8  O   UNL     1      21.078   6.159  32.430  1.00  0.00    -0.550 OA
ENDBRANCH   5   6
ENDBRANCH   4   5
ENDBRANCH   3   4
ENDBRANCH   2   3
ENDBRANCH   1   2
BRANCH   1   9
ATOM      9  C   UNL     1      19.509   9.541  37.975  1.00  0.00     0.000 C 
BRANCH   9  10
ATOM     10  C   UNL     1      20.559  10.125  37.012  1.00  0.00    -0.000 C 
BRANCH  10  11
ATOM     11  C   UNL     1      21.999   9.911  37.524  1.00  0.00    -0.000 C 
BRANCH  11  12
ATOM     12  C   UNL     1      22.082   9.019  38.774  1.00  0.00    -0.000 C 
BRANCH  12  13
ATOM     13  C   UNL     1      22.638   7.621  38.475  1.00  0.00    -0.003 C 
ATOM     14  C   UNL     1      21.884   6.550  39.259  1.00  0.00     0.004 C 
ENDBRANCH  12  13
ENDBRANCH  11  12
ENDBRANCH  10  11
ENDBRANCH   9  10
ENDBRANCH   1   9
TORSDOF 10
ENDMDL
MODEL 2
REMARK VINA RESULT:    -2.851     10.989     12.601
REMARK INTER + INTRA:          -6.168
REMARK INTER:                  -4.713
REMARK INTRA:                  -1.455
REMARK UNBOUND:                -1.650
REMARK SMILES CCCCCCCCCCCC(=O)[O-]
REMARK SMILES IDX 7 1 8 2 9 3 10 4 11 5 12 6 13 7 14 8 6 9 5 10 4 11 3 12 2 13
REMARK SMILES IDX 1 14
REMARK H PARENT
REMARK Flexibility Score: inf
ROOT
ATOM      1  C   UNL     1       9.260   7.898  30.265  1.00  0.00     0.000 C 
ENDROOT
BRANCH   1   2
ATOM      2  C   UNL     1       8.030   7.259  30.931  1.00  0.00     0.000 C 
BRANCH   2   3
ATOM      3  C   UNL     1       8.227   5.762  31.220  1.00  0.00     0.000 C 
BRANCH   3   4
ATOM      4  C   UNL     1       8.741   4.985  29.996  1.00  0.00     0.006 C 
BRANCH   4   5
ATOM      5  C   UNL     1       9.860   4.001  30.365  1.00  0.00     0.053 C 
BRANCH   5   6
ATOM      6  C   UNL     1       9.314   2.682  30.819  1.00  0.00     0.041 C 
ATOM      7  O   UNL     1       9.434   2.325  32.021  1.00  0.00    -0.550 OA
ATOM      8  O   UNL     1       8.698   1.833  29.908  1.00  0.00    -0.550 OA
ENDBRANCH   5   6
ENDBRANCH   4   5
ENDBRANCH   3   4
ENDBRANCH   2   3
ENDBRANCH   1   2
BRANCH   1   9
ATOM      9  C   UNL     1      10.496   7.898  31.180  1.00  0.00     0.000 C 
BRANCH   9  10
ATOM     10  C   UNL     1      10.184   8.397  32.602  1.00  0.00    -0.000 C 
BRANCH  10  11
ATOM     11  C   UNL     1      10.873   7.537  33.683  1.00  0.00    -0.000 C 
BRANCH  11  12
ATOM     12  C   UNL     1      11.742   6.405  33.108  1.00  0.00    -0.000 C 
BRANCH  12  13
ATOM     13  C   UNL     1      11.382   5.027  33.679  1.00  0.00    -0.003 C 
ATOM     14  C   UNL     1      10.012   5.049  34.350  1.00  0.00     0.004 C 
ENDBRANCH  12  13
ENDBRANCH  11  12
ENDBRANCH  10  11
ENDBRANCH   9  10
ENDBRANCH   1   9
TORSDOF 10
ENDMDL
MODEL 3
REMARK VINA RESULT:    -2.817     10.722     12.425
REMARK INTER + INTRA:          -6.114
REMARK INTER:                  -4.691
REMARK INTRA:                  -1.424
REMARK UNBOUND:                -1.650
REMARK SMILES CCCCCCCCCCCC(=O)[O-]
REMARK SMILES IDX 7 1 8 2 9 3 10 4 11 5 12 6 13 7 14 8 6 9 5 10 4 11 3 12 2 13
REMARK SMILES IDX 1 14
REMARK H PARENT
REMARK Flexibility Score: inf
ROOT
ATOM      1  C   UNL     1      10.078   8.238  33.010  1.00  0.00     0.000 C 
ENDROOT
BRANCH   1   2
ATOM      2  C   UNL     1       9.837   8.129  31.495  1.00  0.00     0.000 C 
BRANCH   2   3
ATOM      3  C   UNL     1       8.358   7.887  31.150  1.00  0.00     0.000 C 
BRANCH   3   4
ATOM      4  C   UNL     1       7.998   6.392  31.099  1.00  0.00     0.006 C 
BRANCH   4   5
ATOM      5  C   UNL     1       8.202   5.795  29.700  1.00  0.00     0.053 C 
BRANCH   5   6
ATOM      6  C   UNL     1       9.391   4.884  29.652  1.00  0.00     0.041 C 
ATOM      7  O   UNL     1      10.480   5.286  29.163  1.00  0.00    -0.550 OA
ATOM      8  O   UNL     1       9.287   3.581  30.122  1.00  0.00    -0.550 OA
ENDBRANCH   5   6
ENDBRANCH   4   5
ENDBRANCH   3   4
ENDBRANCH   2   3
ENDBRANCH   1   2
BRANCH   1   9
ATOM      9  C   UNL     1      11.305   7.435  33.473  1.00  0.00     0.000 C 
BRANCH   9  10
ATOM     10  C   UNL     1      11.647   6.269  32.527  1.00  0.00    -0.000 C 
BRANCH  10  11
ATOM     11  C   UNL     1      11.086   4.925  33.038  1.00  0.00    -0.000 C 
BRANCH  11  12
ATOM     12  C   UNL     1      10.874   4.885  34.560  1.00  0.00    -0.000 C 
BRANCH  12  13
ATOM     13  C   UNL     1       9.420   4.588  34.954  1.00  0.00    -0.003 C 
ATOM     14  C   UNL     1       8.632   4.034  33.771  1.00  0.00     0.004 C 
ENDBRANCH  12  13
ENDBRANCH  11  12
ENDBRANCH  10  11
ENDBRANCH   9  10
ENDBRANCH   1   9
TORSDOF 10
ENDMDL
MODEL 4
REMARK VINA RESULT:    -2.769     10.385     11.838
REMARK INTER + INTRA:          -6.038
REMARK INTER:                  -4.554
REMARK INTRA:                  -1.484
REMARK UNBOUND:                -1.650
REMARK SMILES CCCCCCCCCCCC(=O)[O-]
REMARK SMILES IDX 7 1 8 2 9 3 10 4 11 5 12 6 13 7 14 8 6 9 5 10 4 11 3 12 2 13
REMARK SMILES IDX 1 14
REMARK H PARENT
REMARK Flexibility Score: inf
ROOT
ATOM      1  C   UNL     1       8.277   7.563  30.722  1.00  0.00     0.000 C 
ENDROOT
BRANCH   1   2
ATOM      2  C   UNL     1       7.960   6.090  31.031  1.00  0.00     0.000 C 
BRANCH   2   3
ATOM      3  C   UNL     1       8.611   5.125  30.027  1.00  0.00     0.000 C 
BRANCH   3   4
ATOM      4  C   UNL     1      10.081   4.820  30.365  1.00  0.00     0.006 C 
BRANCH   4   5
ATOM      5  C   UNL     1      11.007   5.033  29.159  1.00  0.00     0.053 C 
BRANCH   5   6
ATOM      6  C   UNL     1      12.409   5.348  29.584  1.00  0.00     0.041 C 
ATOM      7  O   UNL     1      12.756   5.201  30.786  1.00  0.00    -0.550 OA
ATOM      8  O   UNL     1      13.324   5.833  28.658  1.00  0.00    -0.550 OA
ENDBRANCH   5   6
ENDBRANCH   4   5
ENDBRANCH   3   4
ENDBRANCH   2   3
ENDBRANCH   1   2
BRANCH   1   9
ATOM      9  C   UNL     1       9.019   8.263  31.873  1.00  0.00     0.000 C 
BRANCH   9  10
ATOM     10  C   UNL     1      10.549   8.223  31.708  1.00  0.00    -0.000 C 
BRANCH  10  11
ATOM     11  C   UNL     1      11.272   7.979  33.050  1.00  0.00    -0.000 C 
BRANCH  11  12
ATOM     12  C   UNL     1      10.487   7.076  34.017  1.00  0.00    -0.000 C 
BRANCH  12  13
ATOM     13  C   UNL     1      10.862   5.593  33.887  1.00  0.00    -0.003 C 
ATOM     14  C   UNL     1       9.645   4.697  34.097  1.00  0.00     0.004 C 
ENDBRANCH  12  13
ENDBRANCH  11  12
ENDBRANCH  10  11
ENDBRANCH   9  10
ENDBRANCH   1   9
TORSDOF 10
ENDMDL
MODEL 5
REMARK VINA RESULT:    -2.763      3.780      7.164
REMARK INTER + INTRA:          -6.028
REMARK INTER:                  -5.249
REMARK INTRA:                  -0.779
REMARK UNBOUND:                -1.650
REMARK SMILES CCCCCCCCCCCC(=O)[O-]
REMARK SMILES IDX 7 1 8 2 9 3 10 4 11 5 12 6 13 7 14 8 6 9 5 10 4 11 3 12 2 13
REMARK SMILES IDX 1 14
REMARK H PARENT
REMARK Flexibility Score: inf
ROOT
ATOM      1  C   UNL     1      23.156   6.375  31.438  1.00  0.00     0.000 C 
ENDROOT
BRANCH   1   2
ATOM      2  C   UNL     1      21.884   6.824  32.180  1.00  0.00     0.000 C 
BRANCH   2   3
ATOM      3  C   UNL     1      22.160   7.941  33.200  1.00  0.00     0.000 C 
BRANCH   3   4
ATOM      4  C   UNL     1      21.383   7.750  34.513  1.00  0.00     0.006 C 
BRANCH   4   5
ATOM      5  C   UNL     1      21.663   8.875  35.520  1.00  0.00     0.053 C 
BRANCH   5   6
ATOM      6  C   UNL     1      20.637   8.913  36.610  1.00  0.00     0.041 C 
ATOM      7  O   UNL     1      20.070   7.853  36.987  1.00  0.00    -0.550 OA
ATOM      8  O   UNL     1      20.284  10.125  37.191  1.00  0.00    -0.550 OA
ENDBRANCH   5   6
ENDBRANCH   4   5
ENDBRANCH   3   4
ENDBRANCH   2   3
ENDBRANCH   1   2
BRANCH   1   9
ATOM      9  C   UNL     1      22.882   5.992  29.975  1.00  0.00     0.000 C 
BRANCH   9  10
ATOM     10  C   UNL     1      23.953   6.531  29.008  1.00  0.00    -0.000 C 
BRANCH  10  11
ATOM     11  C   UNL     1      24.949   7.476  29.713  1.00  0.00    -0.000 C 
BRANCH  11  12
ATOM     12  C   UNL     1      25.179   8.799  28.963  1.00  0.00    -0.000 C 
BRANCH  12  13
ATOM     13  C   UNL     1      24.396   9.972  29.566  1.00  0.00    -0.003 C 
ATOM     14  C   UNL     1      24.457   9.949  31.091  1.00  0.00     0.004 C 
ENDBRANCH  12  13
ENDBRANCH  11  12
ENDBRANCH  10  11
ENDBRANCH   9  10
ENDBRANCH   1   9
TORSDOF 10
ENDMDL
MODEL 6
REMARK VINA RESULT:    -2.758     10.467     12.020
REMARK INTER + INTRA:          -6.021
REMARK INTER:                  -4.493
REMARK INTRA:                  -1.528
REMARK UNBOUND:                -1.650
REMARK SMILES CCCCCCCCCCCC(=O)[O-]
REMARK SMILES IDX 7 1 8 2 9 3 10 4 11 5 12 6 13 7 14 8 6 9 5 10 4 11 3 12 2 13
REMARK SMILES IDX 1 14
REMARK H PARENT
REMARK Flexibility Score: inf
ROOT
ATOM      1  C   UNL     1       8.541   5.598  29.882  1.00  0.00     0.000 C 
ENDROOT
BRANCH   1   2
ATOM      2  C   UNL     1       9.148   4.254  30.324  1.00  0.00     0.000 C 
BRANCH   2   3
ATOM      3  C   UNL     1      10.681   4.233  30.207  1.00  0.00     0.000 C 
BRANCH   3   4
ATOM      4  C   UNL     1      11.187   4.924  28.930  1.00  0.00     0.006 C 
BRANCH   4   5
ATOM      5  C   UNL     1      12.495   5.693  29.168  1.00  0.00     0.053 C 
BRANCH   5   6
ATOM      6  C   UNL     1      13.363   5.705  27.947  1.00  0.00     0.041 C 
ATOM      7  O   UNL     1      14.443   6.354  27.943  1.00  0.00    -0.550 OA
ATOM      8  O   UNL     1      12.966   5.023  26.804  1.00  0.00    -0.550 OA
ENDBRANCH   5   6
ENDBRANCH   4   5
ENDBRANCH   3   4
ENDBRANCH   2   3
ENDBRANCH   1   2
BRANCH   1   9
ATOM      9  C   UNL     1       7.979   6.409  31.061  1.00  0.00     0.000 C 
BRANCH   9  10
ATOM     10  C   UNL     1       8.475   7.866  31.073  1.00  0.00    -0.000 C 
BRANCH  10  11
ATOM     11  C   UNL     1      10.015   7.955  31.021  1.00  0.00    -0.000 C 
BRANCH  11  12
ATOM     12  C   UNL     1      10.674   8.052  32.407  1.00  0.00    -0.000 C 
BRANCH  12  13
ATOM     13  C   UNL     1      11.418   6.771  32.806  1.00  0.00    -0.003 C 
ATOM     14  C   UNL     1      10.566   5.905  33.731  1.00  0.00     0.004 C 
ENDBRANCH  12  13
ENDBRANCH  11  12
ENDBRANCH  10  11
ENDBRANCH   9  10
ENDBRANCH   1   9
TORSDOF 10
ENDMDL
MODEL 7
REMARK VINA RESULT:    -2.747     10.991     13.042
REMARK INTER + INTRA:          -6.003
REMARK INTER:                  -4.504
REMARK INTRA:                  -1.499
REMARK UNBOUND:                -1.650
REMARK SMILES CCCCCCCCCCCC(=O)[O-]
REMARK SMILES IDX 7 1 8 2 9 3 10 4 11 5 12 6 13 7 14 8 6 9 5 10 4 11 3 12 2 13
REMARK SMILES IDX 1 14
REMARK H PARENT
REMARK Flexibility Score: inf
ROOT
ATOM      1  C   UNL     1       9.304   8.376  32.378  1.00  0.00     0.000 C 
ENDROOT
BRANCH   1   2
ATOM      2  C   UNL     1      10.823   8.206  32.210  1.00  0.00     0.000 C 
BRANCH   2   3
ATOM      3  C   UNL     1      11.441   7.318  33.302  1.00  0.00     0.000 C 
BRANCH   3   4
ATOM      4  C   UNL     1      10.395   6.448  34.020  1.00  0.00     0.006 C 
BRANCH   4   5
ATOM      5  C   UNL     1      10.369   5.011  33.480  1.00  0.00     0.053 C 
BRANCH   5   6
ATOM      6  C   UNL     1       9.144   4.272  33.924  1.00  0.00     0.041 C 
ATOM      7  O   UNL     1       8.414   3.687  33.080  1.00  0.00    -0.550 OA
ATOM      8  O   UNL     1       8.791   4.254  35.268  1.00  0.00    -0.550 OA
ENDBRANCH   5   6
ENDBRANCH   4   5
ENDBRANCH   3   4
ENDBRANCH   2   3
ENDBRANCH   1   2
BRANCH   1   9
ATOM      9  C   UNL     1       8.528   8.072  31.085  1.00  0.00     0.000 C 
BRANCH   9  10
ATOM     10  C   UNL     1       7.995   6.628  31.035  1.00  0.00    -0.000 C 
BRANCH  10  11
ATOM     11  C   UNL     1       8.367   5.918  29.716  1.00  0.00    -0.000 C 
BRANCH  11  12
ATOM     12  C   UNL     1       9.418   4.809  29.889  1.00  0.00    -0.000 C 
BRANCH  12  13
ATOM     13  C   UNL     1      10.719   5.093  29.127  1.00  0.00    -0.003 C 
ATOM     14  C   UNL     1      11.848   5.466  30.084  1.00  0.00     0.004 C 
ENDBRANCH  12  13
ENDBRANCH  11  12
ENDBRANCH  10  11
ENDBRANCH   9  10
ENDBRANCH   1   9
TORSDOF 10
ENDMDL
MODEL 8
REMARK VINA RESULT:    -2.722     10.627     12.632
REMARK INTER + INTRA:          -5.963
REMARK INTER:                  -4.798
REMARK INTRA:                  -1.164
REMARK UNBOUND:                -1.650
REMARK SMILES CCCCCCCCCCCC(=O)[O-]
REMARK SMILES IDX 7 1 8 2 9 3 10 4 11 5 12 6 13 7 14 8 6 9 5 10 4 11 3 12 2 13
REMARK SMILES IDX 1 14
REMARK H PARENT
REMARK Flexibility Score: inf
ROOT
ATOM      1  C   UNL     1       8.893   7.891  30.563  1.00  0.00     0.000 C 
ENDROOT
BRANCH   1   2
ATOM      2  C   UNL     1      10.216   7.904  31.348  1.00  0.00     0.000 C 
BRANCH   2   3
ATOM      3  C   UNL     1      10.026   8.321  32.816  1.00  0.00     0.000 C 
BRANCH   3   4
ATOM      4  C   UNL     1      10.625   7.305  33.803  1.00  0.00     0.006 C 
BRANCH   4   5
ATOM      5  C   UNL     1      11.720   6.445  33.156  1.00  0.00     0.053 C 
BRANCH   5   6
ATOM      6  C   UNL     1      12.302   5.464  34.126  1.00  0.00     0.041 C 
ATOM      7  O   UNL     1      13.545   5.257  34.151  1.00  0.00    -0.550 OA
ATOM      8  O   UNL     1      11.470   4.754  34.982  1.00  0.00    -0.550 OA
ENDBRANCH   5   6
ENDBRANCH   4   5
ENDBRANCH   3   4
ENDBRANCH   2   3
ENDBRANCH   1   2
BRANCH   1   9
ATOM      9  C   UNL     1       7.967   6.739  30.983  1.00  0.00     0.000 C 
BRANCH   9  10
ATOM     10  C   UNL     1       8.655   5.363  30.911  1.00  0.00    -0.000 C 
BRANCH  10  11
ATOM     11  C   UNL     1       8.551   4.592  32.244  1.00  0.00    -0.000 C 
BRANCH  11  12
ATOM     12  C   UNL     1       9.507   3.391  32.336  1.00  0.00    -0.000 C 
BRANCH  12  13
ATOM     13  C   UNL     1       8.780   2.041  32.260  1.00  0.00    -0.003 C 
ATOM     14  C   UNL     1       8.713   1.533  30.822  1.00  0.00     0.004 C 
ENDBRANCH  12  13
ENDBRANCH  11  12
ENDBRANCH  10  11
ENDBRANCH   9  10
ENDBRANCH   1   9
TORSDOF 10
ENDMDL
MODEL 9
REMARK VINA RESULT:    -2.685     11.257     13.265
REMARK INTER + INTRA:          -5.905
REMARK INTER:                  -4.393
REMARK INTRA:                  -1.512
REMARK UNBOUND:                -1.650
REMARK SMILES CCCCCCCCCCCC(=O)[O-]
REMARK SMILES IDX 7 1 8 2 9 3 10 4 11 5 12 6 13 7 14 8 6 9 5 10 4 11 3 12 2 13
REMARK SMILES IDX 1 14
REMARK H PARENT
REMARK Flexibility Score: inf
ROOT
ATOM      1  C   UNL     1      11.229   7.550  33.371  1.00  0.00     0.000 C 
ENDROOT
BRANCH   1   2
ATOM      2  C   UNL     1      10.437   6.278  33.720  1.00  0.00     0.000 C 
BRANCH   2   3
ATOM      3  C   UNL     1      11.117   5.000  33.199  1.00  0.00     0.000 C 
BRANCH   3   4
ATOM      4  C   UNL     1      10.106   3.946  32.715  1.00  0.00     0.006 C 
BRANCH   4   5
ATOM      5  C   UNL     1       8.699   4.194  33.277  1.00  0.00     0.053 C 
BRANCH   5   6
ATOM      6  C   UNL     1       8.371   3.250  34.393  1.00  0.00     0.041 C 
ATOM      7  O   UNL     1       8.240   3.679  35.570  1.00  0.00    -0.550 OA
ATOM      8  O   UNL     1       8.240   1.890  34.138  1.00  0.00    -0.550 OA
ENDBRANCH   5   6
ENDBRANCH   4   5
ENDBRANCH   3   4
ENDBRANCH   2   3
ENDBRANCH   1   2
BRANCH   1   9
ATOM      9  C   UNL     1      10.701   8.247  32.106  1.00  0.00     0.000 C 
BRANCH   9  10
ATOM     10  C   UNL     1       9.163   8.268  32.034  1.00  0.00    -0.000 C 
BRANCH  10  11
ATOM     11  C   UNL     1       8.642   7.846  30.644  1.00  0.00    -0.000 C 
BRANCH  11  12
ATOM     12  C   UNL     1       7.875   6.512  30.653  1.00  0.00    -0.000 C 
BRANCH  12  13
ATOM     13  C   UNL     1       8.413   5.507  29.626  1.00  0.00    -0.003 C 
ATOM     14  C   UNL     1       9.917   5.675  29.427  1.00  0.00     0.004 C 
ENDBRANCH  12  13
ENDBRANCH  11  12
ENDBRANCH  10  11
ENDBRANCH   9  10
ENDBRANCH   1   9
TORSDOF 10
ENDMDL
