MODEL 1
REMARK VINA RESULT:    -6.931      0.000      0.000
REMARK INTER + INTRA:         -10.991
REMARK INTER:                  -9.565
REMARK INTRA:                  -1.427
REMARK UNBOUND:                -1.427
REMARK SMILES O=C([O-])[C@H]1O[C@@H](Oc2cc3oc(-c4ccccc4)cc(=O)c3c(O)c2O)[C@@H](O)[C@@H](O)[C@@H]1O
REMARK SMILES IDX 7 1 6 2 4 3 31 4 5 5 29 6 27 7 2 8 1 9 3 10 32 11 30 13
REMARK SMILES IDX 28 15 8 17 25 18 9 19 23 20 10 21 22 22 11 23 20 24 12 25
REMARK SMILES IDX 19 26 21 27 26 28 24 30 13 32 14 33 18 34 15 35 17 36 16 37
REMARK H PARENT 32 12 30 14 28 16 26 29 24 31
REMARK Flexibility Score: inf
ROOT
ATOM      1  O   UNL     1      85.966  73.026  17.507  1.00  0.00    -0.458 OA
ENDROOT
BRANCH   1   2
ATOM      2  C   UNL     1      86.755  72.091  16.760  1.00  0.00     0.339 C 
ATOM      3  C   UNL     1      88.634  73.544  16.547  1.00  0.00     0.199 C 
ATOM      4  C   UNL     1      88.381  73.750  15.027  1.00  0.00     0.180 C 
ATOM      5  O   UNL     1      88.139  72.295  17.020  1.00  0.00    -0.328 OA
ATOM      6  C   UNL     1      86.908  73.499  14.662  1.00  0.00     0.181 C 
ATOM      7  C   UNL     1      86.452  72.158  15.247  1.00  0.00     0.214 C 
BRANCH   3   8
ATOM      8  C   UNL     1      88.198  74.695  17.423  1.00  0.00     0.073 C 
ATOM      9  O   UNL     1      87.725  75.751  16.924  1.00  0.00    -0.547 OA
ATOM     10  O   UNL     1      88.408  74.630  18.795  1.00  0.00    -0.547 OA
ENDBRANCH   3   8
BRANCH   4  11
ATOM     11  O   UNL     1      89.185  72.859  14.294  1.00  0.00    -0.387 OA
ATOM     12  H   UNL     1      89.429  72.117  14.906  1.00  0.00     0.211 HD
ENDBRANCH   4  11
BRANCH   6  13
ATOM     13  O   UNL     1      86.092  74.538  15.142  1.00  0.00    -0.387 OA
ATOM     14  H   UNL     1      85.387  74.116  15.699  1.00  0.00     0.211 HD
ENDBRANCH   6  13
BRANCH   7  15
ATOM     15  O   UNL     1      85.082  71.978  14.994  1.00  0.00    -0.384 OA
ATOM     16  H   UNL     1      84.996  71.151  14.453  1.00  0.00     0.211 HD
ENDBRANCH   7  15
ENDBRANCH   1   2
BRANCH   1  17
ATOM     17  C   UNL     1      85.525  72.896  18.835  1.00  0.00     0.172 A 
ATOM     18  C   UNL     1      85.153  74.061  19.516  1.00  0.00     0.201 A 
ATOM     19  C   UNL     1      85.454  71.661  19.496  1.00  0.00     0.098 A 
ATOM     20  C   UNL     1      84.692  74.007  20.846  1.00  0.00     0.176 A 
ATOM     21  C   UNL     1      85.037  71.587  20.825  1.00  0.00     0.146 A 
ATOM     22  C   UNL     1      84.671  72.759  21.534  1.00  0.00     0.111 A 
ATOM     23  O   UNL     1      85.001  70.396  21.411  1.00  0.00    -0.456 OA
ATOM     24  C   UNL     1      84.339  72.599  22.901  1.00  0.00     0.197 A 
ATOM     25  C   UNL     1      84.653  70.213  22.680  1.00  0.00     0.138 A 
ATOM     26  C   UNL     1      84.311  71.322  23.464  1.00  0.00     0.100 A 
ATOM     27  O   UNL     1      84.090  73.582  23.647  1.00  0.00    -0.289 OA
BRANCH  18  28
ATOM     28  O   UNL     1      85.228  75.279  18.836  1.00  0.00    -0.502 OA
ATOM     29  H   UNL     1      86.087  75.810  18.759  1.00  0.00     0.293 HD
ENDBRANCH  18  28
BRANCH  20  30
ATOM     30  O   UNL     1      84.245  75.205  21.415  1.00  0.00    -0.504 OA
ATOM     31  H   UNL     1      84.731  75.716  22.135  1.00  0.00     0.293 HD
ENDBRANCH  20  30
BRANCH  25  32
ATOM     32  C   UNL     1      84.637  68.831  23.224  1.00  0.00     0.017 A 
ATOM     33  C   UNL     1      84.332  67.755  22.369  1.00  0.00     0.012 A 
ATOM     34  C   UNL     1      84.950  68.559  24.571  1.00  0.00     0.012 A 
ATOM     35  C   UNL     1      84.318  66.444  22.854  1.00  0.00     0.001 A 
ATOM     36  C   UNL     1      84.935  67.245  25.050  1.00  0.00     0.001 A 
ATOM     37  C   UNL     1      84.616  66.189  24.194  1.00  0.00     0.000 A 
ENDBRANCH  25  32
ENDBRANCH   1  17
TORSDOF 9
ENDMDL
MODEL 2
REMARK VINA RESULT:    -6.222      3.245      5.822
REMARK INTER + INTRA:         -10.012
REMARK INTER:                  -8.499
REMARK INTRA:                  -1.513
REMARK UNBOUND:                -1.427
REMARK SMILES O=C([O-])[C@H]1O[C@@H](Oc2cc3oc(-c4ccccc4)cc(=O)c3c(O)c2O)[C@@H](O)[C@@H](O)[C@@H]1O
REMARK SMILES IDX 7 1 6 2 4 3 31 4 5 5 29 6 27 7 2 8 1 9 3 10 32 11 30 13
REMARK SMILES IDX 28 15 8 17 25 18 9 19 23 20 10 21 22 22 11 23 20 24 12 25
REMARK SMILES IDX 19 26 21 27 26 28 24 30 13 32 14 33 18 34 15 35 17 36 16 37
REMARK H PARENT 32 12 30 14 28 16 26 29 24 31
REMARK Flexibility Score: inf
ROOT
ATOM      1  O   UNL     1      86.615  75.971  14.745  1.00  0.00    -0.458 OA
ENDROOT
BRANCH   1   2
ATOM      2  C   UNL     1      85.596  76.977  14.825  1.00  0.00     0.339 C 
ATOM      3  C   UNL     1      84.623  76.437  12.714  1.00  0.00     0.199 C 
ATOM      4  C   UNL     1      85.142  77.753  12.069  1.00  0.00     0.180 C 
ATOM      5  O   UNL     1      84.432  76.556  14.122  1.00  0.00    -0.328 OA
ATOM      6  C   UNL     1      86.377  78.294  12.809  1.00  0.00     0.181 C 
ATOM      7  C   UNL     1      86.096  78.347  14.314  1.00  0.00     0.214 C 
BRANCH   3   8
ATOM      8  C   UNL     1      85.411  75.200  12.352  1.00  0.00     0.073 C 
ATOM      9  O   UNL     1      86.374  75.255  11.541  1.00  0.00    -0.547 OA
ATOM     10  O   UNL     1      85.011  73.963  12.845  1.00  0.00    -0.547 OA
ENDBRANCH   3   8
BRANCH   4  11
ATOM     11  O   UNL     1      84.128  78.726  12.111  1.00  0.00    -0.387 OA
ATOM     12  H   UNL     1      84.328  79.384  11.396  1.00  0.00     0.211 HD
ENDBRANCH   4  11
BRANCH   6  13
ATOM     13  O   UNL     1      87.502  77.491  12.555  1.00  0.00    -0.387 OA
ATOM     14  H   UNL     1      87.274  76.914  11.780  1.00  0.00     0.211 HD
ENDBRANCH   6  13
BRANCH   7  15
ATOM     15  O   UNL     1      87.256  78.750  14.994  1.00  0.00    -0.384 OA
ATOM     16  H   UNL     1      87.319  78.192  15.813  1.00  0.00     0.211 HD
ENDBRANCH   7  15
ENDBRANCH   1   2
BRANCH   1  17
ATOM     17  C   UNL     1      86.855  74.931  15.660  1.00  0.00     0.172 A 
ATOM     18  C   UNL     1      87.569  73.816  15.206  1.00  0.00     0.201 A 
ATOM     19  C   UNL     1      86.403  74.965  16.987  1.00  0.00     0.098 A 
ATOM     20  C   UNL     1      87.856  72.740  16.069  1.00  0.00     0.176 A 
ATOM     21  C   UNL     1      86.642  73.894  17.849  1.00  0.00     0.146 A 
ATOM     22  C   UNL     1      87.350  72.751  17.402  1.00  0.00     0.111 A 
ATOM     23  O   UNL     1      86.180  73.968  19.092  1.00  0.00    -0.456 OA
ATOM     24  C   UNL     1      87.475  71.680  18.319  1.00  0.00     0.197 A 
ATOM     25  C   UNL     1      86.320  72.995  19.985  1.00  0.00     0.138 A 
ATOM     26  C   UNL     1      86.977  71.814  19.616  1.00  0.00     0.100 A 
ATOM     27  O   UNL     1      88.002  70.583  17.997  1.00  0.00    -0.289 OA
BRANCH  18  28
ATOM     28  O   UNL     1      88.013  73.806  13.882  1.00  0.00    -0.502 OA
ATOM     29  H   UNL     1      87.671  73.144  13.197  1.00  0.00     0.293 HD
ENDBRANCH  18  28
BRANCH  20  30
ATOM     30  O   UNL     1      88.662  71.714  15.562  1.00  0.00    -0.504 OA
ATOM     31  H   UNL     1      89.619  71.828  15.266  1.00  0.00     0.293 HD
ENDBRANCH  20  30
BRANCH  25  32
ATOM     32  C   UNL     1      85.773  73.196  21.352  1.00  0.00     0.017 A 
ATOM     33  C   UNL     1      84.449  73.648  21.506  1.00  0.00     0.012 A 
ATOM     34  C   UNL     1      86.534  72.917  22.505  1.00  0.00     0.012 A 
ATOM     35  C   UNL     1      83.908  73.838  22.781  1.00  0.00     0.001 A 
ATOM     36  C   UNL     1      85.987  73.108  23.777  1.00  0.00     0.001 A 
ATOM     37  C   UNL     1      84.677  73.571  23.916  1.00  0.00     0.000 A 
ENDBRANCH  25  32
ENDBRANCH   1  17
TORSDOF 9
ENDMDL
MODEL 3
REMARK VINA RESULT:    -6.130      1.174      1.946
REMARK INTER + INTRA:          -9.886
REMARK INTER:                  -8.347
REMARK INTRA:                  -1.538
REMARK UNBOUND:                -1.427
REMARK SMILES O=C([O-])[C@H]1O[C@@H](Oc2cc3oc(-c4ccccc4)cc(=O)c3c(O)c2O)[C@@H](O)[C@@H](O)[C@@H]1O
REMARK SMILES IDX 7 1 6 2 4 3 31 4 5 5 29 6 27 7 2 8 1 9 3 10 32 11 30 13
REMARK SMILES IDX 28 15 8 17 25 18 9 19 23 20 10 21 22 22 11 23 20 24 12 25
REMARK SMILES IDX 19 26 21 27 26 28 24 30 13 32 14 33 18 34 15 35 17 36 16 37
REMARK H PARENT 32 12 30 14 28 16 26 29 24 31
REMARK Flexibility Score: inf
ROOT
ATOM      1  O   UNL     1      85.733  73.005  17.296  1.00  0.00    -0.458 OA
ENDROOT
BRANCH   1   2
ATOM      2  C   UNL     1      84.955  72.623  16.155  1.00  0.00     0.339 C 
ATOM      3  C   UNL     1      86.805  71.725  14.947  1.00  0.00     0.199 C 
ATOM      4  C   UNL     1      86.782  72.892  13.921  1.00  0.00     0.180 C 
ATOM      5  O   UNL     1      85.527  71.481  15.527  1.00  0.00    -0.328 OA
ATOM      6  C   UNL     1      86.132  74.152  14.516  1.00  0.00     0.181 C 
ATOM      7  C   UNL     1      84.787  73.788  15.154  1.00  0.00     0.214 C 
BRANCH   3   8
ATOM      8  C   UNL     1      87.893  71.820  15.991  1.00  0.00     0.073 C 
ATOM      9  O   UNL     1      88.801  72.689  15.908  1.00  0.00    -0.547 OA
ATOM     10  O   UNL     1      87.951  70.876  17.009  1.00  0.00    -0.547 OA
ENDBRANCH   3   8
BRANCH   4  11
ATOM     11  O   UNL     1      86.052  72.502  12.784  1.00  0.00    -0.387 OA
ATOM     12  H   UNL     1      85.368  73.203  12.624  1.00  0.00     0.211 HD
ENDBRANCH   4  11
BRANCH   6  13
ATOM     13  O   UNL     1      86.975  74.744  15.472  1.00  0.00    -0.387 OA
ATOM     14  H   UNL     1      87.154  75.671  15.163  1.00  0.00     0.211 HD
ENDBRANCH   6  13
BRANCH   7  15
ATOM     15  O   UNL     1      84.242  74.921  15.780  1.00  0.00    -0.384 OA
ATOM     16  H   UNL     1      83.559  75.291  15.162  1.00  0.00     0.211 HD
ENDBRANCH   7  15
ENDBRANCH   1   2
BRANCH   1  17
ATOM     17  C   UNL     1      85.391  72.844  18.650  1.00  0.00     0.172 A 
ATOM     18  C   UNL     1      85.115  73.997  19.394  1.00  0.00     0.201 A 
ATOM     19  C   UNL     1      85.326  71.591  19.275  1.00  0.00     0.098 A 
ATOM     20  C   UNL     1      84.755  73.914  20.753  1.00  0.00     0.176 A 
ATOM     21  C   UNL     1      85.010  71.485  20.630  1.00  0.00     0.146 A 
ATOM     22  C   UNL     1      84.742  72.644  21.402  1.00  0.00     0.111 A 
ATOM     23  O   UNL     1      84.976  70.277  21.179  1.00  0.00    -0.456 OA
ATOM     24  C   UNL     1      84.510  72.448  22.785  1.00  0.00     0.197 A 
ATOM     25  C   UNL     1      84.720  70.062  22.465  1.00  0.00     0.138 A 
ATOM     26  C   UNL     1      84.479  71.155  23.308  1.00  0.00     0.100 A 
ATOM     27  O   UNL     1      84.355  73.413  23.579  1.00  0.00    -0.289 OA
BRANCH  18  28
ATOM     28  O   UNL     1      85.181  75.235  18.749  1.00  0.00    -0.502 OA
ATOM     29  H   UNL     1      84.849  76.091  19.176  1.00  0.00     0.293 HD
ENDBRANCH  18  28
BRANCH  20  30
ATOM     30  O   UNL     1      84.397  75.105  21.393  1.00  0.00    -0.504 OA
ATOM     31  H   UNL     1      84.929  75.547  22.127  1.00  0.00     0.293 HD
ENDBRANCH  20  30
BRANCH  25  32
ATOM     32  C   UNL     1      84.696  68.664  22.965  1.00  0.00     0.017 A 
ATOM     33  C   UNL     1      85.034  68.403  24.306  1.00  0.00     0.012 A 
ATOM     34  C   UNL     1      84.313  67.587  22.140  1.00  0.00     0.012 A 
ATOM     35  C   UNL     1      85.012  67.097  24.803  1.00  0.00     0.001 A 
ATOM     36  C   UNL     1      84.292  66.282  22.643  1.00  0.00     0.001 A 
ATOM     37  C   UNL     1      84.644  66.037  23.972  1.00  0.00     0.000 A 
ENDBRANCH  25  32
ENDBRANCH   1  17
TORSDOF 9
ENDMDL
MODEL 4
REMARK VINA RESULT:    -6.093      4.660      6.609
REMARK INTER + INTRA:          -9.835
REMARK INTER:                  -8.400
REMARK INTRA:                  -1.435
REMARK UNBOUND:                -1.427
REMARK SMILES O=C([O-])[C@H]1O[C@@H](Oc2cc3oc(-c4ccccc4)cc(=O)c3c(O)c2O)[C@@H](O)[C@@H](O)[C@@H]1O
REMARK SMILES IDX 7 1 6 2 4 3 31 4 5 5 29 6 27 7 2 8 1 9 3 10 32 11 30 13
REMARK SMILES IDX 28 15 8 17 25 18 9 19 23 20 10 21 22 22 11 23 20 24 12 25
REMARK SMILES IDX 19 26 21 27 26 28 24 30 13 32 14 33 18 34 15 35 17 36 16 37
REMARK H PARENT 32 12 30 14 28 16 26 29 24 31
REMARK Flexibility Score: inf
ROOT
ATOM      1  O   UNL     1      86.137  75.883  13.562  1.00  0.00    -0.458 OA
ENDROOT
BRANCH   1   2
ATOM      2  C   UNL     1      84.816  76.258  13.148  1.00  0.00     0.339 C 
ATOM      3  C   UNL     1      85.490  76.987  10.979  1.00  0.00     0.199 C 
ATOM      4  C   UNL     1      85.240  78.479  11.334  1.00  0.00     0.180 C 
ATOM      5  O   UNL     1      84.676  76.099  11.741  1.00  0.00    -0.328 OA
ATOM      6  C   UNL     1      85.329  78.719  12.851  1.00  0.00     0.181 C 
ATOM      7  C   UNL     1      84.459  77.696  13.589  1.00  0.00     0.214 C 
BRANCH   3   8
ATOM      8  C   UNL     1      86.942  76.569  10.982  1.00  0.00     0.073 C 
ATOM      9  O   UNL     1      87.271  75.356  10.891  1.00  0.00    -0.547 OA
ATOM     10  O   UNL     1      87.930  77.526  11.183  1.00  0.00    -0.547 OA
ENDBRANCH   3   8
BRANCH   4  11
ATOM     11  O   UNL     1      83.960  78.857  10.892  1.00  0.00    -0.387 OA
ATOM     12  H   UNL     1      83.487  78.026  10.625  1.00  0.00     0.211 HD
ENDBRANCH   4  11
BRANCH   6  13
ATOM     13  O   UNL     1      86.660  78.631  13.292  1.00  0.00    -0.387 OA
ATOM     14  H   UNL     1      87.221  79.080  12.607  1.00  0.00     0.211 HD
ENDBRANCH   6  13
BRANCH   7  15
ATOM     15  O   UNL     1      84.619  77.857  14.975  1.00  0.00    -0.384 OA
ATOM     16  H   UNL     1      84.171  78.708  15.218  1.00  0.00     0.211 HD
ENDBRANCH   7  15
ENDBRANCH   1   2
BRANCH   1  17
ATOM     17  C   UNL     1      86.483  74.996  14.597  1.00  0.00     0.172 A 
ATOM     18  C   UNL     1      86.963  75.544  15.791  1.00  0.00     0.201 A 
ATOM     19  C   UNL     1      86.374  73.604  14.473  1.00  0.00     0.098 A 
ATOM     20  C   UNL     1      87.321  74.718  16.875  1.00  0.00     0.176 A 
ATOM     21  C   UNL     1      86.757  72.763  15.519  1.00  0.00     0.146 A 
ATOM     22  C   UNL     1      87.261  73.301  16.730  1.00  0.00     0.111 A 
ATOM     23  O   UNL     1      86.650  71.451  15.347  1.00  0.00    -0.456 OA
ATOM     24  C   UNL     1      87.701  72.372  17.704  1.00  0.00     0.197 A 
ATOM     25  C   UNL     1      87.017  70.559  16.261  1.00  0.00     0.138 A 
ATOM     26  C   UNL     1      87.558  71.003  17.475  1.00  0.00     0.100 A 
ATOM     27  O   UNL     1      88.251  72.739  18.776  1.00  0.00    -0.289 OA
BRANCH  18  28
ATOM     28  O   UNL     1      87.059  76.934  15.893  1.00  0.00    -0.502 OA
ATOM     29  H   UNL     1      87.826  77.395  16.366  1.00  0.00     0.293 HD
ENDBRANCH  18  28
BRANCH  20  30
ATOM     30  O   UNL     1      87.694  75.352  18.065  1.00  0.00    -0.504 OA
ATOM     31  H   UNL     1      88.543  75.165  18.575  1.00  0.00     0.293 HD
ENDBRANCH  20  30
BRANCH  25  32
ATOM     32  C   UNL     1      86.837  69.115  15.962  1.00  0.00     0.017 A 
ATOM     33  C   UNL     1      85.570  68.526  16.137  1.00  0.00     0.012 A 
ATOM     34  C   UNL     1      87.894  68.319  15.479  1.00  0.00     0.012 A 
ATOM     35  C   UNL     1      85.372  67.172  15.856  1.00  0.00     0.001 A 
ATOM     36  C   UNL     1      87.690  66.965  15.198  1.00  0.00     0.001 A 
ATOM     37  C   UNL     1      86.431  66.390  15.389  1.00  0.00     0.000 A 
ENDBRANCH  25  32
ENDBRANCH   1  17
TORSDOF 9
ENDMDL
MODEL 5
REMARK VINA RESULT:    -5.954      4.478      6.550
REMARK INTER + INTRA:          -9.643
REMARK INTER:                  -8.858
REMARK INTRA:                  -0.785
REMARK UNBOUND:                -1.427
REMARK SMILES O=C([O-])[C@H]1O[C@@H](Oc2cc3oc(-c4ccccc4)cc(=O)c3c(O)c2O)[C@@H](O)[C@@H](O)[C@@H]1O
REMARK SMILES IDX 7 1 6 2 4 3 31 4 5 5 29 6 27 7 2 8 1 9 3 10 32 11 30 13
REMARK SMILES IDX 28 15 8 17 25 18 9 19 23 20 10 21 22 22 11 23 20 24 12 25
REMARK SMILES IDX 19 26 21 27 26 28 24 30 13 32 14 33 18 34 15 35 17 36 16 37
REMARK H PARENT 32 12 30 14 28 16 26 29 24 31
REMARK Flexibility Score: inf
ROOT
ATOM      1  O   UNL     1      87.229  74.272  15.600  1.00  0.00    -0.458 OA
ENDROOT
BRANCH   1   2
ATOM      2  C   UNL     1      87.640  75.229  16.586  1.00  0.00     0.339 C 
ATOM      3  C   UNL     1      87.960  76.999  15.020  1.00  0.00     0.199 C 
ATOM      4  C   UNL     1      89.505  76.946  15.180  1.00  0.00     0.180 C 
ATOM      5  O   UNL     1      87.273  76.542  16.181  1.00  0.00    -0.328 OA
ATOM      6  C   UNL     1      89.974  75.563  15.663  1.00  0.00     0.181 C 
ATOM      7  C   UNL     1      89.154  75.136  16.884  1.00  0.00     0.214 C 
BRANCH   3   8
ATOM      8  C   UNL     1      87.431  76.356  13.759  1.00  0.00     0.073 C 
ATOM      9  O   UNL     1      88.206  76.026  12.822  1.00  0.00    -0.547 OA
ATOM     10  O   UNL     1      86.060  76.210  13.586  1.00  0.00    -0.547 OA
ENDBRANCH   3   8
BRANCH   4  11
ATOM     11  O   UNL     1      89.911  77.912  16.117  1.00  0.00    -0.387 OA
ATOM     12  H   UNL     1      89.097  78.212  16.598  1.00  0.00     0.211 HD
ENDBRANCH   4  11
BRANCH   6  13
ATOM     13  O   UNL     1      89.848  74.609  14.638  1.00  0.00    -0.387 OA
ATOM     14  H   UNL     1      89.481  73.786  15.055  1.00  0.00     0.211 HD
ENDBRANCH   6  13
BRANCH   7  15
ATOM     15  O   UNL     1      89.518  73.834  17.262  1.00  0.00    -0.384 OA
ATOM     16  H   UNL     1      88.676  73.323  17.383  1.00  0.00     0.211 HD
ENDBRANCH   7  15
ENDBRANCH   1   2
BRANCH   1  17
ATOM     17  C   UNL     1      86.746  72.972  15.828  1.00  0.00     0.172 A 
ATOM     18  C   UNL     1      85.613  72.830  16.637  1.00  0.00     0.201 A 
ATOM     19  C   UNL     1      87.354  71.829  15.290  1.00  0.00     0.098 A 
ATOM     20  C   UNL     1      85.066  71.559  16.902  1.00  0.00     0.176 A 
ATOM     21  C   UNL     1      86.853  70.557  15.569  1.00  0.00     0.146 A 
ATOM     22  C   UNL     1      85.716  70.394  16.399  1.00  0.00     0.111 A 
ATOM     23  O   UNL     1      87.474  69.505  15.048  1.00  0.00    -0.456 OA
ATOM     24  C   UNL     1      85.327  69.065  16.693  1.00  0.00     0.197 A 
ATOM     25  C   UNL     1      87.105  68.248  15.274  1.00  0.00     0.138 A 
ATOM     26  C   UNL     1      86.011  67.996  16.112  1.00  0.00     0.100 A 
ATOM     27  O   UNL     1      84.391  68.805  17.494  1.00  0.00    -0.289 OA
BRANCH  18  28
ATOM     28  O   UNL     1      85.021  73.983  17.159  1.00  0.00    -0.502 OA
ATOM     29  H   UNL     1      85.419  74.906  17.032  1.00  0.00     0.293 HD
ENDBRANCH  18  28
BRANCH  20  30
ATOM     30  O   UNL     1      83.875  71.518  17.635  1.00  0.00    -0.504 OA
ATOM     31  H   UNL     1      83.054  72.066  17.430  1.00  0.00     0.293 HD
ENDBRANCH  20  30
BRANCH  25  32
ATOM     32  C   UNL     1      87.867  67.152  14.625  1.00  0.00     0.017 A 
ATOM     33  C   UNL     1      87.260  66.399  13.603  1.00  0.00     0.012 A 
ATOM     34  C   UNL     1      89.199  66.860  14.984  1.00  0.00     0.012 A 
ATOM     35  C   UNL     1      87.959  65.366  12.971  1.00  0.00     0.001 A 
ATOM     36  C   UNL     1      89.893  65.827  14.347  1.00  0.00     0.001 A 
ATOM     37  C   UNL     1      89.273  65.078  13.344  1.00  0.00     0.000 A 
ENDBRANCH  25  32
ENDBRANCH   1  17
TORSDOF 9
ENDMDL
MODEL 6
REMARK VINA RESULT:    -5.860      2.188      4.281
REMARK INTER + INTRA:          -9.514
REMARK INTER:                  -8.069
REMARK INTRA:                  -1.445
REMARK UNBOUND:                -1.427
REMARK SMILES O=C([O-])[C@H]1O[C@@H](Oc2cc3oc(-c4ccccc4)cc(=O)c3c(O)c2O)[C@@H](O)[C@@H](O)[C@@H]1O
REMARK SMILES IDX 7 1 6 2 4 3 31 4 5 5 29 6 27 7 2 8 1 9 3 10 32 11 30 13
REMARK SMILES IDX 28 15 8 17 25 18 9 19 23 20 10 21 22 22 11 23 20 24 12 25
REMARK SMILES IDX 19 26 21 27 26 28 24 30 13 32 14 33 18 34 15 35 17 36 16 37
REMARK H PARENT 32 12 30 14 28 16 26 29 24 31
REMARK Flexibility Score: inf
ROOT
ATOM      1  O   UNL     1      87.332  73.967  16.342  1.00  0.00    -0.458 OA
ENDROOT
BRANCH   1   2
ATOM      2  C   UNL     1      87.603  75.285  16.836  1.00  0.00     0.339 C 
ATOM      3  C   UNL     1      86.251  76.386  15.208  1.00  0.00     0.199 C 
ATOM      4  C   UNL     1      87.494  76.968  14.479  1.00  0.00     0.180 C 
ATOM      5  O   UNL     1      86.493  76.141  16.591  1.00  0.00    -0.328 OA
ATOM      6  C   UNL     1      88.748  76.117  14.737  1.00  0.00     0.181 C 
ATOM      7  C   UNL     1      88.904  75.869  16.242  1.00  0.00     0.214 C 
BRANCH   3   8
ATOM      8  C   UNL     1      85.613  75.199  14.525  1.00  0.00     0.073 C 
ATOM      9  O   UNL     1      86.048  74.770  13.424  1.00  0.00    -0.547 OA
ATOM     10  O   UNL     1      84.470  74.627  15.071  1.00  0.00    -0.547 OA
ENDBRANCH   3   8
BRANCH   4  11
ATOM     11  O   UNL     1      87.734  78.276  14.935  1.00  0.00    -0.387 OA
ATOM     12  H   UNL     1      87.829  78.227  15.921  1.00  0.00     0.211 HD
ENDBRANCH   4  11
BRANCH   6  13
ATOM     13  O   UNL     1      88.670  74.892  14.051  1.00  0.00    -0.387 OA
ATOM     14  H   UNL     1      88.971  74.188  14.684  1.00  0.00     0.211 HD
ENDBRANCH   6  13
BRANCH   7  15
ATOM     15  O   UNL     1      89.994  75.012  16.465  1.00  0.00    -0.384 OA
ATOM     16  H   UNL     1      90.316  75.192  17.387  1.00  0.00     0.211 HD
ENDBRANCH   7  15
ENDBRANCH   1   2
BRANCH   1  17
ATOM     17  C   UNL     1      86.663  72.928  17.014  1.00  0.00     0.172 A 
ATOM     18  C   UNL     1      86.136  71.887  16.243  1.00  0.00     0.201 A 
ATOM     19  C   UNL     1      86.501  72.904  18.406  1.00  0.00     0.098 A 
ATOM     20  C   UNL     1      85.462  70.807  16.847  1.00  0.00     0.176 A 
ATOM     21  C   UNL     1      85.804  71.865  19.024  1.00  0.00     0.146 A 
ATOM     22  C   UNL     1      85.250  70.810  18.257  1.00  0.00     0.111 A 
ATOM     23  O   UNL     1      85.663  71.896  20.344  1.00  0.00    -0.456 OA
ATOM     24  C   UNL     1      84.491  69.842  18.959  1.00  0.00     0.197 A 
ATOM     25  C   UNL     1      84.991  70.979  21.032  1.00  0.00     0.138 A 
ATOM     26  C   UNL     1      84.381  69.919  20.348  1.00  0.00     0.100 A 
ATOM     27  O   UNL     1      83.877  68.917  18.366  1.00  0.00    -0.289 OA
BRANCH  18  28
ATOM     28  O   UNL     1      86.315  71.929  14.858  1.00  0.00    -0.502 OA
ATOM     29  H   UNL     1      87.071  72.441  14.420  1.00  0.00     0.293 HD
ENDBRANCH  18  28
BRANCH  20  30
ATOM     30  O   UNL     1      85.058  69.760  16.012  1.00  0.00    -0.504 OA
ATOM     31  H   UNL     1      84.424  69.023  16.280  1.00  0.00     0.293 HD
ENDBRANCH  20  30
BRANCH  25  32
ATOM     32  C   UNL     1      84.912  71.110  22.509  1.00  0.00     0.017 A 
ATOM     33  C   UNL     1      85.197  72.351  23.109  1.00  0.00     0.012 A 
ATOM     34  C   UNL     1      84.529  70.030  23.331  1.00  0.00     0.012 A 
ATOM     35  C   UNL     1      85.122  72.503  24.497  1.00  0.00     0.001 A 
ATOM     36  C   UNL     1      84.455  70.188  24.719  1.00  0.00     0.001 A 
ATOM     37  C   UNL     1      84.754  71.422  25.301  1.00  0.00     0.000 A 
ENDBRANCH  25  32
ENDBRANCH   1  17
TORSDOF 9
ENDMDL
MODEL 7
REMARK VINA RESULT:    -5.839      4.488      6.350
REMARK INTER + INTRA:          -9.485
REMARK INTER:                  -7.872
REMARK INTRA:                  -1.613
REMARK UNBOUND:                -1.427
REMARK SMILES O=C([O-])[C@H]1O[C@@H](Oc2cc3oc(-c4ccccc4)cc(=O)c3c(O)c2O)[C@@H](O)[C@@H](O)[C@@H]1O
REMARK SMILES IDX 7 1 6 2 4 3 31 4 5 5 29 6 27 7 2 8 1 9 3 10 32 11 30 13
REMARK SMILES IDX 28 15 8 17 25 18 9 19 23 20 10 21 22 22 11 23 20 24 12 25
REMARK SMILES IDX 19 26 21 27 26 28 24 30 13 32 14 33 18 34 15 35 17 36 16 37
REMARK H PARENT 32 12 30 14 28 16 26 29 24 31
REMARK Flexibility Score: inf
ROOT
ATOM      1  O   UNL     1      86.479  74.726  14.843  1.00  0.00    -0.458 OA
ENDROOT
BRANCH   1   2
ATOM      2  C   UNL     1      86.099  75.263  13.569  1.00  0.00     0.339 C 
ATOM      3  C   UNL     1      87.820  76.914  13.531  1.00  0.00     0.199 C 
ATOM      4  C   UNL     1      86.802  78.070  13.739  1.00  0.00     0.180 C 
ATOM      5  O   UNL     1      87.238  75.781  12.892  1.00  0.00    -0.328 OA
ATOM      6  C   UNL     1      85.519  77.573  14.427  1.00  0.00     0.181 C 
ATOM      7  C   UNL     1      84.990  76.332  13.701  1.00  0.00     0.214 C 
BRANCH   3   8
ATOM      8  C   UNL     1      88.604  76.530  14.764  1.00  0.00     0.073 C 
ATOM      9  O   UNL     1      88.602  77.260  15.790  1.00  0.00    -0.547 OA
ATOM     10  O   UNL     1      89.416  75.402  14.736  1.00  0.00    -0.547 OA
ENDBRANCH   3   8
BRANCH   4  11
ATOM     11  O   UNL     1      86.460  78.623  12.493  1.00  0.00    -0.387 OA
ATOM     12  H   UNL     1      86.392  79.605  12.619  1.00  0.00     0.211 HD
ENDBRANCH   4  11
BRANCH   6  13
ATOM     13  O   UNL     1      85.762  77.276  15.780  1.00  0.00    -0.387 OA
ATOM     14  H   UNL     1      86.747  77.207  15.887  1.00  0.00     0.211 HD
ENDBRANCH   6  13
BRANCH   7  15
ATOM     15  O   UNL     1      83.876  75.826  14.389  1.00  0.00    -0.384 OA
ATOM     16  H   UNL     1      84.153  74.961  14.790  1.00  0.00     0.211 HD
ENDBRANCH   7  15
ENDBRANCH   1   2
BRANCH   1  17
ATOM     17  C   UNL     1      86.165  73.456  15.357  1.00  0.00     0.172 A 
ATOM     18  C   UNL     1      85.247  73.388  16.410  1.00  0.00     0.201 A 
ATOM     19  C   UNL     1      86.737  72.273  14.865  1.00  0.00     0.098 A 
ATOM     20  C   UNL     1      84.876  72.149  16.970  1.00  0.00     0.176 A 
ATOM     21  C   UNL     1      86.414  71.038  15.428  1.00  0.00     0.146 A 
ATOM     22  C   UNL     1      85.497  70.953  16.506  1.00  0.00     0.111 A 
ATOM     23  O   UNL     1      86.994  69.949  14.938  1.00  0.00    -0.456 OA
ATOM     24  C   UNL     1      85.292  69.669  17.067  1.00  0.00     0.197 A 
ATOM     25  C   UNL     1      86.787  68.728  15.419  1.00  0.00     0.138 A 
ATOM     26  C   UNL     1      85.922  68.557  16.507  1.00  0.00     0.100 A 
ATOM     27  O   UNL     1      84.573  69.493  18.086  1.00  0.00    -0.289 OA
BRANCH  18  28
ATOM     28  O   UNL     1      84.686  74.578  16.881  1.00  0.00    -0.502 OA
ATOM     29  H   UNL     1      85.245  75.330  17.264  1.00  0.00     0.293 HD
ENDBRANCH  18  28
BRANCH  20  30
ATOM     30  O   UNL     1      83.877  72.165  17.949  1.00  0.00    -0.504 OA
ATOM     31  H   UNL     1      83.793  72.860  18.675  1.00  0.00     0.293 HD
ENDBRANCH  20  30
BRANCH  25  32
ATOM     32  C   UNL     1      87.482  67.581  14.779  1.00  0.00     0.017 A 
ATOM     33  C   UNL     1      86.836  66.867  13.753  1.00  0.00     0.012 A 
ATOM     34  C   UNL     1      88.788  67.204  15.151  1.00  0.00     0.012 A 
ATOM     35  C   UNL     1      87.471  65.789  13.130  1.00  0.00     0.001 A 
ATOM     36  C   UNL     1      89.419  66.125  14.523  1.00  0.00     0.001 A 
ATOM     37  C   UNL     1      88.760  65.416  13.516  1.00  0.00     0.000 A 
ENDBRANCH  25  32
ENDBRANCH   1  17
TORSDOF 9
ENDMDL
MODEL 8
REMARK VINA RESULT:    -5.828      4.006      6.056
REMARK INTER + INTRA:          -9.470
REMARK INTER:                  -8.310
REMARK INTRA:                  -1.159
REMARK UNBOUND:                -1.427
REMARK SMILES O=C([O-])[C@H]1O[C@@H](Oc2cc3oc(-c4ccccc4)cc(=O)c3c(O)c2O)[C@@H](O)[C@@H](O)[C@@H]1O
REMARK SMILES IDX 7 1 6 2 4 3 31 4 5 5 29 6 27 7 2 8 1 9 3 10 32 11 30 13
REMARK SMILES IDX 28 15 8 17 25 18 9 19 23 20 10 21 22 22 11 23 20 24 12 25
REMARK SMILES IDX 19 26 21 27 26 28 24 30 13 32 14 33 18 34 15 35 17 36 16 37
REMARK H PARENT 32 12 30 14 28 16 26 29 24 31
REMARK Flexibility Score: inf
ROOT
ATOM      1  O   UNL     1      86.812  73.818  15.540  1.00  0.00    -0.458 OA
ENDROOT
BRANCH   1   2
ATOM      2  C   UNL     1      87.905  73.999  14.630  1.00  0.00     0.339 C 
ATOM      3  C   UNL     1      89.504  74.472  16.336  1.00  0.00     0.199 C 
ATOM      4  C   UNL     1      89.593  75.968  15.924  1.00  0.00     0.180 C 
ATOM      5  O   UNL     1      89.130  73.627  15.250  1.00  0.00    -0.328 OA
ATOM      6  C   UNL     1      88.316  76.430  15.203  1.00  0.00     0.181 C 
ATOM      7  C   UNL     1      87.967  75.443  14.084  1.00  0.00     0.214 C 
BRANCH   3   8
ATOM      8  C   UNL     1      88.681  74.203  17.573  1.00  0.00     0.073 C 
ATOM      9  O   UNL     1      88.143  75.144  18.216  1.00  0.00    -0.547 OA
ATOM     10  O   UNL     1      88.590  72.907  18.068  1.00  0.00    -0.547 OA
ENDBRANCH   3   8
BRANCH   4  11
ATOM     11  O   UNL     1      90.689  76.152  15.064  1.00  0.00    -0.387 OA
ATOM     12  H   UNL     1      90.572  75.523  14.305  1.00  0.00     0.211 HD
ENDBRANCH   4  11
BRANCH   6  13
ATOM     13  O   UNL     1      87.243  76.536  16.105  1.00  0.00    -0.387 OA
ATOM     14  H   UNL     1      86.950  77.485  16.094  1.00  0.00     0.211 HD
ENDBRANCH   6  13
BRANCH   7  15
ATOM     15  O   UNL     1      86.750  75.816  13.491  1.00  0.00    -0.384 OA
ATOM     16  H   UNL     1      86.816  76.784  13.284  1.00  0.00     0.211 HD
ENDBRANCH   7  15
ENDBRANCH   1   2
BRANCH   1  17
ATOM     17  C   UNL     1      86.214  72.602  15.918  1.00  0.00     0.172 A 
ATOM     18  C   UNL     1      85.423  72.597  17.072  1.00  0.00     0.201 A 
ATOM     19  C   UNL     1      86.386  71.413  15.196  1.00  0.00     0.098 A 
ATOM     20  C   UNL     1      84.784  71.419  17.507  1.00  0.00     0.176 A 
ATOM     21  C   UNL     1      85.795  70.225  15.628  1.00  0.00     0.146 A 
ATOM     22  C   UNL     1      85.002  70.198  16.804  1.00  0.00     0.111 A 
ATOM     23  O   UNL     1      86.001  69.122  14.919  1.00  0.00    -0.456 OA
ATOM     24  C   UNL     1      84.509  68.935  17.210  1.00  0.00     0.197 A 
ATOM     25  C   UNL     1      85.515  67.932  15.255  1.00  0.00     0.138 A 
ATOM     26  C   UNL     1      84.750  67.809  16.423  1.00  0.00     0.100 A 
ATOM     27  O   UNL     1      83.875  68.781  18.287  1.00  0.00    -0.289 OA
BRANCH  18  28
ATOM     28  O   UNL     1      85.261  73.795  17.773  1.00  0.00    -0.502 OA
ATOM     29  H   UNL     1      84.956  74.651  17.327  1.00  0.00     0.293 HD
ENDBRANCH  18  28
BRANCH  20  30
ATOM     30  O   UNL     1      83.930  71.526  18.610  1.00  0.00    -0.504 OA
ATOM     31  H   UNL     1      83.655  72.395  19.042  1.00  0.00     0.293 HD
ENDBRANCH  20  30
BRANCH  25  32
ATOM     32  C   UNL     1      85.800  66.769  14.376  1.00  0.00     0.017 A 
ATOM     33  C   UNL     1      84.836  65.752  14.241  1.00  0.00     0.012 A 
ATOM     34  C   UNL     1      87.001  66.668  13.645  1.00  0.00     0.012 A 
ATOM     35  C   UNL     1      85.077  64.651  13.414  1.00  0.00     0.001 A 
ATOM     36  C   UNL     1      87.236  65.564  12.819  1.00  0.00     0.001 A 
ATOM     37  C   UNL     1      86.276  64.556  12.705  1.00  0.00     0.000 A 
ENDBRANCH  25  32
ENDBRANCH   1  17
TORSDOF 9
ENDMDL
MODEL 9
REMARK VINA RESULT:    -5.672      2.202      3.957
REMARK INTER + INTRA:          -9.254
REMARK INTER:                  -8.844
REMARK INTRA:                  -0.410
REMARK UNBOUND:                -1.427
REMARK SMILES O=C([O-])[C@H]1O[C@@H](Oc2cc3oc(-c4ccccc4)cc(=O)c3c(O)c2O)[C@@H](O)[C@@H](O)[C@@H]1O
REMARK SMILES IDX 7 1 6 2 4 3 31 4 5 5 29 6 27 7 2 8 1 9 3 10 32 11 30 13
REMARK SMILES IDX 28 15 8 17 25 18 9 19 23 20 10 21 22 22 11 23 20 24 12 25
REMARK SMILES IDX 19 26 21 27 26 28 24 30 13 32 14 33 18 34 15 35 17 36 16 37
REMARK H PARENT 32 12 30 14 28 16 26 29 24 31
REMARK Flexibility Score: inf
ROOT
ATOM      1  O   UNL     1      86.694  74.682  16.511  1.00  0.00    -0.458 OA
ENDROOT
BRANCH   1   2
ATOM      2  C   UNL     1      86.303  75.143  15.211  1.00  0.00     0.339 C 
ATOM      3  C   UNL     1      88.456  74.828  14.234  1.00  0.00     0.199 C 
ATOM      4  C   UNL     1      88.702  76.359  14.131  1.00  0.00     0.180 C 
ATOM      5  O   UNL     1      87.071  74.493  14.206  1.00  0.00    -0.328 OA
ATOM      6  C   UNL     1      87.865  77.134  15.162  1.00  0.00     0.181 C 
ATOM      7  C   UNL     1      86.403  76.680  15.089  1.00  0.00     0.214 C 
BRANCH   3   8
ATOM      8  C   UNL     1      89.181  74.144  15.370  1.00  0.00     0.073 C 
ATOM      9  O   UNL     1      89.964  74.783  16.121  1.00  0.00    -0.547 OA
ATOM     10  O   UNL     1      89.057  72.769  15.534  1.00  0.00    -0.547 OA
ENDBRANCH   3   8
BRANCH   4  11
ATOM     11  O   UNL     1      88.356  76.803  12.843  1.00  0.00    -0.387 OA
ATOM     12  H   UNL     1      88.601  77.763  12.791  1.00  0.00     0.211 HD
ENDBRANCH   4  11
BRANCH   6  13
ATOM     13  O   UNL     1      88.367  76.939  16.461  1.00  0.00    -0.387 OA
ATOM     14  H   UNL     1      88.813  76.052  16.466  1.00  0.00     0.211 HD
ENDBRANCH   6  13
BRANCH   7  15
ATOM     15  O   UNL     1      85.662  77.320  16.096  1.00  0.00    -0.384 OA
ATOM     16  H   UNL     1      85.412  78.214  15.744  1.00  0.00     0.211 HD
ENDBRANCH   7  15
ENDBRANCH   1   2
BRANCH   1  17
ATOM     17  C   UNL     1      86.171  73.584  17.217  1.00  0.00     0.172 A 
ATOM     18  C   UNL     1      85.732  72.482  16.474  1.00  0.00     0.201 A 
ATOM     19  C   UNL     1      86.067  73.558  18.615  1.00  0.00     0.098 A 
ATOM     20  C   UNL     1      85.205  71.342  17.113  1.00  0.00     0.176 A 
ATOM     21  C   UNL     1      85.513  72.456  19.267  1.00  0.00     0.146 A 
ATOM     22  C   UNL     1      85.049  71.337  18.530  1.00  0.00     0.111 A 
ATOM     23  O   UNL     1      85.422  72.486  20.592  1.00  0.00    -0.456 OA
ATOM     24  C   UNL     1      84.430  70.301  19.269  1.00  0.00     0.197 A 
ATOM     25  C   UNL     1      84.883  71.508  21.312  1.00  0.00     0.138 A 
ATOM     26  C   UNL     1      84.367  70.380  20.660  1.00  0.00     0.100 A 
ATOM     27  O   UNL     1      83.899  69.307  18.707  1.00  0.00    -0.289 OA
BRANCH  18  28
ATOM     28  O   UNL     1      85.850  72.529  15.083  1.00  0.00    -0.502 OA
ATOM     29  H   UNL     1      85.524  73.314  14.534  1.00  0.00     0.293 HD
ENDBRANCH  18  28
BRANCH  20  30
ATOM     30  O   UNL     1      84.886  70.248  16.302  1.00  0.00    -0.504 OA
ATOM     31  H   UNL     1      84.019  69.734  16.344  1.00  0.00     0.293 HD
ENDBRANCH  20  30
BRANCH  25  32
ATOM     32  C   UNL     1      84.848  71.646  22.791  1.00  0.00     0.017 A 
ATOM     33  C   UNL     1      84.244  70.637  23.565  1.00  0.00     0.012 A 
ATOM     34  C   UNL     1      85.431  72.749  23.448  1.00  0.00     0.012 A 
ATOM     35  C   UNL     1      84.205  70.739  24.958  1.00  0.00     0.001 A 
ATOM     36  C   UNL     1      85.390  72.845  24.842  1.00  0.00     0.001 A 
ATOM     37  C   UNL     1      84.775  71.843  25.597  1.00  0.00     0.000 A 
ENDBRANCH  25  32
ENDBRANCH   1  17
TORSDOF 9
ENDMDL
