MODEL 1
REMARK VINA RESULT:    -6.240      0.000      0.000
REMARK INTER + INTRA:         -15.733
REMARK INTER:                 -13.536
REMARK INTRA:                  -2.197
REMARK UNBOUND:                -2.197
REMARK SMILES CCCCCCCCCCCCCCCCCCCCCC(=O)[O-]
REMARK SMILES IDX 12 1 11 2 10 3 9 4 8 5 7 6 6 7 5 8 4 9 3 10 2 11 1 12 13 13
REMARK SMILES IDX 14 14 15 15 16 16 17 17 18 18 19 19 20 20 21 21 22 22 23 23
REMARK SMILES IDX 24 24
REMARK H PARENT
REMARK Flexibility Score: inf
ROOT
ATOM      1  C   UNL     1      46.553 -45.927 165.641  1.00  0.00     0.000 C 
ENDROOT
BRANCH   1   2
ATOM      2  C   UNL     1      45.372 -45.788 164.663  1.00  0.00     0.000 C 
BRANCH   2   3
ATOM      3  C   UNL     1      45.753 -46.131 163.217  1.00  0.00     0.000 C 
BRANCH   3   4
ATOM      4  C   UNL     1      44.613 -46.880 162.512  1.00  0.00    -0.000 C 
BRANCH   4   5
ATOM      5  C   UNL     1      44.977 -48.334 162.158  1.00  0.00    -0.000 C 
BRANCH   5   6
ATOM      6  C   UNL     1      46.115 -48.943 162.998  1.00  0.00    -0.000 C 
BRANCH   6   7
ATOM      7  C   UNL     1      45.631 -49.497 164.346  1.00  0.00    -0.000 C 
BRANCH   7   8
ATOM      8  C   UNL     1      44.103 -49.617 164.377  1.00  0.00    -0.000 C 
BRANCH   8   9
ATOM      9  C   UNL     1      43.511 -48.795 165.533  1.00  0.00    -0.000 C 
BRANCH   9  10
ATOM     10  C   UNL     1      42.148 -48.171 165.167  1.00  0.00    -0.000 C 
BRANCH  10  11
ATOM     11  C   UNL     1      41.640 -48.581 163.775  1.00  0.00    -0.003 C 
ATOM     12  C   UNL     1      40.748 -49.820 163.807  1.00  0.00     0.004 C 
ENDBRANCH  10  11
ENDBRANCH   9  10
ENDBRANCH   8   9
ENDBRANCH   7   8
ENDBRANCH   6   7
ENDBRANCH   5   6
ENDBRANCH   4   5
ENDBRANCH   3   4
ENDBRANCH   2   3
ENDBRANCH   1   2
BRANCH   1  13
ATOM     13  C   UNL     1      47.933 -46.111 164.978  1.00  0.00     0.000 C 
BRANCH  13  14
ATOM     14  C   UNL     1      48.557 -47.508 165.143  1.00  0.00     0.000 C 
BRANCH  14  15
ATOM     15  C   UNL     1      50.049 -47.542 164.782  1.00  0.00     0.000 C 
BRANCH  15  16
ATOM     16  C   UNL     1      50.738 -46.224 165.168  1.00  0.00     0.000 C 
BRANCH  16  17
ATOM     17  C   UNL     1      52.089 -46.447 165.866  1.00  0.00     0.000 C 
BRANCH  17  18
ATOM     18  C   UNL     1      52.564 -47.909 165.786  1.00  0.00     0.000 C 
BRANCH  18  19
ATOM     19  C   UNL     1      54.097 -48.043 165.808  1.00  0.00     0.000 C 
BRANCH  19  20
ATOM     20  C   UNL     1      54.664 -48.919 166.945  1.00  0.00     0.006 C 
BRANCH  20  21
ATOM     21  C   UNL     1      53.631 -49.837 167.615  1.00  0.00     0.053 C 
BRANCH  21  22
ATOM     22  C   UNL     1      54.073 -51.268 167.618  1.00  0.00     0.041 C 
ATOM     23  O   UNL     1      54.764 -51.719 166.667  1.00  0.00    -0.550 OA
ATOM     24  O   UNL     1      53.749 -52.095 168.686  1.00  0.00    -0.550 OA
ENDBRANCH  21  22
ENDBRANCH  20  21
ENDBRANCH  19  20
ENDBRANCH  18  19
ENDBRANCH  17  18
ENDBRANCH  16  17
ENDBRANCH  15  16
ENDBRANCH  14  15
ENDBRANCH  13  14
ENDBRANCH   1  13
TORSDOF 20
ENDMDL
MODEL 2
REMARK VINA RESULT:    -5.930      2.696      3.848
REMARK INTER + INTRA:         -15.060
REMARK INTER:                 -13.380
REMARK INTRA:                  -1.680
REMARK UNBOUND:                -2.197
REMARK SMILES CCCCCCCCCCCCCCCCCCCCCC(=O)[O-]
REMARK SMILES IDX 12 1 11 2 10 3 9 4 8 5 7 6 6 7 5 8 4 9 3 10 2 11 1 12 13 13
REMARK SMILES IDX 14 14 15 15 16 16 17 17 18 18 19 19 20 20 21 21 22 22 23 23
REMARK SMILES IDX 24 24
REMARK H PARENT
REMARK Flexibility Score: inf
ROOT
ATOM      1  C   UNL     1      46.045 -46.127 163.481  1.00  0.00     0.000 C 
ENDROOT
BRANCH   1   2
ATOM      2  C   UNL     1      44.677 -46.536 162.905  1.00  0.00     0.000 C 
BRANCH   2   3
ATOM      3  C   UNL     1      44.650 -47.986 162.406  1.00  0.00     0.000 C 
BRANCH   3   4
ATOM      4  C   UNL     1      45.270 -48.935 163.443  1.00  0.00    -0.000 C 
BRANCH   4   5
ATOM      5  C   UNL     1      44.223 -49.577 164.372  1.00  0.00    -0.000 C 
BRANCH   5   6
ATOM      6  C   UNL     1      43.585 -48.618 165.394  1.00  0.00    -0.000 C 
BRANCH   6   7
ATOM      7  C   UNL     1      42.101 -48.343 165.110  1.00  0.00    -0.000 C 
BRANCH   7   8
ATOM      8  C   UNL     1      41.543 -49.335 164.083  1.00  0.00    -0.000 C 
BRANCH   8   9
ATOM      9  C   UNL     1      41.224 -48.630 162.755  1.00  0.00    -0.000 C 
BRANCH   9  10
ATOM     10  C   UNL     1      39.709 -48.581 162.468  1.00  0.00    -0.000 C 
BRANCH  10  11
ATOM     11  C   UNL     1      39.291 -47.398 161.579  1.00  0.00    -0.003 C 
ATOM     12  C   UNL     1      40.405 -46.371 161.390  1.00  0.00     0.004 C 
ENDBRANCH  10  11
ENDBRANCH   9  10
ENDBRANCH   8   9
ENDBRANCH   7   8
ENDBRANCH   6   7
ENDBRANCH   5   6
ENDBRANCH   4   5
ENDBRANCH   3   4
ENDBRANCH   2   3
ENDBRANCH   1   2
BRANCH   1  13
ATOM     13  C   UNL     1      46.104 -46.030 165.020  1.00  0.00     0.000 C 
BRANCH  13  14
ATOM     14  C   UNL     1      47.506 -45.783 165.605  1.00  0.00     0.000 C 
BRANCH  14  15
ATOM     15  C   UNL     1      48.631 -46.324 164.712  1.00  0.00     0.000 C 
BRANCH  15  16
ATOM     16  C   UNL     1      48.757 -47.849 164.852  1.00  0.00     0.000 C 
BRANCH  16  17
ATOM     17  C   UNL     1      50.073 -48.274 165.525  1.00  0.00     0.000 C 
BRANCH  17  18
ATOM     18  C   UNL     1      51.136 -47.161 165.501  1.00  0.00     0.000 C 
BRANCH  18  19
ATOM     19  C   UNL     1      52.575 -47.708 165.488  1.00  0.00     0.000 C 
BRANCH  19  20
ATOM     20  C   UNL     1      53.541 -47.040 166.488  1.00  0.00     0.006 C 
BRANCH  20  21
ATOM     21  C   UNL     1      54.570 -46.097 165.845  1.00  0.00     0.053 C 
BRANCH  21  22
ATOM     22  C   UNL     1      54.158 -44.661 165.954  1.00  0.00     0.041 C 
ATOM     23  O   UNL     1      54.419 -44.006 166.997  1.00  0.00    -0.550 OA
ATOM     24  O   UNL     1      53.515 -44.039 164.892  1.00  0.00    -0.550 OA
ENDBRANCH  21  22
ENDBRANCH  20  21
ENDBRANCH  19  20
ENDBRANCH  18  19
ENDBRANCH  17  18
ENDBRANCH  16  17
ENDBRANCH  15  16
ENDBRANCH  14  15
ENDBRANCH  13  14
ENDBRANCH   1  13
TORSDOF 20
ENDMDL
MODEL 3
REMARK VINA RESULT:    -5.863      3.644      6.938
REMARK INTER + INTRA:         -14.914
REMARK INTER:                 -13.221
REMARK INTRA:                  -1.693
REMARK UNBOUND:                -2.197
REMARK SMILES CCCCCCCCCCCCCCCCCCCCCC(=O)[O-]
REMARK SMILES IDX 12 1 11 2 10 3 9 4 8 5 7 6 6 7 5 8 4 9 3 10 2 11 1 12 13 13
REMARK SMILES IDX 14 14 15 15 16 16 17 17 18 18 19 19 20 20 21 21 22 22 23 23
REMARK SMILES IDX 24 24
REMARK H PARENT
REMARK Flexibility Score: inf
ROOT
ATOM      1  C   UNL     1      42.113 -48.281 165.444  1.00  0.00     0.000 C 
ENDROOT
BRANCH   1   2
ATOM      2  C   UNL     1      41.192 -49.209 164.630  1.00  0.00     0.000 C 
BRANCH   2   3
ATOM      3  C   UNL     1      40.795 -48.612 163.273  1.00  0.00     0.000 C 
BRANCH   3   4
ATOM      4  C   UNL     1      39.435 -49.156 162.811  1.00  0.00    -0.000 C 
BRANCH   4   5
ATOM      5  C   UNL     1      38.791 -48.302 161.704  1.00  0.00    -0.000 C 
BRANCH   5   6
ATOM      6  C   UNL     1      37.334 -48.668 161.364  1.00  0.00    -0.000 C 
BRANCH   6   7
ATOM      7  C   UNL     1      36.525 -49.104 162.595  1.00  0.00    -0.000 C 
BRANCH   7   8
ATOM      8  C   UNL     1      35.213 -49.781 162.181  1.00  0.00    -0.000 C 
BRANCH   8   9
ATOM      9  C   UNL     1      35.456 -51.240 161.763  1.00  0.00    -0.000 C 
BRANCH   9  10
ATOM     10  C   UNL     1      36.429 -51.966 162.716  1.00  0.00    -0.000 C 
BRANCH  10  11
ATOM     11  C   UNL     1      35.721 -52.779 163.812  1.00  0.00    -0.003 C 
ATOM     12  C   UNL     1      35.836 -54.288 163.602  1.00  0.00     0.004 C 
ENDBRANCH  10  11
ENDBRANCH   9  10
ENDBRANCH   8   9
ENDBRANCH   7   8
ENDBRANCH   6   7
ENDBRANCH   5   6
ENDBRANCH   4   5
ENDBRANCH   3   4
ENDBRANCH   2   3
ENDBRANCH   1   2
BRANCH   1  13
ATOM     13  C   UNL     1      43.585 -48.733 165.530  1.00  0.00     0.000 C 
BRANCH  13  14
ATOM     14  C   UNL     1      44.100 -49.519 164.311  1.00  0.00     0.000 C 
BRANCH  14  15
ATOM     15  C   UNL     1      45.062 -48.702 163.436  1.00  0.00     0.000 C 
BRANCH  15  16
ATOM     16  C   UNL     1      44.444 -47.345 163.062  1.00  0.00     0.000 C 
BRANCH  16  17
ATOM     17  C   UNL     1      45.372 -46.164 163.387  1.00  0.00     0.000 C 
BRANCH  17  18
ATOM     18  C   UNL     1      45.443 -45.865 164.896  1.00  0.00     0.000 C 
BRANCH  18  19
ATOM     19  C   UNL     1      46.874 -45.958 165.458  1.00  0.00     0.000 C 
BRANCH  19  20
ATOM     20  C   UNL     1      47.930 -46.511 164.478  1.00  0.00     0.006 C 
BRANCH  20  21
ATOM     21  C   UNL     1      49.071 -47.291 165.148  1.00  0.00     0.053 C 
BRANCH  21  22
ATOM     22  C   UNL     1      48.946 -48.767 164.926  1.00  0.00     0.041 C 
ATOM     23  O   UNL     1      49.203 -49.571 165.861  1.00  0.00    -0.550 OA
ATOM     24  O   UNL     1      48.516 -49.253 163.699  1.00  0.00    -0.550 OA
ENDBRANCH  21  22
ENDBRANCH  20  21
ENDBRANCH  19  20
ENDBRANCH  18  19
ENDBRANCH  17  18
ENDBRANCH  16  17
ENDBRANCH  15  16
ENDBRANCH  14  15
ENDBRANCH  13  14
ENDBRANCH   1  13
TORSDOF 20
ENDMDL
MODEL 4
REMARK VINA RESULT:    -5.860      1.141      2.199
REMARK INTER + INTRA:         -14.909
REMARK INTER:                 -13.150
REMARK INTRA:                  -1.759
REMARK UNBOUND:                -2.197
REMARK SMILES CCCCCCCCCCCCCCCCCCCCCC(=O)[O-]
REMARK SMILES IDX 12 1 11 2 10 3 9 4 8 5 7 6 6 7 5 8 4 9 3 10 2 11 1 12 13 13
REMARK SMILES IDX 14 14 15 15 16 16 17 17 18 18 19 19 20 20 21 21 22 22 23 23
REMARK SMILES IDX 24 24
REMARK H PARENT
REMARK Flexibility Score: inf
ROOT
ATOM      1  C   UNL     1      49.632 -46.282 164.811  1.00  0.00     0.000 C 
ENDROOT
BRANCH   1   2
ATOM      2  C   UNL     1      48.140 -46.466 164.481  1.00  0.00     0.000 C 
BRANCH   2   3
ATOM      3  C   UNL     1      47.216 -45.814 165.518  1.00  0.00     0.000 C 
BRANCH   3   4
ATOM      4  C   UNL     1      45.741 -46.005 165.137  1.00  0.00    -0.000 C 
BRANCH   4   5
ATOM      5  C   UNL     1      45.529 -46.178 163.621  1.00  0.00    -0.000 C 
BRANCH   5   6
ATOM      6  C   UNL     1      44.825 -47.483 163.207  1.00  0.00    -0.000 C 
BRANCH   6   7
ATOM      7  C   UNL     1      45.240 -48.685 164.068  1.00  0.00    -0.000 C 
BRANCH   7   8
ATOM      8  C   UNL     1      44.012 -49.405 164.638  1.00  0.00    -0.000 C 
BRANCH   8   9
ATOM      9  C   UNL     1      43.176 -48.456 165.513  1.00  0.00    -0.000 C 
BRANCH   9  10
ATOM     10  C   UNL     1      41.669 -48.544 165.193  1.00  0.00    -0.000 C 
BRANCH  10  11
ATOM     11  C   UNL     1      41.369 -49.153 163.813  1.00  0.00    -0.003 C 
ATOM     12  C   UNL     1      41.143 -48.098 162.732  1.00  0.00     0.004 C 
ENDBRANCH  10  11
ENDBRANCH   9  10
ENDBRANCH   8   9
ENDBRANCH   7   8
ENDBRANCH   6   7
ENDBRANCH   5   6
ENDBRANCH   4   5
ENDBRANCH   3   4
ENDBRANCH   2   3
ENDBRANCH   1   2
BRANCH   1  13
ATOM     13  C   UNL     1      50.383 -47.576 165.187  1.00  0.00     0.000 C 
BRANCH  13  14
ATOM     14  C   UNL     1      51.878 -47.395 165.508  1.00  0.00     0.000 C 
BRANCH  14  15
ATOM     15  C   UNL     1      52.165 -46.120 166.314  1.00  0.00     0.000 C 
BRANCH  15  16
ATOM     16  C   UNL     1      53.345 -45.343 165.710  1.00  0.00     0.000 C 
BRANCH  16  17
ATOM     17  C   UNL     1      54.615 -45.432 166.573  1.00  0.00     0.000 C 
BRANCH  17  18
ATOM     18  C   UNL     1      55.028 -46.884 166.870  1.00  0.00     0.000 C 
BRANCH  18  19
ATOM     19  C   UNL     1      54.932 -47.241 168.365  1.00  0.00     0.000 C 
BRANCH  19  20
ATOM     20  C   UNL     1      54.636 -48.724 168.669  1.00  0.00     0.006 C 
BRANCH  20  21
ATOM     21  C   UNL     1      54.085 -49.520 167.476  1.00  0.00     0.053 C 
BRANCH  21  22
ATOM     22  C   UNL     1      54.190 -50.998 167.692  1.00  0.00     0.041 C 
ATOM     23  O   UNL     1      54.672 -51.736 166.793  1.00  0.00    -0.550 OA
ATOM     24  O   UNL     1      53.787 -51.556 168.898  1.00  0.00    -0.550 OA
ENDBRANCH  21  22
ENDBRANCH  20  21
ENDBRANCH  19  20
ENDBRANCH  18  19
ENDBRANCH  17  18
ENDBRANCH  16  17
ENDBRANCH  15  16
ENDBRANCH  14  15
ENDBRANCH  13  14
ENDBRANCH   1  13
TORSDOF 20
ENDMDL
MODEL 5
REMARK VINA RESULT:    -5.825      3.358      4.513
REMARK INTER + INTRA:         -14.834
REMARK INTER:                 -12.992
REMARK INTRA:                  -1.842
REMARK UNBOUND:                -2.197
REMARK SMILES CCCCCCCCCCCCCCCCCCCCCC(=O)[O-]
REMARK SMILES IDX 12 1 11 2 10 3 9 4 8 5 7 6 6 7 5 8 4 9 3 10 2 11 1 12 13 13
REMARK SMILES IDX 14 14 15 15 16 16 17 17 18 18 19 19 20 20 21 21 22 22 23 23
REMARK SMILES IDX 24 24
REMARK H PARENT
REMARK Flexibility Score: inf
ROOT
ATOM      1  C   UNL     1      46.966 -46.989 164.487  1.00  0.00     0.000 C 
ENDROOT
BRANCH   1   2
ATOM      2  C   UNL     1      47.224 -48.501 164.346  1.00  0.00     0.000 C 
BRANCH   2   3
ATOM      3  C   UNL     1      46.823 -49.047 162.969  1.00  0.00     0.000 C 
BRANCH   3   4
ATOM      4  C   UNL     1      45.295 -49.073 162.813  1.00  0.00    -0.000 C 
BRANCH   4   5
ATOM      5  C   UNL     1      44.758 -47.916 161.951  1.00  0.00    -0.000 C 
BRANCH   5   6
ATOM      6  C   UNL     1      43.873 -48.344 160.765  1.00  0.00    -0.000 C 
BRANCH   6   7
ATOM      7  C   UNL     1      42.515 -47.628 160.746  1.00  0.00    -0.000 C 
BRANCH   7   8
ATOM      8  C   UNL     1      42.047 -47.291 162.167  1.00  0.00    -0.000 C 
BRANCH   8   9
ATOM      9  C   UNL     1      41.120 -48.388 162.714  1.00  0.00    -0.000 C 
BRANCH   9  10
ATOM     10  C   UNL     1      41.768 -49.177 163.871  1.00  0.00    -0.000 C 
BRANCH  10  11
ATOM     11  C   UNL     1      41.980 -48.338 165.142  1.00  0.00    -0.003 C 
ATOM     12  C   UNL     1      43.406 -48.423 165.682  1.00  0.00     0.004 C 
ENDBRANCH  10  11
ENDBRANCH   9  10
ENDBRANCH   8   9
ENDBRANCH   7   8
ENDBRANCH   6   7
ENDBRANCH   5   6
ENDBRANCH   4   5
ENDBRANCH   3   4
ENDBRANCH   2   3
ENDBRANCH   1   2
BRANCH   1  13
ATOM     13  C   UNL     1      48.127 -46.182 165.103  1.00  0.00     0.000 C 
BRANCH  13  14
ATOM     14  C   UNL     1      49.479 -46.327 164.380  1.00  0.00     0.000 C 
BRANCH  14  15
ATOM     15  C   UNL     1      50.672 -46.347 165.346  1.00  0.00     0.000 C 
BRANCH  15  16
ATOM     16  C   UNL     1      51.230 -47.770 165.500  1.00  0.00     0.000 C 
BRANCH  16  17
ATOM     17  C   UNL     1      52.765 -47.798 165.587  1.00  0.00     0.000 C 
BRANCH  17  18
ATOM     18  C   UNL     1      53.334 -46.614 166.389  1.00  0.00     0.000 C 
BRANCH  18  19
ATOM     19  C   UNL     1      54.771 -46.246 165.976  1.00  0.00     0.000 C 
BRANCH  19  20
ATOM     20  C   UNL     1      54.924 -44.878 165.278  1.00  0.00     0.006 C 
BRANCH  20  21
ATOM     21  C   UNL     1      53.604 -44.120 165.068  1.00  0.00     0.053 C 
BRANCH  21  22
ATOM     22  C   UNL     1      53.807 -42.636 165.054  1.00  0.00     0.041 C 
ATOM     23  O   UNL     1      53.823 -41.990 166.134  1.00  0.00    -0.550 OA
ATOM     24  O   UNL     1      54.009 -41.972 163.851  1.00  0.00    -0.550 OA
ENDBRANCH  21  22
ENDBRANCH  20  21
ENDBRANCH  19  20
ENDBRANCH  18  19
ENDBRANCH  17  18
ENDBRANCH  16  17
ENDBRANCH  15  16
ENDBRANCH  14  15
ENDBRANCH  13  14
ENDBRANCH   1  13
TORSDOF 20
ENDMDL
MODEL 6
REMARK VINA RESULT:    -5.769      5.099     10.561
REMARK INTER + INTRA:         -14.712
REMARK INTER:                 -12.964
REMARK INTRA:                  -1.747
REMARK UNBOUND:                -2.197
REMARK SMILES CCCCCCCCCCCCCCCCCCCCCC(=O)[O-]
REMARK SMILES IDX 12 1 11 2 10 3 9 4 8 5 7 6 6 7 5 8 4 9 3 10 2 11 1 12 13 13
REMARK SMILES IDX 14 14 15 15 16 16 17 17 18 18 19 19 20 20 21 21 22 22 23 23
REMARK SMILES IDX 24 24
REMARK H PARENT
REMARK Flexibility Score: inf
ROOT
ATOM      1  C   UNL     1      47.575 -45.762 165.514  1.00  0.00     0.000 C 
ENDROOT
BRANCH   1   2
ATOM      2  C   UNL     1      48.711 -46.412 164.703  1.00  0.00     0.000 C 
BRANCH   2   3
ATOM      3  C   UNL     1      48.776 -47.934 164.883  1.00  0.00     0.000 C 
BRANCH   3   4
ATOM      4  C   UNL     1      50.111 -48.356 165.514  1.00  0.00    -0.000 C 
BRANCH   4   5
ATOM      5  C   UNL     1      51.195 -47.267 165.409  1.00  0.00    -0.000 C 
BRANCH   5   6
ATOM      6  C   UNL     1      52.444 -47.507 166.278  1.00  0.00    -0.000 C 
BRANCH   6   7
ATOM      7  C   UNL     1      53.726 -47.675 165.449  1.00  0.00    -0.000 C 
BRANCH   7   8
ATOM      8  C   UNL     1      54.839 -46.753 165.960  1.00  0.00    -0.000 C 
BRANCH   8   9
ATOM      9  C   UNL     1      54.315 -45.818 167.062  1.00  0.00    -0.000 C 
BRANCH   9  10
ATOM     10  C   UNL     1      54.391 -44.333 166.652  1.00  0.00    -0.000 C 
BRANCH  10  11
ATOM     11  C   UNL     1      54.147 -44.097 165.152  1.00  0.00    -0.003 C 
ATOM     12  C   UNL     1      53.641 -42.690 164.844  1.00  0.00     0.004 C 
ENDBRANCH  10  11
ENDBRANCH   9  10
ENDBRANCH   8   9
ENDBRANCH   7   8
ENDBRANCH   6   7
ENDBRANCH   5   6
ENDBRANCH   4   5
ENDBRANCH   3   4
ENDBRANCH   2   3
ENDBRANCH   1   2
BRANCH   1  13
ATOM     13  C   UNL     1      46.151 -46.200 165.112  1.00  0.00     0.000 C 
BRANCH  13  14
ATOM     14  C   UNL     1      45.838 -46.105 163.608  1.00  0.00     0.000 C 
BRANCH  14  15
ATOM     15  C   UNL     1      44.675 -47.013 163.183  1.00  0.00     0.000 C 
BRANCH  15  16
ATOM     16  C   UNL     1      44.993 -48.487 163.478  1.00  0.00     0.000 C 
BRANCH  16  17
ATOM     17  C   UNL     1      43.961 -49.138 164.414  1.00  0.00     0.000 C 
BRANCH  17  18
ATOM     18  C   UNL     1      42.778 -48.206 164.732  1.00  0.00     0.000 C 
BRANCH  18  19
ATOM     19  C   UNL     1      41.413 -48.907 164.611  1.00  0.00     0.000 C 
BRANCH  19  20
ATOM     20  C   UNL     1      40.833 -48.975 163.183  1.00  0.00     0.006 C 
BRANCH  20  21
ATOM     21  C   UNL     1      41.356 -47.888 162.232  1.00  0.00     0.053 C 
BRANCH  21  22
ATOM     22  C   UNL     1      40.246 -47.053 161.672  1.00  0.00     0.041 C 
ATOM     23  O   UNL     1      39.069 -47.501 161.647  1.00  0.00    -0.550 OA
ATOM     24  O   UNL     1      40.504 -45.770 161.208  1.00  0.00    -0.550 OA
ENDBRANCH  21  22
ENDBRANCH  20  21
ENDBRANCH  19  20
ENDBRANCH  18  19
ENDBRANCH  17  18
ENDBRANCH  16  17
ENDBRANCH  15  16
ENDBRANCH  14  15
ENDBRANCH  13  14
ENDBRANCH   1  13
TORSDOF 20
ENDMDL
MODEL 7
REMARK VINA RESULT:    -5.735      2.151      3.323
REMARK INTER + INTRA:         -14.637
REMARK INTER:                 -13.552
REMARK INTRA:                  -1.085
REMARK UNBOUND:                -2.197
REMARK SMILES CCCCCCCCCCCCCCCCCCCCCC(=O)[O-]
REMARK SMILES IDX 12 1 11 2 10 3 9 4 8 5 7 6 6 7 5 8 4 9 3 10 2 11 1 12 13 13
REMARK SMILES IDX 14 14 15 15 16 16 17 17 18 18 19 19 20 20 21 21 22 22 23 23
REMARK SMILES IDX 24 24
REMARK H PARENT
REMARK Flexibility Score: inf
ROOT
ATOM      1  C   UNL     1      46.263 -47.219 164.471  1.00  0.00     0.000 C 
ENDROOT
BRANCH   1   2
ATOM      2  C   UNL     1      45.615 -46.869 163.119  1.00  0.00     0.000 C 
BRANCH   2   3
ATOM      3  C   UNL     1      45.242 -48.111 162.299  1.00  0.00     0.000 C 
BRANCH   3   4
ATOM      4  C   UNL     1      43.875 -47.931 161.621  1.00  0.00    -0.000 C 
BRANCH   4   5
ATOM      5  C   UNL     1      42.808 -47.348 162.566  1.00  0.00    -0.000 C 
BRANCH   5   6
ATOM      6  C   UNL     1      41.414 -47.991 162.448  1.00  0.00    -0.000 C 
BRANCH   6   7
ATOM      7  C   UNL     1      40.466 -47.197 161.537  1.00  0.00    -0.000 C 
BRANCH   7   8
ATOM      8  C   UNL     1      39.067 -47.825 161.516  1.00  0.00    -0.000 C 
BRANCH   8   9
ATOM      9  C   UNL     1      38.989 -49.025 162.473  1.00  0.00    -0.000 C 
BRANCH   9  10
ATOM     10  C   UNL     1      37.603 -49.704 162.447  1.00  0.00    -0.000 C 
BRANCH  10  11
ATOM     11  C   UNL     1      36.478 -48.782 161.947  1.00  0.00    -0.003 C 
ATOM     12  C   UNL     1      35.238 -48.818 162.837  1.00  0.00     0.004 C 
ENDBRANCH  10  11
ENDBRANCH   9  10
ENDBRANCH   8   9
ENDBRANCH   7   8
ENDBRANCH   6   7
ENDBRANCH   5   6
ENDBRANCH   4   5
ENDBRANCH   3   4
ENDBRANCH   2   3
ENDBRANCH   1   2
BRANCH   1  13
ATOM     13  C   UNL     1      47.217 -46.146 165.036  1.00  0.00     0.000 C 
BRANCH  13  14
ATOM     14  C   UNL     1      48.715 -46.422 164.814  1.00  0.00     0.000 C 
BRANCH  14  15
ATOM     15  C   UNL     1      49.094 -47.891 165.051  1.00  0.00     0.000 C 
BRANCH  15  16
ATOM     16  C   UNL     1      50.571 -48.019 165.454  1.00  0.00     0.000 C 
BRANCH  16  17
ATOM     17  C   UNL     1      51.272 -46.656 165.574  1.00  0.00     0.000 C 
BRANCH  17  18
ATOM     18  C   UNL     1      52.736 -46.782 166.032  1.00  0.00     0.000 C 
BRANCH  18  19
ATOM     19  C   UNL     1      53.286 -48.213 165.894  1.00  0.00     0.000 C 
BRANCH  19  20
ATOM     20  C   UNL     1      54.531 -48.524 166.751  1.00  0.00     0.006 C 
BRANCH  20  21
ATOM     21  C   UNL     1      54.219 -49.141 168.124  1.00  0.00     0.053 C 
BRANCH  21  22
ATOM     22  C   UNL     1      54.121 -50.634 168.057  1.00  0.00     0.041 C 
ATOM     23  O   UNL     1      53.722 -51.287 169.057  1.00  0.00    -0.550 OA
ATOM     24  O   UNL     1      54.438 -51.301 166.881  1.00  0.00    -0.550 OA
ENDBRANCH  21  22
ENDBRANCH  20  21
ENDBRANCH  19  20
ENDBRANCH  18  19
ENDBRANCH  17  18
ENDBRANCH  16  17
ENDBRANCH  15  16
ENDBRANCH  14  15
ENDBRANCH  13  14
ENDBRANCH   1  13
TORSDOF 20
ENDMDL
MODEL 8
REMARK VINA RESULT:    -5.708      6.091     11.683
REMARK INTER + INTRA:         -14.579
REMARK INTER:                 -13.477
REMARK INTRA:                  -1.102
REMARK UNBOUND:                -2.197
REMARK SMILES CCCCCCCCCCCCCCCCCCCCCC(=O)[O-]
REMARK SMILES IDX 12 1 11 2 10 3 9 4 8 5 7 6 6 7 5 8 4 9 3 10 2 11 1 12 13 13
REMARK SMILES IDX 14 14 15 15 16 16 17 17 18 18 19 19 20 20 21 21 22 22 23 23
REMARK SMILES IDX 24 24
REMARK H PARENT
REMARK Flexibility Score: inf
ROOT
ATOM      1  C   UNL     1      46.075 -46.551 164.475  1.00  0.00     0.000 C 
ENDROOT
BRANCH   1   2
ATOM      2  C   UNL     1      47.440 -46.298 165.141  1.00  0.00     0.000 C 
BRANCH   2   3
ATOM      3  C   UNL     1      48.581 -47.079 164.474  1.00  0.00     0.000 C 
BRANCH   3   4
ATOM      4  C   UNL     1      49.927 -46.761 165.141  1.00  0.00    -0.000 C 
BRANCH   4   5
ATOM      5  C   UNL     1      50.735 -48.023 165.497  1.00  0.00    -0.000 C 
BRANCH   5   6
ATOM      6  C   UNL     1      52.232 -47.782 165.767  1.00  0.00    -0.000 C 
BRANCH   6   7
ATOM      7  C   UNL     1      52.633 -46.305 165.637  1.00  0.00    -0.000 C 
BRANCH   7   8
ATOM      8  C   UNL     1      53.402 -45.831 166.876  1.00  0.00    -0.000 C 
BRANCH   8   9
ATOM      9  C   UNL     1      54.240 -44.583 166.557  1.00  0.00    -0.000 C 
BRANCH   9  10
ATOM     10  C   UNL     1      53.891 -43.981 165.180  1.00  0.00    -0.000 C 
BRANCH  10  11
ATOM     11  C   UNL     1      53.646 -42.463 165.218  1.00  0.00    -0.003 C 
ATOM     12  C   UNL     1      54.147 -41.747 163.966  1.00  0.00     0.004 C 
ENDBRANCH  10  11
ENDBRANCH   9  10
ENDBRANCH   8   9
ENDBRANCH   7   8
ENDBRANCH   6   7
ENDBRANCH   5   6
ENDBRANCH   4   5
ENDBRANCH   3   4
ENDBRANCH   2   3
ENDBRANCH   1   2
BRANCH   1  13
ATOM     13  C   UNL     1      45.677 -48.035 164.341  1.00  0.00     0.000 C 
BRANCH  13  14
ATOM     14  C   UNL     1      45.277 -48.479 162.923  1.00  0.00     0.000 C 
BRANCH  14  15
ATOM     15  C   UNL     1      44.595 -47.363 162.118  1.00  0.00     0.000 C 
BRANCH  15  16
ATOM     16  C   UNL     1      43.133 -47.723 161.810  1.00  0.00     0.000 C 
BRANCH  16  17
ATOM     17  C   UNL     1      42.370 -48.210 163.053  1.00  0.00     0.000 C 
BRANCH  17  18
ATOM     18  C   UNL     1      40.865 -48.391 162.790  1.00  0.00     0.000 C 
BRANCH  18  19
ATOM     19  C   UNL     1      40.319 -47.412 161.735  1.00  0.00     0.000 C 
BRANCH  19  20
ATOM     20  C   UNL     1      38.893 -47.718 161.230  1.00  0.00     0.006 C 
BRANCH  20  21
ATOM     21  C   UNL     1      38.124 -48.741 162.079  1.00  0.00     0.053 C 
BRANCH  21  22
ATOM     22  C   UNL     1      36.708 -48.901 161.615  1.00  0.00     0.041 C 
ATOM     23  O   UNL     1      36.444 -48.918 160.384  1.00  0.00    -0.550 OA
ATOM     24  O   UNL     1      35.686 -49.064 162.541  1.00  0.00    -0.550 OA
ENDBRANCH  21  22
ENDBRANCH  20  21
ENDBRANCH  19  20
ENDBRANCH  18  19
ENDBRANCH  17  18
ENDBRANCH  16  17
ENDBRANCH  15  16
ENDBRANCH  14  15
ENDBRANCH  13  14
ENDBRANCH   1  13
TORSDOF 20
ENDMDL
MODEL 9
REMARK VINA RESULT:    -5.692      6.240     11.986
REMARK INTER + INTRA:         -14.544
REMARK INTER:                 -13.349
REMARK INTRA:                  -1.195
REMARK UNBOUND:                -2.197
REMARK SMILES CCCCCCCCCCCCCCCCCCCCCC(=O)[O-]
REMARK SMILES IDX 12 1 11 2 10 3 9 4 8 5 7 6 6 7 5 8 4 9 3 10 2 11 1 12 13 13
REMARK SMILES IDX 14 14 15 15 16 16 17 17 18 18 19 19 20 20 21 21 22 22 23 23
REMARK SMILES IDX 24 24
REMARK H PARENT
REMARK Flexibility Score: inf
ROOT
ATOM      1  C   UNL     1      45.346 -48.998 163.367  1.00  0.00     0.000 C 
ENDROOT
BRANCH   1   2
ATOM      2  C   UNL     1      46.830 -48.759 163.699  1.00  0.00     0.000 C 
BRANCH   2   3
ATOM      3  C   UNL     1      47.064 -47.452 164.469  1.00  0.00     0.000 C 
BRANCH   3   4
ATOM      4  C   UNL     1      48.565 -47.156 164.603  1.00  0.00    -0.000 C 
BRANCH   4   5
ATOM      5  C   UNL     1      49.380 -48.376 165.071  1.00  0.00    -0.000 C 
BRANCH   5   6
ATOM      6  C   UNL     1      50.793 -48.056 165.591  1.00  0.00    -0.000 C 
BRANCH   6   7
ATOM      7  C   UNL     1      51.184 -46.584 165.389  1.00  0.00    -0.000 C 
BRANCH   7   8
ATOM      8  C   UNL     1      52.568 -46.294 165.983  1.00  0.00    -0.000 C 
BRANCH   8   9
ATOM      9  C   UNL     1      53.364 -47.594 166.179  1.00  0.00    -0.000 C 
BRANCH   9  10
ATOM     10  C   UNL     1      54.290 -47.531 167.412  1.00  0.00    -0.000 C 
BRANCH  10  11
ATOM     11  C   UNL     1      54.579 -48.908 168.033  1.00  0.00    -0.003 C 
ATOM     12  C   UNL     1      53.693 -50.015 167.467  1.00  0.00     0.004 C 
ENDBRANCH  10  11
ENDBRANCH   9  10
ENDBRANCH   8   9
ENDBRANCH   7   8
ENDBRANCH   6   7
ENDBRANCH   5   6
ENDBRANCH   4   5
ENDBRANCH   3   4
ENDBRANCH   2   3
ENDBRANCH   1   2
BRANCH   1  13
ATOM     13  C   UNL     1      44.356 -48.050 164.074  1.00  0.00     0.000 C 
BRANCH  13  14
ATOM     14  C   UNL     1      43.707 -48.615 165.350  1.00  0.00     0.000 C 
BRANCH  14  15
ATOM     15  C   UNL     1      42.201 -48.329 165.431  1.00  0.00     0.000 C 
BRANCH  15  16
ATOM     16  C   UNL     1      41.562 -48.350 164.033  1.00  0.00     0.000 C 
BRANCH  16  17
ATOM     17  C   UNL     1      41.208 -49.772 163.567  1.00  0.00     0.000 C 
BRANCH  17  18
ATOM     18  C   UNL     1      39.730 -49.909 163.157  1.00  0.00     0.000 C 
BRANCH  18  19
ATOM     19  C   UNL     1      39.221 -48.707 162.342  1.00  0.00     0.000 C 
BRANCH  19  20
ATOM     20  C   UNL     1      37.740 -48.783 161.914  1.00  0.00     0.006 C 
BRANCH  20  21
ATOM     21  C   UNL     1      37.469 -48.308 160.478  1.00  0.00     0.053 C 
BRANCH  21  22
ATOM     22  C   UNL     1      36.315 -47.355 160.414  1.00  0.00     0.041 C 
ATOM     23  O   UNL     1      35.271 -47.580 161.081  1.00  0.00    -0.550 OA
ATOM     24  O   UNL     1      36.404 -46.204 159.641  1.00  0.00    -0.550 OA
ENDBRANCH  21  22
ENDBRANCH  20  21
ENDBRANCH  19  20
ENDBRANCH  18  19
ENDBRANCH  17  18
ENDBRANCH  16  17
ENDBRANCH  15  16
ENDBRANCH  14  15
ENDBRANCH  13  14
ENDBRANCH   1  13
TORSDOF 20
ENDMDL
