MODEL 1
REMARK VINA RESULT:    20.873      0.000      0.000
REMARK INTER + INTRA:          28.654
REMARK INTER:                  28.194
REMARK INTRA:                   0.460
REMARK UNBOUND:                 0.460
REMARK SMILES O=c1c(-c2ccc(O)cc2)coc2c([C@@H]3O[C@@H](CO)[C@@H](O)[C@H](O)[C@@H]3O)c(O)ccc12
REMARK SMILES IDX 3 1 11 2 12 3 13 4 30 5 2 6 1 7 29 8 28 9 26 10 14 11 4 12
REMARK SMILES IDX 5 13 6 14 7 15 10 16 9 17 8 18 15 20 24 21 16 22 22 23 17 24
REMARK SMILES IDX 20 25 25 26 23 28 18 30 19 31 21 33 27 35
REMARK H PARENT 8 19 25 27 23 29 19 32 21 34 27 36
REMARK Flexibility Score: inf
ROOT
ATOM      1  C   UNL     1      35.276   2.415  20.571  1.00  0.00     0.065 A 
ATOM      2  C   UNL     1      34.266   1.996  21.448  1.00  0.00     0.208 A 
ATOM      3  O   UNL     1      34.098   0.710  21.730  1.00  0.00    -0.463 OA
ATOM      4  C   UNL     1      34.856  -0.255  21.215  1.00  0.00     0.147 A 
ATOM      5  C   UNL     1      35.900   0.080  20.320  1.00  0.00     0.066 A 
ATOM      6  C   UNL     1      36.100   1.433  19.992  1.00  0.00     0.200 A 
ATOM      7  O   UNL     1      37.000   1.763  19.171  1.00  0.00    -0.288 OA
ATOM      8  C   UNL     1      36.708  -0.936  19.786  1.00  0.00     0.020 A 
ATOM      9  C   UNL     1      36.495  -2.264  20.146  1.00  0.00     0.047 A 
ATOM     10  C   UNL     1      35.469  -2.607  21.035  1.00  0.00     0.125 A 
ATOM     11  C   UNL     1      34.620  -1.608  21.562  1.00  0.00     0.069 A 
ENDROOT
BRANCH   1  12
ATOM     12  C   UNL     1      35.447   3.860  20.274  1.00  0.00    -0.011 A 
ATOM     13  C   UNL     1      36.709   4.471  20.388  1.00  0.00     0.013 A 
ATOM     14  C   UNL     1      36.861   5.835  20.117  1.00  0.00     0.047 A 
ATOM     15  C   UNL     1      35.756   6.604  19.735  1.00  0.00     0.115 A 
ATOM     16  C   UNL     1      34.340   4.642  19.897  1.00  0.00     0.013 A 
ATOM     17  C   UNL     1      34.497   6.004  19.627  1.00  0.00     0.047 A 
BRANCH  15  18
ATOM     18  O   UNL     1      35.897   7.963  19.462  1.00  0.00    -0.508 OA
ATOM     19  H   UNL     1      36.626   8.518  19.894  1.00  0.00     0.293 HD
ENDBRANCH  15  18
ENDBRANCH   1  12
BRANCH  11  20
ATOM     20  C   UNL     1      33.520  -1.993  22.545  1.00  0.00     0.188 C 
ATOM     21  C   UNL     1      34.135  -2.414  23.899  1.00  0.00     0.179 C 
ATOM     22  O   UNL     1      32.600  -0.918  22.695  1.00  0.00    -0.362 OA
ATOM     23  C   UNL     1      33.002  -2.829  24.853  1.00  0.00     0.177 C 
ATOM     24  C   UNL     1      31.491  -1.245  23.527  1.00  0.00     0.176 C 
ATOM     25  C   UNL     1      31.944  -1.706  24.939  1.00  0.00     0.177 C 
BRANCH  21  26
ATOM     26  O   UNL     1      34.871  -1.346  24.444  1.00  0.00    -0.387 OA
ATOM     27  H   UNL     1      35.321  -1.688  25.259  1.00  0.00     0.211 HD
ENDBRANCH  21  26
BRANCH  23  28
ATOM     28  O   UNL     1      33.503  -3.168  26.124  1.00  0.00    -0.387 OA
ATOM     29  H   UNL     1      32.755  -3.533  26.664  1.00  0.00     0.211 HD
ENDBRANCH  23  28
BRANCH  24  30
ATOM     30  C   UNL     1      30.492  -2.196  22.831  1.00  0.00     0.191 C 
BRANCH  30  31
ATOM     31  O   UNL     1      30.466  -1.954  21.450  1.00  0.00    -0.394 OA
ATOM     32  H   UNL     1      29.784  -1.249  21.295  1.00  0.00     0.210 HD
ENDBRANCH  30  31
ENDBRANCH  24  30
BRANCH  25  33
ATOM     33  O   UNL     1      30.850  -2.076  25.743  1.00  0.00    -0.388 OA
ATOM     34  H   UNL     1      30.713  -1.366  26.424  1.00  0.00     0.211 HD
ENDBRANCH  25  33
ENDBRANCH  11  20
BRANCH  10  35
ATOM     35  O   UNL     1      35.296  -3.943  21.397  1.00  0.00    -0.507 OA
ATOM     36  H   UNL     1      34.600  -4.226  22.078  1.00  0.00     0.293 HD
ENDBRANCH  10  35
TORSDOF 9
ENDMDL
MODEL 2
REMARK VINA RESULT:    23.072      0.938      2.153
REMARK INTER + INTRA:          31.625
REMARK INTER:                  31.763
REMARK INTRA:                  -0.138
REMARK UNBOUND:                 0.460
REMARK SMILES O=c1c(-c2ccc(O)cc2)coc2c([C@@H]3O[C@@H](CO)[C@@H](O)[C@H](O)[C@@H]3O)c(O)ccc12
REMARK SMILES IDX 3 1 11 2 12 3 13 4 30 5 2 6 1 7 29 8 28 9 26 10 14 11 4 12
REMARK SMILES IDX 5 13 6 14 7 15 10 16 9 17 8 18 15 20 24 21 16 22 22 23 17 24
REMARK SMILES IDX 20 25 25 26 23 28 18 30 19 31 21 33 27 35
REMARK H PARENT 8 19 25 27 23 29 19 32 21 34 27 36
REMARK Flexibility Score: inf
ROOT
ATOM      1  C   UNL     1      35.420   2.653  20.560  1.00  0.00     0.065 A 
ATOM      2  C   UNL     1      34.648   2.355  21.691  1.00  0.00     0.208 A 
ATOM      3  O   UNL     1      34.490   1.101  22.098  1.00  0.00    -0.463 OA
ATOM      4  C   UNL     1      35.040   0.059  21.479  1.00  0.00     0.147 A 
ATOM      5  C   UNL     1      35.837   0.270  20.329  1.00  0.00     0.066 A 
ATOM      6  C   UNL     1      36.016   1.585  19.865  1.00  0.00     0.200 A 
ATOM      7  O   UNL     1      36.692   1.806  18.822  1.00  0.00    -0.288 OA
ATOM      8  C   UNL     1      36.427  -0.828  19.684  1.00  0.00     0.020 A 
ATOM      9  C   UNL     1      36.244  -2.116  20.181  1.00  0.00     0.047 A 
ATOM     10  C   UNL     1      35.462  -2.336  21.322  1.00  0.00     0.125 A 
ATOM     11  C   UNL     1      34.829  -1.253  21.972  1.00  0.00     0.069 A 
ENDROOT
BRANCH   1  12
ATOM     12  C   UNL     1      35.585   4.063  20.127  1.00  0.00    -0.011 A 
ATOM     13  C   UNL     1      36.866   4.629  19.997  1.00  0.00     0.013 A 
ATOM     14  C   UNL     1      37.015   5.961  19.599  1.00  0.00     0.047 A 
ATOM     15  C   UNL     1      35.886   6.745  19.330  1.00  0.00     0.115 A 
ATOM     16  C   UNL     1      34.457   4.861  19.863  1.00  0.00     0.013 A 
ATOM     17  C   UNL     1      34.609   6.191  19.464  1.00  0.00     0.047 A 
BRANCH  15  18
ATOM     18  O   UNL     1      36.022   8.073  18.931  1.00  0.00    -0.508 OA
ATOM     19  H   UNL     1      35.633   8.406  18.056  1.00  0.00     0.293 HD
ENDBRANCH  15  18
ENDBRANCH   1  12
BRANCH  11  20
ATOM     20  C   UNL     1      33.999  -1.506  23.225  1.00  0.00     0.188 C 
ATOM     21  C   UNL     1      32.506  -1.225  22.944  1.00  0.00     0.179 C 
ATOM     22  O   UNL     1      34.208  -2.835  23.690  1.00  0.00    -0.362 OA
ATOM     23  C   UNL     1      31.703  -1.456  24.237  1.00  0.00     0.177 C 
ATOM     24  C   UNL     1      33.536  -3.108  24.915  1.00  0.00     0.176 C 
ATOM     25  C   UNL     1      32.008  -2.861  24.804  1.00  0.00     0.177 C 
BRANCH  21  26
ATOM     26  O   UNL     1      32.043  -2.072  21.920  1.00  0.00    -0.387 OA
ATOM     27  H   UNL     1      31.763  -2.923  22.349  1.00  0.00     0.211 HD
ENDBRANCH  21  26
BRANCH  23  28
ATOM     28  O   UNL     1      30.326  -1.271  24.022  1.00  0.00    -0.387 OA
ATOM     29  H   UNL     1      30.025  -1.933  23.348  1.00  0.00     0.211 HD
ENDBRANCH  23  28
BRANCH  24  30
ATOM     30  C   UNL     1      34.212  -2.423  26.124  1.00  0.00     0.191 C 
BRANCH  30  31
ATOM     31  O   UNL     1      35.596  -2.644  26.102  1.00  0.00    -0.394 OA
ATOM     32  H   UNL     1      35.856  -2.934  27.015  1.00  0.00     0.210 HD
ENDBRANCH  30  31
ENDBRANCH  24  30
BRANCH  25  33
ATOM     33  O   UNL     1      31.352  -3.085  26.029  1.00  0.00    -0.388 OA
ATOM     34  H   UNL     1      32.042  -3.265  26.720  1.00  0.00     0.211 HD
ENDBRANCH  25  33
ENDBRANCH  11  20
BRANCH  10  35
ATOM     35  O   UNL     1      35.318  -3.635  21.811  1.00  0.00    -0.507 OA
ATOM     36  H   UNL     1      34.408  -4.024  22.031  1.00  0.00     0.293 HD
ENDBRANCH  10  35
TORSDOF 9
ENDMDL
