MODEL 1
REMARK VINA RESULT:    -5.823      0.000      0.000
REMARK INTER + INTRA:         -11.642
REMARK INTER:                 -10.588
REMARK INTRA:                  -1.054
REMARK UNBOUND:                -1.054
REMARK SMILES CCCCCCCCCCCCCCCC(=O)[O-]
REMARK SMILES IDX 9 1 10 2 11 3 12 4 13 5 14 6 15 7 16 8 17 9 18 10 8 11 7 12
REMARK SMILES IDX 6 13 5 14 4 15 3 16 2 17 1 18
REMARK H PARENT
REMARK Flexibility Score: inf
ROOT
ATOM      1  C   UNL     1       7.386 -30.207  22.269  1.00  0.00     0.000 C 
ENDROOT
BRANCH   1   2
ATOM      2  C   UNL     1       7.178 -31.707  21.988  1.00  0.00     0.000 C 
BRANCH   2   3
ATOM      3  C   UNL     1       8.381 -32.429  21.346  1.00  0.00     0.000 C 
BRANCH   3   4
ATOM      4  C   UNL     1       9.320 -31.530  20.523  1.00  0.00     0.000 C 
BRANCH   4   5
ATOM      5  C   UNL     1      10.772 -31.568  21.022  1.00  0.00     0.000 C 
BRANCH   5   6
ATOM      6  C   UNL     1      11.140 -30.265  21.741  1.00  0.00     0.006 C 
BRANCH   6   7
ATOM      7  C   UNL     1      11.052 -30.432  23.261  1.00  0.00     0.053 C 
BRANCH   7   8
ATOM      8  C   UNL     1      12.364 -30.102  23.900  1.00  0.00     0.041 C 
ATOM      9  O   UNL     1      12.727 -30.701  24.946  1.00  0.00    -0.550 OA
ATOM     10  O   UNL     1      13.208 -29.168  23.314  1.00  0.00    -0.550 OA
ENDBRANCH   7   8
ENDBRANCH   6   7
ENDBRANCH   5   6
ENDBRANCH   4   5
ENDBRANCH   3   4
ENDBRANCH   2   3
ENDBRANCH   1   2
BRANCH   1  11
ATOM     11  C   UNL     1       7.124 -29.833  23.738  1.00  0.00     0.000 C 
BRANCH  11  12
ATOM     12  C   UNL     1       5.682 -30.138  24.175  1.00  0.00    -0.000 C 
BRANCH  12  13
ATOM     13  C   UNL     1       5.361 -29.603  25.579  1.00  0.00    -0.000 C 
BRANCH  13  14
ATOM     14  C   UNL     1       3.943 -29.011  25.628  1.00  0.00    -0.000 C 
BRANCH  14  15
ATOM     15  C   UNL     1       3.201 -29.143  24.289  1.00  0.00    -0.000 C 
BRANCH  15  16
ATOM     16  C   UNL     1       1.695 -29.399  24.469  1.00  0.00    -0.000 C 
BRANCH  16  17
ATOM     17  C   UNL     1       0.953 -29.521  23.129  1.00  0.00    -0.003 C 
ATOM     18  C   UNL     1       0.094 -30.781  23.043  1.00  0.00     0.004 C 
ENDBRANCH  16  17
ENDBRANCH  15  16
ENDBRANCH  14  15
ENDBRANCH  13  14
ENDBRANCH  12  13
ENDBRANCH  11  12
ENDBRANCH   1  11
TORSDOF 14
ENDMDL
MODEL 2
REMARK VINA RESULT:    -5.768      4.223      8.677
REMARK INTER + INTRA:         -11.543
REMARK INTER:                 -10.461
REMARK INTRA:                  -1.082
REMARK UNBOUND:                -1.054
REMARK SMILES CCCCCCCCCCCCCCCC(=O)[O-]
REMARK SMILES IDX 9 1 10 2 11 3 12 4 13 5 14 6 15 7 16 8 17 9 18 10 8 11 7 12
REMARK SMILES IDX 6 13 5 14 4 15 3 16 2 17 1 18
REMARK H PARENT
REMARK Flexibility Score: inf
ROOT
ATOM      1  C   UNL     1       7.717 -30.065  22.216  1.00  0.00     0.000 C 
ENDROOT
BRANCH   1   2
ATOM      2  C   UNL     1       7.499 -29.818  23.720  1.00  0.00     0.000 C 
BRANCH   2   3
ATOM      3  C   UNL     1       6.127 -30.265  24.268  1.00  0.00     0.000 C 
BRANCH   3   4
ATOM      4  C   UNL     1       5.543 -29.370  25.376  1.00  0.00     0.000 C 
BRANCH   4   5
ATOM      5  C   UNL     1       4.017 -29.225  25.282  1.00  0.00     0.000 C 
BRANCH   5   6
ATOM      6  C   UNL     1       3.508 -29.656  23.902  1.00  0.00     0.006 C 
BRANCH   6   7
ATOM      7  C   UNL     1       2.131 -29.053  23.610  1.00  0.00     0.053 C 
BRANCH   7   8
ATOM      8  C   UNL     1       1.048 -30.021  23.969  1.00  0.00     0.041 C 
ATOM      9  O   UNL     1       0.532 -29.998  25.117  1.00  0.00    -0.550 OA
ATOM     10  O   UNL     1       0.575 -30.918  23.020  1.00  0.00    -0.550 OA
ENDBRANCH   7   8
ENDBRANCH   6   7
ENDBRANCH   5   6
ENDBRANCH   4   5
ENDBRANCH   3   4
ENDBRANCH   2   3
ENDBRANCH   1   2
BRANCH   1  11
ATOM     11  C   UNL     1       7.427 -31.518  21.801  1.00  0.00     0.000 C 
BRANCH  11  12
ATOM     12  C   UNL     1       8.659 -32.217  21.202  1.00  0.00    -0.000 C 
BRANCH  12  13
ATOM     13  C   UNL     1       9.931 -31.993  22.032  1.00  0.00    -0.000 C 
BRANCH  13  14
ATOM     14  C   UNL     1      10.899 -31.046  21.307  1.00  0.00    -0.000 C 
BRANCH  14  15
ATOM     15  C   UNL     1      11.534 -30.012  22.250  1.00  0.00    -0.000 C 
BRANCH  15  16
ATOM     16  C   UNL     1      11.411 -30.407  23.731  1.00  0.00    -0.000 C 
BRANCH  16  17
ATOM     17  C   UNL     1      12.639 -29.990  24.556  1.00  0.00    -0.003 C 
ATOM     18  C   UNL     1      13.571 -29.051  23.793  1.00  0.00     0.004 C 
ENDBRANCH  16  17
ENDBRANCH  15  16
ENDBRANCH  14  15
ENDBRANCH  13  14
ENDBRANCH  12  13
ENDBRANCH  11  12
ENDBRANCH   1  11
TORSDOF 14
ENDMDL
MODEL 3
REMARK VINA RESULT:    -5.725      1.795      2.351
REMARK INTER + INTRA:         -11.464
REMARK INTER:                  -9.975
REMARK INTRA:                  -1.489
REMARK UNBOUND:                -1.054
REMARK SMILES CCCCCCCCCCCCCCCC(=O)[O-]
REMARK SMILES IDX 9 1 10 2 11 3 12 4 13 5 14 6 15 7 16 8 17 9 18 10 8 11 7 12
REMARK SMILES IDX 6 13 5 14 4 15 3 16 2 17 1 18
REMARK H PARENT
REMARK Flexibility Score: inf
ROOT
ATOM      1  C   UNL     1       7.598 -31.613  22.042  1.00  0.00     0.000 C 
ENDROOT
BRANCH   1   2
ATOM      2  C   UNL     1       8.103 -30.367  21.293  1.00  0.00     0.000 C 
BRANCH   2   3
ATOM      3  C   UNL     1       9.113 -29.496  22.070  1.00  0.00     0.000 C 
BRANCH   3   4
ATOM      4  C   UNL     1      10.488 -30.144  22.309  1.00  0.00     0.000 C 
BRANCH   4   5
ATOM      5  C   UNL     1      10.720 -30.525  23.778  1.00  0.00     0.000 C 
BRANCH   5   6
ATOM      6  C   UNL     1      10.672 -32.046  23.966  1.00  0.00     0.006 C 
BRANCH   6   7
ATOM      7  C   UNL     1      11.342 -32.766  22.793  1.00  0.00     0.053 C 
BRANCH   7   8
ATOM      8  C   UNL     1      12.713 -33.228  23.176  1.00  0.00     0.041 C 
ATOM      9  O   UNL     1      12.857 -34.217  23.941  1.00  0.00    -0.550 OA
ATOM     10  O   UNL     1      13.832 -32.596  22.651  1.00  0.00    -0.550 OA
ENDBRANCH   7   8
ENDBRANCH   6   7
ENDBRANCH   5   6
ENDBRANCH   4   5
ENDBRANCH   3   4
ENDBRANCH   2   3
ENDBRANCH   1   2
BRANCH   1  11
ATOM     11  C   UNL     1       6.497 -31.289  23.066  1.00  0.00     0.000 C 
BRANCH  11  12
ATOM     12  C   UNL     1       7.048 -31.124  24.492  1.00  0.00    -0.000 C 
BRANCH  12  13
ATOM     13  C   UNL     1       6.397 -29.958  25.249  1.00  0.00    -0.000 C 
BRANCH  13  14
ATOM     14  C   UNL     1       5.002 -29.649  24.684  1.00  0.00    -0.000 C 
BRANCH  14  15
ATOM     15  C   UNL     1       4.129 -28.851  25.666  1.00  0.00    -0.000 C 
BRANCH  15  16
ATOM     16  C   UNL     1       2.627 -28.973  25.358  1.00  0.00    -0.000 C 
BRANCH  16  17
ATOM     17  C   UNL     1       2.348 -29.191  23.863  1.00  0.00    -0.003 C 
ATOM     18  C   UNL     1       1.312 -30.285  23.610  1.00  0.00     0.004 C 
ENDBRANCH  16  17
ENDBRANCH  15  16
ENDBRANCH  14  15
ENDBRANCH  13  14
ENDBRANCH  12  13
ENDBRANCH  11  12
ENDBRANCH   1  11
TORSDOF 14
ENDMDL
MODEL 4
REMARK VINA RESULT:    -5.695      3.291      6.117
REMARK INTER + INTRA:         -11.410
REMARK INTER:                  -9.294
REMARK INTRA:                  -2.116
REMARK UNBOUND:                -1.054
REMARK SMILES CCCCCCCCCCCCCCCC(=O)[O-]
REMARK SMILES IDX 9 1 10 2 11 3 12 4 13 5 14 6 15 7 16 8 17 9 18 10 8 11 7 12
REMARK SMILES IDX 6 13 5 14 4 15 3 16 2 17 1 18
REMARK H PARENT
REMARK Flexibility Score: inf
ROOT
ATOM      1  C   UNL     1       7.161 -30.466  22.765  1.00  0.00     0.000 C 
ENDROOT
BRANCH   1   2
ATOM      2  C   UNL     1       7.927 -29.586  21.761  1.00  0.00     0.000 C 
BRANCH   2   3
ATOM      3  C   UNL     1       9.345 -30.080  21.401  1.00  0.00     0.000 C 
BRANCH   3   4
ATOM      4  C   UNL     1       9.398 -31.413  20.634  1.00  0.00     0.000 C 
BRANCH   4   5
ATOM      5  C   UNL     1       9.819 -32.594  21.520  1.00  0.00     0.000 C 
BRANCH   5   6
ATOM      6  C   UNL     1      11.214 -33.100  21.135  1.00  0.00     0.006 C 
BRANCH   6   7
ATOM      7  C   UNL     1      12.303 -32.154  21.647  1.00  0.00     0.053 C 
BRANCH   7   8
ATOM      8  C   UNL     1      13.292 -32.899  22.486  1.00  0.00     0.041 C 
ATOM      9  O   UNL     1      14.526 -32.690  22.347  1.00  0.00    -0.550 OA
ATOM     10  O   UNL     1      12.851 -33.789  23.457  1.00  0.00    -0.550 OA
ENDBRANCH   7   8
ENDBRANCH   6   7
ENDBRANCH   5   6
ENDBRANCH   4   5
ENDBRANCH   3   4
ENDBRANCH   2   3
ENDBRANCH   1   2
BRANCH   1  11
ATOM     11  C   UNL     1       7.094 -29.846  24.172  1.00  0.00     0.000 C 
BRANCH  11  12
ATOM     12  C   UNL     1       8.358 -30.127  25.001  1.00  0.00    -0.000 C 
BRANCH  12  13
ATOM     13  C   UNL     1       8.731 -31.616  25.029  1.00  0.00    -0.000 C 
BRANCH  13  14
ATOM     14  C   UNL     1      10.256 -31.799  25.030  1.00  0.00    -0.000 C 
BRANCH  14  15
ATOM     15  C   UNL     1      11.009 -30.489  24.750  1.00  0.00    -0.000 C 
BRANCH  15  16
ATOM     16  C   UNL     1      12.513 -30.592  25.053  1.00  0.00    -0.000 C 
BRANCH  16  17
ATOM     17  C   UNL     1      13.227 -29.235  24.965  1.00  0.00    -0.003 C 
ATOM     18  C   UNL     1      13.750 -28.933  23.561  1.00  0.00     0.004 C 
ENDBRANCH  16  17
ENDBRANCH  15  16
ENDBRANCH  14  15
ENDBRANCH  13  14
ENDBRANCH  12  13
ENDBRANCH  11  12
ENDBRANCH   1  11
TORSDOF 14
ENDMDL
MODEL 5
REMARK VINA RESULT:    -5.694      2.987      5.469
REMARK INTER + INTRA:         -11.408
REMARK INTER:                  -9.044
REMARK INTRA:                  -2.364
REMARK UNBOUND:                -1.054
REMARK SMILES CCCCCCCCCCCCCCCC(=O)[O-]
REMARK SMILES IDX 9 1 10 2 11 3 12 4 13 5 14 6 15 7 16 8 17 9 18 10 8 11 7 12
REMARK SMILES IDX 6 13 5 14 4 15 3 16 2 17 1 18
REMARK H PARENT
REMARK Flexibility Score: inf
ROOT
ATOM      1  C   UNL     1      12.245 -29.941  23.118  1.00  0.00     0.000 C 
ENDROOT
BRANCH   1   2
ATOM      2  C   UNL     1      11.808 -30.433  24.510  1.00  0.00     0.000 C 
BRANCH   2   3
ATOM      3  C   UNL     1      10.297 -30.707  24.667  1.00  0.00     0.000 C 
BRANCH   3   4
ATOM      4  C   UNL     1       9.934 -32.142  25.086  1.00  0.00     0.000 C 
BRANCH   4   5
ATOM      5  C   UNL     1      11.079 -32.859  25.816  1.00  0.00     0.000 C 
BRANCH   5   6
ATOM      6  C   UNL     1      11.342 -34.240  25.204  1.00  0.00     0.006 C 
BRANCH   6   7
ATOM      7  C   UNL     1      11.923 -34.114  23.793  1.00  0.00     0.053 C 
BRANCH   7   8
ATOM      8  C   UNL     1      13.406 -33.919  23.853  1.00  0.00     0.041 C 
ATOM      9  O   UNL     1      13.958 -33.042  23.138  1.00  0.00    -0.550 OA
ATOM     10  O   UNL     1      14.172 -34.672  24.733  1.00  0.00    -0.550 OA
ENDBRANCH   7   8
ENDBRANCH   6   7
ENDBRANCH   5   6
ENDBRANCH   4   5
ENDBRANCH   3   4
ENDBRANCH   2   3
ENDBRANCH   1   2
BRANCH   1  11
ATOM     11  C   UNL     1      11.172 -30.170  22.039  1.00  0.00     0.000 C 
BRANCH  11  12
ATOM     12  C   UNL     1      11.410 -31.458  21.235  1.00  0.00    -0.000 C 
BRANCH  12  13
ATOM     13  C   UNL     1      10.111 -32.058  20.677  1.00  0.00    -0.000 C 
BRANCH  13  14
ATOM     14  C   UNL     1       8.883 -31.326  21.240  1.00  0.00    -0.000 C 
BRANCH  14  15
ATOM     15  C   UNL     1       7.696 -32.270  21.491  1.00  0.00    -0.000 C 
BRANCH  15  16
ATOM     16  C   UNL     1       6.661 -31.675  22.461  1.00  0.00    -0.000 C 
BRANCH  16  17
ATOM     17  C   UNL     1       7.087 -30.305  23.010  1.00  0.00    -0.003 C 
ATOM     18  C   UNL     1       6.604 -30.066  24.439  1.00  0.00     0.004 C 
ENDBRANCH  16  17
ENDBRANCH  15  16
ENDBRANCH  14  15
ENDBRANCH  13  14
ENDBRANCH  12  13
ENDBRANCH  11  12
ENDBRANCH   1  11
TORSDOF 14
ENDMDL
MODEL 6
REMARK VINA RESULT:    -5.639      2.959      6.664
REMARK INTER + INTRA:         -11.308
REMARK INTER:                  -9.144
REMARK INTRA:                  -2.165
REMARK UNBOUND:                -1.054
REMARK SMILES CCCCCCCCCCCCCCCC(=O)[O-]
REMARK SMILES IDX 9 1 10 2 11 3 12 4 13 5 14 6 15 7 16 8 17 9 18 10 8 11 7 12
REMARK SMILES IDX 6 13 5 14 4 15 3 16 2 17 1 18
REMARK H PARENT
REMARK Flexibility Score: inf
ROOT
ATOM      1  C   UNL     1       6.289 -30.946  23.570  1.00  0.00     0.000 C 
ENDROOT
BRANCH   1   2
ATOM      2  C   UNL     1       6.287 -29.784  24.580  1.00  0.00     0.000 C 
BRANCH   2   3
ATOM      3  C   UNL     1       7.670 -29.409  25.153  1.00  0.00     0.000 C 
BRANCH   3   4
ATOM      4  C   UNL     1       8.442 -30.567  25.809  1.00  0.00     0.000 C 
BRANCH   4   5
ATOM      5  C   UNL     1       9.800 -30.833  25.142  1.00  0.00     0.000 C 
BRANCH   5   6
ATOM      6  C   UNL     1       9.997 -32.329  24.876  1.00  0.00     0.006 C 
BRANCH   6   7
ATOM      7  C   UNL     1      11.387 -32.789  25.325  1.00  0.00     0.053 C 
BRANCH   7   8
ATOM      8  C   UNL     1      11.933 -33.809  24.376  1.00  0.00     0.041 C 
ATOM      9  O   UNL     1      11.510 -33.863  23.192  1.00  0.00    -0.550 OA
ATOM     10  O   UNL     1      12.943 -34.670  24.786  1.00  0.00    -0.550 OA
ENDBRANCH   7   8
ENDBRANCH   6   7
ENDBRANCH   5   6
ENDBRANCH   4   5
ENDBRANCH   3   4
ENDBRANCH   2   3
ENDBRANCH   1   2
BRANCH   1  11
ATOM     11  C   UNL     1       7.244 -30.708  22.387  1.00  0.00     0.000 C 
BRANCH  11  12
ATOM     12  C   UNL     1       7.566 -32.001  21.620  1.00  0.00    -0.000 C 
BRANCH  12  13
ATOM     13  C   UNL     1       9.034 -32.079  21.176  1.00  0.00    -0.000 C 
BRANCH  13  14
ATOM     14  C   UNL     1       9.726 -30.716  21.333  1.00  0.00    -0.000 C 
BRANCH  14  15
ATOM     15  C   UNL     1      11.239 -30.845  21.569  1.00  0.00    -0.000 C 
BRANCH  15  16
ATOM     16  C   UNL     1      11.826 -29.643  22.328  1.00  0.00    -0.000 C 
BRANCH  16  17
ATOM     17  C   UNL     1      12.966 -30.043  23.277  1.00  0.00    -0.003 C 
ATOM     18  C   UNL     1      13.685 -28.837  23.878  1.00  0.00     0.004 C 
ENDBRANCH  16  17
ENDBRANCH  15  16
ENDBRANCH  14  15
ENDBRANCH  13  14
ENDBRANCH  12  13
ENDBRANCH  11  12
ENDBRANCH   1  11
TORSDOF 14
ENDMDL
MODEL 7
REMARK VINA RESULT:    -5.633      1.570      2.044
REMARK INTER + INTRA:         -11.297
REMARK INTER:                 -10.383
REMARK INTRA:                  -0.914
REMARK UNBOUND:                -1.054
REMARK SMILES CCCCCCCCCCCCCCCC(=O)[O-]
REMARK SMILES IDX 9 1 10 2 11 3 12 4 13 5 14 6 15 7 16 8 17 9 18 10 8 11 7 12
REMARK SMILES IDX 6 13 5 14 4 15 3 16 2 17 1 18
REMARK H PARENT
REMARK Flexibility Score: inf
ROOT
ATOM      1  C   UNL     1       7.465 -30.972  24.009  1.00  0.00     0.000 C 
ENDROOT
BRANCH   1   2
ATOM      2  C   UNL     1       8.923 -30.572  23.717  1.00  0.00     0.000 C 
BRANCH   2   3
ATOM      3  C   UNL     1       9.167 -29.940  22.331  1.00  0.00     0.000 C 
BRANCH   3   4
ATOM      4  C   UNL     1       8.498 -30.671  21.153  1.00  0.00     0.000 C 
BRANCH   4   5
ATOM      5  C   UNL     1       8.934 -32.139  21.037  1.00  0.00     0.000 C 
BRANCH   5   6
ATOM      6  C   UNL     1      10.433 -32.245  20.733  1.00  0.00     0.006 C 
BRANCH   6   7
ATOM      7  C   UNL     1      11.154 -33.068  21.804  1.00  0.00     0.053 C 
BRANCH   7   8
ATOM      8  C   UNL     1      12.431 -32.399  22.206  1.00  0.00     0.041 C 
ATOM      9  O   UNL     1      13.528 -32.787  21.725  1.00  0.00    -0.550 OA
ATOM     10  O   UNL     1      12.405 -31.317  23.076  1.00  0.00    -0.550 OA
ENDBRANCH   7   8
ENDBRANCH   6   7
ENDBRANCH   5   6
ENDBRANCH   4   5
ENDBRANCH   3   4
ENDBRANCH   2   3
ENDBRANCH   1   2
BRANCH   1  11
ATOM     11  C   UNL     1       6.745 -29.973  24.934  1.00  0.00     0.000 C 
BRANCH  11  12
ATOM     12  C   UNL     1       5.247 -29.848  24.613  1.00  0.00    -0.000 C 
BRANCH  12  13
ATOM     13  C   UNL     1       4.459 -29.140  25.725  1.00  0.00    -0.000 C 
BRANCH  13  14
ATOM     14  C   UNL     1       3.019 -28.849  25.275  1.00  0.00    -0.000 C 
BRANCH  14  15
ATOM     15  C   UNL     1       2.699 -29.443  23.894  1.00  0.00    -0.000 C 
BRANCH  15  16
ATOM     16  C   UNL     1       1.638 -28.633  23.131  1.00  0.00    -0.000 C 
BRANCH  16  17
ATOM     17  C   UNL     1       0.251 -29.294  23.169  1.00  0.00    -0.003 C 
ATOM     18  C   UNL     1       0.318 -30.814  23.035  1.00  0.00     0.004 C 
ENDBRANCH  16  17
ENDBRANCH  15  16
ENDBRANCH  14  15
ENDBRANCH  13  14
ENDBRANCH  12  13
ENDBRANCH  11  12
ENDBRANCH   1  11
TORSDOF 14
ENDMDL
MODEL 8
REMARK VINA RESULT:    -5.608      4.066      7.750
REMARK INTER + INTRA:         -11.251
REMARK INTER:                  -8.918
REMARK INTRA:                  -2.333
REMARK UNBOUND:                -1.054
REMARK SMILES CCCCCCCCCCCCCCCC(=O)[O-]
REMARK SMILES IDX 9 1 10 2 11 3 12 4 13 5 14 6 15 7 16 8 17 9 18 10 8 11 7 12
REMARK SMILES IDX 6 13 5 14 4 15 3 16 2 17 1 18
REMARK H PARENT
REMARK Flexibility Score: inf
ROOT
ATOM      1  C   UNL     1      12.618 -30.140  24.613  1.00  0.00     0.000 C 
ENDROOT
BRANCH   1   2
ATOM      2  C   UNL     1      12.672 -29.763  23.121  1.00  0.00     0.000 C 
BRANCH   2   3
ATOM      3  C   UNL     1      11.340 -29.911  22.356  1.00  0.00     0.000 C 
BRANCH   3   4
ATOM      4  C   UNL     1      11.278 -31.096  21.376  1.00  0.00     0.000 C 
BRANCH   4   5
ATOM      5  C   UNL     1      10.236 -32.149  21.778  1.00  0.00     0.000 C 
BRANCH   5   6
ATOM      6  C   UNL     1       9.048 -32.145  20.809  1.00  0.00     0.006 C 
BRANCH   6   7
ATOM      7  C   UNL     1       7.729 -31.935  21.557  1.00  0.00     0.053 C 
BRANCH   7   8
ATOM      8  C   UNL     1       7.674 -30.561  22.146  1.00  0.00     0.041 C 
ATOM      9  O   UNL     1       7.686 -30.406  23.395  1.00  0.00    -0.550 OA
ATOM     10  O   UNL     1       7.658 -29.448  21.315  1.00  0.00    -0.550 OA
ENDBRANCH   7   8
ENDBRANCH   6   7
ENDBRANCH   5   6
ENDBRANCH   4   5
ENDBRANCH   3   4
ENDBRANCH   2   3
ENDBRANCH   1   2
BRANCH   1  11
ATOM     11  C   UNL     1      11.277 -30.776  25.020  1.00  0.00     0.000 C 
BRANCH  11  12
ATOM     12  C   UNL     1      11.458 -31.993  25.942  1.00  0.00    -0.000 C 
BRANCH  12  13
ATOM     13  C   UNL     1      10.688 -33.228  25.454  1.00  0.00    -0.000 C 
BRANCH  13  14
ATOM     14  C   UNL     1      11.649 -34.385  25.141  1.00  0.00    -0.000 C 
BRANCH  14  15
ATOM     15  C   UNL     1      13.090 -34.095  25.590  1.00  0.00    -0.000 C 
BRANCH  15  16
ATOM     16  C   UNL     1      14.094 -34.136  24.426  1.00  0.00    -0.000 C 
BRANCH  16  17
ATOM     17  C   UNL     1      13.524 -33.528  23.135  1.00  0.00    -0.003 C 
ATOM     18  C   UNL     1      14.571 -32.757  22.333  1.00  0.00     0.004 C 
ENDBRANCH  16  17
ENDBRANCH  15  16
ENDBRANCH  14  15
ENDBRANCH  13  14
ENDBRANCH  12  13
ENDBRANCH  11  12
ENDBRANCH   1  11
TORSDOF 14
ENDMDL
MODEL 9
REMARK VINA RESULT:    -5.586      3.459      5.945
REMARK INTER + INTRA:         -11.212
REMARK INTER:                  -8.689
REMARK INTRA:                  -2.523
REMARK UNBOUND:                -1.054
REMARK SMILES CCCCCCCCCCCCCCCC(=O)[O-]
REMARK SMILES IDX 9 1 10 2 11 3 12 4 13 5 14 6 15 7 16 8 17 9 18 10 8 11 7 12
REMARK SMILES IDX 6 13 5 14 4 15 3 16 2 17 1 18
REMARK H PARENT
REMARK Flexibility Score: inf
ROOT
ATOM      1  C   UNL     1       8.385 -30.503  21.335  1.00  0.00     0.000 C 
ENDROOT
BRANCH   1   2
ATOM      2  C   UNL     1       9.544 -31.269  20.672  1.00  0.00     0.000 C 
BRANCH   2   3
ATOM      3  C   UNL     1      10.949 -30.939  21.218  1.00  0.00     0.000 C 
BRANCH   3   4
ATOM      4  C   UNL     1      11.829 -32.160  21.539  1.00  0.00     0.000 C 
BRANCH   4   5
ATOM      5  C   UNL     1      11.018 -33.365  22.038  1.00  0.00     0.000 C 
BRANCH   5   6
ATOM      6  C   UNL     1      11.611 -33.926  23.335  1.00  0.00     0.006 C 
BRANCH   6   7
ATOM      7  C   UNL     1      13.090 -33.554  23.471  1.00  0.00     0.053 C 
BRANCH   7   8
ATOM      8  C   UNL     1      13.598 -33.913  24.831  1.00  0.00     0.041 C 
ATOM      9  O   UNL     1      12.840 -33.829  25.833  1.00  0.00    -0.550 OA
ATOM     10  O   UNL     1      14.894 -34.387  24.987  1.00  0.00    -0.550 OA
ENDBRANCH   7   8
ENDBRANCH   6   7
ENDBRANCH   5   6
ENDBRANCH   4   5
ENDBRANCH   3   4
ENDBRANCH   2   3
ENDBRANCH   1   2
BRANCH   1  11
ATOM     11  C   UNL     1       7.392 -31.430  22.059  1.00  0.00     0.000 C 
BRANCH  11  12
ATOM     12  C   UNL     1       7.028 -30.921  23.463  1.00  0.00    -0.000 C 
BRANCH  12  13
ATOM     13  C   UNL     1       8.257 -30.484  24.274  1.00  0.00    -0.000 C 
BRANCH  13  14
ATOM     14  C   UNL     1       9.011 -31.704  24.826  1.00  0.00    -0.000 C 
BRANCH  14  15
ATOM     15  C   UNL     1      10.407 -31.345  25.359  1.00  0.00    -0.000 C 
BRANCH  15  16
ATOM     16  C   UNL     1      11.078 -30.219  24.554  1.00  0.00    -0.000 C 
BRANCH  16  17
ATOM     17  C   UNL     1      12.601 -30.180  24.751  1.00  0.00    -0.003 C 
ATOM     18  C   UNL     1      13.311 -29.331  23.698  1.00  0.00     0.004 C 
ENDBRANCH  16  17
ENDBRANCH  15  16
ENDBRANCH  14  15
ENDBRANCH  13  14
ENDBRANCH  12  13
ENDBRANCH  11  12
ENDBRANCH   1  11
TORSDOF 14
ENDMDL
