MODEL 1
REMARK VINA RESULT:    -2.978      0.000      0.000
REMARK INTER + INTRA:          -3.810
REMARK INTER:                  -3.587
REMARK INTRA:                  -0.223
REMARK UNBOUND:                -0.223
REMARK SMILES OCC(O)CO
REMARK SMILES IDX 3 1 5 2 6 3 2 5 1 6 4 8
REMARK H PARENT 6 4 1 7 4 9
REMARK Flexibility Score: inf
ROOT
ATOM      1  C   UNL     1       5.591  -4.675  17.671  1.00  0.00     0.165 C 
ENDROOT
BRANCH   1   2
ATOM      2  C   UNL     1       4.175  -5.253  17.557  1.00  0.00     0.190 C 
BRANCH   2   3
ATOM      3  O   UNL     1       3.358  -4.756  18.582  1.00  0.00    -0.394 OA
ATOM      4  H   UNL     1       2.822  -4.026  18.176  1.00  0.00     0.210 HD
ENDBRANCH   2   3
ENDBRANCH   1   2
BRANCH   1   5
ATOM      5  C   UNL     1       6.342  -5.235  18.889  1.00  0.00     0.190 C 
BRANCH   5   6
ATOM      6  O   UNL     1       5.925  -4.580  20.056  1.00  0.00    -0.394 OA
ATOM      7  H   UNL     1       6.199  -3.633  19.953  1.00  0.00     0.210 HD
ENDBRANCH   5   6
ENDBRANCH   1   5
BRANCH   1   8
ATOM      8  O   UNL     1       5.510  -3.276  17.763  1.00  0.00    -0.388 OA
ATOM      9  H   UNL     1       4.622  -3.064  18.154  1.00  0.00     0.211 HD
ENDBRANCH   1   8
TORSDOF 5
ENDMDL
MODEL 2
REMARK VINA RESULT:    -2.970      1.242      2.175
REMARK INTER + INTRA:          -3.801
REMARK INTER:                  -3.657
REMARK INTRA:                  -0.144
REMARK UNBOUND:                -0.223
REMARK SMILES OCC(O)CO
REMARK SMILES IDX 3 1 5 2 6 3 2 5 1 6 4 8
REMARK H PARENT 6 4 1 7 4 9
REMARK Flexibility Score: inf
ROOT
ATOM      1  C   UNL     1       5.843  -5.521  18.821  1.00  0.00     0.165 C 
ENDROOT
BRANCH   1   2
ATOM      2  C   UNL     1       5.961  -4.602  17.599  1.00  0.00     0.190 C 
BRANCH   2   3
ATOM      3  O   UNL     1       5.410  -3.344  17.878  1.00  0.00    -0.394 OA
ATOM      4  H   UNL     1       5.478  -2.822  17.037  1.00  0.00     0.210 HD
ENDBRANCH   2   3
ENDBRANCH   1   2
BRANCH   1   5
ATOM      5  C   UNL     1       4.399  -5.605  19.338  1.00  0.00     0.190 C 
BRANCH   5   6
ATOM      6  O   UNL     1       4.262  -4.852  20.512  1.00  0.00    -0.394 OA
ATOM      7  H   UNL     1       4.929  -5.214  21.151  1.00  0.00     0.210 HD
ENDBRANCH   5   6
ENDBRANCH   1   5
BRANCH   1   8
ATOM      8  O   UNL     1       6.687  -5.045  19.838  1.00  0.00    -0.388 OA
ATOM      9  H   UNL     1       7.605  -5.351  19.618  1.00  0.00     0.211 HD
ENDBRANCH   1   8
TORSDOF 5
ENDMDL
MODEL 3
REMARK VINA RESULT:    -2.836      1.273      1.671
REMARK INTER + INTRA:          -3.640
REMARK INTER:                  -3.456
REMARK INTRA:                  -0.183
REMARK UNBOUND:                -0.223
REMARK SMILES OCC(O)CO
REMARK SMILES IDX 3 1 5 2 6 3 2 5 1 6 4 8
REMARK H PARENT 6 4 1 7 4 9
REMARK Flexibility Score: inf
ROOT
ATOM      1  C   UNL     1       5.334  -4.990  18.164  1.00  0.00     0.165 C 
ENDROOT
BRANCH   1   2
ATOM      2  C   UNL     1       4.657  -5.199  19.524  1.00  0.00     0.190 C 
BRANCH   2   3
ATOM      3  O   UNL     1       5.248  -4.379  20.496  1.00  0.00    -0.394 OA
ATOM      4  H   UNL     1       6.089  -4.832  20.762  1.00  0.00     0.210 HD
ENDBRANCH   2   3
ENDBRANCH   1   2
BRANCH   1   5
ATOM      5  C   UNL     1       6.758  -5.566  18.138  1.00  0.00     0.190 C 
BRANCH   5   6
ATOM      6  O   UNL     1       7.125  -6.006  19.417  1.00  0.00    -0.394 OA
ATOM      7  H   UNL     1       8.020  -6.423  19.319  1.00  0.00     0.210 HD
ENDBRANCH   5   6
ENDBRANCH   1   5
BRANCH   1   8
ATOM      8  O   UNL     1       5.370  -3.617  17.874  1.00  0.00    -0.388 OA
ATOM      9  H   UNL     1       4.855  -3.486  17.035  1.00  0.00     0.211 HD
ENDBRANCH   1   8
TORSDOF 5
ENDMDL
MODEL 4
REMARK VINA RESULT:    -2.813      2.041      2.812
REMARK INTER + INTRA:          -3.611
REMARK INTER:                  -3.589
REMARK INTRA:                  -0.022
REMARK UNBOUND:                -0.223
REMARK SMILES OCC(O)CO
REMARK SMILES IDX 3 1 5 2 6 3 2 5 1 6 4 8
REMARK H PARENT 6 4 1 7 4 9
REMARK Flexibility Score: inf
ROOT
ATOM      1  C   UNL     1       6.856  -5.728  18.477  1.00  0.00     0.165 C 
ENDROOT
BRANCH   1   2
ATOM      2  C   UNL     1       6.930  -7.252  18.325  1.00  0.00     0.190 C 
BRANCH   2   3
ATOM      3  O   UNL     1       7.115  -7.861  19.573  1.00  0.00    -0.394 OA
ATOM      4  H   UNL     1       7.874  -8.491  19.462  1.00  0.00     0.210 HD
ENDBRANCH   2   3
ENDBRANCH   1   2
BRANCH   1   5
ATOM      5  C   UNL     1       5.482  -5.270  18.991  1.00  0.00     0.190 C 
BRANCH   5   6
ATOM      6  O   UNL     1       5.637  -4.446  20.115  1.00  0.00    -0.394 OA
ATOM      7  H   UNL     1       6.560  -4.086  20.067  1.00  0.00     0.210 HD
ENDBRANCH   5   6
ENDBRANCH   1   5
BRANCH   1   8
ATOM      8  O   UNL     1       7.125  -5.129  17.236  1.00  0.00    -0.388 OA
ATOM      9  H   UNL     1       7.181  -5.861  16.568  1.00  0.00     0.211 HD
ENDBRANCH   1   8
TORSDOF 5
ENDMDL
MODEL 5
REMARK VINA RESULT:    -2.701     13.210     13.931
REMARK INTER + INTRA:          -3.476
REMARK INTER:                  -3.254
REMARK INTRA:                  -0.222
REMARK UNBOUND:                -0.223
REMARK SMILES OCC(O)CO
REMARK SMILES IDX 3 1 5 2 6 3 2 5 1 6 4 8
REMARK H PARENT 6 4 1 7 4 9
REMARK Flexibility Score: inf
ROOT
ATOM      1  C   UNL     1      -4.763   3.635  22.486  1.00  0.00     0.165 C 
ENDROOT
BRANCH   1   2
ATOM      2  C   UNL     1      -3.453   3.695  21.691  1.00  0.00     0.190 C 
BRANCH   2   3
ATOM      3  O   UNL     1      -2.524   4.522  22.338  1.00  0.00    -0.394 OA
ATOM      4  H   UNL     1      -2.979   5.394  22.471  1.00  0.00     0.210 HD
ENDBRANCH   2   3
ENDBRANCH   1   2
BRANCH   1   5
ATOM      5  C   UNL     1      -5.766   4.702  22.021  1.00  0.00     0.190 C 
BRANCH   5   6
ATOM      6  O   UNL     1      -5.087   5.861  21.621  1.00  0.00    -0.394 OA
ATOM      7  H   UNL     1      -4.129   5.610  21.553  1.00  0.00     0.210 HD
ENDBRANCH   5   6
ENDBRANCH   1   5
BRANCH   1   8
ATOM      8  O   UNL     1      -4.480   3.809  23.851  1.00  0.00    -0.388 OA
ATOM      9  H   UNL     1      -3.523   4.065  23.916  1.00  0.00     0.211 HD
ENDBRANCH   1   8
TORSDOF 5
ENDMDL
MODEL 6
REMARK VINA RESULT:    -2.666      1.975      2.290
REMARK INTER + INTRA:          -3.434
REMARK INTER:                  -3.211
REMARK INTRA:                  -0.224
REMARK UNBOUND:                -0.223
REMARK SMILES OCC(O)CO
REMARK SMILES IDX 3 1 5 2 6 3 2 5 1 6 4 8
REMARK H PARENT 6 4 1 7 4 9
REMARK Flexibility Score: inf
ROOT
ATOM      1  C   UNL     1       5.664  -5.032  18.746  1.00  0.00     0.165 C 
ENDROOT
BRANCH   1   2
ATOM      2  C   UNL     1       4.436  -5.950  18.770  1.00  0.00     0.190 C 
BRANCH   2   3
ATOM      3  O   UNL     1       4.590  -6.950  19.739  1.00  0.00    -0.394 OA
ATOM      4  H   UNL     1       4.995  -6.507  20.529  1.00  0.00     0.210 HD
ENDBRANCH   2   3
ENDBRANCH   1   2
BRANCH   1   5
ATOM      5  C   UNL     1       6.902  -5.746  18.182  1.00  0.00     0.190 C 
BRANCH   5   6
ATOM      6  O   UNL     1       6.521  -6.915  17.509  1.00  0.00    -0.394 OA
ATOM      7  H   UNL     1       5.648  -7.182  17.896  1.00  0.00     0.210 HD
ENDBRANCH   5   6
ENDBRANCH   1   5
BRANCH   1   8
ATOM      8  O   UNL     1       5.926  -4.582  20.050  1.00  0.00    -0.388 OA
ATOM      9  H   UNL     1       6.905  -4.432  20.112  1.00  0.00     0.211 HD
ENDBRANCH   1   8
TORSDOF 5
ENDMDL
MODEL 7
REMARK VINA RESULT:    -2.342      2.103      3.079
REMARK INTER + INTRA:          -3.045
REMARK INTER:                  -2.821
REMARK INTRA:                  -0.224
REMARK UNBOUND:                -0.223
REMARK SMILES OCC(O)CO
REMARK SMILES IDX 3 1 5 2 6 3 2 5 1 6 4 8
REMARK H PARENT 6 4 1 7 4 9
REMARK Flexibility Score: inf
ROOT
ATOM      1  C   UNL     1       5.411  -6.756  18.629  1.00  0.00     0.165 C 
ENDROOT
BRANCH   1   2
ATOM      2  C   UNL     1       6.897  -6.650  18.265  1.00  0.00     0.190 C 
BRANCH   2   3
ATOM      3  O   UNL     1       7.125  -5.528  17.457  1.00  0.00    -0.394 OA
ATOM      4  H   UNL     1       6.299  -5.404  16.921  1.00  0.00     0.210 HD
ENDBRANCH   2   3
ENDBRANCH   1   2
BRANCH   1   5
ATOM      5  C   UNL     1       4.835  -5.406  19.085  1.00  0.00     0.190 C 
BRANCH   5   6
ATOM      6  O   UNL     1       5.749  -4.747  19.918  1.00  0.00    -0.394 OA
ATOM      7  H   UNL     1       5.972  -5.388  20.642  1.00  0.00     0.210 HD
ENDBRANCH   5   6
ENDBRANCH   1   5
BRANCH   1   8
ATOM      8  O   UNL     1       5.254  -7.709  19.648  1.00  0.00    -0.388 OA
ATOM      9  H   UNL     1       5.025  -8.568  19.206  1.00  0.00     0.211 HD
ENDBRANCH   1   8
TORSDOF 5
ENDMDL
