MODEL 1
REMARK VINA RESULT:    -3.600      0.000      0.000
REMARK INTER + INTRA:          -3.970
REMARK INTER:                  -3.811
REMARK INTRA:                  -0.159
REMARK UNBOUND:                -0.159
REMARK SMILES CC(C)[C@H]1CC[C@@H](C)CC1=O
REMARK SMILES IDX 8 1 7 2 6 3 5 4 4 5 10 6 11 7 9 8 2 9 1 10 3 11
REMARK H PARENT
REMARK Flexibility Score: inf
ROOT
ATOM      1  C   UNL     1     166.251 168.222 165.122  1.00  0.00     0.008 C 
ATOM      2  C   UNL     1     167.041 166.914 165.285  1.00  0.00    -0.007 C 
ATOM      3  C   UNL     1     166.204 165.681 164.875  1.00  0.00     0.004 C 
ATOM      4  C   UNL     1     165.087 165.344 165.884  1.00  0.00     0.012 C 
ATOM      5  C   UNL     1     165.641 165.156 167.319  1.00  0.00     0.058 C 
ATOM      6  C   UNL     1     166.472 166.383 167.651  1.00  0.00     0.136 C 
ATOM      7  O   UNL     1     166.202 167.111 168.597  1.00  0.00    -0.299 OA
ATOM      8  C   UNL     1     167.586 166.758 166.717  1.00  0.00     0.079 C 
ENDROOT
BRANCH   5   9
ATOM      9  C   UNL     1     164.526 164.871 168.378  1.00  0.00    -0.007 C 
ATOM     10  C   UNL     1     164.953 163.739 169.332  1.00  0.00     0.008 C 
ATOM     11  C   UNL     1     163.180 164.485 167.736  1.00  0.00     0.008 C 
ENDBRANCH   5   9
TORSDOF 1
ENDMDL
MODEL 2
REMARK VINA RESULT:    -3.553      1.631      4.308
REMARK INTER + INTRA:          -3.920
REMARK INTER:                  -3.755
REMARK INTRA:                  -0.165
REMARK UNBOUND:                -0.159
REMARK SMILES CC(C)[C@H]1CC[C@@H](C)CC1=O
REMARK SMILES IDX 8 1 7 2 6 3 5 4 4 5 10 6 11 7 9 8 2 9 1 10 3 11
REMARK H PARENT
REMARK Flexibility Score: inf
ROOT
ATOM      1  C   UNL     1     163.604 164.745 169.241  1.00  0.00     0.008 C 
ATOM      2  C   UNL     1     165.087 164.382 169.071  1.00  0.00    -0.007 C 
ATOM      3  C   UNL     1     166.011 165.592 169.337  1.00  0.00     0.004 C 
ATOM      4  C   UNL     1     165.956 166.653 168.218  1.00  0.00     0.012 C 
ATOM      5  C   UNL     1     166.266 166.045 166.828  1.00  0.00     0.058 C 
ATOM      6  C   UNL     1     165.348 164.849 166.638  1.00  0.00     0.136 C 
ATOM      7  O   UNL     1     164.547 164.788 165.716  1.00  0.00    -0.299 OA
ATOM      8  C   UNL     1     165.365 163.772 167.684  1.00  0.00     0.079 C 
ENDROOT
BRANCH   5   9
ATOM      9  C   UNL     1     166.162 167.082 165.663  1.00  0.00    -0.007 C 
ATOM     10  C   UNL     1     167.484 167.158 164.876  1.00  0.00     0.008 C 
ATOM     11  C   UNL     1     165.807 168.497 166.157  1.00  0.00     0.008 C 
ENDBRANCH   5   9
TORSDOF 1
ENDMDL
MODEL 3
REMARK VINA RESULT:    -3.552      1.784      3.311
REMARK INTER + INTRA:          -3.919
REMARK INTER:                  -3.754
REMARK INTRA:                  -0.165
REMARK UNBOUND:                -0.159
REMARK SMILES CC(C)[C@H]1CC[C@@H](C)CC1=O
REMARK SMILES IDX 8 1 7 2 6 3 5 4 4 5 10 6 11 7 9 8 2 9 1 10 3 11
REMARK H PARENT
REMARK Flexibility Score: inf
ROOT
ATOM      1  C   UNL     1     167.583 166.439 169.318  1.00  0.00     0.008 C 
ATOM      2  C   UNL     1     166.109 166.841 169.147  1.00  0.00    -0.007 C 
ATOM      3  C   UNL     1     165.156 165.647 169.379  1.00  0.00     0.004 C 
ATOM      4  C   UNL     1     165.194 164.611 168.238  1.00  0.00     0.012 C 
ATOM      5  C   UNL     1     164.908 165.257 166.859  1.00  0.00     0.058 C 
ATOM      6  C   UNL     1     165.855 166.435 166.703  1.00  0.00     0.136 C 
ATOM      7  O   UNL     1     166.664 166.498 165.788  1.00  0.00    -0.299 OA
ATOM      8  C   UNL     1     165.856 167.488 167.772  1.00  0.00     0.079 C 
ENDROOT
BRANCH   5   9
ATOM      9  C   UNL     1     164.997 164.243 165.672  1.00  0.00    -0.007 C 
ATOM     10  C   UNL     1     163.674 164.205 164.884  1.00  0.00     0.008 C 
ATOM     11  C   UNL     1     165.331 162.813 166.134  1.00  0.00     0.008 C 
ENDBRANCH   5   9
TORSDOF 1
ENDMDL
MODEL 4
REMARK VINA RESULT:    -3.351      1.592      2.811
REMARK INTER + INTRA:          -3.706
REMARK INTER:                  -3.550
REMARK INTRA:                  -0.156
REMARK UNBOUND:                -0.159
REMARK SMILES CC(C)[C@H]1CC[C@@H](C)CC1=O
REMARK SMILES IDX 8 1 7 2 6 3 5 4 4 5 10 6 11 7 9 8 2 9 1 10 3 11
REMARK H PARENT
REMARK Flexibility Score: inf
ROOT
ATOM      1  C   UNL     1     163.526 164.867 164.875  1.00  0.00     0.008 C 
ATOM      2  C   UNL     1     164.960 164.359 165.088  1.00  0.00    -0.007 C 
ATOM      3  C   UNL     1     165.083 163.501 166.368  1.00  0.00     0.004 C 
ATOM      4  C   UNL     1     164.991 164.332 167.664  1.00  0.00     0.012 C 
ATOM      5  C   UNL     1     166.033 165.478 167.692  1.00  0.00     0.058 C 
ATOM      6  C   UNL     1     165.880 166.264 166.402  1.00  0.00     0.136 C 
ATOM      7  O   UNL     1     165.599 167.455 166.399  1.00  0.00    -0.299 OA
ATOM      8  C   UNL     1     165.974 165.518 165.103  1.00  0.00     0.079 C 
ENDROOT
BRANCH   5   9
ATOM      9  C   UNL     1     165.929 166.376 168.968  1.00  0.00    -0.007 C 
ATOM     10  C   UNL     1     167.329 166.764 169.481  1.00  0.00     0.008 C 
ATOM     11  C   UNL     1     165.162 165.693 170.115  1.00  0.00     0.008 C 
ENDBRANCH   5   9
TORSDOF 1
ENDMDL
MODEL 5
REMARK VINA RESULT:    -3.348      1.263      4.064
REMARK INTER + INTRA:          -3.702
REMARK INTER:                  -3.599
REMARK INTRA:                  -0.104
REMARK UNBOUND:                -0.159
REMARK SMILES CC(C)[C@H]1CC[C@@H](C)CC1=O
REMARK SMILES IDX 8 1 7 2 6 3 5 4 4 5 10 6 11 7 9 8 2 9 1 10 3 11
REMARK H PARENT
REMARK Flexibility Score: inf
ROOT
ATOM      1  C   UNL     1     166.000 163.922 170.456  1.00  0.00     0.008 C 
ATOM      2  C   UNL     1     164.927 164.972 170.128  1.00  0.00    -0.007 C 
ATOM      3  C   UNL     1     164.125 164.600 168.861  1.00  0.00     0.004 C 
ATOM      4  C   UNL     1     164.938 164.762 167.560  1.00  0.00     0.012 C 
ATOM      5  C   UNL     1     165.524 166.189 167.417  1.00  0.00     0.058 C 
ATOM      6  C   UNL     1     166.275 166.504 168.700  1.00  0.00     0.136 C 
ATOM      7  O   UNL     1     167.470 166.765 168.702  1.00  0.00    -0.299 OA
ATOM      8  C   UNL     1     165.536 166.381 170.000  1.00  0.00     0.079 C 
ENDROOT
BRANCH   5   9
ATOM      9  C   UNL     1     166.403 166.370 166.137  1.00  0.00    -0.007 C 
ATOM     10  C   UNL     1     166.399 167.839 165.672  1.00  0.00     0.008 C 
ATOM     11  C   UNL     1     165.936 165.486 164.965  1.00  0.00     0.008 C 
ENDBRANCH   5   9
TORSDOF 1
ENDMDL
MODEL 6
REMARK VINA RESULT:    -3.337      1.851      3.649
REMARK INTER + INTRA:          -3.691
REMARK INTER:                  -3.578
REMARK INTRA:                  -0.113
REMARK UNBOUND:                -0.159
REMARK SMILES CC(C)[C@H]1CC[C@@H](C)CC1=O
REMARK SMILES IDX 8 1 7 2 6 3 5 4 4 5 10 6 11 7 9 8 2 9 1 10 3 11
REMARK H PARENT
REMARK Flexibility Score: inf
ROOT
ATOM      1  C   UNL     1     165.250 167.271 170.365  1.00  0.00     0.008 C 
ATOM      2  C   UNL     1     166.278 166.178 170.035  1.00  0.00    -0.007 C 
ATOM      3  C   UNL     1     167.101 166.523 168.773  1.00  0.00     0.004 C 
ATOM      4  C   UNL     1     166.287 166.404 167.468  1.00  0.00     0.012 C 
ATOM      5  C   UNL     1     165.642 165.005 167.314  1.00  0.00     0.058 C 
ATOM      6  C   UNL     1     164.872 164.714 168.591  1.00  0.00     0.136 C 
ATOM      7  O   UNL     1     163.667 164.505 168.588  1.00  0.00    -0.299 OA
ATOM      8  C   UNL     1     165.610 164.797 169.896  1.00  0.00     0.079 C 
ENDROOT
BRANCH   5   9
ATOM      9  C   UNL     1     164.761 164.869 166.029  1.00  0.00    -0.007 C 
ATOM     10  C   UNL     1     164.731 163.410 165.536  1.00  0.00     0.008 C 
ATOM     11  C   UNL     1     165.250 165.763 164.875  1.00  0.00     0.008 C 
ENDBRANCH   5   9
TORSDOF 1
ENDMDL
MODEL 7
REMARK VINA RESULT:    -3.333      1.694      2.509
REMARK INTER + INTRA:          -3.687
REMARK INTER:                  -3.531
REMARK INTRA:                  -0.156
REMARK UNBOUND:                -0.159
REMARK SMILES CC(C)[C@H]1CC[C@@H](C)CC1=O
REMARK SMILES IDX 8 1 7 2 6 3 5 4 4 5 10 6 11 7 9 8 2 9 1 10 3 11
REMARK H PARENT
REMARK Flexibility Score: inf
ROOT
ATOM      1  C   UNL     1     167.528 166.324 164.875  1.00  0.00     0.008 C 
ATOM      2  C   UNL     1     166.098 166.818 165.142  1.00  0.00    -0.007 C 
ATOM      3  C   UNL     1     166.007 167.639 166.449  1.00  0.00     0.004 C 
ATOM      4  C   UNL     1     166.139 166.774 167.718  1.00  0.00     0.012 C 
ATOM      5  C   UNL     1     165.105 165.621 167.744  1.00  0.00     0.058 C 
ATOM      6  C   UNL     1     165.225 164.871 166.428  1.00  0.00     0.136 C 
ATOM      7  O   UNL     1     165.513 163.683 166.384  1.00  0.00    -0.299 OA
ATOM      8  C   UNL     1     165.090 165.653 165.154  1.00  0.00     0.079 C 
ENDROOT
BRANCH   5   9
ATOM      9  C   UNL     1     165.249 164.689 168.991  1.00  0.00    -0.007 C 
ATOM     10  C   UNL     1     163.867 164.278 169.532  1.00  0.00     0.008 C 
ATOM     11  C   UNL     1     166.045 165.345 170.135  1.00  0.00     0.008 C 
ENDBRANCH   5   9
TORSDOF 1
ENDMDL
MODEL 8
REMARK VINA RESULT:    -3.181      1.684      2.828
REMARK INTER + INTRA:          -3.526
REMARK INTER:                  -3.351
REMARK INTRA:                  -0.175
REMARK UNBOUND:                -0.159
REMARK SMILES CC(C)[C@H]1CC[C@@H](C)CC1=O
REMARK SMILES IDX 8 1 7 2 6 3 5 4 4 5 10 6 11 7 9 8 2 9 1 10 3 11
REMARK H PARENT
REMARK Flexibility Score: inf
ROOT
ATOM      1  C   UNL     1     167.702 166.542 166.617  1.00  0.00     0.008 C 
ATOM      2  C   UNL     1     166.213 166.915 166.694  1.00  0.00    -0.007 C 
ATOM      3  C   UNL     1     165.821 167.431 168.097  1.00  0.00     0.004 C 
ATOM      4  C   UNL     1     165.783 166.318 169.163  1.00  0.00     0.012 C 
ATOM      5  C   UNL     1     164.853 165.150 168.749  1.00  0.00     0.058 C 
ATOM      6  C   UNL     1     165.271 164.707 167.357  1.00  0.00     0.136 C 
ATOM      7  O   UNL     1     165.652 163.567 167.128  1.00  0.00    -0.299 OA
ATOM      8  C   UNL     1     165.313 165.740 166.269  1.00  0.00     0.079 C 
ENDROOT
BRANCH   5   9
ATOM      9  C   UNL     1     164.837 163.977 169.783  1.00  0.00    -0.007 C 
ATOM     10  C   UNL     1     163.492 163.923 170.532  1.00  0.00     0.008 C 
ATOM     11  C   UNL     1     165.970 164.083 170.821  1.00  0.00     0.008 C 
ENDBRANCH   5   9
TORSDOF 1
ENDMDL
