MODEL 1
REMARK VINA RESULT:    -6.488      0.000      0.000
REMARK INTER + INTRA:         -11.179
REMARK INTER:                  -9.712
REMARK INTRA:                  -1.467
REMARK UNBOUND:                -1.467
REMARK SMILES COC(=O)C1=CO[C@@H](O[C@@H]2O[C@H](CO)[C@@H](O)[C@H](O)[C@@H]2O)[C@@H]2C(CO)=CC[C@@H]12
REMARK SMILES IDX 9 1 8 2 5 3 6 4 27 5 7 6 21 7 26 8 22 9 25 10 3 11 4 12 2 13
REMARK SMILES IDX 1 14 23 15 24 16 10 18 19 19 11 20 17 21 12 22 15 23 20 24
REMARK SMILES IDX 18 26 13 28 14 29 16 31
REMARK H PARENT 24 17 20 25 18 27 14 30 16 32
REMARK Flexibility Score: inf
ROOT
ATOM      1  O   UNL     1       8.899  12.817 -18.646  1.00  0.00    -0.310 OA
ENDROOT
BRANCH   1   2
ATOM      2  C   UNL     1       8.185  13.726 -19.471  1.00  0.00     0.316 C 
ATOM      3  C   UNL     1       8.639  15.489 -21.792  1.00  0.00     0.076 C 
ATOM      4  C   UNL     1       8.503  14.164 -21.956  1.00  0.00     0.202 C 
ATOM      5  C   UNL     1       8.246  16.013 -20.435  1.00  0.00     0.047 C 
ATOM      6  O   UNL     1       8.210  13.315 -20.862  1.00  0.00    -0.471 OA
ATOM      7  C   UNL     1       8.851  15.113 -19.367  1.00  0.00     0.094 C 
ATOM      8  C   UNL     1       8.638  17.414 -19.975  1.00  0.00     0.037 C 
ATOM      9  C   UNL     1       8.685  15.959 -18.135  1.00  0.00    -0.039 C 
ATOM     10  C   UNL     1       8.604  17.244 -18.487  1.00  0.00    -0.024 C 
BRANCH   3  11
ATOM     11  C   UNL     1       8.988  16.364 -22.937  1.00  0.00     0.337 C 
ATOM     12  O   UNL     1       8.226  17.319 -23.253  1.00  0.00    -0.246 OA
BRANCH  11  13
ATOM     13  O   UNL     1      10.148  16.123 -23.684  1.00  0.00    -0.466 OA
ATOM     14  C   UNL     1      10.113  15.728 -25.050  1.00  0.00     0.282 C 
ENDBRANCH  11  13
ENDBRANCH   3  11
BRANCH   9  15
ATOM     15  C   UNL     1       8.871  15.494 -16.717  1.00  0.00     0.187 C 
BRANCH  15  16
ATOM     16  O   UNL     1       7.639  15.113 -16.160  1.00  0.00    -0.392 OA
ATOM     17  H   UNL     1       7.164  15.957 -15.950  1.00  0.00     0.211 HD
ENDBRANCH  15  16
ENDBRANCH   9  15
ENDBRANCH   1   2
BRANCH   1  18
ATOM     18  C   UNL     1       8.053  12.051 -17.801  1.00  0.00     0.286 C 
ATOM     19  C   UNL     1       8.030  10.579 -18.258  1.00  0.00     0.202 C 
ATOM     20  O   UNL     1       8.376  12.202 -16.425  1.00  0.00    -0.341 OA
ATOM     21  C   UNL     1       9.329   9.853 -17.896  1.00  0.00     0.179 C 
ATOM     22  C   UNL     1       9.580  11.558 -16.014  1.00  0.00     0.178 C 
ATOM     23  C   UNL     1       9.629  10.059 -16.400  1.00  0.00     0.177 C 
BRANCH  19  24
ATOM     24  O   UNL     1       7.812  10.525 -19.643  1.00  0.00    -0.385 OA
ATOM     25  H   UNL     1       8.080   9.617 -19.941  1.00  0.00     0.211 HD
ENDBRANCH  19  24
BRANCH  21  26
ATOM     26  O   UNL     1      10.385  10.307 -18.706  1.00  0.00    -0.387 OA
ATOM     27  H   UNL     1      10.099  11.184 -19.085  1.00  0.00     0.211 HD
ENDBRANCH  21  26
BRANCH  22  28
ATOM     28  C   UNL     1      10.838  12.371 -16.399  1.00  0.00     0.191 C 
BRANCH  28  29
ATOM     29  O   UNL     1      11.978  11.554 -16.451  1.00  0.00    -0.394 OA
ATOM     30  H   UNL     1      11.929  11.036 -17.295  1.00  0.00     0.210 HD
ENDBRANCH  28  29
ENDBRANCH  22  28
BRANCH  23  31
ATOM     31  O   UNL     1       8.682   9.368 -15.620  1.00  0.00    -0.387 OA
ATOM     32  H   UNL     1       8.678   8.426 -15.934  1.00  0.00     0.211 HD
ENDBRANCH  23  31
ENDBRANCH   1  18
TORSDOF 11
ENDMDL
MODEL 2
REMARK VINA RESULT:    -6.339      3.046      8.514
REMARK INTER + INTRA:         -10.956
REMARK INTER:                  -9.499
REMARK INTRA:                  -1.457
REMARK UNBOUND:                -1.467
REMARK SMILES COC(=O)C1=CO[C@@H](O[C@@H]2O[C@H](CO)[C@@H](O)[C@H](O)[C@@H]2O)[C@@H]2C(CO)=CC[C@@H]12
REMARK SMILES IDX 9 1 8 2 5 3 6 4 27 5 7 6 21 7 26 8 22 9 25 10 3 11 4 12 2 13
REMARK SMILES IDX 1 14 23 15 24 16 10 18 19 19 11 20 17 21 12 22 15 23 20 24
REMARK SMILES IDX 18 26 13 28 14 29 16 31
REMARK H PARENT 24 17 20 25 18 27 14 30 16 32
REMARK Flexibility Score: inf
ROOT
ATOM      1  O   UNL     1       8.881  12.215 -15.526  1.00  0.00    -0.310 OA
ENDROOT
BRANCH   1   2
ATOM      2  C   UNL     1       8.038  11.089 -15.328  1.00  0.00     0.316 C 
ATOM      3  C   UNL     1       7.203   9.259 -13.170  1.00  0.00     0.076 C 
ATOM      4  C   UNL     1       6.684  10.494 -13.259  1.00  0.00     0.202 C 
ATOM      5  C   UNL     1       7.968   8.795 -14.382  1.00  0.00     0.047 C 
ATOM      6  O   UNL     1       7.019  11.355 -14.331  1.00  0.00    -0.471 OA
ATOM      7  C   UNL     1       8.901   9.911 -14.832  1.00  0.00     0.094 C 
ATOM      8  C   UNL     1       8.883   7.575 -14.330  1.00  0.00     0.037 C 
ATOM      9  C   UNL     1       9.817   9.175 -15.769  1.00  0.00    -0.039 C 
ATOM     10  C   UNL     1       9.825   7.877 -15.454  1.00  0.00    -0.024 C 
BRANCH   3  11
ATOM     11  C   UNL     1       6.879   8.380 -12.021  1.00  0.00     0.337 C 
ATOM     12  O   UNL     1       6.201   7.331 -12.203  1.00  0.00    -0.246 OA
BRANCH  11  13
ATOM     13  O   UNL     1       7.302   8.719 -10.730  1.00  0.00    -0.466 OA
ATOM     14  C   UNL     1       6.921   7.978  -9.578  1.00  0.00     0.282 C 
ENDBRANCH  11  13
ENDBRANCH   3  11
BRANCH   9  15
ATOM     15  C   UNL     1      10.795   9.808 -16.720  1.00  0.00     0.187 C 
BRANCH  15  16
ATOM     16  O   UNL     1      11.295  11.006 -16.185  1.00  0.00    -0.392 OA
ATOM     17  H   UNL     1      12.181  10.782 -15.800  1.00  0.00     0.211 HD
ENDBRANCH  15  16
ENDBRANCH   9  15
ENDBRANCH   1   2
BRANCH   1  18
ATOM     18  C   UNL     1       8.161  13.429 -15.676  1.00  0.00     0.286 C 
ATOM     19  C   UNL     1       9.121  14.634 -15.620  1.00  0.00     0.202 C 
ATOM     20  O   UNL     1       7.332  13.432 -16.830  1.00  0.00    -0.341 OA
ATOM     21  C   UNL     1       9.940  14.765 -16.907  1.00  0.00     0.179 C 
ATOM     22  C   UNL     1       8.025  13.544 -18.071  1.00  0.00     0.178 C 
ATOM     23  C   UNL     1       8.991  14.754 -18.119  1.00  0.00     0.177 C 
BRANCH  19  24
ATOM     24  O   UNL     1       9.973  14.498 -14.513  1.00  0.00    -0.385 OA
ATOM     25  H   UNL     1      10.041  13.527 -14.320  1.00  0.00     0.211 HD
ENDBRANCH  19  24
BRANCH  21  26
ATOM     26  O   UNL     1      10.896  13.738 -16.986  1.00  0.00    -0.387 OA
ATOM     27  H   UNL     1      11.791  14.177 -16.964  1.00  0.00     0.211 HD
ENDBRANCH  21  26
BRANCH  22  28
ATOM     28  C   UNL     1       8.644  12.199 -18.518  1.00  0.00     0.191 C 
BRANCH  28  29
ATOM     29  O   UNL     1       9.677  12.396 -19.448  1.00  0.00    -0.394 OA
ATOM     30  H   UNL     1       9.908  13.359 -19.429  1.00  0.00     0.210 HD
ENDBRANCH  28  29
ENDBRANCH  22  28
BRANCH  23  31
ATOM     31  O   UNL     1       8.223  15.935 -18.141  1.00  0.00    -0.387 OA
ATOM     32  H   UNL     1       8.053  16.188 -17.195  1.00  0.00     0.211 HD
ENDBRANCH  23  31
ENDBRANCH   1  18
TORSDOF 11
ENDMDL
MODEL 3
REMARK VINA RESULT:    -6.248      3.381      8.704
REMARK INTER + INTRA:         -10.819
REMARK INTER:                  -9.383
REMARK INTRA:                  -1.436
REMARK UNBOUND:                -1.467
REMARK SMILES COC(=O)C1=CO[C@@H](O[C@@H]2O[C@H](CO)[C@@H](O)[C@H](O)[C@@H]2O)[C@@H]2C(CO)=CC[C@@H]12
REMARK SMILES IDX 9 1 8 2 5 3 6 4 27 5 7 6 21 7 26 8 22 9 25 10 3 11 4 12 2 13
REMARK SMILES IDX 1 14 23 15 24 16 10 18 19 19 11 20 17 21 12 22 15 23 20 24
REMARK SMILES IDX 18 26 13 28 14 29 16 31
REMARK H PARENT 24 17 20 25 18 27 14 30 16 32
REMARK Flexibility Score: inf
ROOT
ATOM      1  O   UNL     1       8.346  11.766 -15.538  1.00  0.00    -0.310 OA
ENDROOT
BRANCH   1   2
ATOM      2  C   UNL     1       7.531  10.650 -15.209  1.00  0.00     0.316 C 
ATOM      3  C   UNL     1       6.904   8.926 -12.899  1.00  0.00     0.076 C 
ATOM      4  C   UNL     1       6.373  10.154 -13.000  1.00  0.00     0.202 C 
ATOM      5  C   UNL     1       7.560   8.404 -14.152  1.00  0.00     0.047 C 
ATOM      6  O   UNL     1       6.605  10.963 -14.138  1.00  0.00    -0.471 OA
ATOM      7  C   UNL     1       8.441   9.498 -14.738  1.00  0.00     0.094 C 
ATOM      8  C   UNL     1       8.482   7.189 -14.125  1.00  0.00     0.037 C 
ATOM      9  C   UNL     1       9.272   8.719 -15.718  1.00  0.00    -0.039 C 
ATOM     10  C   UNL     1       9.317   7.438 -15.343  1.00  0.00    -0.024 C 
BRANCH   3  11
ATOM     11  C   UNL     1       6.692   8.103 -11.685  1.00  0.00     0.337 C 
ATOM     12  O   UNL     1       5.894   7.125 -11.720  1.00  0.00    -0.246 OA
BRANCH  11  13
ATOM     13  O   UNL     1       7.353   8.419 -10.491  1.00  0.00    -0.466 OA
ATOM     14  C   UNL     1       6.969   7.876  -9.234  1.00  0.00     0.282 C 
ENDBRANCH  11  13
ENDBRANCH   3  11
BRANCH   9  15
ATOM     15  C   UNL     1      10.157   9.306 -16.783  1.00  0.00     0.187 C 
BRANCH  15  16
ATOM     16  O   UNL     1       9.445   9.458 -17.984  1.00  0.00    -0.392 OA
ATOM     17  H   UNL     1       8.509   9.203 -17.780  1.00  0.00     0.211 HD
ENDBRANCH  15  16
ENDBRANCH   9  15
ENDBRANCH   1   2
BRANCH   1  18
ATOM     18  C   UNL     1       7.899  12.460 -16.693  1.00  0.00     0.286 C 
ATOM     19  C   UNL     1       7.451  13.888 -16.321  1.00  0.00     0.202 C 
ATOM     20  O   UNL     1       8.850  12.432 -17.748  1.00  0.00    -0.341 OA
ATOM     21  C   UNL     1       8.648  14.799 -16.032  1.00  0.00     0.179 C 
ATOM     22  C   UNL     1       9.999  13.251 -17.547  1.00  0.00     0.178 C 
ATOM     23  C   UNL     1       9.644  14.719 -17.203  1.00  0.00     0.177 C 
BRANCH  19  24
ATOM     24  O   UNL     1       6.600  13.834 -15.207  1.00  0.00    -0.385 OA
ATOM     25  H   UNL     1       6.889  14.555 -14.589  1.00  0.00     0.211 HD
ENDBRANCH  19  24
BRANCH  21  26
ATOM     26  O   UNL     1       9.250  14.443 -14.812  1.00  0.00    -0.387 OA
ATOM     27  H   UNL     1       9.007  15.152 -14.155  1.00  0.00     0.211 HD
ENDBRANCH  21  26
BRANCH  22  28
ATOM     28  C   UNL     1      11.029  12.592 -16.600  1.00  0.00     0.191 C 
BRANCH  28  29
ATOM     29  O   UNL     1      11.619  13.538 -15.748  1.00  0.00    -0.394 OA
ATOM     30  H   UNL     1      12.134  14.164 -16.318  1.00  0.00     0.210 HD
ENDBRANCH  28  29
ENDBRANCH  22  28
BRANCH  23  31
ATOM     31  O   UNL     1       9.090  15.323 -18.349  1.00  0.00    -0.387 OA
ATOM     32  H   UNL     1       8.102  15.268 -18.257  1.00  0.00     0.211 HD
ENDBRANCH  23  31
ENDBRANCH   1  18
TORSDOF 11
ENDMDL
MODEL 4
REMARK VINA RESULT:    -6.245      3.334      8.146
REMARK INTER + INTRA:         -10.815
REMARK INTER:                  -9.424
REMARK INTRA:                  -1.391
REMARK UNBOUND:                -1.467
REMARK SMILES COC(=O)C1=CO[C@@H](O[C@@H]2O[C@H](CO)[C@@H](O)[C@H](O)[C@@H]2O)[C@@H]2C(CO)=CC[C@@H]12
REMARK SMILES IDX 9 1 8 2 5 3 6 4 27 5 7 6 21 7 26 8 22 9 25 10 3 11 4 12 2 13
REMARK SMILES IDX 1 14 23 15 24 16 10 18 19 19 11 20 17 21 12 22 15 23 20 24
REMARK SMILES IDX 18 26 13 28 14 29 16 31
REMARK H PARENT 24 17 20 25 18 27 14 30 16 32
REMARK Flexibility Score: inf
ROOT
ATOM      1  O   UNL     1       8.768  11.278 -15.813  1.00  0.00    -0.310 OA
ENDROOT
BRANCH   1   2
ATOM      2  C   UNL     1       9.101  10.063 -15.158  1.00  0.00     0.316 C 
ATOM      3  C   UNL     1       8.258   7.236 -15.098  1.00  0.00     0.076 C 
ATOM      4  C   UNL     1       9.017   7.702 -16.102  1.00  0.00     0.202 C 
ATOM      5  C   UNL     1       8.142   8.147 -13.903  1.00  0.00     0.047 C 
ATOM      6  O   UNL     1       9.491   9.036 -16.105  1.00  0.00    -0.471 OA
ATOM      7  C   UNL     1       7.862   9.562 -14.390  1.00  0.00     0.094 C 
ATOM      8  C   UNL     1       7.078   7.929 -12.832  1.00  0.00     0.037 C 
ATOM      9  C   UNL     1       7.418  10.232 -13.119  1.00  0.00    -0.039 C 
ATOM     10  C   UNL     1       6.949   9.312 -12.273  1.00  0.00    -0.024 C 
BRANCH   3  11
ATOM     11  C   UNL     1       7.731   5.851 -15.124  1.00  0.00     0.337 C 
ATOM     12  O   UNL     1       8.519   4.875 -14.989  1.00  0.00    -0.246 OA
BRANCH  11  13
ATOM     13  O   UNL     1       6.364   5.618 -15.322  1.00  0.00    -0.466 OA
ATOM     14  C   UNL     1       5.875   4.560 -16.137  1.00  0.00     0.282 C 
ENDBRANCH  11  13
ENDBRANCH   3  11
BRANCH   9  15
ATOM     15  C   UNL     1       7.246  11.712 -12.919  1.00  0.00     0.187 C 
BRANCH  15  16
ATOM     16  O   UNL     1       8.483  12.319 -12.647  1.00  0.00    -0.392 OA
ATOM     17  H   UNL     1       8.924  11.744 -11.971  1.00  0.00     0.211 HD
ENDBRANCH  15  16
ENDBRANCH   9  15
ENDBRANCH   1   2
BRANCH   1  18
ATOM     18  C   UNL     1       9.841  12.208 -15.838  1.00  0.00     0.286 C 
ATOM     19  C   UNL     1      10.377  12.371 -17.274  1.00  0.00     0.202 C 
ATOM     20  O   UNL     1       9.503  13.446 -15.227  1.00  0.00    -0.341 OA
ATOM     21  C   UNL     1       9.423  13.192 -18.145  1.00  0.00     0.179 C 
ATOM     22  C   UNL     1       8.609  14.265 -15.977  1.00  0.00     0.178 C 
ATOM     23  C   UNL     1       9.088  14.513 -17.429  1.00  0.00     0.177 C 
BRANCH  19  24
ATOM     24  O   UNL     1      10.583  11.103 -17.840  1.00  0.00    -0.385 OA
ATOM     25  H   UNL     1      10.043  11.069 -18.672  1.00  0.00     0.211 HD
ENDBRANCH  19  24
BRANCH  21  26
ATOM     26  O   UNL     1       8.264  12.451 -18.436  1.00  0.00    -0.387 OA
ATOM     27  H   UNL     1       8.241  12.332 -19.426  1.00  0.00     0.211 HD
ENDBRANCH  21  26
BRANCH  22  28
ATOM     28  C   UNL     1       7.140  13.799 -15.847  1.00  0.00     0.191 C 
BRANCH  28  29
ATOM     29  O   UNL     1       6.372  14.727 -15.126  1.00  0.00    -0.394 OA
ATOM     30  H   UNL     1       5.437  14.645 -15.447  1.00  0.00     0.210 HD
ENDBRANCH  28  29
ENDBRANCH  22  28
BRANCH  23  31
ATOM     31  O   UNL     1      10.228  15.340 -17.386  1.00  0.00    -0.387 OA
ATOM     32  H   UNL     1      11.018  14.753 -17.515  1.00  0.00     0.211 HD
ENDBRANCH  23  31
ENDBRANCH   1  18
TORSDOF 11
ENDMDL
MODEL 5
REMARK VINA RESULT:    -6.227      0.891      1.297
REMARK INTER + INTRA:         -10.788
REMARK INTER:                  -9.889
REMARK INTRA:                  -0.899
REMARK UNBOUND:                -1.467
REMARK SMILES COC(=O)C1=CO[C@@H](O[C@@H]2O[C@H](CO)[C@@H](O)[C@H](O)[C@@H]2O)[C@@H]2C(CO)=CC[C@@H]12
REMARK SMILES IDX 9 1 8 2 5 3 6 4 27 5 7 6 21 7 26 8 22 9 25 10 3 11 4 12 2 13
REMARK SMILES IDX 1 14 23 15 24 16 10 18 19 19 11 20 17 21 12 22 15 23 20 24
REMARK SMILES IDX 18 26 13 28 14 29 16 31
REMARK H PARENT 24 17 20 25 18 27 14 30 16 32
REMARK Flexibility Score: inf
ROOT
ATOM      1  O   UNL     1       9.054  12.680 -18.203  1.00  0.00    -0.310 OA
ENDROOT
BRANCH   1   2
ATOM      2  C   UNL     1       8.302  13.535 -19.053  1.00  0.00     0.316 C 
ATOM      3  C   UNL     1       8.687  15.265 -21.411  1.00  0.00     0.076 C 
ATOM      4  C   UNL     1       8.615  13.932 -21.546  1.00  0.00     0.202 C 
ATOM      5  C   UNL     1       8.261  15.800 -20.069  1.00  0.00     0.047 C 
ATOM      6  O   UNL     1       8.355  13.095 -20.434  1.00  0.00    -0.471 OA
ATOM      7  C   UNL     1       8.901  14.954 -18.977  1.00  0.00     0.094 C 
ATOM      8  C   UNL     1       8.584  17.228 -19.638  1.00  0.00     0.037 C 
ATOM      9  C   UNL     1       8.688  15.819 -17.766  1.00  0.00    -0.039 C 
ATOM     10  C   UNL     1       8.549  17.091 -18.148  1.00  0.00    -0.024 C 
BRANCH   3  11
ATOM     11  C   UNL     1       9.002  16.130 -22.574  1.00  0.00     0.337 C 
ATOM     12  O   UNL     1       8.277  17.132 -22.826  1.00  0.00    -0.246 OA
BRANCH  11  13
ATOM     13  O   UNL     1      10.086  15.828 -23.407  1.00  0.00    -0.466 OA
ATOM     14  C   UNL     1       9.990  15.840 -24.827  1.00  0.00     0.282 C 
ENDBRANCH  11  13
ENDBRANCH   3  11
BRANCH   9  15
ATOM     15  C   UNL     1       8.887  15.395 -16.337  1.00  0.00     0.187 C 
BRANCH  15  16
ATOM     16  O   UNL     1       7.680  15.487 -15.625  1.00  0.00    -0.392 OA
ATOM     17  H   UNL     1       7.803  16.226 -14.975  1.00  0.00     0.211 HD
ENDBRANCH  15  16
ENDBRANCH   9  15
ENDBRANCH   1   2
BRANCH   1  18
ATOM     18  C   UNL     1       8.521  11.367 -18.125  1.00  0.00     0.286 C 
ATOM     19  C   UNL     1       9.604  10.327 -18.473  1.00  0.00     0.202 C 
ATOM     20  O   UNL     1       7.883  11.110 -16.882  1.00  0.00    -0.341 OA
ATOM     21  C   UNL     1      10.618  10.164 -17.337  1.00  0.00     0.179 C 
ATOM     22  C   UNL     1       8.764  10.955 -15.772  1.00  0.00     0.178 C 
ATOM     23  C   UNL     1       9.869   9.898 -16.019  1.00  0.00     0.177 C 
BRANCH  19  24
ATOM     24  O   UNL     1      10.255  10.711 -19.656  1.00  0.00    -0.385 OA
ATOM     25  H   UNL     1      11.000  11.312 -19.391  1.00  0.00     0.211 HD
ENDBRANCH  19  24
BRANCH  21  26
ATOM     26  O   UNL     1      11.440  11.301 -17.248  1.00  0.00    -0.387 OA
ATOM     27  H   UNL     1      11.215  11.879 -18.029  1.00  0.00     0.211 HD
ENDBRANCH  21  26
BRANCH  22  28
ATOM     28  C   UNL     1       9.271  12.313 -15.233  1.00  0.00     0.191 C 
BRANCH  28  29
ATOM     29  O   UNL     1       8.531  12.727 -14.114  1.00  0.00    -0.394 OA
ATOM     30  H   UNL     1       9.171  13.126 -13.471  1.00  0.00     0.210 HD
ENDBRANCH  28  29
ENDBRANCH  22  28
BRANCH  23  31
ATOM     31  O   UNL     1       9.267   8.625 -16.056  1.00  0.00    -0.387 OA
ATOM     32  H   UNL     1       8.507   8.681 -16.693  1.00  0.00     0.211 HD
ENDBRANCH  23  31
ENDBRANCH   1  18
TORSDOF 11
ENDMDL
MODEL 6
REMARK VINA RESULT:    -6.126      1.993      4.116
REMARK INTER + INTRA:         -10.638
REMARK INTER:                  -9.300
REMARK INTRA:                  -1.338
REMARK UNBOUND:                -1.467
REMARK SMILES COC(=O)C1=CO[C@@H](O[C@@H]2O[C@H](CO)[C@@H](O)[C@H](O)[C@@H]2O)[C@@H]2C(CO)=CC[C@@H]12
REMARK SMILES IDX 9 1 8 2 5 3 6 4 27 5 7 6 21 7 26 8 22 9 25 10 3 11 4 12 2 13
REMARK SMILES IDX 1 14 23 15 24 16 10 18 19 19 11 20 17 21 12 22 15 23 20 24
REMARK SMILES IDX 18 26 13 28 14 29 16 31
REMARK H PARENT 24 17 20 25 18 27 14 30 16 32
REMARK Flexibility Score: inf
ROOT
ATOM      1  O   UNL     1       9.112  12.382 -17.967  1.00  0.00    -0.310 OA
ENDROOT
BRANCH   1   2
ATOM      2  C   UNL     1       9.655  13.613 -18.422  1.00  0.00     0.316 C 
ATOM      3  C   UNL     1       8.909  16.459 -18.631  1.00  0.00     0.076 C 
ATOM      4  C   UNL     1       9.290  15.937 -17.455  1.00  0.00     0.202 C 
ATOM      5  C   UNL     1       9.183  15.598 -19.837  1.00  0.00     0.047 C 
ATOM      6  O   UNL     1       9.722  14.593 -17.355  1.00  0.00    -0.471 OA
ATOM      7  C   UNL     1       8.743  14.173 -19.532  1.00  0.00     0.094 C 
ATOM      8  C   UNL     1       8.533  15.883 -21.187  1.00  0.00     0.037 C 
ATOM      9  C   UNL     1       8.735  13.563 -20.907  1.00  0.00    -0.039 C 
ATOM     10  C   UNL     1       8.580  14.526 -21.819  1.00  0.00    -0.024 C 
BRANCH   3  11
ATOM     11  C   UNL     1       8.417  17.855 -18.718  1.00  0.00     0.337 C 
ATOM     12  O   UNL     1       7.182  18.079 -18.857  1.00  0.00    -0.246 OA
BRANCH  11  13
ATOM     13  O   UNL     1       9.317  18.927 -18.672  1.00  0.00    -0.466 OA
ATOM     14  C   UNL     1       8.922  20.247 -18.319  1.00  0.00     0.282 C 
ENDBRANCH  11  13
ENDBRANCH   3  11
BRANCH   9  15
ATOM     15  C   UNL     1       8.622  12.096 -21.217  1.00  0.00     0.187 C 
BRANCH  15  16
ATOM     16  O   UNL     1       9.867  11.464 -21.062  1.00  0.00    -0.392 OA
ATOM     17  H   UNL     1      10.235  11.797 -20.204  1.00  0.00     0.211 HD
ENDBRANCH  15  16
ENDBRANCH   9  15
ENDBRANCH   1   2
BRANCH   1  18
ATOM     18  C   UNL     1      10.104  11.405 -17.693  1.00  0.00     0.286 C 
ATOM     19  C   UNL     1      10.299  11.250 -16.171  1.00  0.00     0.202 C 
ATOM     20  O   UNL     1       9.850  10.170 -18.349  1.00  0.00    -0.341 OA
ATOM     21  C   UNL     1       9.135  10.493 -15.526  1.00  0.00     0.179 C 
ATOM     22  C   UNL     1       8.771   9.410 -17.808  1.00  0.00     0.178 C 
ATOM     23  C   UNL     1       8.902   9.173 -16.283  1.00  0.00     0.177 C 
BRANCH  19  24
ATOM     24  O   UNL     1      10.437  12.520 -15.589  1.00  0.00    -0.385 OA
ATOM     25  H   UNL     1      10.432  12.386 -14.605  1.00  0.00     0.211 HD
ENDBRANCH  19  24
BRANCH  21  26
ATOM     26  O   UNL     1       7.980  11.293 -15.509  1.00  0.00    -0.387 OA
ATOM     27  H   UNL     1       8.085  11.964 -16.239  1.00  0.00     0.211 HD
ENDBRANCH  21  26
BRANCH  22  28
ATOM     28  C   UNL     1       7.393   9.940 -18.268  1.00  0.00     0.191 C 
BRANCH  28  29
ATOM     29  O   UNL     1       7.007   9.366 -19.490  1.00  0.00    -0.394 OA
ATOM     30  H   UNL     1       6.120   9.742 -19.722  1.00  0.00     0.210 HD
ENDBRANCH  28  29
ENDBRANCH  22  28
BRANCH  23  31
ATOM     31  O   UNL     1       9.981   8.294 -16.061  1.00  0.00    -0.387 OA
ATOM     32  H   UNL     1       9.835   7.502 -16.642  1.00  0.00     0.211 HD
ENDBRANCH  23  31
ENDBRANCH   1  18
TORSDOF 11
ENDMDL
MODEL 7
REMARK VINA RESULT:    -6.099      1.854      2.686
REMARK INTER + INTRA:         -10.597
REMARK INTER:                  -9.292
REMARK INTRA:                  -1.306
REMARK UNBOUND:                -1.467
REMARK SMILES COC(=O)C1=CO[C@@H](O[C@@H]2O[C@H](CO)[C@@H](O)[C@H](O)[C@@H]2O)[C@@H]2C(CO)=CC[C@@H]12
REMARK SMILES IDX 9 1 8 2 5 3 6 4 27 5 7 6 21 7 26 8 22 9 25 10 3 11 4 12 2 13
REMARK SMILES IDX 1 14 23 15 24 16 10 18 19 19 11 20 17 21 12 22 15 23 20 24
REMARK SMILES IDX 18 26 13 28 14 29 16 31
REMARK H PARENT 24 17 20 25 18 27 14 30 16 32
REMARK Flexibility Score: inf
ROOT
ATOM      1  O   UNL     1       8.601  11.894 -17.153  1.00  0.00    -0.310 OA
ENDROOT
BRANCH   1   2
ATOM      2  C   UNL     1       8.348  13.232 -17.554  1.00  0.00     0.316 C 
ATOM      3  C   UNL     1       8.478  14.919 -19.971  1.00  0.00     0.076 C 
ATOM      4  C   UNL     1       7.465  14.056 -19.793  1.00  0.00     0.202 C 
ATOM      5  C   UNL     1       9.328  15.173 -18.753  1.00  0.00     0.047 C 
ATOM      6  O   UNL     1       7.350  13.296 -18.605  1.00  0.00    -0.471 OA
ATOM      7  C   UNL     1       9.657  13.839 -18.097  1.00  0.00     0.094 C 
ATOM      8  C   UNL     1      10.689  15.856 -18.857  1.00  0.00     0.037 C 
ATOM      9  C   UNL     1      10.772  14.231 -17.167  1.00  0.00    -0.039 C 
ATOM     10  C   UNL     1      11.362  15.338 -17.623  1.00  0.00    -0.024 C 
BRANCH   3  11
ATOM     11  C   UNL     1       8.614  15.679 -21.236  1.00  0.00     0.337 C 
ATOM     12  O   UNL     1       8.457  16.931 -21.237  1.00  0.00    -0.246 OA
BRANCH  11  13
ATOM     13  O   UNL     1       8.894  15.013 -22.435  1.00  0.00    -0.466 OA
ATOM     14  C   UNL     1       9.372  15.685 -23.594  1.00  0.00     0.282 C 
ENDBRANCH  11  13
ENDBRANCH   3  11
BRANCH   9  15
ATOM     15  C   UNL     1      11.338  13.379 -16.065  1.00  0.00     0.187 C 
BRANCH  15  16
ATOM     16  O   UNL     1      11.540  12.064 -16.515  1.00  0.00    -0.392 OA
ATOM     17  H   UNL     1      12.348  11.737 -16.044  1.00  0.00     0.211 HD
ENDBRANCH  15  16
ENDBRANCH   9  15
ENDBRANCH   1   2
BRANCH   1  18
ATOM     18  C   UNL     1       7.415  11.132 -16.981  1.00  0.00     0.286 C 
ATOM     19  C   UNL     1       7.725   9.625 -17.091  1.00  0.00     0.202 C 
ATOM     20  O   UNL     1       6.717  11.471 -15.790  1.00  0.00    -0.341 OA
ATOM     21  C   UNL     1       8.442   9.103 -15.843  1.00  0.00     0.179 C 
ATOM     22  C   UNL     1       7.330  11.024 -14.583  1.00  0.00     0.178 C 
ATOM     23  C   UNL     1       7.646   9.507 -14.589  1.00  0.00     0.177 C 
BRANCH  19  24
ATOM     24  O   UNL     1       8.505   9.393 -18.234  1.00  0.00    -0.385 OA
ATOM     25  H   UNL     1       8.592  10.263 -18.704  1.00  0.00     0.211 HD
ENDBRANCH  19  24
BRANCH  21  26
ATOM     26  O   UNL     1       9.762   9.586 -15.799  1.00  0.00    -0.387 OA
ATOM     27  H   UNL     1       9.838  10.136 -14.971  1.00  0.00     0.211 HD
ENDBRANCH  21  26
BRANCH  22  28
ATOM     28  C   UNL     1       8.506  11.932 -14.154  1.00  0.00     0.191 C 
BRANCH  28  29
ATOM     29  O   UNL     1       8.444  12.234 -12.784  1.00  0.00    -0.394 OA
ATOM     30  H   UNL     1       8.720  11.420 -12.291  1.00  0.00     0.210 HD
ENDBRANCH  28  29
ENDBRANCH  22  28
BRANCH  23  31
ATOM     31  O   UNL     1       6.429   8.800 -14.543  1.00  0.00    -0.387 OA
ATOM     32  H   UNL     1       5.699   9.472 -14.594  1.00  0.00     0.211 HD
ENDBRANCH  23  31
ENDBRANCH   1  18
TORSDOF 11
ENDMDL
MODEL 8
REMARK VINA RESULT:    -6.060      2.698      8.177
REMARK INTER + INTRA:         -10.538
REMARK INTER:                  -8.871
REMARK INTRA:                  -1.666
REMARK UNBOUND:                -1.467
REMARK SMILES COC(=O)C1=CO[C@@H](O[C@@H]2O[C@H](CO)[C@@H](O)[C@H](O)[C@@H]2O)[C@@H]2C(CO)=CC[C@@H]12
REMARK SMILES IDX 9 1 8 2 5 3 6 4 27 5 7 6 21 7 26 8 22 9 25 10 3 11 4 12 2 13
REMARK SMILES IDX 1 14 23 15 24 16 10 18 19 19 11 20 17 21 12 22 15 23 20 24
REMARK SMILES IDX 18 26 13 28 14 29 16 31
REMARK H PARENT 24 17 20 25 18 27 14 30 16 32
REMARK Flexibility Score: inf
ROOT
ATOM      1  O   UNL     1       8.455  11.951 -16.711  1.00  0.00    -0.310 OA
ENDROOT
BRANCH   1   2
ATOM      2  C   UNL     1       7.946  10.662 -16.397  1.00  0.00     0.316 C 
ATOM      3  C   UNL     1       7.229   9.041 -14.039  1.00  0.00     0.076 C 
ATOM      4  C   UNL     1       6.411  10.011 -14.477  1.00  0.00     0.202 C 
ATOM      5  C   UNL     1       8.335   8.656 -14.988  1.00  0.00     0.047 C 
ATOM      6  O   UNL     1       6.706  10.746 -15.650  1.00  0.00    -0.471 OA
ATOM      7  C   UNL     1       8.983   9.923 -15.527  1.00  0.00     0.094 C 
ATOM      8  C   UNL     1       9.527   7.822 -14.529  1.00  0.00     0.037 C 
ATOM      9  C   UNL     1      10.248   9.378 -16.129  1.00  0.00    -0.039 C 
ATOM     10  C   UNL     1      10.560   8.223 -15.536  1.00  0.00    -0.024 C 
BRANCH   3  11
ATOM     11  C   UNL     1       6.934   8.306 -12.786  1.00  0.00     0.337 C 
ATOM     12  O   UNL     1       6.310   7.210 -12.832  1.00  0.00    -0.246 OA
BRANCH  11  13
ATOM     13  O   UNL     1       7.323   8.832 -11.548  1.00  0.00    -0.466 OA
ATOM     14  C   UNL     1       6.940   8.247 -10.310  1.00  0.00     0.282 C 
ENDBRANCH  11  13
ENDBRANCH   3  11
BRANCH   9  15
ATOM     15  C   UNL     1      11.184  10.127 -17.037  1.00  0.00     0.187 C 
BRANCH  15  16
ATOM     16  O   UNL     1      11.320  11.458 -16.612  1.00  0.00    -0.392 OA
ATOM     17  H   UNL     1      10.398  11.811 -16.523  1.00  0.00     0.211 HD
ENDBRANCH  15  16
ENDBRANCH   9  15
ENDBRANCH   1   2
BRANCH   1  18
ATOM     18  C   UNL     1       7.447  12.860 -17.128  1.00  0.00     0.286 C 
ATOM     19  C   UNL     1       7.796  14.292 -16.677  1.00  0.00     0.202 C 
ATOM     20  O   UNL     1       7.169  12.766 -18.518  1.00  0.00    -0.341 OA
ATOM     21  C   UNL     1       8.923  14.892 -17.523  1.00  0.00     0.179 C 
ATOM     22  C   UNL     1       8.180  13.298 -19.372  1.00  0.00     0.178 C 
ATOM     23  C   UNL     1       8.570  14.754 -19.015  1.00  0.00     0.177 C 
BRANCH  19  24
ATOM     24  O   UNL     1       8.159  14.278 -15.322  1.00  0.00    -0.385 OA
ATOM     25  H   UNL     1       7.316  14.261 -14.799  1.00  0.00     0.211 HD
ENDBRANCH  19  24
BRANCH  21  26
ATOM     26  O   UNL     1      10.147  14.272 -17.218  1.00  0.00    -0.387 OA
ATOM     27  H   UNL     1      10.104  13.351 -17.597  1.00  0.00     0.211 HD
ENDBRANCH  21  26
BRANCH  22  28
ATOM     28  C   UNL     1       9.372  12.328 -19.544  1.00  0.00     0.191 C 
BRANCH  28  29
ATOM     29  O   UNL     1       8.935  11.002 -19.686  1.00  0.00    -0.394 OA
ATOM     30  H   UNL     1       7.947  11.007 -19.595  1.00  0.00     0.210 HD
ENDBRANCH  28  29
ENDBRANCH  22  28
BRANCH  23  31
ATOM     31  O   UNL     1       7.486  15.596 -19.334  1.00  0.00    -0.387 OA
ATOM     32  H   UNL     1       6.664  15.041 -19.288  1.00  0.00     0.211 HD
ENDBRANCH  23  31
ENDBRANCH   1  18
TORSDOF 11
ENDMDL
MODEL 9
REMARK VINA RESULT:    -6.037      1.746      2.126
REMARK INTER + INTRA:         -10.504
REMARK INTER:                  -8.923
REMARK INTRA:                  -1.581
REMARK UNBOUND:                -1.467
REMARK SMILES COC(=O)C1=CO[C@@H](O[C@@H]2O[C@H](CO)[C@@H](O)[C@H](O)[C@@H]2O)[C@@H]2C(CO)=CC[C@@H]12
REMARK SMILES IDX 9 1 8 2 5 3 6 4 27 5 7 6 21 7 26 8 22 9 25 10 3 11 4 12 2 13
REMARK SMILES IDX 1 14 23 15 24 16 10 18 19 19 11 20 17 21 12 22 15 23 20 24
REMARK SMILES IDX 18 26 13 28 14 29 16 31
REMARK H PARENT 24 17 20 25 18 27 14 30 16 32
REMARK Flexibility Score: inf
ROOT
ATOM      1  O   UNL     1       8.654  11.676 -17.703  1.00  0.00    -0.310 OA
ENDROOT
BRANCH   1   2
ATOM      2  C   UNL     1       8.318  13.006 -18.072  1.00  0.00     0.316 C 
ATOM      3  C   UNL     1       8.540  14.821 -20.387  1.00  0.00     0.076 C 
ATOM      4  C   UNL     1       7.601  13.862 -20.357  1.00  0.00     0.202 C 
ATOM      5  C   UNL     1       9.230  15.087 -19.074  1.00  0.00     0.047 C 
ATOM      6  O   UNL     1       7.435  13.033 -19.222  1.00  0.00    -0.471 OA
ATOM      7  C   UNL     1       9.614  13.756 -18.442  1.00  0.00     0.094 C 
ATOM      8  C   UNL     1      10.522  15.894 -18.998  1.00  0.00     0.037 C 
ATOM      9  C   UNL     1      10.582  14.198 -17.380  1.00  0.00    -0.039 C 
ATOM     10  C   UNL     1      11.109  15.376 -17.722  1.00  0.00    -0.024 C 
BRANCH   3  11
ATOM     11  C   UNL     1       8.735  15.656 -21.596  1.00  0.00     0.337 C 
ATOM     12  O   UNL     1       8.474  16.890 -21.557  1.00  0.00    -0.246 OA
BRANCH  11  13
ATOM     13  O   UNL     1       9.187  15.078 -22.789  1.00  0.00    -0.466 OA
ATOM     14  C   UNL     1       9.624  15.851 -23.900  1.00  0.00     0.282 C 
ENDBRANCH  11  13
ENDBRANCH   3  11
BRANCH   9  15
ATOM     15  C   UNL     1      11.108  13.343 -16.260  1.00  0.00     0.187 C 
BRANCH  15  16
ATOM     16  O   UNL     1      10.162  13.251 -15.226  1.00  0.00    -0.392 OA
ATOM     17  H   UNL     1       9.370  12.806 -15.623  1.00  0.00     0.211 HD
ENDBRANCH  15  16
ENDBRANCH   9  15
ENDBRANCH   1   2
BRANCH   1  18
ATOM     18  C   UNL     1       7.812  11.152 -16.686  1.00  0.00     0.286 C 
ATOM     19  C   UNL     1       6.952  10.001 -17.243  1.00  0.00     0.202 C 
ATOM     20  O   UNL     1       8.531  10.793 -15.514  1.00  0.00    -0.341 OA
ATOM     21  C   UNL     1       7.776   8.727 -17.451  1.00  0.00     0.179 C 
ATOM     22  C   UNL     1       9.331   9.618 -15.634  1.00  0.00     0.178 C 
ATOM     23  C   UNL     1       8.536   8.395 -16.154  1.00  0.00     0.177 C 
BRANCH  19  24
ATOM     24  O   UNL     1       6.364  10.403 -18.453  1.00  0.00    -0.385 OA
ATOM     25  H   UNL     1       5.679  11.085 -18.227  1.00  0.00     0.211 HD
ENDBRANCH  19  24
BRANCH  21  26
ATOM     26  O   UNL     1       8.650   8.882 -18.541  1.00  0.00    -0.387 OA
ATOM     27  H   UNL     1       8.989   9.819 -18.506  1.00  0.00     0.211 HD
ENDBRANCH  21  26
BRANCH  22  28
ATOM     28  C   UNL     1      10.664   9.890 -16.369  1.00  0.00     0.191 C 
BRANCH  28  29
ATOM     29  O   UNL     1      11.215   8.705 -16.882  1.00  0.00    -0.394 OA
ATOM     30  H   UNL     1      11.304   8.824 -17.862  1.00  0.00     0.210 HD
ENDBRANCH  28  29
ENDBRANCH  22  28
BRANCH  23  31
ATOM     31  O   UNL     1       7.629   7.994 -15.154  1.00  0.00    -0.387 OA
ATOM     32  H   UNL     1       7.460   8.788 -14.581  1.00  0.00     0.211 HD
ENDBRANCH  23  31
ENDBRANCH   1  18
TORSDOF 11
ENDMDL
