MODEL 1
REMARK VINA RESULT:    -5.419      0.000      0.000
REMARK INTER + INTRA:         -13.291
REMARK INTER:                 -10.488
REMARK INTRA:                  -2.804
REMARK UNBOUND:                -2.804
REMARK SMILES CCCCCC=CCC=CCCCCCCCCOC(C)=O
REMARK SMILES IDX 12 1 11 2 10 3 9 4 8 5 7 6 6 7 5 8 4 9 3 10 2 11 1 12 13 13
REMARK SMILES IDX 14 14 15 15 16 16 17 17 18 18 19 19 20 20 22 21 21 22
REMARK H PARENT
REMARK Flexibility Score: inf
ROOT
ATOM      1  C   UNL     1       1.478  33.359  65.284  1.00  0.00     0.004 C 
ENDROOT
BRANCH   1   2
ATOM      2  C   UNL     1       0.087  32.755  65.527  1.00  0.00     0.027 C 
BRANCH   2   3
ATOM      3  C   UNL     1      -0.734  32.768  64.268  1.00  0.00    -0.031 C 
ATOM      4  C   UNL     1      -0.221  33.189  63.102  1.00  0.00    -0.027 C 
BRANCH   4   5
ATOM      5  C   UNL     1      -1.044  33.200  61.843  1.00  0.00     0.054 C 
BRANCH   5   6
ATOM      6  C   UNL     1      -1.509  34.597  61.522  1.00  0.00    -0.027 C 
ATOM      7  C   UNL     1      -2.746  35.066  61.775  1.00  0.00    -0.031 C 
BRANCH   7   8
ATOM      8  C   UNL     1      -3.871  34.247  62.364  1.00  0.00     0.027 C 
BRANCH   8   9
ATOM      9  C   UNL     1      -3.981  34.444  63.884  1.00  0.00     0.004 C 
BRANCH   9  10
ATOM     10  C   UNL     1      -3.570  35.851  64.365  1.00  0.00     0.000 C 
BRANCH  10  11
ATOM     11  C   UNL     1      -2.478  35.871  65.450  1.00  0.00    -0.003 C 
ATOM     12  C   UNL     1      -1.130  36.375  64.935  1.00  0.00     0.004 C 
ENDBRANCH  10  11
ENDBRANCH   9  10
ENDBRANCH   8   9
ENDBRANCH   7   8
ENDBRANCH   5   6
ENDBRANCH   4   5
ENDBRANCH   2   3
ENDBRANCH   1   2
BRANCH   1  13
ATOM     13  C   UNL     1       2.531  32.858  66.289  1.00  0.00     0.000 C 
BRANCH  13  14
ATOM     14  C   UNL     1       2.788  33.841  67.452  1.00  0.00     0.000 C 
BRANCH  14  15
ATOM     15  C   UNL     1       3.738  33.252  68.511  1.00  0.00     0.000 C 
BRANCH  15  16
ATOM     16  C   UNL     1       4.599  32.098  67.955  1.00  0.00     0.003 C 
BRANCH  16  17
ATOM     17  C   UNL     1       4.633  30.856  68.863  1.00  0.00     0.042 C 
BRANCH  17  18
ATOM     18  C   UNL     1       3.315  30.590  69.601  1.00  0.00     0.233 C 
BRANCH  18  19
ATOM     19  O   UNL     1       2.479  29.695  68.870  1.00  0.00    -0.466 OA
BRANCH  19  20
ATOM     20  C   UNL     1       1.240  30.062  68.334  1.00  0.00     0.302 C 
ATOM     21  O   UNL     1       0.779  29.483  67.313  1.00  0.00    -0.253 OA
ATOM     22  C   UNL     1       0.480  31.186  68.950  1.00  0.00     0.139 C 
ENDBRANCH  19  20
ENDBRANCH  18  19
ENDBRANCH  17  18
ENDBRANCH  16  17
ENDBRANCH  15  16
ENDBRANCH  14  15
ENDBRANCH  13  14
ENDBRANCH   1  13
TORSDOF 16
ENDMDL
MODEL 2
REMARK VINA RESULT:    -5.332      1.549      2.742
REMARK INTER + INTRA:         -13.124
REMARK INTER:                 -10.184
REMARK INTRA:                  -2.940
REMARK UNBOUND:                -2.804
REMARK SMILES CCCCCC=CCC=CCCCCCCCCOC(C)=O
REMARK SMILES IDX 12 1 11 2 10 3 9 4 8 5 7 6 6 7 5 8 4 9 3 10 2 11 1 12 13 13
REMARK SMILES IDX 14 14 15 15 16 16 17 17 18 18 19 19 20 20 22 21 21 22
REMARK H PARENT
REMARK Flexibility Score: inf
ROOT
ATOM      1  C   UNL     1       1.274  32.398  65.756  1.00  0.00     0.004 C 
ENDROOT
BRANCH   1   2
ATOM      2  C   UNL     1       1.025  32.768  64.287  1.00  0.00     0.027 C 
BRANCH   2   3
ATOM      3  C   UNL     1      -0.446  32.860  63.996  1.00  0.00    -0.031 C 
ATOM      4  C   UNL     1      -0.902  33.061  62.750  1.00  0.00    -0.027 C 
BRANCH   4   5
ATOM      5  C   UNL     1      -2.375  33.152  62.461  1.00  0.00     0.054 C 
BRANCH   5   6
ATOM      6  C   UNL     1      -2.752  34.548  62.041  1.00  0.00    -0.027 C 
ATOM      7  C   UNL     1      -3.217  35.498  62.876  1.00  0.00    -0.031 C 
BRANCH   7   8
ATOM      8  C   UNL     1      -3.487  35.288  64.349  1.00  0.00     0.027 C 
BRANCH   8   9
ATOM      9  C   UNL     1      -2.291  35.718  65.212  1.00  0.00     0.004 C 
BRANCH   9  10
ATOM     10  C   UNL     1      -1.404  36.799  64.559  1.00  0.00     0.000 C 
BRANCH  10  11
ATOM     11  C   UNL     1       0.107  36.505  64.593  1.00  0.00    -0.003 C 
ATOM     12  C   UNL     1       0.719  36.346  63.201  1.00  0.00     0.004 C 
ENDBRANCH  10  11
ENDBRANCH   9  10
ENDBRANCH   8   9
ENDBRANCH   7   8
ENDBRANCH   5   6
ENDBRANCH   4   5
ENDBRANCH   2   3
ENDBRANCH   1   2
BRANCH   1  13
ATOM     13  C   UNL     1       0.235  33.012  66.711  1.00  0.00     0.000 C 
BRANCH  13  14
ATOM     14  C   UNL     1      -0.026  32.155  67.970  1.00  0.00     0.000 C 
BRANCH  14  15
ATOM     15  C   UNL     1       0.636  30.769  67.876  1.00  0.00     0.000 C 
BRANCH  15  16
ATOM     16  C   UNL     1       0.781  30.089  69.254  1.00  0.00     0.003 C 
BRANCH  16  17
ATOM     17  C   UNL     1       2.239  29.952  69.728  1.00  0.00     0.042 C 
BRANCH  17  18
ATOM     18  C   UNL     1       2.785  31.203  70.427  1.00  0.00     0.233 C 
BRANCH  18  19
ATOM     19  O   UNL     1       3.951  31.700  69.773  1.00  0.00    -0.466 OA
BRANCH  19  20
ATOM     20  C   UNL     1       3.921  32.354  68.537  1.00  0.00     0.302 C 
ATOM     21  O   UNL     1       3.429  33.510  68.429  1.00  0.00    -0.253 OA
ATOM     22  C   UNL     1       4.436  31.655  67.326  1.00  0.00     0.139 C 
ENDBRANCH  19  20
ENDBRANCH  18  19
ENDBRANCH  17  18
ENDBRANCH  16  17
ENDBRANCH  15  16
ENDBRANCH  14  15
ENDBRANCH  13  14
ENDBRANCH   1  13
TORSDOF 16
ENDMDL
MODEL 3
REMARK VINA RESULT:    -5.321      3.107      7.808
REMARK INTER + INTRA:         -13.101
REMARK INTER:                 -10.305
REMARK INTRA:                  -2.797
REMARK UNBOUND:                -2.804
REMARK SMILES CCCCCC=CCC=CCCCCCCCCOC(C)=O
REMARK SMILES IDX 12 1 11 2 10 3 9 4 8 5 7 6 6 7 5 8 4 9 3 10 2 11 1 12 13 13
REMARK SMILES IDX 14 14 15 15 16 16 17 17 18 18 19 19 20 20 22 21 21 22
REMARK H PARENT
REMARK Flexibility Score: inf
ROOT
ATOM      1  C   UNL     1       0.952  32.899  65.132  1.00  0.00     0.004 C 
ENDROOT
BRANCH   1   2
ATOM      2  C   UNL     1       1.897  33.846  65.885  1.00  0.00     0.027 C 
BRANCH   2   3
ATOM      3  C   UNL     1       2.876  33.076  66.726  1.00  0.00    -0.031 C 
ATOM      4  C   UNL     1       2.960  33.264  68.052  1.00  0.00    -0.027 C 
BRANCH   4   5
ATOM      5  C   UNL     1       3.938  32.491  68.892  1.00  0.00     0.054 C 
BRANCH   5   6
ATOM      6  C   UNL     1       3.217  31.606  69.874  1.00  0.00    -0.027 C 
ATOM      7  C   UNL     1       3.182  30.261  69.808  1.00  0.00    -0.031 C 
BRANCH   7   8
ATOM      8  C   UNL     1       3.812  29.440  68.707  1.00  0.00     0.027 C 
BRANCH   8   9
ATOM      9  C   UNL     1       2.811  29.136  67.582  1.00  0.00     0.004 C 
BRANCH   9  10
ATOM     10  C   UNL     1       1.334  29.200  68.024  1.00  0.00     0.000 C 
BRANCH  10  11
ATOM     11  C   UNL     1       0.507  30.317  67.361  1.00  0.00    -0.003 C 
ATOM     12  C   UNL     1      -0.175  31.239  68.371  1.00  0.00     0.004 C 
ENDBRANCH  10  11
ENDBRANCH   9  10
ENDBRANCH   8   9
ENDBRANCH   7   8
ENDBRANCH   5   6
ENDBRANCH   4   5
ENDBRANCH   2   3
ENDBRANCH   1   2
BRANCH   1  13
ATOM     13  C   UNL     1      -0.528  33.301  65.266  1.00  0.00     0.000 C 
BRANCH  13  14
ATOM     14  C   UNL     1      -0.730  34.718  65.848  1.00  0.00     0.000 C 
BRANCH  14  15
ATOM     15  C   UNL     1      -1.081  35.749  64.759  1.00  0.00     0.000 C 
BRANCH  15  16
ATOM     16  C   UNL     1       0.055  36.766  64.520  1.00  0.00     0.003 C 
BRANCH  16  17
ATOM     17  C   UNL     1       0.635  36.726  63.095  1.00  0.00     0.042 C 
BRANCH  17  18
ATOM     18  C   UNL     1       0.443  35.380  62.384  1.00  0.00     0.233 C 
BRANCH  18  19
ATOM     19  O   UNL     1      -0.595  35.448  61.408  1.00  0.00    -0.466 OA
BRANCH  19  20
ATOM     20  C   UNL     1      -1.708  34.602  61.407  1.00  0.00     0.302 C 
ATOM     21  O   UNL     1      -2.872  35.063  61.255  1.00  0.00    -0.253 OA
ATOM     22  C   UNL     1      -1.519  33.141  61.637  1.00  0.00     0.139 C 
ENDBRANCH  19  20
ENDBRANCH  18  19
ENDBRANCH  17  18
ENDBRANCH  16  17
ENDBRANCH  15  16
ENDBRANCH  14  15
ENDBRANCH  13  14
ENDBRANCH   1  13
TORSDOF 16
ENDMDL
MODEL 4
REMARK VINA RESULT:    -5.305      2.880      7.991
REMARK INTER + INTRA:         -13.072
REMARK INTER:                 -10.387
REMARK INTRA:                  -2.684
REMARK UNBOUND:                -2.804
REMARK SMILES CCCCCC=CCC=CCCCCCCCCOC(C)=O
REMARK SMILES IDX 12 1 11 2 10 3 9 4 8 5 7 6 6 7 5 8 4 9 3 10 2 11 1 12 13 13
REMARK SMILES IDX 14 14 15 15 16 16 17 17 18 18 19 19 20 20 22 21 21 22
REMARK H PARENT
REMARK Flexibility Score: inf
ROOT
ATOM      1  C   UNL     1       0.686  33.164  64.670  1.00  0.00     0.004 C 
ENDROOT
BRANCH   1   2
ATOM      2  C   UNL     1       1.015  33.927  65.962  1.00  0.00     0.027 C 
BRANCH   2   3
ATOM      3  C   UNL     1       2.371  33.545  66.483  1.00  0.00    -0.031 C 
ATOM      4  C   UNL     1       2.663  33.611  67.791  1.00  0.00    -0.027 C 
BRANCH   4   5
ATOM      5  C   UNL     1       4.021  33.228  68.311  1.00  0.00     0.054 C 
BRANCH   5   6
ATOM      6  C   UNL     1       4.460  31.907  67.735  1.00  0.00    -0.027 C 
ATOM      7  C   UNL     1       4.219  30.709  68.302  1.00  0.00    -0.031 C 
BRANCH   7   8
ATOM      8  C   UNL     1       3.526  30.512  69.631  1.00  0.00     0.027 C 
BRANCH   8   9
ATOM      9  C   UNL     1       2.089  29.998  69.449  1.00  0.00     0.004 C 
BRANCH   9  10
ATOM     10  C   UNL     1       1.747  29.590  68.001  1.00  0.00     0.000 C 
BRANCH  10  11
ATOM     11  C   UNL     1       0.618  30.406  67.348  1.00  0.00    -0.003 C 
ATOM     12  C   UNL     1      -0.149  31.275  68.345  1.00  0.00     0.004 C 
ENDBRANCH  10  11
ENDBRANCH   9  10
ENDBRANCH   8   9
ENDBRANCH   7   8
ENDBRANCH   5   6
ENDBRANCH   4   5
ENDBRANCH   2   3
ENDBRANCH   1   2
BRANCH   1  13
ATOM     13  C   UNL     1      -0.813  32.842  64.532  1.00  0.00     0.000 C 
BRANCH  13  14
ATOM     14  C   UNL     1      -1.296  32.781  63.066  1.00  0.00     0.000 C 
BRANCH  14  15
ATOM     15  C   UNL     1      -2.559  33.630  62.834  1.00  0.00     0.000 C 
BRANCH  15  16
ATOM     16  C   UNL     1      -3.305  33.949  64.147  1.00  0.00     0.003 C 
BRANCH  16  17
ATOM     17  C   UNL     1      -3.487  35.455  64.408  1.00  0.00     0.042 C 
BRANCH  17  18
ATOM     18  C   UNL     1      -2.522  36.344  63.613  1.00  0.00     0.233 C 
BRANCH  18  19
ATOM     19  O   UNL     1      -1.288  36.525  64.305  1.00  0.00    -0.466 OA
BRANCH  19  20
ATOM     20  C   UNL     1      -0.196  37.213  63.766  1.00  0.00     0.302 C 
ATOM     21  O   UNL     1      -0.173  38.474  63.745  1.00  0.00    -0.253 OA
ATOM     22  C   UNL     1       0.931  36.444  63.167  1.00  0.00     0.139 C 
ENDBRANCH  19  20
ENDBRANCH  18  19
ENDBRANCH  17  18
ENDBRANCH  16  17
ENDBRANCH  15  16
ENDBRANCH  14  15
ENDBRANCH  13  14
ENDBRANCH   1  13
TORSDOF 16
ENDMDL
MODEL 5
REMARK VINA RESULT:    -5.244      1.544      2.940
REMARK INTER + INTRA:         -12.953
REMARK INTER:                 -10.310
REMARK INTRA:                  -2.643
REMARK UNBOUND:                -2.804
REMARK SMILES CCCCCC=CCC=CCCCCCCCCOC(C)=O
REMARK SMILES IDX 12 1 11 2 10 3 9 4 8 5 7 6 6 7 5 8 4 9 3 10 2 11 1 12 13 13
REMARK SMILES IDX 14 14 15 15 16 16 17 17 18 18 19 19 20 20 22 21 21 22
REMARK H PARENT
REMARK Flexibility Score: inf
ROOT
ATOM      1  C   UNL     1       0.871  33.259  64.606  1.00  0.00     0.004 C 
ENDROOT
BRANCH   1   2
ATOM      2  C   UNL     1      -0.543  32.843  64.177  1.00  0.00     0.027 C 
BRANCH   2   3
ATOM      3  C   UNL     1      -1.545  33.910  64.515  1.00  0.00    -0.031 C 
ATOM      4  C   UNL     1      -1.291  34.839  65.450  1.00  0.00    -0.027 C 
BRANCH   4   5
ATOM      5  C   UNL     1      -2.295  35.907  65.786  1.00  0.00     0.054 C 
BRANCH   5   6
ATOM      6  C   UNL     1      -3.240  36.132  64.635  1.00  0.00    -0.027 C 
ATOM      7  C   UNL     1      -3.263  37.242  63.871  1.00  0.00    -0.031 C 
BRANCH   7   8
ATOM      8  C   UNL     1      -2.383  38.452  64.089  1.00  0.00     0.027 C 
BRANCH   8   9
ATOM      9  C   UNL     1      -1.230  38.505  63.076  1.00  0.00     0.004 C 
BRANCH   9  10
ATOM     10  C   UNL     1       0.118  38.001  63.633  1.00  0.00     0.000 C 
BRANCH  10  11
ATOM     11  C   UNL     1       0.627  36.688  63.010  1.00  0.00    -0.003 C 
ATOM     12  C   UNL     1      -0.262  36.179  61.874  1.00  0.00     0.004 C 
ENDBRANCH  10  11
ENDBRANCH   9  10
ENDBRANCH   8   9
ENDBRANCH   7   8
ENDBRANCH   5   6
ENDBRANCH   4   5
ENDBRANCH   2   3
ENDBRANCH   1   2
BRANCH   1  13
ATOM     13  C   UNL     1       1.463  32.335  65.686  1.00  0.00     0.000 C 
BRANCH  13  14
ATOM     14  C   UNL     1       1.500  32.976  67.091  1.00  0.00     0.000 C 
BRANCH  14  15
ATOM     15  C   UNL     1       2.763  33.829  67.307  1.00  0.00     0.000 C 
BRANCH  15  16
ATOM     16  C   UNL     1       3.691  33.247  68.394  1.00  0.00     0.003 C 
BRANCH  16  17
ATOM     17  C   UNL     1       4.591  32.102  67.893  1.00  0.00     0.042 C 
BRANCH  17  18
ATOM     18  C   UNL     1       4.516  30.833  68.751  1.00  0.00     0.233 C 
BRANCH  18  19
ATOM     19  O   UNL     1       3.293  30.130  68.538  1.00  0.00    -0.466 OA
BRANCH  19  20
ATOM     20  C   UNL     1       2.401  29.805  69.566  1.00  0.00     0.302 C 
ATOM     21  O   UNL     1       2.776  29.116  70.554  1.00  0.00    -0.253 OA
ATOM     22  C   UNL     1       0.979  30.240  69.467  1.00  0.00     0.139 C 
ENDBRANCH  19  20
ENDBRANCH  18  19
ENDBRANCH  17  18
ENDBRANCH  16  17
ENDBRANCH  15  16
ENDBRANCH  14  15
ENDBRANCH  13  14
ENDBRANCH   1  13
TORSDOF 16
ENDMDL
MODEL 6
REMARK VINA RESULT:    -5.241      0.874      2.360
REMARK INTER + INTRA:         -12.947
REMARK INTER:                 -10.355
REMARK INTRA:                  -2.592
REMARK UNBOUND:                -2.804
REMARK SMILES CCCCCC=CCC=CCCCCCCCCOC(C)=O
REMARK SMILES IDX 12 1 11 2 10 3 9 4 8 5 7 6 6 7 5 8 4 9 3 10 2 11 1 12 13 13
REMARK SMILES IDX 14 14 15 15 16 16 17 17 18 18 19 19 20 20 22 21 21 22
REMARK H PARENT
REMARK Flexibility Score: inf
ROOT
ATOM      1  C   UNL     1       1.422  32.813  65.361  1.00  0.00     0.004 C 
ENDROOT
BRANCH   1   2
ATOM      2  C   UNL     1       0.116  32.973  66.153  1.00  0.00     0.027 C 
BRANCH   2   3
ATOM      3  C   UNL     1      -0.614  34.221  65.742  1.00  0.00    -0.031 C 
ATOM      4  C   UNL     1      -0.084  35.086  64.864  1.00  0.00    -0.027 C 
BRANCH   4   5
ATOM      5  C   UNL     1      -0.816  36.333  64.453  1.00  0.00     0.054 C 
BRANCH   5   6
ATOM      6  C   UNL     1      -2.288  36.210  64.748  1.00  0.00    -0.027 C 
ATOM      7  C   UNL     1      -3.192  35.671  63.908  1.00  0.00    -0.031 C 
BRANCH   7   8
ATOM      8  C   UNL     1      -2.879  35.163  62.519  1.00  0.00     0.027 C 
BRANCH   8   9
ATOM      9  C   UNL     1      -2.865  33.628  62.467  1.00  0.00     0.004 C 
BRANCH   9  10
ATOM     10  C   UNL     1      -1.473  33.022  62.193  1.00  0.00     0.000 C 
BRANCH  10  11
ATOM     11  C   UNL     1      -0.813  33.482  60.880  1.00  0.00    -0.003 C 
ATOM     12  C   UNL     1       0.483  34.262  61.101  1.00  0.00     0.004 C 
ENDBRANCH  10  11
ENDBRANCH   9  10
ENDBRANCH   8   9
ENDBRANCH   7   8
ENDBRANCH   5   6
ENDBRANCH   4   5
ENDBRANCH   2   3
ENDBRANCH   1   2
BRANCH   1  13
ATOM     13  C   UNL     1       2.637  32.537  66.264  1.00  0.00     0.000 C 
BRANCH  13  14
ATOM     14  C   UNL     1       2.768  33.529  67.440  1.00  0.00     0.000 C 
BRANCH  14  15
ATOM     15  C   UNL     1       3.907  33.143  68.402  1.00  0.00     0.000 C 
BRANCH  15  16
ATOM     16  C   UNL     1       4.526  31.771  68.063  1.00  0.00     0.003 C 
BRANCH  16  17
ATOM     17  C   UNL     1       4.681  30.842  69.282  1.00  0.00     0.042 C 
BRANCH  17  18
ATOM     18  C   UNL     1       3.398  30.092  69.658  1.00  0.00     0.233 C 
BRANCH  18  19
ATOM     19  O   UNL     1       2.738  29.575  68.504  1.00  0.00    -0.466 OA
BRANCH  19  20
ATOM     20  C   UNL     1       1.405  29.856  68.187  1.00  0.00     0.302 C 
ATOM     21  O   UNL     1       0.868  29.367  67.157  1.00  0.00    -0.253 OA
ATOM     22  C   UNL     1       0.628  30.787  69.053  1.00  0.00     0.139 C 
ENDBRANCH  19  20
ENDBRANCH  18  19
ENDBRANCH  17  18
ENDBRANCH  16  17
ENDBRANCH  15  16
ENDBRANCH  14  15
ENDBRANCH  13  14
ENDBRANCH   1  13
TORSDOF 16
ENDMDL
MODEL 7
REMARK VINA RESULT:    -5.239      1.783      3.237
REMARK INTER + INTRA:         -12.943
REMARK INTER:                 -10.191
REMARK INTRA:                  -2.751
REMARK UNBOUND:                -2.804
REMARK SMILES CCCCCC=CCC=CCCCCCCCCOC(C)=O
REMARK SMILES IDX 12 1 11 2 10 3 9 4 8 5 7 6 6 7 5 8 4 9 3 10 2 11 1 12 13 13
REMARK SMILES IDX 14 14 15 15 16 16 17 17 18 18 19 19 20 20 22 21 21 22
REMARK H PARENT
REMARK Flexibility Score: inf
ROOT
ATOM      1  C   UNL     1       0.229  32.671  67.363  1.00  0.00     0.004 C 
ENDROOT
BRANCH   1   2
ATOM      2  C   UNL     1       0.837  32.518  65.961  1.00  0.00     0.027 C 
BRANCH   2   3
ATOM      3  C   UNL     1      -0.189  32.790  64.897  1.00  0.00    -0.031 C 
ATOM      4  C   UNL     1      -1.312  33.472  65.165  1.00  0.00    -0.027 C 
BRANCH   4   5
ATOM      5  C   UNL     1      -2.337  33.745  64.099  1.00  0.00     0.054 C 
BRANCH   5   6
ATOM      6  C   UNL     1      -1.922  33.127  62.789  1.00  0.00    -0.027 C 
ATOM      7  C   UNL     1      -1.705  33.819  61.654  1.00  0.00    -0.031 C 
BRANCH   7   8
ATOM      8  C   UNL     1      -1.902  35.310  61.506  1.00  0.00     0.027 C 
BRANCH   8   9
ATOM      9  C   UNL     1      -0.568  36.068  61.571  1.00  0.00     0.004 C 
BRANCH   9  10
ATOM     10  C   UNL     1       0.583  35.258  62.203  1.00  0.00     0.000 C 
BRANCH  10  11
ATOM     11  C   UNL     1       1.210  35.894  63.457  1.00  0.00    -0.003 C 
ATOM     12  C   UNL     1       0.227  36.756  64.248  1.00  0.00     0.004 C 
ENDBRANCH  10  11
ENDBRANCH   9  10
ENDBRANCH   8   9
ENDBRANCH   7   8
ENDBRANCH   5   6
ENDBRANCH   4   5
ENDBRANCH   2   3
ENDBRANCH   1   2
BRANCH   1  13
ATOM     13  C   UNL     1       0.227  31.353  68.160  1.00  0.00     0.000 C 
BRANCH  13  14
ATOM     14  C   UNL     1       0.915  30.185  67.418  1.00  0.00     0.000 C 
BRANCH  14  15
ATOM     15  C   UNL     1       1.738  29.298  68.369  1.00  0.00     0.000 C 
BRANCH  15  16
ATOM     16  C   UNL     1       1.801  29.867  69.802  1.00  0.00     0.003 C 
BRANCH  16  17
ATOM     17  C   UNL     1       3.180  29.717  70.470  1.00  0.00     0.042 C 
BRANCH  17  18
ATOM     18  C   UNL     1       4.235  30.696  69.941  1.00  0.00     0.233 C 
BRANCH  18  19
ATOM     19  O   UNL     1       3.659  31.961  69.618  1.00  0.00    -0.466 OA
BRANCH  19  20
ATOM     20  C   UNL     1       3.819  32.585  68.376  1.00  0.00     0.302 C 
ATOM     21  O   UNL     1       3.527  33.802  68.222  1.00  0.00    -0.253 OA
ATOM     22  C   UNL     1       4.295  31.788  67.211  1.00  0.00     0.139 C 
ENDBRANCH  19  20
ENDBRANCH  18  19
ENDBRANCH  17  18
ENDBRANCH  16  17
ENDBRANCH  15  16
ENDBRANCH  14  15
ENDBRANCH  13  14
ENDBRANCH   1  13
TORSDOF 16
ENDMDL
MODEL 8
REMARK VINA RESULT:    -5.232      3.219      8.083
REMARK INTER + INTRA:         -12.929
REMARK INTER:                 -10.273
REMARK INTRA:                  -2.656
REMARK UNBOUND:                -2.804
REMARK SMILES CCCCCC=CCC=CCCCCCCCCOC(C)=O
REMARK SMILES IDX 12 1 11 2 10 3 9 4 8 5 7 6 6 7 5 8 4 9 3 10 2 11 1 12 13 13
REMARK SMILES IDX 14 14 15 15 16 16 17 17 18 18 19 19 20 20 22 21 21 22
REMARK H PARENT
REMARK Flexibility Score: inf
ROOT
ATOM      1  C   UNL     1       0.777  32.752  65.759  1.00  0.00     0.004 C 
ENDROOT
BRANCH   1   2
ATOM      2  C   UNL     1       1.624  33.896  66.335  1.00  0.00     0.027 C 
BRANCH   2   3
ATOM      3  C   UNL     1       2.668  33.371  67.280  1.00  0.00    -0.031 C 
ATOM      4  C   UNL     1       3.447  32.329  66.953  1.00  0.00    -0.027 C 
BRANCH   4   5
ATOM      5  C   UNL     1       4.493  31.806  67.899  1.00  0.00     0.054 C 
BRANCH   5   6
ATOM      6  C   UNL     1       4.017  31.901  69.325  1.00  0.00    -0.027 C 
ATOM      7  C   UNL     1       3.781  30.841  70.123  1.00  0.00    -0.031 C 
BRANCH   7   8
ATOM      8  C   UNL     1       3.901  29.397  69.691  1.00  0.00     0.027 C 
BRANCH   8   9
ATOM      9  C   UNL     1       2.533  28.798  69.332  1.00  0.00     0.004 C 
BRANCH   9  10
ATOM     10  C   UNL     1       2.164  28.926  67.839  1.00  0.00     0.000 C 
BRANCH  10  11
ATOM     11  C   UNL     1       0.876  29.720  67.555  1.00  0.00    -0.003 C 
ATOM     12  C   UNL     1       0.421  30.569  68.743  1.00  0.00     0.004 C 
ENDBRANCH  10  11
ENDBRANCH   9  10
ENDBRANCH   8   9
ENDBRANCH   7   8
ENDBRANCH   5   6
ENDBRANCH   4   5
ENDBRANCH   2   3
ENDBRANCH   1   2
BRANCH   1  13
ATOM     13  C   UNL     1      -0.502  33.249  65.061  1.00  0.00     0.000 C 
BRANCH  13  14
ATOM     14  C   UNL     1      -0.619  32.789  63.591  1.00  0.00     0.000 C 
BRANCH  14  15
ATOM     15  C   UNL     1       0.732  32.845  62.856  1.00  0.00     0.000 C 
BRANCH  15  16
ATOM     16  C   UNL     1       0.716  33.824  61.663  1.00  0.00     0.003 C 
BRANCH  16  17
ATOM     17  C   UNL     1      -0.675  34.008  61.030  1.00  0.00     0.042 C 
BRANCH  17  18
ATOM     18  C   UNL     1      -1.295  35.387  61.285  1.00  0.00     0.233 C 
BRANCH  18  19
ATOM     19  O   UNL     1      -0.429  36.214  62.059  1.00  0.00    -0.466 OA
BRANCH  19  20
ATOM     20  C   UNL     1      -0.705  36.602  63.375  1.00  0.00     0.302 C 
ATOM     21  O   UNL     1      -1.889  36.810  63.753  1.00  0.00    -0.253 OA
ATOM     22  C   UNL     1       0.422  36.816  64.326  1.00  0.00     0.139 C 
ENDBRANCH  19  20
ENDBRANCH  18  19
ENDBRANCH  17  18
ENDBRANCH  16  17
ENDBRANCH  15  16
ENDBRANCH  14  15
ENDBRANCH  13  14
ENDBRANCH   1  13
TORSDOF 16
ENDMDL
MODEL 9
REMARK VINA RESULT:    -5.197      1.402      3.089
REMARK INTER + INTRA:         -12.863
REMARK INTER:                 -10.014
REMARK INTRA:                  -2.849
REMARK UNBOUND:                -2.804
REMARK SMILES CCCCCC=CCC=CCCCCCCCCOC(C)=O
REMARK SMILES IDX 12 1 11 2 10 3 9 4 8 5 7 6 6 7 5 8 4 9 3 10 2 11 1 12 13 13
REMARK SMILES IDX 14 14 15 15 16 16 17 17 18 18 19 19 20 20 22 21 21 22
REMARK H PARENT
REMARK Flexibility Score: inf
ROOT
ATOM      1  C   UNL     1       1.495  33.395  65.010  1.00  0.00     0.004 C 
ENDROOT
BRANCH   1   2
ATOM      2  C   UNL     1       0.165  32.857  64.465  1.00  0.00     0.027 C 
BRANCH   2   3
ATOM      3  C   UNL     1      -0.997  33.637  65.013  1.00  0.00    -0.031 C 
ATOM      4  C   UNL     1      -0.904  34.952  65.259  1.00  0.00    -0.027 C 
BRANCH   4   5
ATOM      5  C   UNL     1      -2.067  35.732  65.806  1.00  0.00     0.054 C 
BRANCH   5   6
ATOM      6  C   UNL     1      -2.580  36.713  64.785  1.00  0.00    -0.027 C 
ATOM      7  C   UNL     1      -3.631  36.489  63.972  1.00  0.00    -0.031 C 
BRANCH   7   8
ATOM      8  C   UNL     1      -4.416  35.199  63.919  1.00  0.00     0.027 C 
BRANCH   8   9
ATOM      9  C   UNL     1      -3.868  34.244  62.848  1.00  0.00     0.004 C 
BRANCH   9  10
ATOM     10  C   UNL     1      -3.132  34.954  61.693  1.00  0.00     0.000 C 
BRANCH  10  11
ATOM     11  C   UNL     1      -1.705  34.443  61.422  1.00  0.00    -0.003 C 
ATOM     12  C   UNL     1      -0.633  35.510  61.645  1.00  0.00     0.004 C 
ENDBRANCH  10  11
ENDBRANCH   9  10
ENDBRANCH   8   9
ENDBRANCH   7   8
ENDBRANCH   5   6
ENDBRANCH   4   5
ENDBRANCH   2   3
ENDBRANCH   1   2
BRANCH   1  13
ATOM     13  C   UNL     1       1.939  32.690  66.305  1.00  0.00     0.000 C 
BRANCH  13  14
ATOM     14  C   UNL     1       1.601  33.485  67.585  1.00  0.00     0.000 C 
BRANCH  14  15
ATOM     15  C   UNL     1       0.515  32.794  68.428  1.00  0.00     0.000 C 
BRANCH  15  16
ATOM     16  C   UNL     1       0.212  31.361  67.943  1.00  0.00     0.003 C 
BRANCH  16  17
ATOM     17  C   UNL     1       0.505  30.274  68.993  1.00  0.00     0.042 C 
BRANCH  17  18
ATOM     18  C   UNL     1       1.865  29.589  68.815  1.00  0.00     0.233 C 
BRANCH  18  19
ATOM     19  O   UNL     1       2.639  29.646  70.011  1.00  0.00    -0.466 OA
BRANCH  19  20
ATOM     20  C   UNL     1       3.708  30.530  70.196  1.00  0.00     0.302 C 
ATOM     21  O   UNL     1       3.676  31.694  69.712  1.00  0.00    -0.253 OA
ATOM     22  C   UNL     1       4.918  30.070  70.934  1.00  0.00     0.139 C 
ENDBRANCH  19  20
ENDBRANCH  18  19
ENDBRANCH  17  18
ENDBRANCH  16  17
ENDBRANCH  15  16
ENDBRANCH  14  15
ENDBRANCH  13  14
ENDBRANCH   1  13
TORSDOF 16
ENDMDL
