MODEL 1
REMARK VINA RESULT:    -6.772      0.000      0.000
REMARK INTER + INTRA:          -8.083
REMARK INTER:                  -7.960
REMARK INTRA:                  -0.123
REMARK UNBOUND:                -0.123
REMARK SMILES O=C([O-])C=Cc1ccc(O)c(O)c1
REMARK SMILES IDX 6 1 13 2 7 3 11 4 8 5 9 6 5 7 4 8 2 9 1 10 3 11 12 12 10 14
REMARK H PARENT 12 13 10 15
REMARK Flexibility Score: inf
ROOT
ATOM      1  C   UNL     1     -14.640 -28.605 -12.711  1.00  0.00    -0.022 A 
ATOM      2  C   UNL     1     -14.474 -28.670 -14.110  1.00  0.00     0.058 A 
ATOM      3  C   UNL     1     -14.522 -27.359 -12.073  1.00  0.00     0.012 A 
ATOM      4  C   UNL     1     -14.221 -27.510 -14.853  1.00  0.00     0.157 A 
ATOM      5  C   UNL     1     -14.271 -26.202 -12.812  1.00  0.00     0.051 A 
ATOM      6  C   UNL     1     -14.123 -26.269 -14.203  1.00  0.00     0.157 A 
ENDROOT
BRANCH   1   7
ATOM      7  C   UNL     1     -14.896 -29.807 -11.880  1.00  0.00     0.010 C 
ATOM      8  C   UNL     1     -15.419 -30.944 -12.358  1.00  0.00     0.025 C 
BRANCH   8   9
ATOM      9  C   UNL     1     -15.668 -32.109 -11.494  1.00  0.00     0.064 C 
ATOM     10  O   UNL     1     -16.353 -31.970 -10.447  1.00  0.00    -0.545 OA
ATOM     11  O   UNL     1     -15.161 -33.363 -11.817  1.00  0.00    -0.545 OA
ENDBRANCH   8   9
ENDBRANCH   1   7
BRANCH   4  12
ATOM     12  O   UNL     1     -14.066 -27.613 -16.235  1.00  0.00    -0.504 OA
ATOM     13  H   UNL     1     -14.655 -28.214 -16.800  1.00  0.00     0.293 HD
ENDBRANCH   4  12
BRANCH   6  14
ATOM     14  O   UNL     1     -13.875 -25.112 -14.939  1.00  0.00    -0.504 OA
ATOM     15  H   UNL     1     -14.038 -24.190 -14.550  1.00  0.00     0.293 HD
ENDBRANCH   6  14
TORSDOF 4
ENDMDL
MODEL 2
REMARK VINA RESULT:    -6.399      3.029      4.111
REMARK INTER + INTRA:          -7.645
REMARK INTER:                  -7.519
REMARK INTRA:                  -0.126
REMARK UNBOUND:                -0.123
REMARK SMILES O=C([O-])C=Cc1ccc(O)c(O)c1
REMARK SMILES IDX 6 1 13 2 7 3 11 4 8 5 9 6 5 7 4 8 2 9 1 10 3 11 12 12 10 14
REMARK H PARENT 12 13 10 15
REMARK Flexibility Score: inf
ROOT
ATOM      1  C   UNL     1     -15.019 -32.174 -12.430  1.00  0.00    -0.022 A 
ATOM      2  C   UNL     1     -15.828 -31.354 -13.244  1.00  0.00     0.058 A 
ATOM      3  C   UNL     1     -14.261 -31.578 -11.409  1.00  0.00     0.012 A 
ATOM      4  C   UNL     1     -15.894 -29.973 -13.023  1.00  0.00     0.157 A 
ATOM      5  C   UNL     1     -14.327 -30.201 -11.187  1.00  0.00     0.051 A 
ATOM      6  C   UNL     1     -15.144 -29.393 -11.988  1.00  0.00     0.157 A 
ENDROOT
BRANCH   1   7
ATOM      7  C   UNL     1     -14.907 -33.640 -12.633  1.00  0.00     0.010 C 
ATOM      8  C   UNL     1     -14.876 -34.223 -13.839  1.00  0.00     0.025 C 
BRANCH   8   9
ATOM      9  C   UNL     1     -14.776 -35.683 -13.994  1.00  0.00     0.064 C 
ATOM     10  O   UNL     1     -15.601 -36.428 -13.404  1.00  0.00    -0.545 OA
ATOM     11  O   UNL     1     -13.784 -36.255 -14.784  1.00  0.00    -0.545 OA
ENDBRANCH   8   9
ENDBRANCH   1   7
BRANCH   4  12
ATOM     12  O   UNL     1     -16.707 -29.195 -13.846  1.00  0.00    -0.504 OA
ATOM     13  H   UNL     1     -17.597 -29.531 -14.197  1.00  0.00     0.293 HD
ENDBRANCH   4  12
BRANCH   6  14
ATOM     14  O   UNL     1     -15.210 -28.019 -11.762  1.00  0.00    -0.504 OA
ATOM     15  H   UNL     1     -14.372 -27.458 -11.657  1.00  0.00     0.293 HD
ENDBRANCH   6  14
TORSDOF 4
ENDMDL
MODEL 3
REMARK VINA RESULT:    -6.340      3.586      5.555
REMARK INTER + INTRA:          -7.575
REMARK INTER:                  -7.424
REMARK INTRA:                  -0.151
REMARK UNBOUND:                -0.123
REMARK SMILES O=C([O-])C=Cc1ccc(O)c(O)c1
REMARK SMILES IDX 6 1 13 2 7 3 11 4 8 5 9 6 5 7 4 8 2 9 1 10 3 11 12 12 10 14
REMARK H PARENT 12 13 10 15
REMARK Flexibility Score: inf
ROOT
ATOM      1  C   UNL     1     -15.180 -32.637 -12.875  1.00  0.00    -0.022 A 
ATOM      2  C   UNL     1     -15.181 -31.228 -12.838  1.00  0.00     0.058 A 
ATOM      3  C   UNL     1     -15.205 -33.347 -11.663  1.00  0.00     0.012 A 
ATOM      4  C   UNL     1     -15.231 -30.547 -11.615  1.00  0.00     0.157 A 
ATOM      5  C   UNL     1     -15.255 -32.669 -10.444  1.00  0.00     0.051 A 
ATOM      6  C   UNL     1     -15.272 -31.269 -10.412  1.00  0.00     0.157 A 
ENDROOT
BRANCH   1   7
ATOM      7  C   UNL     1     -15.115 -33.403 -14.145  1.00  0.00     0.010 C 
ATOM      8  C   UNL     1     -14.808 -34.705 -14.212  1.00  0.00     0.025 C 
BRANCH   8   9
ATOM      9  C   UNL     1     -14.744 -35.423 -15.495  1.00  0.00     0.064 C 
ATOM     10  O   UNL     1     -15.111 -36.626 -15.553  1.00  0.00    -0.545 OA
ATOM     11  O   UNL     1     -14.287 -34.794 -16.648  1.00  0.00    -0.545 OA
ENDBRANCH   8   9
ENDBRANCH   1   7
BRANCH   4  12
ATOM     12  O   UNL     1     -15.234 -29.153 -11.618  1.00  0.00    -0.504 OA
ATOM     13  H   UNL     1     -15.501 -28.616 -12.434  1.00  0.00     0.293 HD
ENDBRANCH   4  12
BRANCH   6  14
ATOM     14  O   UNL     1     -15.326 -30.596  -9.193  1.00  0.00    -0.504 OA
ATOM     15  H   UNL     1     -14.609 -30.718  -8.487  1.00  0.00     0.293 HD
ENDBRANCH   6  14
TORSDOF 4
ENDMDL
MODEL 4
REMARK VINA RESULT:    -6.176      3.897      6.818
REMARK INTER + INTRA:          -7.383
REMARK INTER:                  -7.257
REMARK INTRA:                  -0.126
REMARK UNBOUND:                -0.123
REMARK SMILES O=C([O-])C=Cc1ccc(O)c(O)c1
REMARK SMILES IDX 6 1 13 2 7 3 11 4 8 5 9 6 5 7 4 8 2 9 1 10 3 11 12 12 10 14
REMARK H PARENT 12 13 10 15
REMARK Flexibility Score: inf
ROOT
ATOM      1  C   UNL     1     -14.876 -34.038 -13.420  1.00  0.00    -0.022 A 
ATOM      2  C   UNL     1     -14.428 -33.757 -14.726  1.00  0.00     0.058 A 
ATOM      3  C   UNL     1     -15.213 -35.362 -13.090  1.00  0.00     0.012 A 
ATOM      4  C   UNL     1     -14.296 -34.780 -15.672  1.00  0.00     0.157 A 
ATOM      5  C   UNL     1     -15.081 -36.385 -14.032  1.00  0.00     0.051 A 
ATOM      6  C   UNL     1     -14.620 -36.102 -15.324  1.00  0.00     0.157 A 
ENDROOT
BRANCH   1   7
ATOM      7  C   UNL     1     -15.044 -32.986 -12.388  1.00  0.00     0.010 C 
ATOM      8  C   UNL     1     -15.170 -31.682 -12.669  1.00  0.00     0.025 C 
BRANCH   8   9
ATOM      9  C   UNL     1     -15.322 -30.670 -11.612  1.00  0.00     0.064 C 
ATOM     10  O   UNL     1     -15.248 -29.448 -11.906  1.00  0.00    -0.545 OA
ATOM     11  O   UNL     1     -15.549 -31.040 -10.290  1.00  0.00    -0.545 OA
ENDBRANCH   8   9
ENDBRANCH   1   7
BRANCH   4  12
ATOM     12  O   UNL     1     -13.847 -34.464 -16.953  1.00  0.00    -0.504 OA
ATOM     13  H   UNL     1     -13.559 -35.176 -17.615  1.00  0.00     0.293 HD
ENDBRANCH   4  12
BRANCH   6  14
ATOM     14  O   UNL     1     -14.486 -37.125 -16.260  1.00  0.00    -0.504 OA
ATOM     15  H   UNL     1     -13.584 -37.534 -16.474  1.00  0.00     0.293 HD
ENDBRANCH   6  14
TORSDOF 4
ENDMDL
MODEL 5
REMARK VINA RESULT:    -6.095      1.444      5.989
REMARK INTER + INTRA:          -7.288
REMARK INTER:                  -7.137
REMARK INTRA:                  -0.150
REMARK UNBOUND:                -0.123
REMARK SMILES O=C([O-])C=Cc1ccc(O)c(O)c1
REMARK SMILES IDX 6 1 13 2 7 3 11 4 8 5 9 6 5 7 4 8 2 9 1 10 3 11 12 12 10 14
REMARK H PARENT 12 13 10 15
REMARK Flexibility Score: inf
ROOT
ATOM      1  C   UNL     1     -14.497 -29.746 -12.123  1.00  0.00    -0.022 A 
ATOM      2  C   UNL     1     -13.589 -30.348 -11.229  1.00  0.00     0.058 A 
ATOM      3  C   UNL     1     -15.634 -30.468 -12.522  1.00  0.00     0.012 A 
ATOM      4  C   UNL     1     -13.828 -31.633 -10.726  1.00  0.00     0.157 A 
ATOM      5  C   UNL     1     -15.875 -31.749 -12.021  1.00  0.00     0.051 A 
ATOM      6  C   UNL     1     -14.978 -32.337 -11.120  1.00  0.00     0.157 A 
ENDROOT
BRANCH   1   7
ATOM      7  C   UNL     1     -14.281 -28.393 -12.692  1.00  0.00     0.010 C 
ATOM      8  C   UNL     1     -14.984 -27.897 -13.719  1.00  0.00     0.025 C 
BRANCH   8   9
ATOM      9  C   UNL     1     -14.728 -26.552 -14.259  1.00  0.00     0.064 C 
ATOM     10  O   UNL     1     -15.598 -25.653 -14.124  1.00  0.00    -0.545 OA
ATOM     11  O   UNL     1     -13.538 -26.257 -14.916  1.00  0.00    -0.545 OA
ENDBRANCH   8   9
ENDBRANCH   1   7
BRANCH   4  12
ATOM     12  O   UNL     1     -12.909 -32.195  -9.841  1.00  0.00    -0.504 OA
ATOM     13  H   UNL     1     -12.722 -33.191  -9.818  1.00  0.00     0.293 HD
ENDBRANCH   4  12
BRANCH   6  14
ATOM     14  O   UNL     1     -15.222 -33.614 -10.620  1.00  0.00    -0.504 OA
ATOM     15  H   UNL     1     -16.025 -33.809 -10.032  1.00  0.00     0.293 HD
ENDBRANCH   6  14
TORSDOF 4
ENDMDL
MODEL 6
REMARK VINA RESULT:    -6.079      1.019      2.138
REMARK INTER + INTRA:          -7.269
REMARK INTER:                  -7.146
REMARK INTRA:                  -0.123
REMARK UNBOUND:                -0.123
REMARK SMILES O=C([O-])C=Cc1ccc(O)c(O)c1
REMARK SMILES IDX 6 1 13 2 7 3 11 4 8 5 9 6 5 7 4 8 2 9 1 10 3 11 12 12 10 14
REMARK H PARENT 12 13 10 15
REMARK Flexibility Score: inf
ROOT
ATOM      1  C   UNL     1     -14.924 -28.940 -13.477  1.00  0.00    -0.022 A 
ATOM      2  C   UNL     1     -14.994 -27.835 -12.604  1.00  0.00     0.058 A 
ATOM      3  C   UNL     1     -14.466 -28.737 -14.789  1.00  0.00     0.012 A 
ATOM      4  C   UNL     1     -14.590 -26.563 -13.028  1.00  0.00     0.157 A 
ATOM      5  C   UNL     1     -14.062 -27.470 -15.214  1.00  0.00     0.051 A 
ATOM      6  C   UNL     1     -14.118 -26.379 -14.338  1.00  0.00     0.157 A 
ENDROOT
BRANCH   1   7
ATOM      7  C   UNL     1     -15.351 -30.303 -13.077  1.00  0.00     0.010 C 
ATOM      8  C   UNL     1     -14.951 -30.907 -11.949  1.00  0.00     0.025 C 
BRANCH   8   9
ATOM      9  C   UNL     1     -15.391 -32.267 -11.598  1.00  0.00     0.064 C 
ATOM     10  O   UNL     1     -15.196 -33.211 -12.407  1.00  0.00    -0.545 OA
ATOM     11  O   UNL     1     -16.019 -32.527 -10.384  1.00  0.00    -0.545 OA
ENDBRANCH   8   9
ENDBRANCH   1   7
BRANCH   4  12
ATOM     12  O   UNL     1     -14.670 -25.495 -12.135  1.00  0.00    -0.504 OA
ATOM     13  H   UNL     1     -15.155 -24.636 -12.366  1.00  0.00     0.293 HD
ENDBRANCH   4  12
BRANCH   6  14
ATOM     14  O   UNL     1     -13.712 -25.116 -14.763  1.00  0.00    -0.504 OA
ATOM     15  H   UNL     1     -14.223 -24.279 -14.507  1.00  0.00     0.293 HD
ENDBRANCH   6  14
TORSDOF 4
ENDMDL
MODEL 7
REMARK VINA RESULT:    -6.070      1.726      5.828
REMARK INTER + INTRA:          -7.258
REMARK INTER:                  -7.135
REMARK INTRA:                  -0.123
REMARK UNBOUND:                -0.123
REMARK SMILES O=C([O-])C=Cc1ccc(O)c(O)c1
REMARK SMILES IDX 6 1 13 2 7 3 11 4 8 5 9 6 5 7 4 8 2 9 1 10 3 11 12 12 10 14
REMARK H PARENT 12 13 10 15
REMARK Flexibility Score: inf
ROOT
ATOM      1  C   UNL     1     -15.234 -30.497 -11.976  1.00  0.00    -0.022 A 
ATOM      2  C   UNL     1     -15.204 -31.248 -13.169  1.00  0.00     0.058 A 
ATOM      3  C   UNL     1     -15.298 -31.178 -10.749  1.00  0.00     0.012 A 
ATOM      4  C   UNL     1     -15.213 -32.648 -13.131  1.00  0.00     0.157 A 
ATOM      5  C   UNL     1     -15.306 -32.574 -10.710  1.00  0.00     0.051 A 
ATOM      6  C   UNL     1     -15.260 -33.315 -11.897  1.00  0.00     0.157 A 
ENDROOT
BRANCH   1   7
ATOM      7  C   UNL     1     -15.239 -29.013 -11.965  1.00  0.00     0.010 C 
ATOM      8  C   UNL     1     -14.777 -28.261 -12.973  1.00  0.00     0.025 C 
BRANCH   8   9
ATOM      9  C   UNL     1     -14.791 -26.791 -12.915  1.00  0.00     0.064 C 
ATOM     10  O   UNL     1     -14.226 -26.202 -11.957  1.00  0.00    -0.545 OA
ATOM     11  O   UNL     1     -15.416 -26.039 -13.904  1.00  0.00    -0.545 OA
ENDBRANCH   8   9
ENDBRANCH   1   7
BRANCH   4  12
ATOM     12  O   UNL     1     -15.179 -33.357 -14.331  1.00  0.00    -0.504 OA
ATOM     13  H   UNL     1     -15.395 -32.921 -15.221  1.00  0.00     0.293 HD
ENDBRANCH   4  12
BRANCH   6  14
ATOM     14  O   UNL     1     -15.264 -34.708 -11.854  1.00  0.00    -0.504 OA
ATOM     15  H   UNL     1     -16.063 -35.226 -11.506  1.00  0.00     0.293 HD
ENDBRANCH   6  14
TORSDOF 4
ENDMDL
MODEL 8
REMARK VINA RESULT:    -6.038      3.650      4.871
REMARK INTER + INTRA:          -7.220
REMARK INTER:                  -7.098
REMARK INTRA:                  -0.122
REMARK UNBOUND:                -0.123
REMARK SMILES O=C([O-])C=Cc1ccc(O)c(O)c1
REMARK SMILES IDX 6 1 13 2 7 3 11 4 8 5 9 6 5 7 4 8 2 9 1 10 3 11 12 12 10 14
REMARK H PARENT 12 13 10 15
REMARK Flexibility Score: inf
ROOT
ATOM      1  C   UNL     1     -13.767 -31.358 -11.152  1.00  0.00    -0.022 A 
ATOM      2  C   UNL     1     -13.975 -29.989 -11.417  1.00  0.00     0.058 A 
ATOM      3  C   UNL     1     -14.630 -32.300 -11.736  1.00  0.00     0.012 A 
ATOM      4  C   UNL     1     -15.008 -29.576 -12.267  1.00  0.00     0.157 A 
ATOM      5  C   UNL     1     -15.660 -31.889 -12.584  1.00  0.00     0.051 A 
ATOM      6  C   UNL     1     -15.853 -30.529 -12.858  1.00  0.00     0.157 A 
ENDROOT
BRANCH   1   7
ATOM      7  C   UNL     1     -12.694 -31.843 -10.249  1.00  0.00     0.010 C 
ATOM      8  C   UNL     1     -11.527 -31.208 -10.072  1.00  0.00     0.025 C 
BRANCH   8   9
ATOM      9  C   UNL     1     -10.486 -31.733  -9.174  1.00  0.00     0.064 C 
ATOM     10  O   UNL     1      -9.852 -30.941  -8.429  1.00  0.00    -0.545 OA
ATOM     11  O   UNL     1     -10.190 -33.091  -9.134  1.00  0.00    -0.545 OA
ENDBRANCH   8   9
ENDBRANCH   1   7
BRANCH   4  12
ATOM     12  O   UNL     1     -15.181 -28.214 -12.509  1.00  0.00    -0.504 OA
ATOM     13  H   UNL     1     -14.660 -27.506 -12.003  1.00  0.00     0.293 HD
ENDBRANCH   4  12
BRANCH   6  14
ATOM     14  O   UNL     1     -16.880 -30.123 -13.708  1.00  0.00    -0.504 OA
ATOM     15  H   UNL     1     -16.739 -30.039 -14.708  1.00  0.00     0.293 HD
ENDBRANCH   6  14
TORSDOF 4
ENDMDL
