MODEL 1
REMARK VINA RESULT:    -4.254      0.000      0.000
REMARK INTER + INTRA:          -5.496
REMARK INTER:                  -5.124
REMARK INTRA:                  -0.372
REMARK UNBOUND:                -0.372
REMARK SMILES NC(=O)C[C@H]([NH3+])C(=O)[O-]
REMARK SMILES IDX 4 1 5 2 6 3 7 7 8 8 9 9 2 10 3 11 1 12
REMARK H PARENT 6 4 6 5 6 6 1 13 1 14
REMARK Flexibility Score: inf
ROOT
ATOM      1  C   UNL     1       5.156   4.319  12.857  1.00  0.00     0.171 C 
ENDROOT
BRANCH   1   2
ATOM      2  C   UNL     1       5.952   5.542  13.360  1.00  0.00     0.237 C 
BRANCH   2   3
ATOM      3  N   UNL     1       7.037   5.895  12.433  1.00  0.00    -0.350 N 
ATOM      4  H   UNL     1       7.027   5.254  11.609  1.00  0.00     0.345 HD
ATOM      5  H   UNL     1       7.966   5.830  12.910  1.00  0.00     0.345 HD
ATOM      6  H   UNL     1       6.899   6.871  12.082  1.00  0.00     0.345 HD
ENDBRANCH   2   3
BRANCH   2   7
ATOM      7  C   UNL     1       6.507   5.260  14.731  1.00  0.00     0.100 C 
ATOM      8  O   UNL     1       5.923   4.455  15.503  1.00  0.00    -0.544 OA
ATOM      9  O   UNL     1       7.661   5.905  15.157  1.00  0.00    -0.544 OA
ENDBRANCH   2   7
ENDBRANCH   1   2
BRANCH   1  10
ATOM     10  C   UNL     1       5.977   3.462  11.939  1.00  0.00     0.223 C 
ATOM     11  O   UNL     1       5.989   3.699  10.702  1.00  0.00    -0.275 OA
ATOM     12  N   UNL     1       6.723   2.360  12.456  1.00  0.00    -0.369 N 
ATOM     13  H   UNL     1       6.715   2.144  13.477  1.00  0.00     0.159 HD
ATOM     14  H   UNL     1       7.285   1.756  11.814  1.00  0.00     0.159 HD
ENDBRANCH   1  10
TORSDOF 4
ENDMDL
MODEL 2
REMARK VINA RESULT:    -4.236      1.548      4.034
REMARK INTER + INTRA:          -5.474
REMARK INTER:                  -5.239
REMARK INTRA:                  -0.235
REMARK UNBOUND:                -0.372
REMARK SMILES NC(=O)C[C@H]([NH3+])C(=O)[O-]
REMARK SMILES IDX 4 1 5 2 6 3 7 7 8 8 9 9 2 10 3 11 1 12
REMARK H PARENT 6 4 6 5 6 6 1 13 1 14
REMARK Flexibility Score: inf
ROOT
ATOM      1  C   UNL     1       5.727   5.106  12.789  1.00  0.00     0.171 C 
ENDROOT
BRANCH   1   2
ATOM      2  C   UNL     1       5.488   3.585  12.699  1.00  0.00     0.237 C 
BRANCH   2   3
ATOM      3  N   UNL     1       6.735   2.861  12.416  1.00  0.00    -0.350 N 
ATOM      4  H   UNL     1       6.576   2.153  11.664  1.00  0.00     0.345 HD
ATOM      5  H   UNL     1       7.085   2.376  13.276  1.00  0.00     0.345 HD
ATOM      6  H   UNL     1       7.466   3.530  12.079  1.00  0.00     0.345 HD
ENDBRANCH   2   3
BRANCH   2   7
ATOM      7  C   UNL     1       4.461   3.291  11.638  1.00  0.00     0.100 C 
ATOM      8  O   UNL     1       3.278   3.000  11.957  1.00  0.00    -0.544 OA
ATOM      9  O   UNL     1       4.821   3.324  10.296  1.00  0.00    -0.544 OA
ENDBRANCH   2   7
ENDBRANCH   1   2
BRANCH   1  10
ATOM     10  C   UNL     1       6.156   5.520  14.166  1.00  0.00     0.223 C 
ATOM     11  O   UNL     1       6.322   4.649  15.060  1.00  0.00    -0.275 OA
ATOM     12  N   UNL     1       6.348   6.900  14.478  1.00  0.00    -0.369 N 
ATOM     13  H   UNL     1       6.203   7.635  13.752  1.00  0.00     0.159 HD
ATOM     14  H   UNL     1       6.635   7.188  15.441  1.00  0.00     0.159 HD
ENDBRANCH   1  10
TORSDOF 4
ENDMDL
MODEL 3
REMARK VINA RESULT:    -3.973      2.892      4.711
REMARK INTER + INTRA:          -5.158
REMARK INTER:                  -5.042
REMARK INTRA:                  -0.117
REMARK UNBOUND:                -0.372
REMARK SMILES NC(=O)C[C@H]([NH3+])C(=O)[O-]
REMARK SMILES IDX 4 1 5 2 6 3 7 7 8 8 9 9 2 10 3 11 1 12
REMARK H PARENT 6 4 6 5 6 6 1 13 1 14
REMARK Flexibility Score: inf
ROOT
ATOM      1  C   UNL     1       7.385   6.687  16.379  1.00  0.00     0.171 C 
ENDROOT
BRANCH   1   2
ATOM      2  C   UNL     1       7.330   6.754  14.838  1.00  0.00     0.237 C 
BRANCH   2   3
ATOM      3  N   UNL     1       6.821   8.052  14.374  1.00  0.00    -0.350 N 
ATOM      4  H   UNL     1       5.826   8.172  14.668  1.00  0.00     0.345 HD
ATOM      5  H   UNL     1       6.883   8.123  13.331  1.00  0.00     0.345 HD
ATOM      6  H   UNL     1       7.378   8.826  14.804  1.00  0.00     0.345 HD
ENDBRANCH   2   3
BRANCH   2   7
ATOM      7  C   UNL     1       6.472   5.636  14.309  1.00  0.00     0.100 C 
ATOM      8  O   UNL     1       6.112   4.695  15.064  1.00  0.00    -0.544 OA
ATOM      9  O   UNL     1       6.086   5.630  12.974  1.00  0.00    -0.544 OA
ENDBRANCH   2   7
ENDBRANCH   1   2
BRANCH   1  10
ATOM     10  C   UNL     1       8.798   6.643  16.882  1.00  0.00     0.223 C 
ATOM     11  O   UNL     1       9.043   6.914  18.087  1.00  0.00    -0.275 OA
ATOM     12  N   UNL     1       9.870   6.323  15.996  1.00  0.00    -0.369 N 
ATOM     13  H   UNL     1       9.684   6.107  14.992  1.00  0.00     0.159 HD
ATOM     14  H   UNL     1      10.855   6.304  16.345  1.00  0.00     0.159 HD
ENDBRANCH   1  10
TORSDOF 4
ENDMDL
MODEL 4
REMARK VINA RESULT:    -3.855      4.049      4.902
REMARK INTER + INTRA:          -5.015
REMARK INTER:                  -4.779
REMARK INTRA:                  -0.236
REMARK UNBOUND:                -0.372
REMARK SMILES NC(=O)C[C@H]([NH3+])C(=O)[O-]
REMARK SMILES IDX 4 1 5 2 6 3 7 7 8 8 9 9 2 10 3 11 1 12
REMARK H PARENT 6 4 6 5 6 6 1 13 1 14
REMARK Flexibility Score: inf
ROOT
ATOM      1  C   UNL     1       3.362   0.942  11.741  1.00  0.00     0.171 C 
ENDROOT
BRANCH   1   2
ATOM      2  C   UNL     1       3.183   2.471  11.634  1.00  0.00     0.237 C 
BRANCH   2   3
ATOM      3  N   UNL     1       2.683   2.863  10.309  1.00  0.00    -0.350 N 
ATOM      4  H   UNL     1       3.344   2.541   9.567  1.00  0.00     0.345 HD
ATOM      5  H   UNL     1       2.576   3.903  10.246  1.00  0.00     0.345 HD
ATOM      6  H   UNL     1       1.756   2.412  10.131  1.00  0.00     0.345 HD
ENDBRANCH   2   3
BRANCH   2   7
ATOM      7  C   UNL     1       4.491   3.159  11.924  1.00  0.00     0.100 C 
ATOM      8  O   UNL     1       5.583   2.562  11.732  1.00  0.00    -0.544 OA
ATOM      9  O   UNL     1       4.497   4.456  12.422  1.00  0.00    -0.544 OA
ENDBRANCH   2   7
ENDBRANCH   1   2
BRANCH   1  10
ATOM     10  C   UNL     1       2.041   0.233  11.808  1.00  0.00     0.223 C 
ATOM     11  O   UNL     1       1.075   0.637  11.108  1.00  0.00    -0.275 OA
ATOM     12  N   UNL     1       1.863  -0.879  12.685  1.00  0.00    -0.369 N 
ATOM     13  H   UNL     1       2.650  -1.219  13.280  1.00  0.00     0.159 HD
ATOM     14  H   UNL     1       0.939  -1.365  12.740  1.00  0.00     0.159 HD
ENDBRANCH   1  10
TORSDOF 4
ENDMDL
MODEL 5
REMARK VINA RESULT:    -3.848      1.714      2.079
REMARK INTER + INTRA:          -5.007
REMARK INTER:                  -4.747
REMARK INTRA:                  -0.260
REMARK UNBOUND:                -0.372
REMARK SMILES NC(=O)C[C@H]([NH3+])C(=O)[O-]
REMARK SMILES IDX 4 1 5 2 6 3 7 7 8 8 9 9 2 10 3 11 1 12
REMARK H PARENT 6 4 6 5 6 6 1 13 1 14
REMARK Flexibility Score: inf
ROOT
ATOM      1  C   UNL     1       4.427   3.720  12.244  1.00  0.00     0.171 C 
ENDROOT
BRANCH   1   2
ATOM      2  C   UNL     1       5.920   4.041  12.466  1.00  0.00     0.237 C 
BRANCH   2   3
ATOM      3  N   UNL     1       6.732   2.817  12.512  1.00  0.00    -0.350 N 
ATOM      4  H   UNL     1       6.638   2.291  11.614  1.00  0.00     0.345 HD
ATOM      5  H   UNL     1       6.431   2.202  13.304  1.00  0.00     0.345 HD
ATOM      6  H   UNL     1       7.741   3.066  12.635  1.00  0.00     0.345 HD
ENDBRANCH   2   3
BRANCH   2   7
ATOM      7  C   UNL     1       6.088   4.827  13.739  1.00  0.00     0.100 C 
ATOM      8  O   UNL     1       5.971   4.262  14.859  1.00  0.00    -0.544 OA
ATOM      9  O   UNL     1       6.357   6.189  13.683  1.00  0.00    -0.544 OA
ENDBRANCH   2   7
ENDBRANCH   1   2
BRANCH   1  10
ATOM     10  C   UNL     1       4.234   2.708  11.152  1.00  0.00     0.223 C 
ATOM     11  O   UNL     1       4.716   2.920  10.008  1.00  0.00    -0.275 OA
ATOM     12  N   UNL     1       3.483   1.519  11.395  1.00  0.00    -0.369 N 
ATOM     13  H   UNL     1       3.069   1.334  12.334  1.00  0.00     0.159 HD
ATOM     14  H   UNL     1       3.340   0.821  10.631  1.00  0.00     0.159 HD
ENDBRANCH   1  10
TORSDOF 4
ENDMDL
MODEL 6
REMARK VINA RESULT:    -3.834      1.739      2.009
REMARK INTER + INTRA:          -4.990
REMARK INTER:                  -4.892
REMARK INTRA:                  -0.098
REMARK UNBOUND:                -0.372
REMARK SMILES NC(=O)C[C@H]([NH3+])C(=O)[O-]
REMARK SMILES IDX 4 1 5 2 6 3 7 7 8 8 9 9 2 10 3 11 1 12
REMARK H PARENT 6 4 6 5 6 6 1 13 1 14
REMARK Flexibility Score: inf
ROOT
ATOM      1  C   UNL     1       5.805   5.182  13.184  1.00  0.00     0.171 C 
ENDROOT
BRANCH   1   2
ATOM      2  C   UNL     1       6.642   5.135  14.480  1.00  0.00     0.237 C 
BRANCH   2   3
ATOM      3  N   UNL     1       5.896   4.508  15.579  1.00  0.00    -0.350 N 
ATOM      4  H   UNL     1       6.558   4.151  16.304  1.00  0.00     0.345 HD
ATOM      5  H   UNL     1       5.312   3.714  15.225  1.00  0.00     0.345 HD
ATOM      6  H   UNL     1       5.273   5.215  16.034  1.00  0.00     0.345 HD
ENDBRANCH   2   3
BRANCH   2   7
ATOM      7  C   UNL     1       7.067   6.528  14.864  1.00  0.00     0.100 C 
ATOM      8  O   UNL     1       7.290   6.818  16.069  1.00  0.00    -0.544 OA
ATOM      9  O   UNL     1       7.199   7.507  13.887  1.00  0.00    -0.544 OA
ENDBRANCH   2   7
ENDBRANCH   1   2
BRANCH   1  10
ATOM     10  C   UNL     1       5.588   3.811  12.614  1.00  0.00     0.223 C 
ATOM     11  O   UNL     1       4.434   3.455  12.258  1.00  0.00    -0.275 OA
ATOM     12  N   UNL     1       6.678   2.897  12.500  1.00  0.00    -0.369 N 
ATOM     13  H   UNL     1       7.639   3.173  12.801  1.00  0.00     0.159 HD
ATOM     14  H   UNL     1       6.524   1.938  12.114  1.00  0.00     0.159 HD
ENDBRANCH   1  10
TORSDOF 4
ENDMDL
MODEL 7
REMARK VINA RESULT:    -3.720      4.251      5.466
REMARK INTER + INTRA:          -4.854
REMARK INTER:                  -4.588
REMARK INTRA:                  -0.266
REMARK UNBOUND:                -0.372
REMARK SMILES NC(=O)C[C@H]([NH3+])C(=O)[O-]
REMARK SMILES IDX 4 1 5 2 6 3 7 7 8 8 9 9 2 10 3 11 1 12
REMARK H PARENT 6 4 6 5 6 6 1 13 1 14
REMARK Flexibility Score: inf
ROOT
ATOM      1  C   UNL     1       1.917   2.728  11.749  1.00  0.00     0.171 C 
ENDROOT
BRANCH   1   2
ATOM      2  C   UNL     1       3.149   2.061  11.101  1.00  0.00     0.237 C 
BRANCH   2   3
ATOM      3  N   UNL     1       3.383   0.718  11.649  1.00  0.00    -0.350 N 
ATOM      4  H   UNL     1       2.484   0.304  11.983  1.00  0.00     0.345 HD
ATOM      5  H   UNL     1       4.061   0.756  12.446  1.00  0.00     0.345 HD
ATOM      6  H   UNL     1       3.766   0.092  10.903  1.00  0.00     0.345 HD
ENDBRANCH   2   3
BRANCH   2   7
ATOM      7  C   UNL     1       4.363   2.927  11.304  1.00  0.00     0.100 C 
ATOM      8  O   UNL     1       4.469   3.651  12.329  1.00  0.00    -0.544 OA
ATOM      9  O   UNL     1       5.370   2.944  10.347  1.00  0.00    -0.544 OA
ENDBRANCH   2   7
ENDBRANCH   1   2
BRANCH   1  10
ATOM     10  C   UNL     1       0.705   1.847  11.673  1.00  0.00     0.223 C 
ATOM     11  O   UNL     1       0.613   0.984  10.759  1.00  0.00    -0.275 OA
ATOM     12  N   UNL     1      -0.359   2.000  12.611  1.00  0.00    -0.369 N 
ATOM     13  H   UNL     1      -0.303   2.718  13.367  1.00  0.00     0.159 HD
ATOM     14  H   UNL     1      -1.209   1.394  12.550  1.00  0.00     0.159 HD
ENDBRANCH   1  10
TORSDOF 4
ENDMDL
MODEL 8
REMARK VINA RESULT:    -3.719      1.959      4.072
REMARK INTER + INTRA:          -4.851
REMARK INTER:                  -4.777
REMARK INTRA:                  -0.074
REMARK UNBOUND:                -0.372
REMARK SMILES NC(=O)C[C@H]([NH3+])C(=O)[O-]
REMARK SMILES IDX 4 1 5 2 6 3 7 7 8 8 9 9 2 10 3 11 1 12
REMARK H PARENT 6 4 6 5 6 6 1 13 1 14
REMARK Flexibility Score: inf
ROOT
ATOM      1  C   UNL     1       5.113   4.766  12.501  1.00  0.00     0.171 C 
ENDROOT
BRANCH   1   2
ATOM      2  C   UNL     1       5.359   3.299  12.093  1.00  0.00     0.237 C 
BRANCH   2   3
ATOM      3  N   UNL     1       6.620   3.150  11.353  1.00  0.00    -0.350 N 
ATOM      4  H   UNL     1       7.175   2.358  11.746  1.00  0.00     0.345 HD
ATOM      5  H   UNL     1       7.186   4.029  11.407  1.00  0.00     0.345 HD
ATOM      6  H   UNL     1       6.418   2.934  10.349  1.00  0.00     0.345 HD
ENDBRANCH   2   3
BRANCH   2   7
ATOM      7  C   UNL     1       4.205   2.799  11.265  1.00  0.00     0.100 C 
ATOM      8  O   UNL     1       4.294   2.749  10.009  1.00  0.00    -0.544 OA
ATOM      9  O   UNL     1       3.026   2.404  11.885  1.00  0.00    -0.544 OA
ENDBRANCH   2   7
ENDBRANCH   1   2
BRANCH   1  10
ATOM     10  C   UNL     1       6.093   5.225  13.540  1.00  0.00     0.223 C 
ATOM     11  O   UNL     1       6.600   6.374  13.461  1.00  0.00    -0.275 OA
ATOM     12  N   UNL     1       6.477   4.353  14.604  1.00  0.00    -0.369 N 
ATOM     13  H   UNL     1       6.074   3.393  14.677  1.00  0.00     0.159 HD
ATOM     14  H   UNL     1       7.168   4.669  15.321  1.00  0.00     0.159 HD
ENDBRANCH   1  10
TORSDOF 4
ENDMDL
MODEL 9
REMARK VINA RESULT:    -3.638      2.968      4.588
REMARK INTER + INTRA:          -4.754
REMARK INTER:                  -4.671
REMARK INTRA:                  -0.084
REMARK UNBOUND:                -0.372
REMARK SMILES NC(=O)C[C@H]([NH3+])C(=O)[O-]
REMARK SMILES IDX 4 1 5 2 6 3 7 7 8 8 9 9 2 10 3 11 1 12
REMARK H PARENT 6 4 6 5 6 6 1 13 1 14
REMARK Flexibility Score: inf
ROOT
ATOM      1  C   UNL     1       4.438   3.654  12.105  1.00  0.00     0.171 C 
ENDROOT
BRANCH   1   2
ATOM      2  C   UNL     1       4.157   2.346  11.337  1.00  0.00     0.237 C 
BRANCH   2   3
ATOM      3  N   UNL     1       4.270   2.540   9.885  1.00  0.00    -0.350 N 
ATOM      4  H   UNL     1       5.100   2.025   9.517  1.00  0.00     0.345 HD
ATOM      5  H   UNL     1       4.365   3.557   9.654  1.00  0.00     0.345 HD
ATOM      6  H   UNL     1       3.419   2.160   9.409  1.00  0.00     0.345 HD
ENDBRANCH   2   3
BRANCH   2   7
ATOM      7  C   UNL     1       2.787   1.830  11.690  1.00  0.00     0.100 C 
ATOM      8  O   UNL     1       1.796   2.607  11.702  1.00  0.00    -0.544 OA
ATOM      9  O   UNL     1       2.614   0.493  12.023  1.00  0.00    -0.544 OA
ENDBRANCH   2   7
ENDBRANCH   1   2
BRANCH   1  10
ATOM     10  C   UNL     1       5.754   3.603  12.824  1.00  0.00     0.223 C 
ATOM     11  O   UNL     1       6.004   4.436  13.735  1.00  0.00    -0.275 OA
ATOM     12  N   UNL     1       6.738   2.635  12.460  1.00  0.00    -0.369 N 
ATOM     13  H   UNL     1       6.550   1.945  11.699  1.00  0.00     0.159 HD
ATOM     14  H   UNL     1       7.659   2.608  12.953  1.00  0.00     0.159 HD
ENDBRANCH   1  10
TORSDOF 4
ENDMDL
