MODEL 1
REMARK VINA RESULT:    -1.774      0.000      0.000
REMARK INTER + INTRA:          -1.826
REMARK INTER:                  -1.826
REMARK INTRA:                   0.000
REMARK UNBOUND:                 0.000
REMARK SMILES Cc1ccccc1O
REMARK SMILES IDX 1 1 2 2 3 3 4 4 5 5 6 6 7 7 8 8
REMARK H PARENT 8 9
REMARK Flexibility Score: inf
ROOT
ATOM      1  C   UNL     1     -27.123  -0.684 -25.390  1.00  0.00     0.048 C 
ATOM      2  C   UNL     1     -27.123  -1.721 -24.302  1.00  0.00    -0.009 A 
ATOM      3  C   UNL     1     -27.125  -3.089 -24.626  1.00  0.00     0.007 A 
ATOM      4  C   UNL     1     -27.124  -4.052 -23.613  1.00  0.00     0.001 A 
ATOM      5  C   UNL     1     -27.123  -3.661 -22.274  1.00  0.00     0.004 A 
ATOM      6  C   UNL     1     -27.123  -2.304 -21.941  1.00  0.00     0.046 A 
ATOM      7  C   UNL     1     -27.122  -1.329 -22.949  1.00  0.00     0.118 A 
ENDROOT
BRANCH   7   8
ATOM      8  O   UNL     1     -27.121   0.025 -22.613  1.00  0.00    -0.508 OA
ATOM      9  H   UNL     1     -27.946   0.481 -22.244  1.00  0.00     0.293 HD
ENDBRANCH   7   8
TORSDOF 1
ENDMDL
MODEL 2
REMARK VINA RESULT:    -1.306      1.273      2.131
REMARK INTER + INTRA:          -1.345
REMARK INTER:                  -1.345
REMARK INTRA:                   0.000
REMARK UNBOUND:                 0.000
REMARK SMILES Cc1ccccc1O
REMARK SMILES IDX 1 1 2 2 3 3 4 4 5 5 6 6 7 7 8 8
REMARK H PARENT 8 9
REMARK Flexibility Score: inf
ROOT
ATOM      1  C   UNL     1     -27.088  -3.691 -25.752  1.00  0.00     0.048 C 
ATOM      2  C   UNL     1     -27.095  -2.964 -24.437  1.00  0.00    -0.009 A 
ATOM      3  C   UNL     1     -27.088  -3.683 -23.229  1.00  0.00     0.007 A 
ATOM      4  C   UNL     1     -27.094  -3.006 -22.007  1.00  0.00     0.001 A 
ATOM      5  C   UNL     1     -27.109  -1.611 -21.978  1.00  0.00     0.004 A 
ATOM      6  C   UNL     1     -27.117  -0.887 -23.173  1.00  0.00     0.046 A 
ATOM      7  C   UNL     1     -27.110  -1.556 -24.405  1.00  0.00     0.118 A 
ENDROOT
BRANCH   7   8
ATOM      8  O   UNL     1     -27.118  -0.830 -25.595  1.00  0.00    -0.508 OA
ATOM      9  H   UNL     1     -26.287  -0.739 -26.168  1.00  0.00     0.293 HD
ENDBRANCH   7   8
TORSDOF 1
ENDMDL
MODEL 3
REMARK VINA RESULT:    -0.457      1.545      2.877
REMARK INTER + INTRA:          -0.470
REMARK INTER:                  -0.470
REMARK INTRA:                   0.000
REMARK UNBOUND:                 0.000
REMARK SMILES Cc1ccccc1O
REMARK SMILES IDX 1 1 2 2 3 3 4 4 5 5 6 6 7 7 8 8
REMARK H PARENT 8 9
REMARK Flexibility Score: inf
ROOT
ATOM      1  C   UNL     1     -27.101  -0.552 -21.532  1.00  0.00     0.048 C 
ATOM      2  C   UNL     1     -27.107  -1.255 -22.860  1.00  0.00    -0.009 A 
ATOM      3  C   UNL     1     -27.110  -0.514 -24.055  1.00  0.00     0.007 A 
ATOM      4  C   UNL     1     -27.116  -1.168 -25.290  1.00  0.00     0.001 A 
ATOM      5  C   UNL     1     -27.119  -2.563 -25.344  1.00  0.00     0.004 A 
ATOM      6  C   UNL     1     -27.118  -3.309 -24.163  1.00  0.00     0.046 A 
ATOM      7  C   UNL     1     -27.111  -2.662 -22.919  1.00  0.00     0.118 A 
ENDROOT
BRANCH   7   8
ATOM      8  O   UNL     1     -27.109  -3.411 -21.742  1.00  0.00    -0.508 OA
ATOM      9  H   UNL     1     -27.768  -4.165 -21.591  1.00  0.00     0.293 HD
ENDBRANCH   7   8
TORSDOF 1
ENDMDL
