MODEL 1
REMARK VINA RESULT:    -2.633      0.000      0.000
REMARK INTER + INTRA:          -3.205
REMARK INTER:                  -3.094
REMARK INTRA:                  -0.110
REMARK UNBOUND:                -0.110
REMARK SMILES CCCCC(=O)[O-]
REMARK SMILES IDX 4 1 5 2 6 3 7 4 3 5 2 6 1 7
REMARK H PARENT
REMARK Flexibility Score: inf
ROOT
ATOM      1  C   UNL     1      20.129 -12.618  -0.736  1.00  0.00     0.053 C 
ENDROOT
BRANCH   1   2
ATOM      2  C   UNL     1      19.390 -13.690  -1.470  1.00  0.00     0.041 C 
ATOM      3  O   UNL     1      18.986 -13.490  -2.646  1.00  0.00    -0.550 OA
ATOM      4  O   UNL     1      19.104 -14.894  -0.839  1.00  0.00    -0.550 OA
ENDBRANCH   1   2
BRANCH   1   5
ATOM      5  C   UNL     1      20.765 -11.632  -1.722  1.00  0.00     0.006 C 
BRANCH   5   6
ATOM      6  C   UNL     1      20.314 -10.196  -1.429  1.00  0.00    -0.003 C 
ATOM      7  C   UNL     1      18.939  -9.917  -2.030  1.00  0.00     0.004 C 
ENDBRANCH   5   6
ENDBRANCH   1   5
TORSDOF 3
ENDMDL
MODEL 2
REMARK VINA RESULT:    -2.571     12.802     13.834
REMARK INTER + INTRA:          -3.132
REMARK INTER:                  -3.072
REMARK INTRA:                  -0.060
REMARK UNBOUND:                -0.110
REMARK SMILES CCCCC(=O)[O-]
REMARK SMILES IDX 4 1 5 2 6 3 7 4 3 5 2 6 1 7
REMARK H PARENT
REMARK Flexibility Score: inf
ROOT
ATOM      1  C   UNL     1      19.389 -16.935  11.289  1.00  0.00     0.053 C 
ENDROOT
BRANCH   1   2
ATOM      2  C   UNL     1      18.547 -16.632  10.091  1.00  0.00     0.041 C 
ATOM      3  O   UNL     1      18.675 -15.534   9.488  1.00  0.00    -0.550 OA
ATOM      4  O   UNL     1      17.587 -17.542   9.669  1.00  0.00    -0.550 OA
ENDBRANCH   1   2
BRANCH   1   5
ATOM      5  C   UNL     1      18.574 -16.762  12.575  1.00  0.00     0.006 C 
BRANCH   5   6
ATOM      6  C   UNL     1      18.789 -15.369  13.178  1.00  0.00    -0.003 C 
ATOM      7  C   UNL     1      20.135 -15.279  13.891  1.00  0.00     0.004 C 
ENDBRANCH   5   6
ENDBRANCH   1   5
TORSDOF 3
ENDMDL
MODEL 3
REMARK VINA RESULT:    -2.563     13.845     14.906
REMARK INTER + INTRA:          -3.122
REMARK INTER:                  -3.018
REMARK INTRA:                  -0.104
REMARK UNBOUND:                -0.110
REMARK SMILES CCCCC(=O)[O-]
REMARK SMILES IDX 4 1 5 2 6 3 7 4 3 5 2 6 1 7
REMARK H PARENT
REMARK Flexibility Score: inf
ROOT
ATOM      1  C   UNL     1      18.832 -15.655  12.776  1.00  0.00     0.053 C 
ENDROOT
BRANCH   1   2
ATOM      2  C   UNL     1      17.851 -16.220  13.754  1.00  0.00     0.041 C 
ATOM      3  O   UNL     1      17.913 -15.899  14.970  1.00  0.00    -0.550 OA
ATOM      4  O   UNL     1      16.899 -17.139  13.331  1.00  0.00    -0.550 OA
ENDBRANCH   1   2
BRANCH   1   5
ATOM      5  C   UNL     1      19.297 -16.738  11.797  1.00  0.00     0.006 C 
BRANCH   5   6
ATOM      6  C   UNL     1      18.795 -16.448  10.378  1.00  0.00    -0.003 C 
ATOM      7  C   UNL     1      17.836 -17.535   9.900  1.00  0.00     0.004 C 
ENDBRANCH   5   6
ENDBRANCH   1   5
TORSDOF 3
ENDMDL
MODEL 4
REMARK VINA RESULT:    -2.533     12.844     13.912
REMARK INTER + INTRA:          -3.087
REMARK INTER:                  -3.037
REMARK INTRA:                  -0.050
REMARK UNBOUND:                -0.110
REMARK SMILES CCCCC(=O)[O-]
REMARK SMILES IDX 4 1 5 2 6 3 7 4 3 5 2 6 1 7
REMARK H PARENT
REMARK Flexibility Score: inf
ROOT
ATOM      1  C   UNL     1      19.102 -16.646  11.428  1.00  0.00     0.053 C 
ENDROOT
BRANCH   1   2
ATOM      2  C   UNL     1      18.479 -16.553  10.072  1.00  0.00     0.041 C 
ATOM      3  O   UNL     1      17.817 -17.520   9.611  1.00  0.00    -0.550 OA
ATOM      4  O   UNL     1      18.670 -15.417   9.296  1.00  0.00    -0.550 OA
ENDBRANCH   1   2
BRANCH   1   5
ATOM      5  C   UNL     1      18.035 -16.932  12.490  1.00  0.00     0.006 C 
BRANCH   5   6
ATOM      6  C   UNL     1      18.204 -16.007  13.701  1.00  0.00    -0.003 C 
ATOM      7  C   UNL     1      19.478 -15.174  13.584  1.00  0.00     0.004 C 
ENDBRANCH   5   6
ENDBRANCH   1   5
TORSDOF 3
ENDMDL
MODEL 5
REMARK VINA RESULT:    -2.472      2.113      3.274
REMARK INTER + INTRA:          -3.015
REMARK INTER:                  -2.957
REMARK INTRA:                  -0.059
REMARK UNBOUND:                -0.110
REMARK SMILES CCCCC(=O)[O-]
REMARK SMILES IDX 4 1 5 2 6 3 7 4 3 5 2 6 1 7
REMARK H PARENT
REMARK Flexibility Score: inf
ROOT
ATOM      1  C   UNL     1      20.178 -10.240  -1.364  1.00  0.00     0.053 C 
ENDROOT
BRANCH   1   2
ATOM      2  C   UNL     1      18.945 -10.284  -2.209  1.00  0.00     0.041 C 
ATOM      3  O   UNL     1      18.490  -9.227  -2.722  1.00  0.00    -0.550 OA
ATOM      4  O   UNL     1      18.269 -11.484  -2.390  1.00  0.00    -0.550 OA
ENDBRANCH   1   2
BRANCH   1   5
ATOM      5  C   UNL     1      20.567 -11.650  -0.909  1.00  0.00     0.006 C 
BRANCH   5   6
ATOM      6  C   UNL     1      22.014 -11.974  -1.302  1.00  0.00    -0.003 C 
ATOM      7  C   UNL     1      22.880 -10.718  -1.294  1.00  0.00     0.004 C 
ENDBRANCH   5   6
ENDBRANCH   1   5
TORSDOF 3
ENDMDL
MODEL 6
REMARK VINA RESULT:    -2.468      2.594      3.995
REMARK INTER + INTRA:          -3.011
REMARK INTER:                  -2.985
REMARK INTRA:                  -0.026
REMARK UNBOUND:                -0.110
REMARK SMILES CCCCC(=O)[O-]
REMARK SMILES IDX 4 1 5 2 6 3 7 4 3 5 2 6 1 7
REMARK H PARENT
REMARK Flexibility Score: inf
ROOT
ATOM      1  C   UNL     1      18.789 -11.659  -2.049  1.00  0.00     0.053 C 
ENDROOT
BRANCH   1   2
ATOM      2  C   UNL     1      19.226 -10.232  -1.958  1.00  0.00     0.041 C 
ATOM      3  O   UNL     1      20.191  -9.910  -1.217  1.00  0.00    -0.550 OA
ATOM      4  O   UNL     1      18.535  -9.249  -2.655  1.00  0.00    -0.550 OA
ENDBRANCH   1   2
BRANCH   1   5
ATOM      5  C   UNL     1      19.759 -12.566  -1.285  1.00  0.00     0.006 C 
BRANCH   5   6
ATOM      6  C   UNL     1      19.816 -13.963  -1.914  1.00  0.00    -0.003 C 
ATOM      7  C   UNL     1      19.034 -14.974  -1.081  1.00  0.00     0.004 C 
ENDBRANCH   5   6
ENDBRANCH   1   5
TORSDOF 3
ENDMDL
MODEL 7
REMARK VINA RESULT:    -2.401     13.391     14.525
REMARK INTER + INTRA:          -2.932
REMARK INTER:                  -2.853
REMARK INTRA:                  -0.079
REMARK UNBOUND:                -0.110
REMARK SMILES CCCCC(=O)[O-]
REMARK SMILES IDX 4 1 5 2 6 3 7 4 3 5 2 6 1 7
REMARK H PARENT
REMARK Flexibility Score: inf
ROOT
ATOM      1  C   UNL     1      13.062  -0.056  -2.892  1.00  0.00     0.053 C 
ENDROOT
BRANCH   1   2
ATOM      2  C   UNL     1      11.669   0.086  -2.367  1.00  0.00     0.041 C 
ATOM      3  O   UNL     1      11.384   1.018  -1.570  1.00  0.00    -0.550 OA
ATOM      4  O   UNL     1      10.696  -0.840  -2.720  1.00  0.00    -0.550 OA
ENDBRANCH   1   2
BRANCH   1   5
ATOM      5  C   UNL     1      13.835   1.256  -2.725  1.00  0.00     0.006 C 
BRANCH   5   6
ATOM      6  C   UNL     1      15.171   1.019  -2.011  1.00  0.00    -0.003 C 
ATOM      7  C   UNL     1      15.221  -0.372  -1.385  1.00  0.00     0.004 C 
ENDBRANCH   5   6
ENDBRANCH   1   5
TORSDOF 3
ENDMDL
MODEL 8
REMARK VINA RESULT:    -2.383     22.209     22.715
REMARK INTER + INTRA:          -2.912
REMARK INTER:                  -2.823
REMARK INTRA:                  -0.089
REMARK UNBOUND:                -0.110
REMARK SMILES CCCCC(=O)[O-]
REMARK SMILES IDX 4 1 5 2 6 3 7 4 3 5 2 6 1 7
REMARK H PARENT
REMARK Flexibility Score: inf
ROOT
ATOM      1  C   UNL     1       4.443  -7.161  14.790  1.00  0.00     0.053 C 
ENDROOT
BRANCH   1   2
ATOM      2  C   UNL     1       4.634  -7.196  13.307  1.00  0.00     0.041 C 
ATOM      3  O   UNL     1       3.636  -7.189  12.540  1.00  0.00    -0.550 OA
ATOM      4  O   UNL     1       5.913  -7.286  12.773  1.00  0.00    -0.550 OA
ENDBRANCH   1   2
BRANCH   1   5
ATOM      5  C   UNL     1       3.292  -8.083  15.205  1.00  0.00     0.006 C 
BRANCH   5   6
ATOM      6  C   UNL     1       3.814  -9.472  15.592  1.00  0.00    -0.003 C 
ATOM      7  C   UNL     1       5.157  -9.375  16.310  1.00  0.00     0.004 C 
ENDBRANCH   5   6
ENDBRANCH   1   5
TORSDOF 3
ENDMDL
MODEL 9
REMARK VINA RESULT:    -2.338      1.762      2.502
REMARK INTER + INTRA:          -2.859
REMARK INTER:                  -2.779
REMARK INTRA:                  -0.080
REMARK UNBOUND:                -0.110
REMARK SMILES CCCCC(=O)[O-]
REMARK SMILES IDX 4 1 5 2 6 3 7 4 3 5 2 6 1 7
REMARK H PARENT
REMARK Flexibility Score: inf
ROOT
ATOM      1  C   UNL     1      20.294 -10.745  -1.247  1.00  0.00     0.053 C 
ENDROOT
BRANCH   1   2
ATOM      2  C   UNL     1      19.366 -11.874  -1.563  1.00  0.00     0.041 C 
ATOM      3  O   UNL     1      18.329 -11.670  -2.248  1.00  0.00    -0.550 OA
ATOM      4  O   UNL     1      19.619 -13.144  -1.059  1.00  0.00    -0.550 OA
ENDBRANCH   1   2
BRANCH   1   5
ATOM      5  C   UNL     1      21.364 -10.610  -2.336  1.00  0.00     0.006 C 
BRANCH   5   6
ATOM      6  C   UNL     1      22.770 -10.599  -1.725  1.00  0.00    -0.003 C 
ATOM      7  C   UNL     1      22.981 -11.798  -0.806  1.00  0.00     0.004 C 
ENDBRANCH   5   6
ENDBRANCH   1   5
TORSDOF 3
ENDMDL
