MODEL 1
REMARK VINA RESULT:    -6.495      0.000      0.000
REMARK INTER + INTRA:          -8.223
REMARK INTER:                  -8.014
REMARK INTRA:                  -0.209
REMARK UNBOUND:                -0.209
REMARK SMILES Oc1cc(O)c2cc(O)c(-c3cc(O)c(O)c(O)c3)[o+]c2c1
REMARK SMILES IDX 10 1 20 2 21 3 22 4 2 5 3 6 4 7 6 8 7 9 8 10 11 11 12 12
REMARK SMILES IDX 13 13 19 14 15 15 17 16 14 17 16 19 18 21 9 23 1 25 5 27
REMARK H PARENT 14 18 16 20 18 22 9 24 1 26 5 28
REMARK Flexibility Score: inf
ROOT
ATOM      1  C   UNL     1      -2.867  89.132  32.245  1.00  0.00     0.402 A 
ATOM      2  O   UNL     1      -3.230  88.151  31.420  1.00  0.00    -0.202 OA
ATOM      3  C   UNL     1      -2.616  86.973  31.375  1.00  0.00     0.368 A 
ATOM      4  C   UNL     1      -3.062  85.993  30.484  1.00  0.00     0.162 A 
ATOM      5  C   UNL     1      -2.425  84.746  30.430  1.00  0.00     0.128 A 
ATOM      6  C   UNL     1      -1.339  84.482  31.271  1.00  0.00     0.093 A 
ATOM      7  C   UNL     1      -0.879  85.456  32.169  1.00  0.00     0.136 A 
ATOM      8  C   UNL     1      -1.519  86.708  32.224  1.00  0.00     0.125 A 
ATOM      9  C   UNL     1      -1.099  87.720  33.095  1.00  0.00     0.078 A 
ATOM     10  C   UNL     1      -1.765  88.949  33.105  1.00  0.00     0.223 A 
ENDROOT
BRANCH   1  11
ATOM     11  C   UNL     1      -3.635  90.398  32.209  1.00  0.00     0.091 A 
ATOM     12  C   UNL     1      -3.033  91.607  31.820  1.00  0.00     0.068 A 
ATOM     13  C   UNL     1      -3.771  92.799  31.814  1.00  0.00     0.162 A 
ATOM     14  C   UNL     1      -4.975  90.405  32.625  1.00  0.00     0.068 A 
ATOM     15  C   UNL     1      -5.115  92.794  32.209  1.00  0.00     0.200 A 
ATOM     16  C   UNL     1      -5.718  91.593  32.619  1.00  0.00     0.162 A 
BRANCH  13  17
ATOM     17  O   UNL     1      -3.172  93.995  31.422  1.00  0.00    -0.504 OA
ATOM     18  H   UNL     1      -2.202  94.197  31.632  1.00  0.00     0.293 HD
ENDBRANCH  13  17
BRANCH  15  19
ATOM     19  O   UNL     1      -5.834  93.989  32.192  1.00  0.00    -0.502 OA
ATOM     20  H   UNL     1      -6.079  94.483  33.043  1.00  0.00     0.293 HD
ENDBRANCH  15  19
BRANCH  16  21
ATOM     21  O   UNL     1      -7.054  91.584  33.020  1.00  0.00    -0.504 OA
ATOM     22  H   UNL     1      -7.786  91.220  32.422  1.00  0.00     0.293 HD
ENDBRANCH  16  21
ENDBRANCH   1  11
BRANCH  10  23
ATOM     23  O   UNL     1      -1.320  89.978  33.934  1.00  0.00    -0.500 OA
ATOM     24  H   UNL     1      -1.377  89.910  34.943  1.00  0.00     0.294 HD
ENDBRANCH  10  23
BRANCH   5  25
ATOM     25  O   UNL     1      -2.864  83.764  29.544  1.00  0.00    -0.507 OA
ATOM     26  H   UNL     1      -3.041  83.971  28.569  1.00  0.00     0.293 HD
ENDBRANCH   5  25
BRANCH   7  27
ATOM     27  O   UNL     1       0.206  85.179  33.001  1.00  0.00    -0.507 OA
ATOM     28  H   UNL     1       0.524  85.843  33.698  1.00  0.00     0.293 HD
ENDBRANCH   7  27
TORSDOF 7
ENDMDL
MODEL 2
REMARK VINA RESULT:    -6.396      4.077      7.586
REMARK INTER + INTRA:          -8.100
REMARK INTER:                  -7.720
REMARK INTRA:                  -0.381
REMARK UNBOUND:                -0.209
REMARK SMILES Oc1cc(O)c2cc(O)c(-c3cc(O)c(O)c(O)c3)[o+]c2c1
REMARK SMILES IDX 10 1 20 2 21 3 22 4 2 5 3 6 4 7 6 8 7 9 8 10 11 11 12 12
REMARK SMILES IDX 13 13 19 14 15 15 17 16 14 17 16 19 18 21 9 23 1 25 5 27
REMARK H PARENT 14 18 16 20 18 22 9 24 1 26 5 28
REMARK Flexibility Score: inf
ROOT
ATOM      1  C   UNL     1       0.282  90.726  33.762  1.00  0.00     0.402 A 
ATOM      2  O   UNL     1      -0.564  91.691  34.124  1.00  0.00    -0.202 OA
ATOM      3  C   UNL     1      -1.835  91.726  33.739  1.00  0.00     0.368 A 
ATOM      4  C   UNL     1      -2.659  92.770  34.168  1.00  0.00     0.162 A 
ATOM      5  C   UNL     1      -4.003  92.816  33.772  1.00  0.00     0.128 A 
ATOM      6  C   UNL     1      -4.520  91.814  32.945  1.00  0.00     0.093 A 
ATOM      7  C   UNL     1      -3.706  90.760  32.507  1.00  0.00     0.136 A 
ATOM      8  C   UNL     1      -2.356  90.713  32.904  1.00  0.00     0.125 A 
ATOM      9  C   UNL     1      -1.495  89.690  32.491  1.00  0.00     0.078 A 
ATOM     10  C   UNL     1      -0.161  89.694  32.909  1.00  0.00     0.223 A 
ENDROOT
BRANCH   1  11
ATOM     11  C   UNL     1       1.674  90.791  34.262  1.00  0.00     0.091 A 
ATOM     12  C   UNL     1       2.674  91.479  33.552  1.00  0.00     0.068 A 
ATOM     13  C   UNL     1       3.991  91.510  34.031  1.00  0.00     0.162 A 
ATOM     14  C   UNL     1       2.019  90.105  35.436  1.00  0.00     0.068 A 
ATOM     15  C   UNL     1       4.324  90.842  35.216  1.00  0.00     0.200 A 
ATOM     16  C   UNL     1       3.335  90.134  35.920  1.00  0.00     0.162 A 
BRANCH  13  17
ATOM     17  O   UNL     1       4.979  92.199  33.328  1.00  0.00    -0.504 OA
ATOM     18  H   UNL     1       5.783  91.721  32.937  1.00  0.00     0.293 HD
ENDBRANCH  13  17
BRANCH  15  19
ATOM     19  O   UNL     1       5.639  90.888  35.678  1.00  0.00    -0.502 OA
ATOM     20  H   UNL     1       6.227  91.704  35.551  1.00  0.00     0.293 HD
ENDBRANCH  15  19
BRANCH  16  21
ATOM     21  O   UNL     1       3.662  89.461  37.097  1.00  0.00    -0.504 OA
ATOM     22  H   UNL     1       3.167  88.626  37.386  1.00  0.00     0.293 HD
ENDBRANCH  16  21
ENDBRANCH   1  11
BRANCH  10  23
ATOM     23  O   UNL     1       0.715  88.706  32.461  1.00  0.00    -0.500 OA
ATOM     24  H   UNL     1       1.579  88.939  31.984  1.00  0.00     0.294 HD
ENDBRANCH  10  23
BRANCH   5  25
ATOM     25  O   UNL     1      -4.831  93.854  34.195  1.00  0.00    -0.507 OA
ATOM     26  H   UNL     1      -4.755  94.247  35.125  1.00  0.00     0.293 HD
ENDBRANCH   5  25
BRANCH   7  27
ATOM     27  O   UNL     1      -4.235  89.768  31.682  1.00  0.00    -0.507 OA
ATOM     28  H   UNL     1      -5.097  89.289  31.913  1.00  0.00     0.293 HD
ENDBRANCH   7  27
TORSDOF 7
ENDMDL
MODEL 3
REMARK VINA RESULT:    -6.384      4.026      7.687
REMARK INTER + INTRA:          -8.086
REMARK INTER:                  -7.701
REMARK INTRA:                  -0.385
REMARK UNBOUND:                -0.209
REMARK SMILES Oc1cc(O)c2cc(O)c(-c3cc(O)c(O)c(O)c3)[o+]c2c1
REMARK SMILES IDX 10 1 20 2 21 3 22 4 2 5 3 6 4 7 6 8 7 9 8 10 11 11 12 12
REMARK SMILES IDX 13 13 19 14 15 15 17 16 14 17 16 19 18 21 9 23 1 25 5 27
REMARK H PARENT 14 18 16 20 18 22 9 24 1 26 5 28
REMARK Flexibility Score: inf
ROOT
ATOM      1  C   UNL     1       0.230  90.594  33.766  1.00  0.00     0.402 A 
ATOM      2  O   UNL     1      -0.606  91.568  34.130  1.00  0.00    -0.202 OA
ATOM      3  C   UNL     1      -1.878  91.613  33.751  1.00  0.00     0.368 A 
ATOM      4  C   UNL     1      -2.691  92.665  34.181  1.00  0.00     0.162 A 
ATOM      5  C   UNL     1      -4.037  92.722  33.792  1.00  0.00     0.128 A 
ATOM      6  C   UNL     1      -4.567  91.722  32.970  1.00  0.00     0.093 A 
ATOM      7  C   UNL     1      -3.763  90.661  32.530  1.00  0.00     0.136 A 
ATOM      8  C   UNL     1      -2.412  90.603  32.921  1.00  0.00     0.125 A 
ATOM      9  C   UNL     1      -1.562  89.572  32.506  1.00  0.00     0.078 A 
ATOM     10  C   UNL     1      -0.226  89.565  32.918  1.00  0.00     0.223 A 
ENDROOT
BRANCH   1  11
ATOM     11  C   UNL     1       1.625  90.649  34.259  1.00  0.00     0.091 A 
ATOM     12  C   UNL     1       2.007  89.999  35.446  1.00  0.00     0.068 A 
ATOM     13  C   UNL     1       3.328  90.082  35.907  1.00  0.00     0.162 A 
ATOM     14  C   UNL     1       2.575  91.411  33.561  1.00  0.00     0.068 A 
ATOM     15  C   UNL     1       4.276  90.826  35.194  1.00  0.00     0.200 A 
ATOM     16  C   UNL     1       3.897  91.495  34.018  1.00  0.00     0.162 A 
BRANCH  13  17
ATOM     17  O   UNL     1       3.704  89.431  37.081  1.00  0.00    -0.504 OA
ATOM     18  H   UNL     1       3.820  88.425  37.116  1.00  0.00     0.293 HD
ENDBRANCH  13  17
BRANCH  15  19
ATOM     19  O   UNL     1       5.586  90.892  35.667  1.00  0.00    -0.502 OA
ATOM     20  H   UNL     1       5.940  91.702  36.163  1.00  0.00     0.293 HD
ENDBRANCH  15  19
BRANCH  16  21
ATOM     21  O   UNL     1       4.836  92.244  33.308  1.00  0.00    -0.504 OA
ATOM     22  H   UNL     1       5.514  91.804  32.697  1.00  0.00     0.293 HD
ENDBRANCH  16  21
ENDBRANCH   1  11
BRANCH  10  23
ATOM     23  O   UNL     1       0.640  88.568  32.468  1.00  0.00    -0.500 OA
ATOM     24  H   UNL     1       1.067  87.907  33.106  1.00  0.00     0.294 HD
ENDBRANCH  10  23
BRANCH   5  25
ATOM     25  O   UNL     1      -4.853  93.768  34.216  1.00  0.00    -0.507 OA
ATOM     26  H   UNL     1      -5.227  94.447  33.564  1.00  0.00     0.293 HD
ENDBRANCH   5  25
BRANCH   7  27
ATOM     27  O   UNL     1      -4.305  89.671  31.709  1.00  0.00    -0.507 OA
ATOM     28  H   UNL     1      -4.943  89.896  30.955  1.00  0.00     0.293 HD
ENDBRANCH   7  27
TORSDOF 7
ENDMDL
MODEL 4
REMARK VINA RESULT:    -6.354      3.809      6.608
REMARK INTER + INTRA:          -8.049
REMARK INTER:                  -7.672
REMARK INTRA:                  -0.377
REMARK UNBOUND:                -0.209
REMARK SMILES Oc1cc(O)c2cc(O)c(-c3cc(O)c(O)c(O)c3)[o+]c2c1
REMARK SMILES IDX 10 1 20 2 21 3 22 4 2 5 3 6 4 7 6 8 7 9 8 10 11 11 12 12
REMARK SMILES IDX 13 13 19 14 15 15 17 16 14 17 16 19 18 21 9 23 1 25 5 27
REMARK H PARENT 14 18 16 20 18 22 9 24 1 26 5 28
REMARK Flexibility Score: inf
ROOT
ATOM      1  C   UNL     1      -1.743  92.362  33.596  1.00  0.00     0.402 A 
ATOM      2  O   UNL     1      -2.170  91.561  32.619  1.00  0.00    -0.202 OA
ATOM      3  C   UNL     1      -3.455  91.397  32.323  1.00  0.00     0.368 A 
ATOM      4  C   UNL     1      -3.820  90.542  31.279  1.00  0.00     0.162 A 
ATOM      5  C   UNL     1      -5.171  90.363  30.954  1.00  0.00     0.128 A 
ATOM      6  C   UNL     1      -6.158  91.041  31.677  1.00  0.00     0.093 A 
ATOM      7  C   UNL     1      -5.807  91.901  32.728  1.00  0.00     0.136 A 
ATOM      8  C   UNL     1      -4.449  92.082  33.054  1.00  0.00     0.125 A 
ATOM      9  C   UNL     1      -4.041  92.921  34.097  1.00  0.00     0.078 A 
ATOM     10  C   UNL     1      -2.680  93.060  34.384  1.00  0.00     0.223 A 
ENDROOT
BRANCH   1  11
ATOM     11  C   UNL     1      -0.284  92.470  33.826  1.00  0.00     0.091 A 
ATOM     12  C   UNL     1       0.460  93.543  33.306  1.00  0.00     0.068 A 
ATOM     13  C   UNL     1       1.844  93.614  33.516  1.00  0.00     0.162 A 
ATOM     14  C   UNL     1       0.381  91.453  34.528  1.00  0.00     0.068 A 
ATOM     15  C   UNL     1       2.499  92.607  34.236  1.00  0.00     0.200 A 
ATOM     16  C   UNL     1       1.764  91.521  34.742  1.00  0.00     0.162 A 
BRANCH  13  17
ATOM     17  O   UNL     1       2.579  94.683  33.003  1.00  0.00    -0.504 OA
ATOM     18  H   UNL     1       3.192  94.571  32.204  1.00  0.00     0.293 HD
ENDBRANCH  13  17
BRANCH  15  19
ATOM     19  O   UNL     1       3.876  92.699  34.438  1.00  0.00    -0.502 OA
ATOM     20  H   UNL     1       4.407  93.519  34.168  1.00  0.00     0.293 HD
ENDBRANCH  15  19
BRANCH  16  21
ATOM     21  O   UNL     1       2.412  90.512  35.454  1.00  0.00    -0.504 OA
ATOM     22  H   UNL     1       3.229  90.042  35.085  1.00  0.00     0.293 HD
ENDBRANCH  16  21
ENDBRANCH   1  11
BRANCH  10  23
ATOM     23  O   UNL     1      -2.269  93.855  35.454  1.00  0.00    -0.500 OA
ATOM     24  H   UNL     1      -2.934  94.245  36.113  1.00  0.00     0.294 HD
ENDBRANCH  10  23
BRANCH   5  25
ATOM     25  O   UNL     1      -5.543  89.513  29.914  1.00  0.00    -0.507 OA
ATOM     26  H   UNL     1      -5.297  88.530  29.919  1.00  0.00     0.293 HD
ENDBRANCH   5  25
BRANCH   7  27
ATOM     27  O   UNL     1      -6.801  92.571  33.442  1.00  0.00    -0.507 OA
ATOM     28  H   UNL     1      -7.517  93.114  32.973  1.00  0.00     0.293 HD
ENDBRANCH   7  27
TORSDOF 7
ENDMDL
MODEL 5
REMARK VINA RESULT:    -6.343     10.436     12.690
REMARK INTER + INTRA:          -8.035
REMARK INTER:                  -7.667
REMARK INTRA:                  -0.368
REMARK UNBOUND:                -0.209
REMARK SMILES Oc1cc(O)c2cc(O)c(-c3cc(O)c(O)c(O)c3)[o+]c2c1
REMARK SMILES IDX 10 1 20 2 21 3 22 4 2 5 3 6 4 7 6 8 7 9 8 10 11 11 12 12
REMARK SMILES IDX 13 13 19 14 15 15 17 16 14 17 16 19 18 21 9 23 1 25 5 27
REMARK H PARENT 14 18 16 20 18 22 9 24 1 26 5 28
REMARK Flexibility Score: inf
ROOT
ATOM      1  C   UNL     1       8.046  85.939  27.993  1.00  0.00     0.402 A 
ATOM      2  O   UNL     1       8.161  85.100  26.963  1.00  0.00    -0.202 OA
ATOM      3  C   UNL     1       9.326  84.789  26.406  1.00  0.00     0.368 A 
ATOM      4  C   UNL     1       9.361  83.896  25.331  1.00  0.00     0.162 A 
ATOM      5  C   UNL     1      10.584  83.556  24.736  1.00  0.00     0.128 A 
ATOM      6  C   UNL     1      11.773  84.113  25.220  1.00  0.00     0.093 A 
ATOM      7  C   UNL     1      11.752  85.011  26.297  1.00  0.00     0.136 A 
ATOM      8  C   UNL     1      10.525  85.352  26.895  1.00  0.00     0.125 A 
ATOM      9  C   UNL     1      10.443  86.248  27.967  1.00  0.00     0.078 A 
ATOM     10  C   UNL     1       9.197  86.558  28.520  1.00  0.00     0.223 A 
ENDROOT
BRANCH   1  11
ATOM     11  C   UNL     1       6.693  86.201  28.535  1.00  0.00     0.091 A 
ATOM     12  C   UNL     1       6.232  85.555  29.695  1.00  0.00     0.068 A 
ATOM     13  C   UNL     1       4.939  85.801  30.178  1.00  0.00     0.162 A 
ATOM     14  C   UNL     1       5.830  87.069  27.847  1.00  0.00     0.068 A 
ATOM     15  C   UNL     1       4.091  86.685  29.499  1.00  0.00     0.200 A 
ATOM     16  C   UNL     1       4.537  87.319  28.327  1.00  0.00     0.162 A 
BRANCH  13  17
ATOM     17  O   UNL     1       4.487  85.163  31.333  1.00  0.00    -0.504 OA
ATOM     18  H   UNL     1       3.556  84.768  31.391  1.00  0.00     0.293 HD
ENDBRANCH  13  17
BRANCH  15  19
ATOM     19  O   UNL     1       2.810  86.920  29.998  1.00  0.00    -0.502 OA
ATOM     20  H   UNL     1       2.571  86.752  30.969  1.00  0.00     0.293 HD
ENDBRANCH  15  19
BRANCH  16  21
ATOM     21  O   UNL     1       3.695  88.194  27.643  1.00  0.00    -0.504 OA
ATOM     22  H   UNL     1       3.237  88.966  28.112  1.00  0.00     0.293 HD
ENDBRANCH  16  21
ENDBRANCH   1  11
BRANCH  10  23
ATOM     23  O   UNL     1       9.104  87.489  29.555  1.00  0.00    -0.500 OA
ATOM     24  H   UNL     1       9.761  87.493  30.326  1.00  0.00     0.294 HD
ENDBRANCH  10  23
BRANCH   5  25
ATOM     25  O   UNL     1      10.628  82.667  23.664  1.00  0.00    -0.507 OA
ATOM     26  H   UNL     1       9.914  82.666  22.947  1.00  0.00     0.293 HD
ENDBRANCH   5  25
BRANCH   7  27
ATOM     27  O   UNL     1      12.945  85.560  26.769  1.00  0.00    -0.507 OA
ATOM     28  H   UNL     1      13.368  85.247  27.635  1.00  0.00     0.293 HD
ENDBRANCH   7  27
TORSDOF 7
ENDMDL
MODEL 6
REMARK VINA RESULT:    -6.317     11.123     13.693
REMARK INTER + INTRA:          -8.004
REMARK INTER:                  -7.655
REMARK INTRA:                  -0.349
REMARK UNBOUND:                -0.209
REMARK SMILES Oc1cc(O)c2cc(O)c(-c3cc(O)c(O)c(O)c3)[o+]c2c1
REMARK SMILES IDX 10 1 20 2 21 3 22 4 2 5 3 6 4 7 6 8 7 9 8 10 11 11 12 12
REMARK SMILES IDX 13 13 19 14 15 15 17 16 14 17 16 19 18 21 9 23 1 25 5 27
REMARK H PARENT 14 18 16 20 18 22 9 24 1 26 5 28
REMARK Flexibility Score: inf
ROOT
ATOM      1  C   UNL     1       8.324  84.495  27.298  1.00  0.00     0.402 A 
ATOM      2  O   UNL     1       9.059  85.156  26.403  1.00  0.00    -0.202 OA
ATOM      3  C   UNL     1      10.006  84.580  25.672  1.00  0.00     0.368 A 
ATOM      4  C   UNL     1      10.729  85.343  24.750  1.00  0.00     0.162 A 
ATOM      5  C   UNL     1      11.729  84.746  23.970  1.00  0.00     0.128 A 
ATOM      6  C   UNL     1      12.004  83.382  24.115  1.00  0.00     0.093 A 
ATOM      7  C   UNL     1      11.288  82.604  25.036  1.00  0.00     0.136 A 
ATOM      8  C   UNL     1      10.284  83.203  25.819  1.00  0.00     0.125 A 
ATOM      9  C   UNL     1       9.543  82.478  26.759  1.00  0.00     0.078 A 
ATOM     10  C   UNL     1       8.561  83.123  27.517  1.00  0.00     0.223 A 
ENDROOT
BRANCH   1  11
ATOM     11  C   UNL     1       7.291  85.245  28.047  1.00  0.00     0.091 A 
ATOM     12  C   UNL     1       5.926  85.125  27.731  1.00  0.00     0.068 A 
ATOM     13  C   UNL     1       4.966  85.861  28.438  1.00  0.00     0.162 A 
ATOM     14  C   UNL     1       7.682  86.139  29.056  1.00  0.00     0.068 A 
ATOM     15  C   UNL     1       5.361  86.735  29.459  1.00  0.00     0.200 A 
ATOM     16  C   UNL     1       6.725  86.876  29.767  1.00  0.00     0.162 A 
BRANCH  13  17
ATOM     17  O   UNL     1       3.613  85.735  28.125  1.00  0.00    -0.504 OA
ATOM     18  H   UNL     1       3.306  85.452  27.202  1.00  0.00     0.293 HD
ENDBRANCH  13  17
BRANCH  15  19
ATOM     19  O   UNL     1       4.390  87.456  30.153  1.00  0.00    -0.502 OA
ATOM     20  H   UNL     1       3.424  87.488  29.850  1.00  0.00     0.293 HD
ENDBRANCH  15  19
BRANCH  16  21
ATOM     21  O   UNL     1       7.125  87.750  30.778  1.00  0.00    -0.504 OA
ATOM     22  H   UNL     1       7.615  87.421  31.601  1.00  0.00     0.293 HD
ENDBRANCH  16  21
ENDBRANCH   1  11
BRANCH  10  23
ATOM     23  O   UNL     1       7.854  82.418  28.491  1.00  0.00    -0.500 OA
ATOM     24  H   UNL     1       7.018  82.797  28.919  1.00  0.00     0.294 HD
ENDBRANCH  10  23
BRANCH   5  25
ATOM     25  O   UNL     1      12.454  85.500  23.049  1.00  0.00    -0.507 OA
ATOM     26  H   UNL     1      13.228  86.086  23.336  1.00  0.00     0.293 HD
ENDBRANCH   5  25
BRANCH   7  27
ATOM     27  O   UNL     1      11.574  81.245  25.170  1.00  0.00    -0.507 OA
ATOM     28  H   UNL     1      11.141  80.681  25.892  1.00  0.00     0.293 HD
ENDBRANCH   7  27
TORSDOF 7
ENDMDL
MODEL 7
REMARK VINA RESULT:    -6.263      3.916      5.802
REMARK INTER + INTRA:          -7.936
REMARK INTER:                  -7.593
REMARK INTRA:                  -0.343
REMARK UNBOUND:                -0.209
REMARK SMILES Oc1cc(O)c2cc(O)c(-c3cc(O)c(O)c(O)c3)[o+]c2c1
REMARK SMILES IDX 10 1 20 2 21 3 22 4 2 5 3 6 4 7 6 8 7 9 8 10 11 11 12 12
REMARK SMILES IDX 13 13 19 14 15 15 17 16 14 17 16 19 18 21 9 23 1 25 5 27
REMARK H PARENT 14 18 16 20 18 22 9 24 1 26 5 28
REMARK Flexibility Score: inf
ROOT
ATOM      1  C   UNL     1      -0.374  91.628  33.785  1.00  0.00     0.402 A 
ATOM      2  O   UNL     1       0.075  90.679  34.606  1.00  0.00    -0.202 OA
ATOM      3  C   UNL     1       1.350  90.570  34.963  1.00  0.00     0.368 A 
ATOM      4  C   UNL     1       1.740  89.549  35.834  1.00  0.00     0.162 A 
ATOM      5  C   UNL     1       3.082  89.426  36.221  1.00  0.00     0.128 A 
ATOM      6  C   UNL     1       4.033  90.327  35.732  1.00  0.00     0.093 A 
ATOM      7  C   UNL     1       3.657  91.356  34.856  1.00  0.00     0.136 A 
ATOM      8  C   UNL     1       2.310  91.480  34.468  1.00  0.00     0.125 A 
ATOM      9  C   UNL     1       1.879  92.482  33.591  1.00  0.00     0.078 A 
ATOM     10  C   UNL     1       0.530  92.558  33.233  1.00  0.00     0.223 A 
ENDROOT
BRANCH   1  11
ATOM     11  C   UNL     1      -1.821  91.652  33.467  1.00  0.00     0.091 A 
ATOM     12  C   UNL     1      -2.678  92.610  34.036  1.00  0.00     0.068 A 
ATOM     13  C   UNL     1      -4.048  92.602  33.741  1.00  0.00     0.162 A 
ATOM     14  C   UNL     1      -2.360  90.666  32.627  1.00  0.00     0.068 A 
ATOM     15  C   UNL     1      -4.576  91.628  32.884  1.00  0.00     0.200 A 
ATOM     16  C   UNL     1      -3.729  90.654  32.328  1.00  0.00     0.162 A 
BRANCH  13  17
ATOM     17  O   UNL     1      -4.894  93.557  34.303  1.00  0.00    -0.504 OA
ATOM     18  H   UNL     1      -5.422  93.368  35.146  1.00  0.00     0.293 HD
ENDBRANCH  13  17
BRANCH  15  19
ATOM     19  O   UNL     1      -5.941  91.639  32.599  1.00  0.00    -0.502 OA
ATOM     20  H   UNL     1      -6.337  92.235  31.881  1.00  0.00     0.293 HD
ENDBRANCH  15  19
BRANCH  16  21
ATOM     21  O   UNL     1      -4.251  89.678  31.479  1.00  0.00    -0.504 OA
ATOM     22  H   UNL     1      -3.656  89.136  30.864  1.00  0.00     0.293 HD
ENDBRANCH  16  21
ENDBRANCH   1  11
BRANCH  10  23
ATOM     23  O   UNL     1       0.102  93.522  32.320  1.00  0.00    -0.500 OA
ATOM     24  H   UNL     1       0.149  93.365  31.320  1.00  0.00     0.294 HD
ENDBRANCH  10  23
BRANCH   5  25
ATOM     25  O   UNL     1       3.478  88.411  37.089  1.00  0.00    -0.507 OA
ATOM     26  H   UNL     1       3.443  87.436  36.816  1.00  0.00     0.293 HD
ENDBRANCH   5  25
BRANCH   7  27
ATOM     27  O   UNL     1       4.617  92.247  34.376  1.00  0.00    -0.507 OA
ATOM     28  H   UNL     1       4.365  93.032  33.786  1.00  0.00     0.293 HD
ENDBRANCH   7  27
TORSDOF 7
ENDMDL
MODEL 8
REMARK VINA RESULT:    -6.213      2.981      4.846
REMARK INTER + INTRA:          -7.874
REMARK INTER:                  -7.804
REMARK INTRA:                  -0.070
REMARK UNBOUND:                -0.209
REMARK SMILES Oc1cc(O)c2cc(O)c(-c3cc(O)c(O)c(O)c3)[o+]c2c1
REMARK SMILES IDX 10 1 20 2 21 3 22 4 2 5 3 6 4 7 6 8 7 9 8 10 11 11 12 12
REMARK SMILES IDX 13 13 19 14 15 15 17 16 14 17 16 19 18 21 9 23 1 25 5 27
REMARK H PARENT 14 18 16 20 18 22 9 24 1 26 5 28
REMARK Flexibility Score: inf
ROOT
ATOM      1  C   UNL     1      -1.573  90.861  32.844  1.00  0.00     0.402 A 
ATOM      2  O   UNL     1      -0.487  91.618  32.998  1.00  0.00    -0.202 OA
ATOM      3  C   UNL     1       0.741  91.119  33.085  1.00  0.00     0.368 A 
ATOM      4  C   UNL     1       1.830  91.982  33.241  1.00  0.00     0.162 A 
ATOM      5  C   UNL     1       3.131  91.468  33.330  1.00  0.00     0.128 A 
ATOM      6  C   UNL     1       3.340  90.086  33.263  1.00  0.00     0.093 A 
ATOM      7  C   UNL     1       2.258  89.208  33.108  1.00  0.00     0.136 A 
ATOM      8  C   UNL     1       0.951  89.724  33.018  1.00  0.00     0.125 A 
ATOM      9  C   UNL     1      -0.167  88.895  32.870  1.00  0.00     0.078 A 
ATOM     10  C   UNL     1      -1.444  89.458  32.792  1.00  0.00     0.223 A 
ENDROOT
BRANCH   1  11
ATOM     11  C   UNL     1      -2.889  91.534  32.751  1.00  0.00     0.091 A 
ATOM     12  C   UNL     1      -3.810  91.203  31.742  1.00  0.00     0.068 A 
ATOM     13  C   UNL     1      -5.041  91.868  31.658  1.00  0.00     0.162 A 
ATOM     14  C   UNL     1      -3.202  92.564  33.651  1.00  0.00     0.068 A 
ATOM     15  C   UNL     1      -5.356  92.880  32.574  1.00  0.00     0.200 A 
ATOM     16  C   UNL     1      -4.433  93.231  33.572  1.00  0.00     0.162 A 
BRANCH  13  17
ATOM     17  O   UNL     1      -5.955  91.533  30.660  1.00  0.00    -0.504 OA
ATOM     18  H   UNL     1      -6.371  92.238  30.063  1.00  0.00     0.293 HD
ENDBRANCH  13  17
BRANCH  15  19
ATOM     19  O   UNL     1      -6.588  93.528  32.476  1.00  0.00    -0.502 OA
ATOM     20  H   UNL     1      -7.043  93.944  33.280  1.00  0.00     0.293 HD
ENDBRANCH  15  19
BRANCH  16  21
ATOM     21  O   UNL     1      -4.739  94.243  34.482  1.00  0.00    -0.504 OA
ATOM     22  H   UNL     1      -4.015  94.731  34.996  1.00  0.00     0.293 HD
ENDBRANCH  16  21
ENDBRANCH   1  11
BRANCH  10  23
ATOM     23  O   UNL     1      -2.566  88.636  32.696  1.00  0.00    -0.500 OA
ATOM     24  H   UNL     1      -3.478  89.008  32.459  1.00  0.00     0.294 HD
ENDBRANCH  10  23
BRANCH   5  25
ATOM     25  O   UNL     1       4.221  92.322  33.486  1.00  0.00    -0.507 OA
ATOM     26  H   UNL     1       4.131  93.217  33.951  1.00  0.00     0.293 HD
ENDBRANCH   5  25
BRANCH   7  27
ATOM     27  O   UNL     1       2.481  87.833  33.044  1.00  0.00    -0.507 OA
ATOM     28  H   UNL     1       1.747  87.165  33.253  1.00  0.00     0.293 HD
ENDBRANCH   7  27
TORSDOF 7
ENDMDL
MODEL 9
REMARK VINA RESULT:    -6.210      7.215      9.098
REMARK INTER + INTRA:          -7.871
REMARK INTER:                  -7.564
REMARK INTRA:                  -0.307
REMARK UNBOUND:                -0.209
REMARK SMILES Oc1cc(O)c2cc(O)c(-c3cc(O)c(O)c(O)c3)[o+]c2c1
REMARK SMILES IDX 10 1 20 2 21 3 22 4 2 5 3 6 4 7 6 8 7 9 8 10 11 11 12 12
REMARK SMILES IDX 13 13 19 14 15 15 17 16 14 17 16 19 18 21 9 23 1 25 5 27
REMARK H PARENT 14 18 16 20 18 22 9 24 1 26 5 28
REMARK Flexibility Score: inf
ROOT
ATOM      1  C   UNL     1       2.168  84.580  29.205  1.00  0.00     0.402 A 
ATOM      2  O   UNL     1       2.017  83.493  29.962  1.00  0.00    -0.202 OA
ATOM      3  C   UNL     1       0.866  82.839  30.073  1.00  0.00     0.368 A 
ATOM      4  C   UNL     1       0.791  81.703  30.885  1.00  0.00     0.162 A 
ATOM      5  C   UNL     1      -0.417  81.002  31.006  1.00  0.00     0.128 A 
ATOM      6  C   UNL     1      -1.550  81.440  30.314  1.00  0.00     0.093 A 
ATOM      7  C   UNL     1      -1.490  82.578  29.497  1.00  0.00     0.136 A 
ATOM      8  C   UNL     1      -0.278  83.283  29.374  1.00  0.00     0.125 A 
ATOM      9  C   UNL     1      -0.162  84.429  28.579  1.00  0.00     0.078 A 
ATOM     10  C   UNL     1       1.064  85.095  28.496  1.00  0.00     0.223 A 
ENDROOT
BRANCH   1  11
ATOM     11  C   UNL     1       3.504  85.218  29.155  1.00  0.00     0.091 A 
ATOM     12  C   UNL     1       3.991  85.977  30.233  1.00  0.00     0.068 A 
ATOM     13  C   UNL     1       5.248  86.592  30.157  1.00  0.00     0.162 A 
ATOM     14  C   UNL     1       4.277  85.113  27.989  1.00  0.00     0.068 A 
ATOM     15  C   UNL     1       6.024  86.465  28.998  1.00  0.00     0.200 A 
ATOM     16  C   UNL     1       5.535  85.725  27.909  1.00  0.00     0.162 A 
BRANCH  13  17
ATOM     17  O   UNL     1       5.731  87.340  31.231  1.00  0.00    -0.504 OA
ATOM     18  H   UNL     1       5.212  87.421  32.097  1.00  0.00     0.293 HD
ENDBRANCH  13  17
BRANCH  15  19
ATOM     19  O   UNL     1       7.275  87.081  28.944  1.00  0.00    -0.502 OA
ATOM     20  H   UNL     1       8.106  86.647  29.328  1.00  0.00     0.293 HD
ENDBRANCH  15  19
BRANCH  16  21
ATOM     21  O   UNL     1       6.301  85.600  26.749  1.00  0.00    -0.504 OA
ATOM     22  H   UNL     1       6.148  84.846  26.091  1.00  0.00     0.293 HD
ENDBRANCH  16  21
ENDBRANCH   1  11
BRANCH  10  23
ATOM     23  O   UNL     1       1.174  86.266  27.747  1.00  0.00    -0.500 OA
ATOM     24  H   UNL     1       1.550  87.119  28.145  1.00  0.00     0.294 HD
ENDBRANCH  10  23
BRANCH   5  25
ATOM     25  O   UNL     1      -0.499  79.869  31.814  1.00  0.00    -0.507 OA
ATOM     26  H   UNL     1      -0.108  78.981  31.523  1.00  0.00     0.293 HD
ENDBRANCH   5  25
BRANCH   7  27
ATOM     27  O   UNL     1      -2.629  83.005  28.813  1.00  0.00    -0.507 OA
ATOM     28  H   UNL     1      -3.179  83.792  29.136  1.00  0.00     0.293 HD
ENDBRANCH   7  27
TORSDOF 7
ENDMDL
