MODEL 1
REMARK VINA RESULT:    -2.233      0.000      0.000
REMARK INTER + INTRA:          -2.233
REMARK INTER:                  -2.233
REMARK INTRA:                   0.000
REMARK UNBOUND:                 0.000
REMARK SMILES CC(=O)[O-]
REMARK SMILES IDX 1 1 2 2 3 3 4 4
REMARK H PARENT
REMARK Flexibility Score: inf
ROOT
ATOM      1  C   UNL     1      23.040  -1.663  -5.704  1.00  0.00     0.063 C 
ATOM      2  C   UNL     1      23.755  -0.356  -5.629  1.00  0.00     0.038 C 
ATOM      3  O   UNL     1      24.138   0.090  -4.516  1.00  0.00    -0.550 OA
ATOM      4  O   UNL     1      23.952   0.397  -6.778  1.00  0.00    -0.550 OA
ENDROOT
TORSDOF 0
ENDMDL
MODEL 2
REMARK VINA RESULT:    -2.202     10.834     11.277
REMARK INTER + INTRA:          -2.202
REMARK INTER:                  -2.202
REMARK INTRA:                   0.000
REMARK UNBOUND:                 0.000
REMARK SMILES CC(=O)[O-]
REMARK SMILES IDX 1 1 2 2 3 3 4 4
REMARK H PARENT
REMARK Flexibility Score: inf
ROOT
ATOM      1  C   UNL     1      33.431   2.540   1.379  1.00  0.00     0.063 C 
ATOM      2  C   UNL     1      31.982   2.740   1.086  1.00  0.00     0.038 C 
ATOM      3  O   UNL     1      31.185   1.768   1.150  1.00  0.00    -0.550 OA
ATOM      4  O   UNL     1      31.518   3.987   0.690  1.00  0.00    -0.550 OA
ENDROOT
TORSDOF 0
ENDMDL
MODEL 3
REMARK VINA RESULT:    -2.187     10.768     11.283
REMARK INTER + INTRA:          -2.187
REMARK INTER:                  -2.187
REMARK INTRA:                   0.000
REMARK UNBOUND:                 0.000
REMARK SMILES CC(=O)[O-]
REMARK SMILES IDX 1 1 2 2 3 3 4 4
REMARK H PARENT
REMARK Flexibility Score: inf
ROOT
ATOM      1  C   UNL     1      33.410   2.587   1.403  1.00  0.00     0.063 C 
ATOM      2  C   UNL     1      31.970   2.746   1.047  1.00  0.00     0.038 C 
ATOM      3  O   UNL     1      31.514   3.883   0.758  1.00  0.00    -0.550 OA
ATOM      4  O   UNL     1      31.118   1.651   1.087  1.00  0.00    -0.550 OA
ENDROOT
TORSDOF 0
ENDMDL
MODEL 4
REMARK VINA RESULT:    -2.053     14.087     14.604
REMARK INTER + INTRA:          -2.053
REMARK INTER:                  -2.053
REMARK INTRA:                   0.000
REMARK UNBOUND:                 0.000
REMARK SMILES CC(=O)[O-]
REMARK SMILES IDX 1 1 2 2 3 3 4 4
REMARK H PARENT
REMARK Flexibility Score: inf
ROOT
ATOM      1  C   UNL     1      34.176   8.930  -3.419  1.00  0.00     0.063 C 
ATOM      2  C   UNL     1      34.566   8.516  -2.040  1.00  0.00     0.038 C 
ATOM      3  O   UNL     1      33.721   7.969  -1.283  1.00  0.00    -0.550 OA
ATOM      4  O   UNL     1      35.845   8.779  -1.570  1.00  0.00    -0.550 OA
ENDROOT
TORSDOF 0
ENDMDL
MODEL 5
REMARK VINA RESULT:    -1.997     11.786     12.140
REMARK INTER + INTRA:          -1.997
REMARK INTER:                  -1.997
REMARK INTRA:                   0.000
REMARK UNBOUND:                 0.000
REMARK SMILES CC(=O)[O-]
REMARK SMILES IDX 1 1 2 2 3 3 4 4
REMARK H PARENT
REMARK Flexibility Score: inf
ROOT
ATOM      1  C   UNL     1      33.705   4.997  -6.423  1.00  0.00     0.063 C 
ATOM      2  C   UNL     1      34.489   5.034  -5.155  1.00  0.00     0.038 C 
ATOM      3  O   UNL     1      34.125   4.342  -4.169  1.00  0.00    -0.550 OA
ATOM      4  O   UNL     1      35.590   5.872  -5.042  1.00  0.00    -0.550 OA
ENDROOT
TORSDOF 0
ENDMDL
MODEL 6
REMARK VINA RESULT:    -1.982     18.121     18.692
REMARK INTER + INTRA:          -1.982
REMARK INTER:                  -1.982
REMARK INTRA:                   0.000
REMARK UNBOUND:                 0.000
REMARK SMILES CC(=O)[O-]
REMARK SMILES IDX 1 1 2 2 3 3 4 4
REMARK H PARENT
REMARK Flexibility Score: inf
ROOT
ATOM      1  C   UNL     1      38.773   8.558   3.961  1.00  0.00     0.063 C 
ATOM      2  C   UNL     1      37.827   8.001   2.952  1.00  0.00     0.038 C 
ATOM      3  O   UNL     1      38.028   8.194   1.724  1.00  0.00    -0.550 OA
ATOM      4  O   UNL     1      36.694   7.313   3.365  1.00  0.00    -0.550 OA
ENDROOT
TORSDOF 0
ENDMDL
MODEL 7
REMARK VINA RESULT:    -1.948     16.919     17.219
REMARK INTER + INTRA:          -1.948
REMARK INTER:                  -1.948
REMARK INTRA:                   0.000
REMARK UNBOUND:                 0.000
REMARK SMILES CC(=O)[O-]
REMARK SMILES IDX 1 1 2 2 3 3 4 4
REMARK H PARENT
REMARK Flexibility Score: inf
ROOT
ATOM      1  C   UNL     1      40.194   3.179  -6.489  1.00  0.00     0.063 C 
ATOM      2  C   UNL     1      40.704   1.967  -5.785  1.00  0.00     0.038 C 
ATOM      3  O   UNL     1      41.926   1.871  -5.500  1.00  0.00    -0.550 OA
ATOM      4  O   UNL     1      39.842   0.919  -5.490  1.00  0.00    -0.550 OA
ENDROOT
TORSDOF 0
ENDMDL
MODEL 8
REMARK VINA RESULT:    -1.808     10.678     10.980
REMARK INTER + INTRA:          -1.808
REMARK INTER:                  -1.808
REMARK INTRA:                   0.000
REMARK UNBOUND:                 0.000
REMARK SMILES CC(=O)[O-]
REMARK SMILES IDX 1 1 2 2 3 3 4 4
REMARK H PARENT
REMARK Flexibility Score: inf
ROOT
ATOM      1  C   UNL     1      32.843   0.435   2.046  1.00  0.00     0.063 C 
ATOM      2  C   UNL     1      31.509   1.039   1.764  1.00  0.00     0.038 C 
ATOM      3  O   UNL     1      30.458   0.425   2.085  1.00  0.00    -0.550 OA
ATOM      4  O   UNL     1      31.422   2.254   1.098  1.00  0.00    -0.550 OA
ENDROOT
TORSDOF 0
ENDMDL
MODEL 9
REMARK VINA RESULT:    -1.788     17.366     17.645
REMARK INTER + INTRA:          -1.788
REMARK INTER:                  -1.788
REMARK INTRA:                   0.000
REMARK UNBOUND:                 0.000
REMARK SMILES CC(=O)[O-]
REMARK SMILES IDX 1 1 2 2 3 3 4 4
REMARK H PARENT
REMARK Flexibility Score: inf
ROOT
ATOM      1  C   UNL     1      41.232   1.259  -7.446  1.00  0.00     0.063 C 
ATOM      2  C   UNL     1      41.167   1.329  -5.958  1.00  0.00     0.038 C 
ATOM      3  O   UNL     1      40.059   1.221  -5.370  1.00  0.00    -0.550 OA
ATOM      4  O   UNL     1      42.319   1.566  -5.221  1.00  0.00    -0.550 OA
ENDROOT
TORSDOF 0
ENDMDL
