MODEL 1
REMARK VINA RESULT:    -5.150      0.000      0.000
REMARK INTER + INTRA:          -6.697
REMARK INTER:                  -6.354
REMARK INTRA:                  -0.344
REMARK UNBOUND:                -0.344
REMARK SMILES Oc1cc(O)c2cc(O)c(-c3cc(O)c(O)c(O)c3)[o+]c2c1
REMARK SMILES IDX 10 1 20 2 21 3 22 4 2 5 3 6 4 7 6 8 7 9 8 10 11 11 12 12
REMARK SMILES IDX 13 13 19 14 15 15 17 16 14 17 16 19 18 21 9 23 1 25 5 27
REMARK H PARENT 14 18 16 20 18 22 9 24 1 26 5 28
REMARK Flexibility Score: inf
ROOT
ATOM      1  C   UNL     1      15.902  16.455  32.645  1.00  0.00     0.402 A 
ATOM      2  O   UNL     1      15.667  15.296  33.255  1.00  0.00    -0.202 OA
ATOM      3  C   UNL     1      16.167  14.137  32.840  1.00  0.00     0.368 A 
ATOM      4  C   UNL     1      15.866  12.973  33.551  1.00  0.00     0.162 A 
ATOM      5  C   UNL     1      16.379  11.742  33.140  1.00  0.00     0.128 A 
ATOM      6  C   UNL     1      17.201  11.673  32.010  1.00  0.00     0.093 A 
ATOM      7  C   UNL     1      17.520  12.826  31.280  1.00  0.00     0.136 A 
ATOM      8  C   UNL     1      16.996  14.079  31.694  1.00  0.00     0.125 A 
ATOM      9  C   UNL     1      17.249  15.283  31.018  1.00  0.00     0.078 A 
ATOM     10  C   UNL     1      16.695  16.479  31.483  1.00  0.00     0.223 A 
ENDROOT
BRANCH   1  11
ATOM     11  C   UNL     1      15.295  17.681  33.211  1.00  0.00     0.091 A 
ATOM     12  C   UNL     1      14.143  18.255  32.647  1.00  0.00     0.068 A 
ATOM     13  C   UNL     1      13.597  19.429  33.183  1.00  0.00     0.162 A 
ATOM     14  C   UNL     1      15.913  18.318  34.299  1.00  0.00     0.068 A 
ATOM     15  C   UNL     1      14.209  20.047  34.286  1.00  0.00     0.200 A 
ATOM     16  C   UNL     1      15.370  19.491  34.839  1.00  0.00     0.162 A 
BRANCH  13  17
ATOM     17  O   UNL     1      12.450  19.987  32.619  1.00  0.00    -0.504 OA
ATOM     18  H   UNL     1      11.901  20.684  33.109  1.00  0.00     0.293 HD
ENDBRANCH  13  17
BRANCH  15  19
ATOM     19  O   UNL     1      13.681  21.213  34.840  1.00  0.00    -0.502 OA
ATOM     20  H   UNL     1      14.185  21.758  35.529  1.00  0.00     0.293 HD
ENDBRANCH  15  19
BRANCH  16  21
ATOM     21  O   UNL     1      15.979  20.111  35.929  1.00  0.00    -0.504 OA
ATOM     22  H   UNL     1      16.268  21.083  35.893  1.00  0.00     0.293 HD
ENDBRANCH  16  21
ENDBRANCH   1  11
BRANCH  10  23
ATOM     23  O   UNL     1      16.906  17.667  30.782  1.00  0.00    -0.500 OA
ATOM     24  H   UNL     1      17.472  18.416  31.161  1.00  0.00     0.294 HD
ENDBRANCH  10  23
BRANCH   5  25
ATOM     25  O   UNL     1      16.067  10.593  33.861  1.00  0.00    -0.507 OA
ATOM     26  H   UNL     1      15.832  10.633  34.847  1.00  0.00     0.293 HD
ENDBRANCH   5  25
BRANCH   7  27
ATOM     27  O   UNL     1      18.349  12.674  30.166  1.00  0.00    -0.507 OA
ATOM     28  H   UNL     1      18.020  12.466  29.234  1.00  0.00     0.293 HD
ENDBRANCH   7  27
TORSDOF 7
ENDMDL
MODEL 2
REMARK VINA RESULT:    -5.112      0.127      1.791
REMARK INTER + INTRA:          -6.651
REMARK INTER:                  -6.310
REMARK INTRA:                  -0.341
REMARK UNBOUND:                -0.344
REMARK SMILES Oc1cc(O)c2cc(O)c(-c3cc(O)c(O)c(O)c3)[o+]c2c1
REMARK SMILES IDX 10 1 20 2 21 3 22 4 2 5 3 6 4 7 6 8 7 9 8 10 11 11 12 12
REMARK SMILES IDX 13 13 19 14 15 15 17 16 14 17 16 19 18 21 9 23 1 25 5 27
REMARK H PARENT 14 18 16 20 18 22 9 24 1 26 5 28
REMARK Flexibility Score: inf
ROOT
ATOM      1  C   UNL     1      15.946  16.500  32.694  1.00  0.00     0.402 A 
ATOM      2  O   UNL     1      15.670  15.330  33.263  1.00  0.00    -0.202 OA
ATOM      3  C   UNL     1      16.159  14.173  32.829  1.00  0.00     0.368 A 
ATOM      4  C   UNL     1      15.814  12.995  33.497  1.00  0.00     0.162 A 
ATOM      5  C   UNL     1      16.315  11.766  33.065  1.00  0.00     0.128 A 
ATOM      6  C   UNL     1      17.168  11.713  31.958  1.00  0.00     0.093 A 
ATOM      7  C   UNL     1      17.531  12.879  31.272  1.00  0.00     0.136 A 
ATOM      8  C   UNL     1      17.020  14.130  31.707  1.00  0.00     0.125 A 
ATOM      9  C   UNL     1      17.318  15.348  31.073  1.00  0.00     0.078 A 
ATOM     10  C   UNL     1      16.774  16.541  31.557  1.00  0.00     0.223 A 
ENDROOT
BRANCH   1  11
ATOM     11  C   UNL     1      15.347  17.722  33.277  1.00  0.00     0.091 A 
ATOM     12  C   UNL     1      15.863  18.302  34.449  1.00  0.00     0.068 A 
ATOM     13  C   UNL     1      15.267  19.446  34.998  1.00  0.00     0.162 A 
ATOM     14  C   UNL     1      14.207  18.284  32.682  1.00  0.00     0.068 A 
ATOM     15  C   UNL     1      14.140  20.014  34.383  1.00  0.00     0.200 A 
ATOM     16  C   UNL     1      13.609  19.427  33.226  1.00  0.00     0.162 A 
BRANCH  13  17
ATOM     17  O   UNL     1      15.791  20.017  36.158  1.00  0.00    -0.504 OA
ATOM     18  H   UNL     1      15.223  20.156  36.985  1.00  0.00     0.293 HD
ENDBRANCH  13  17
BRANCH  15  19
ATOM     19  O   UNL     1      13.533  21.155  34.908  1.00  0.00    -0.502 OA
ATOM     20  H   UNL     1      13.235  21.925  34.322  1.00  0.00     0.293 HD
ENDBRANCH  15  19
BRANCH  16  21
ATOM     21  O   UNL     1      12.485  19.989  32.623  1.00  0.00    -0.504 OA
ATOM     22  H   UNL     1      11.584  20.006  33.090  1.00  0.00     0.293 HD
ENDBRANCH  16  21
ENDBRANCH   1  11
BRANCH  10  23
ATOM     23  O   UNL     1      17.029  17.744  30.897  1.00  0.00    -0.500 OA
ATOM     24  H   UNL     1      17.835  18.314  31.122  1.00  0.00     0.294 HD
ENDBRANCH  10  23
BRANCH   5  25
ATOM     25  O   UNL     1      15.958  10.604  33.743  1.00  0.00    -0.507 OA
ATOM     26  H   UNL     1      15.161  10.578  34.370  1.00  0.00     0.293 HD
ENDBRANCH   5  25
BRANCH   7  27
ATOM     27  O   UNL     1      18.389  12.742  30.178  1.00  0.00    -0.507 OA
ATOM     28  H   UNL     1      19.394  12.826  30.227  1.00  0.00     0.293 HD
ENDBRANCH   7  27
TORSDOF 7
ENDMDL
MODEL 3
REMARK VINA RESULT:    -5.105      1.170      7.274
REMARK INTER + INTRA:          -6.642
REMARK INTER:                  -6.260
REMARK INTRA:                  -0.382
REMARK UNBOUND:                -0.344
REMARK SMILES Oc1cc(O)c2cc(O)c(-c3cc(O)c(O)c(O)c3)[o+]c2c1
REMARK SMILES IDX 10 1 20 2 21 3 22 4 2 5 3 6 4 7 6 8 7 9 8 10 11 11 12 12
REMARK SMILES IDX 13 13 19 14 15 15 17 16 14 17 16 19 18 21 9 23 1 25 5 27
REMARK H PARENT 14 18 16 20 18 22 9 24 1 26 5 28
REMARK Flexibility Score: inf
ROOT
ATOM      1  C   UNL     1      16.232  15.474  33.420  1.00  0.00     0.402 A 
ATOM      2  O   UNL     1      15.305  16.266  32.887  1.00  0.00    -0.202 OA
ATOM      3  C   UNL     1      15.008  17.469  33.368  1.00  0.00     0.368 A 
ATOM      4  C   UNL     1      14.020  18.229  32.736  1.00  0.00     0.162 A 
ATOM      5  C   UNL     1      13.689  19.496  33.217  1.00  0.00     0.128 A 
ATOM      6  C   UNL     1      14.351  20.010  34.338  1.00  0.00     0.093 A 
ATOM      7  C   UNL     1      15.346  19.269  34.989  1.00  0.00     0.136 A 
ATOM      8  C   UNL     1      15.682  17.978  34.504  1.00  0.00     0.125 A 
ATOM      9  C   UNL     1      16.655  17.158  35.099  1.00  0.00     0.078 A 
ATOM     10  C   UNL     1      16.929  15.896  34.567  1.00  0.00     0.223 A 
ENDROOT
BRANCH   1  11
ATOM     11  C   UNL     1      16.479  14.159  32.786  1.00  0.00     0.091 A 
ATOM     12  C   UNL     1      17.410  14.012  31.744  1.00  0.00     0.068 A 
ATOM     13  C   UNL     1      17.613  12.762  31.141  1.00  0.00     0.162 A 
ATOM     14  C   UNL     1      15.729  13.044  33.194  1.00  0.00     0.068 A 
ATOM     15  C   UNL     1      16.873  11.648  31.572  1.00  0.00     0.200 A 
ATOM     16  C   UNL     1      15.928  11.794  32.596  1.00  0.00     0.162 A 
BRANCH  13  17
ATOM     17  O   UNL     1      18.543  12.627  30.112  1.00  0.00    -0.504 OA
ATOM     18  H   UNL     1      18.259  12.416  29.162  1.00  0.00     0.293 HD
ENDBRANCH  13  17
BRANCH  15  19
ATOM     19  O   UNL     1      17.061  10.395  30.991  1.00  0.00    -0.502 OA
ATOM     20  H   UNL     1      17.627   9.677  31.428  1.00  0.00     0.293 HD
ENDBRANCH  15  19
BRANCH  16  21
ATOM     21  O   UNL     1      15.192  10.687  33.015  1.00  0.00    -0.504 OA
ATOM     22  H   UNL     1      15.107  10.446  33.996  1.00  0.00     0.293 HD
ENDBRANCH  16  21
ENDBRANCH   1  11
BRANCH  10  23
ATOM     23  O   UNL     1      17.859  15.061  35.189  1.00  0.00    -0.500 OA
ATOM     24  H   UNL     1      17.799  14.839  36.175  1.00  0.00     0.294 HD
ENDBRANCH  10  23
BRANCH   5  25
ATOM     25  O   UNL     1      12.702  20.238  32.574  1.00  0.00    -0.507 OA
ATOM     26  H   UNL     1      12.673  20.318  31.564  1.00  0.00     0.293 HD
ENDBRANCH   5  25
BRANCH   7  27
ATOM     27  O   UNL     1      15.961  19.853  36.099  1.00  0.00    -0.507 OA
ATOM     28  H   UNL     1      15.487  20.077  36.962  1.00  0.00     0.293 HD
ENDBRANCH   7  27
TORSDOF 7
ENDMDL
MODEL 4
REMARK VINA RESULT:    -5.082      1.162      7.258
REMARK INTER + INTRA:          -6.614
REMARK INTER:                  -6.234
REMARK INTRA:                  -0.380
REMARK UNBOUND:                -0.344
REMARK SMILES Oc1cc(O)c2cc(O)c(-c3cc(O)c(O)c(O)c3)[o+]c2c1
REMARK SMILES IDX 10 1 20 2 21 3 22 4 2 5 3 6 4 7 6 8 7 9 8 10 11 11 12 12
REMARK SMILES IDX 13 13 19 14 15 15 17 16 14 17 16 19 18 21 9 23 1 25 5 27
REMARK H PARENT 14 18 16 20 18 22 9 24 1 26 5 28
REMARK Flexibility Score: inf
ROOT
ATOM      1  C   UNL     1      16.180  15.441  33.400  1.00  0.00     0.402 A 
ATOM      2  O   UNL     1      15.263  16.248  32.873  1.00  0.00    -0.202 OA
ATOM      3  C   UNL     1      14.990  17.456  33.355  1.00  0.00     0.368 A 
ATOM      4  C   UNL     1      14.011  18.232  32.729  1.00  0.00     0.162 A 
ATOM      5  C   UNL     1      13.706  19.506  33.212  1.00  0.00     0.128 A 
ATOM      6  C   UNL     1      14.385  20.009  34.327  1.00  0.00     0.093 A 
ATOM      7  C   UNL     1      15.372  19.252  34.971  1.00  0.00     0.136 A 
ATOM      8  C   UNL     1      15.682  17.955  34.484  1.00  0.00     0.125 A 
ATOM      9  C   UNL     1      16.645  17.119  35.073  1.00  0.00     0.078 A 
ATOM     10  C   UNL     1      16.893  15.851  34.541  1.00  0.00     0.223 A 
ENDROOT
BRANCH   1  11
ATOM     11  C   UNL     1      16.399  14.121  32.765  1.00  0.00     0.091 A 
ATOM     12  C   UNL     1      15.691  12.981  33.184  1.00  0.00     0.068 A 
ATOM     13  C   UNL     1      15.930  11.735  32.586  1.00  0.00     0.162 A 
ATOM     14  C   UNL     1      17.373  13.990  31.763  1.00  0.00     0.068 A 
ATOM     15  C   UNL     1      16.891  11.619  31.568  1.00  0.00     0.200 A 
ATOM     16  C   UNL     1      17.614  12.748  31.162  1.00  0.00     0.162 A 
BRANCH  13  17
ATOM     17  O   UNL     1      15.218  10.612  33.006  1.00  0.00    -0.504 OA
ATOM     18  H   UNL     1      15.240  10.296  33.968  1.00  0.00     0.293 HD
ENDBRANCH  13  17
BRANCH  15  19
ATOM     19  O   UNL     1      17.141  10.392  30.956  1.00  0.00    -0.502 OA
ATOM     20  H   UNL     1      17.978   9.854  31.147  1.00  0.00     0.293 HD
ENDBRANCH  15  19
BRANCH  16  21
ATOM     21  O   UNL     1      18.572  12.626  30.157  1.00  0.00    -0.504 OA
ATOM     22  H   UNL     1      19.106  11.773  30.034  1.00  0.00     0.293 HD
ENDBRANCH  16  21
ENDBRANCH   1  11
BRANCH  10  23
ATOM     23  O   UNL     1      17.814  15.002  35.156  1.00  0.00    -0.500 OA
ATOM     24  H   UNL     1      17.549  14.399  35.926  1.00  0.00     0.294 HD
ENDBRANCH  10  23
BRANCH   5  25
ATOM     25  O   UNL     1      12.726  20.264  32.575  1.00  0.00    -0.507 OA
ATOM     26  H   UNL     1      12.202  20.977  33.070  1.00  0.00     0.293 HD
ENDBRANCH   5  25
BRANCH   7  27
ATOM     27  O   UNL     1      16.006  19.826  36.075  1.00  0.00    -0.507 OA
ATOM     28  H   UNL     1      16.667  20.587  36.022  1.00  0.00     0.293 HD
ENDBRANCH   7  27
TORSDOF 7
ENDMDL
MODEL 5
REMARK VINA RESULT:    -4.845      1.923      7.519
REMARK INTER + INTRA:          -6.322
REMARK INTER:                  -6.001
REMARK INTRA:                  -0.320
REMARK UNBOUND:                -0.344
REMARK SMILES Oc1cc(O)c2cc(O)c(-c3cc(O)c(O)c(O)c3)[o+]c2c1
REMARK SMILES IDX 10 1 20 2 21 3 22 4 2 5 3 6 4 7 6 8 7 9 8 10 11 11 12 12
REMARK SMILES IDX 13 13 19 14 15 15 17 16 14 17 16 19 18 21 9 23 1 25 5 27
REMARK H PARENT 14 18 16 20 18 22 9 24 1 26 5 28
REMARK Flexibility Score: inf
ROOT
ATOM      1  C   UNL     1      15.892  13.996  33.507  1.00  0.00     0.402 A 
ATOM      2  O   UNL     1      15.270  15.027  32.941  1.00  0.00    -0.202 OA
ATOM      3  C   UNL     1      15.311  16.262  33.430  1.00  0.00     0.368 A 
ATOM      4  C   UNL     1      14.626  17.281  32.761  1.00  0.00     0.162 A 
ATOM      5  C   UNL     1      14.655  18.588  33.250  1.00  0.00     0.128 A 
ATOM      6  C   UNL     1      15.373  18.881  34.414  1.00  0.00     0.093 A 
ATOM      7  C   UNL     1      16.069  17.879  35.101  1.00  0.00     0.136 A 
ATOM      8  C   UNL     1      16.039  16.547  34.609  1.00  0.00     0.125 A 
ATOM      9  C   UNL     1      16.694  15.476  35.239  1.00  0.00     0.078 A 
ATOM     10  C   UNL     1      16.617  14.190  34.697  1.00  0.00     0.223 A 
ENDROOT
BRANCH   1  11
ATOM     11  C   UNL     1      15.778  12.668  32.861  1.00  0.00     0.091 A 
ATOM     12  C   UNL     1      16.867  12.085  32.191  1.00  0.00     0.068 A 
ATOM     13  C   UNL     1      16.733  10.837  31.567  1.00  0.00     0.162 A 
ATOM     14  C   UNL     1      14.543  12.001  32.868  1.00  0.00     0.068 A 
ATOM     15  C   UNL     1      15.498  10.167  31.598  1.00  0.00     0.200 A 
ATOM     16  C   UNL     1      14.404  10.754  32.245  1.00  0.00     0.162 A 
BRANCH  13  17
ATOM     17  O   UNL     1      17.821  10.264  30.910  1.00  0.00    -0.504 OA
ATOM     18  H   UNL     1      18.357   9.511  31.325  1.00  0.00     0.293 HD
ENDBRANCH  13  17
BRANCH  15  19
ATOM     19  O   UNL     1      15.342   8.923  30.988  1.00  0.00    -0.502 OA
ATOM     20  H   UNL     1      16.119   8.425  30.571  1.00  0.00     0.293 HD
ENDBRANCH  15  19
BRANCH  16  21
ATOM     21  O   UNL     1      13.179  10.089  32.267  1.00  0.00    -0.504 OA
ATOM     22  H   UNL     1      12.376  10.439  31.756  1.00  0.00     0.293 HD
ENDBRANCH  16  21
ENDBRANCH   1  11
BRANCH  10  23
ATOM     23  O   UNL     1      17.225  13.118  35.351  1.00  0.00    -0.500 OA
ATOM     24  H   UNL     1      18.215  12.929  35.255  1.00  0.00     0.294 HD
ENDBRANCH  10  23
BRANCH   5  25
ATOM     25  O   UNL     1      13.966  19.589  32.570  1.00  0.00    -0.507 OA
ATOM     26  H   UNL     1      14.180  20.570  32.711  1.00  0.00     0.293 HD
ENDBRANCH   5  25
BRANCH   7  27
ATOM     27  O   UNL     1      16.765  18.252  36.254  1.00  0.00    -0.507 OA
ATOM     28  H   UNL     1      16.357  18.298  37.176  1.00  0.00     0.293 HD
ENDBRANCH   7  27
TORSDOF 7
ENDMDL
MODEL 6
REMARK VINA RESULT:    -4.811      2.786      5.424
REMARK INTER + INTRA:          -6.279
REMARK INTER:                  -6.318
REMARK INTRA:                   0.039
REMARK UNBOUND:                -0.344
REMARK SMILES Oc1cc(O)c2cc(O)c(-c3cc(O)c(O)c(O)c3)[o+]c2c1
REMARK SMILES IDX 10 1 20 2 21 3 22 4 2 5 3 6 4 7 6 8 7 9 8 10 11 11 12 12
REMARK SMILES IDX 13 13 19 14 15 15 17 16 14 17 16 19 18 21 9 23 1 25 5 27
REMARK H PARENT 14 18 16 20 18 22 9 24 1 26 5 28
REMARK Flexibility Score: inf
ROOT
ATOM      1  C   UNL     1      15.040  19.669  35.592  1.00  0.00     0.402 A 
ATOM      2  O   UNL     1      14.640  19.585  34.325  1.00  0.00    -0.202 OA
ATOM      3  C   UNL     1      14.918  18.551  33.539  1.00  0.00     0.368 A 
ATOM      4  C   UNL     1      14.450  18.553  32.222  1.00  0.00     0.162 A 
ATOM      5  C   UNL     1      14.725  17.479  31.374  1.00  0.00     0.128 A 
ATOM      6  C   UNL     1      15.472  16.394  31.844  1.00  0.00     0.093 A 
ATOM      7  C   UNL     1      15.952  16.367  33.160  1.00  0.00     0.136 A 
ATOM      8  C   UNL     1      15.677  17.459  34.024  1.00  0.00     0.125 A 
ATOM      9  C   UNL     1      16.128  17.526  35.352  1.00  0.00     0.078 A 
ATOM     10  C   UNL     1      15.821  18.637  36.143  1.00  0.00     0.223 A 
ENDROOT
BRANCH   1  11
ATOM     11  C   UNL     1      14.657  20.869  36.370  1.00  0.00     0.091 A 
ATOM     12  C   UNL     1      15.578  21.527  37.202  1.00  0.00     0.068 A 
ATOM     13  C   UNL     1      15.190  22.648  37.948  1.00  0.00     0.162 A 
ATOM     14  C   UNL     1      13.331  21.329  36.320  1.00  0.00     0.068 A 
ATOM     15  C   UNL     1      13.867  23.115  37.875  1.00  0.00     0.200 A 
ATOM     16  C   UNL     1      12.938  22.450  37.063  1.00  0.00     0.162 A 
BRANCH  13  17
ATOM     17  O   UNL     1      16.114  23.297  38.767  1.00  0.00    -0.504 OA
ATOM     18  H   UNL     1      16.956  23.715  38.391  1.00  0.00     0.293 HD
ENDBRANCH  13  17
BRANCH  15  19
ATOM     19  O   UNL     1      13.459  24.231  38.604  1.00  0.00    -0.502 OA
ATOM     20  H   UNL     1      13.982  24.577  39.399  1.00  0.00     0.293 HD
ENDBRANCH  15  19
BRANCH  16  21
ATOM     21  O   UNL     1      11.625  22.912  37.000  1.00  0.00    -0.504 OA
ATOM     22  H   UNL     1      11.397  23.887  37.160  1.00  0.00     0.293 HD
ENDBRANCH  16  21
ENDBRANCH   1  11
BRANCH  10  23
ATOM     23  O   UNL     1      16.312  18.725  37.446  1.00  0.00    -0.500 OA
ATOM     24  H   UNL     1      16.604  17.904  37.962  1.00  0.00     0.294 HD
ENDBRANCH  10  23
BRANCH   5  25
ATOM     25  O   UNL     1      14.250  17.500  30.065  1.00  0.00    -0.507 OA
ATOM     26  H   UNL     1      13.324  17.159  29.831  1.00  0.00     0.293 HD
ENDBRANCH   5  25
BRANCH   7  27
ATOM     27  O   UNL     1      16.688  15.247  33.554  1.00  0.00    -0.507 OA
ATOM     28  H   UNL     1      16.451  14.655  34.337  1.00  0.00     0.293 HD
ENDBRANCH   7  27
TORSDOF 7
ENDMDL
MODEL 7
REMARK VINA RESULT:    -4.760      1.172      2.732
REMARK INTER + INTRA:          -6.217
REMARK INTER:                  -5.927
REMARK INTRA:                  -0.290
REMARK UNBOUND:                -0.344
REMARK SMILES Oc1cc(O)c2cc(O)c(-c3cc(O)c(O)c(O)c3)[o+]c2c1
REMARK SMILES IDX 10 1 20 2 21 3 22 4 2 5 3 6 4 7 6 8 7 9 8 10 11 11 12 12
REMARK SMILES IDX 13 13 19 14 15 15 17 16 14 17 16 19 18 21 9 23 1 25 5 27
REMARK H PARENT 14 18 16 20 18 22 9 24 1 26 5 28
REMARK Flexibility Score: inf
ROOT
ATOM      1  C   UNL     1      16.026  16.325  32.965  1.00  0.00     0.402 A 
ATOM      2  O   UNL     1      16.694  16.337  31.814  1.00  0.00    -0.202 OA
ATOM      3  C   UNL     1      17.284  15.262  31.301  1.00  0.00     0.368 A 
ATOM      4  C   UNL     1      17.960  15.374  30.083  1.00  0.00     0.162 A 
ATOM      5  C   UNL     1      18.587  14.261  29.520  1.00  0.00     0.128 A 
ATOM      6  C   UNL     1      18.538  13.027  30.177  1.00  0.00     0.093 A 
ATOM      7  C   UNL     1      17.867  12.889  31.399  1.00  0.00     0.136 A 
ATOM      8  C   UNL     1      17.231  14.019  31.976  1.00  0.00     0.125 A 
ATOM      9  C   UNL     1      16.547  13.978  33.202  1.00  0.00     0.078 A 
ATOM     10  C   UNL     1      15.949  15.134  33.710  1.00  0.00     0.223 A 
ENDROOT
BRANCH   1  11
ATOM     11  C   UNL     1      15.402  17.586  33.426  1.00  0.00     0.091 A 
ATOM     12  C   UNL     1      14.270  18.120  32.786  1.00  0.00     0.068 A 
ATOM     13  C   UNL     1      13.708  19.327  33.224  1.00  0.00     0.162 A 
ATOM     14  C   UNL     1      15.984  18.296  34.489  1.00  0.00     0.068 A 
ATOM     15  C   UNL     1      14.285  20.018  34.303  1.00  0.00     0.200 A 
ATOM     16  C   UNL     1      15.426  19.502  34.930  1.00  0.00     0.162 A 
BRANCH  13  17
ATOM     17  O   UNL     1      12.581  19.845  32.586  1.00  0.00    -0.504 OA
ATOM     18  H   UNL     1      11.651  19.495  32.783  1.00  0.00     0.293 HD
ENDBRANCH  13  17
BRANCH  15  19
ATOM     19  O   UNL     1      13.740  21.218  34.759  1.00  0.00    -0.502 OA
ATOM     20  H   UNL     1      14.261  21.859  35.346  1.00  0.00     0.293 HD
ENDBRANCH  15  19
BRANCH  16  21
ATOM     21  O   UNL     1      15.999  20.195  35.995  1.00  0.00    -0.504 OA
ATOM     22  H   UNL     1      15.511  20.311  36.877  1.00  0.00     0.293 HD
ENDBRANCH  16  21
ENDBRANCH   1  11
BRANCH  10  23
ATOM     23  O   UNL     1      15.313  15.105  34.952  1.00  0.00    -0.500 OA
ATOM     24  H   UNL     1      14.878  15.930  35.347  1.00  0.00     0.294 HD
ENDBRANCH  10  23
BRANCH   5  25
ATOM     25  O   UNL     1      19.255  14.393  28.305  1.00  0.00    -0.507 OA
ATOM     26  H   UNL     1      19.740  15.248  28.056  1.00  0.00     0.293 HD
ENDBRANCH   5  25
BRANCH   7  27
ATOM     27  O   UNL     1      17.862  11.623  31.991  1.00  0.00    -0.507 OA
ATOM     28  H   UNL     1      18.070  11.447  32.963  1.00  0.00     0.293 HD
ENDBRANCH   7  27
TORSDOF 7
ENDMDL
MODEL 8
REMARK VINA RESULT:    -4.751      2.759      5.235
REMARK INTER + INTRA:          -6.205
REMARK INTER:                  -5.866
REMARK INTRA:                  -0.339
REMARK UNBOUND:                -0.344
REMARK SMILES Oc1cc(O)c2cc(O)c(-c3cc(O)c(O)c(O)c3)[o+]c2c1
REMARK SMILES IDX 10 1 20 2 21 3 22 4 2 5 3 6 4 7 6 8 7 9 8 10 11 11 12 12
REMARK SMILES IDX 13 13 19 14 15 15 17 16 14 17 16 19 18 21 9 23 1 25 5 27
REMARK H PARENT 14 18 16 20 18 22 9 24 1 26 5 28
REMARK Flexibility Score: inf
ROOT
ATOM      1  C   UNL     1      15.087  19.833  35.350  1.00  0.00     0.402 A 
ATOM      2  O   UNL     1      15.654  18.632  35.264  1.00  0.00    -0.202 OA
ATOM      3  C   UNL     1      15.458  17.803  34.244  1.00  0.00     0.368 A 
ATOM      4  C   UNL     1      16.102  16.563  34.243  1.00  0.00     0.162 A 
ATOM      5  C   UNL     1      15.917  15.674  33.183  1.00  0.00     0.128 A 
ATOM      6  C   UNL     1      15.084  16.026  32.116  1.00  0.00     0.093 A 
ATOM      7  C   UNL     1      14.429  17.264  32.092  1.00  0.00     0.136 A 
ATOM      8  C   UNL     1      14.612  18.169  33.170  1.00  0.00     0.125 A 
ATOM      9  C   UNL     1      13.985  19.424  33.239  1.00  0.00     0.078 A 
ATOM     10  C   UNL     1      14.211  20.261  34.336  1.00  0.00     0.223 A 
ENDROOT
BRANCH   1  11
ATOM     11  C   UNL     1      15.392  20.669  36.533  1.00  0.00     0.091 A 
ATOM     12  C   UNL     1      16.609  21.362  36.646  1.00  0.00     0.068 A 
ATOM     13  C   UNL     1      16.888  22.130  37.785  1.00  0.00     0.162 A 
ATOM     14  C   UNL     1      14.471  20.729  37.592  1.00  0.00     0.068 A 
ATOM     15  C   UNL     1      15.951  22.201  38.830  1.00  0.00     0.200 A 
ATOM     16  C   UNL     1      14.745  21.495  38.731  1.00  0.00     0.162 A 
BRANCH  13  17
ATOM     17  O   UNL     1      18.097  22.819  37.884  1.00  0.00    -0.504 OA
ATOM     18  H   UNL     1      18.215  23.597  38.522  1.00  0.00     0.293 HD
ENDBRANCH  13  17
BRANCH  15  19
ATOM     19  O   UNL     1      16.204  22.963  39.970  1.00  0.00    -0.502 OA
ATOM     20  H   UNL     1      16.697  23.847  39.929  1.00  0.00     0.293 HD
ENDBRANCH  15  19
BRANCH  16  21
ATOM     21  O   UNL     1      13.821  21.563  39.773  1.00  0.00    -0.504 OA
ATOM     22  H   UNL     1      12.840  21.752  39.601  1.00  0.00     0.293 HD
ENDBRANCH  16  21
ENDBRANCH   1  11
BRANCH  10  23
ATOM     23  O   UNL     1      13.549  21.486  34.429  1.00  0.00    -0.500 OA
ATOM     24  H   UNL     1      13.551  22.152  33.666  1.00  0.00     0.294 HD
ENDBRANCH  10  23
BRANCH   5  25
ATOM     25  O   UNL     1      16.567  14.443  33.200  1.00  0.00    -0.507 OA
ATOM     26  H   UNL     1      17.574  14.376  33.300  1.00  0.00     0.293 HD
ENDBRANCH   5  25
BRANCH   7  27
ATOM     27  O   UNL     1      13.616  17.541  30.990  1.00  0.00    -0.507 OA
ATOM     28  H   UNL     1      12.621  17.702  31.041  1.00  0.00     0.293 HD
ENDBRANCH   7  27
TORSDOF 7
ENDMDL
MODEL 9
REMARK VINA RESULT:    -4.725      2.759      5.112
REMARK INTER + INTRA:          -6.174
REMARK INTER:                  -5.830
REMARK INTRA:                  -0.344
REMARK UNBOUND:                -0.344
REMARK SMILES Oc1cc(O)c2cc(O)c(-c3cc(O)c(O)c(O)c3)[o+]c2c1
REMARK SMILES IDX 10 1 20 2 21 3 22 4 2 5 3 6 4 7 6 8 7 9 8 10 11 11 12 12
REMARK SMILES IDX 13 13 19 14 15 15 17 16 14 17 16 19 18 21 9 23 1 25 5 27
REMARK H PARENT 14 18 16 20 18 22 9 24 1 26 5 28
REMARK Flexibility Score: inf
ROOT
ATOM      1  C   UNL     1      15.070  19.790  35.379  1.00  0.00     0.402 A 
ATOM      2  O   UNL     1      15.646  18.595  35.280  1.00  0.00    -0.202 OA
ATOM      3  C   UNL     1      15.458  17.776  34.250  1.00  0.00     0.368 A 
ATOM      4  C   UNL     1      16.111  16.541  34.236  1.00  0.00     0.162 A 
ATOM      5  C   UNL     1      15.934  15.662  33.166  1.00  0.00     0.128 A 
ATOM      6  C   UNL     1      15.100  16.020  32.101  1.00  0.00     0.093 A 
ATOM      7  C   UNL     1      14.436  17.253  32.091  1.00  0.00     0.136 A 
ATOM      8  C   UNL     1      14.611  18.148  33.180  1.00  0.00     0.125 A 
ATOM      9  C   UNL     1      13.975  19.397  33.262  1.00  0.00     0.078 A 
ATOM     10  C   UNL     1      14.193  20.223  34.368  1.00  0.00     0.223 A 
ENDROOT
BRANCH   1  11
ATOM     11  C   UNL     1      15.367  20.615  36.572  1.00  0.00     0.091 A 
ATOM     12  C   UNL     1      14.462  20.706  37.643  1.00  0.00     0.068 A 
ATOM     13  C   UNL     1      14.751  21.511  38.754  1.00  0.00     0.162 A 
ATOM     14  C   UNL     1      16.552  21.367  36.614  1.00  0.00     0.068 A 
ATOM     15  C   UNL     1      15.950  22.242  38.796  1.00  0.00     0.200 A 
ATOM     16  C   UNL     1      16.846  22.172  37.722  1.00  0.00     0.162 A 
BRANCH  13  17
ATOM     17  O   UNL     1      13.848  21.589  39.813  1.00  0.00    -0.504 OA
ATOM     18  H   UNL     1      12.896  21.253  39.727  1.00  0.00     0.293 HD
ENDBRANCH  13  17
BRANCH  15  19
ATOM     19  O   UNL     1      16.262  23.045  39.893  1.00  0.00    -0.502 OA
ATOM     20  H   UNL     1      16.322  24.054  39.823  1.00  0.00     0.293 HD
ENDBRANCH  15  19
BRANCH  16  21
ATOM     21  O   UNL     1      18.031  22.905  37.765  1.00  0.00    -0.504 OA
ATOM     22  H   UNL     1      18.738  22.814  37.044  1.00  0.00     0.293 HD
ENDBRANCH  16  21
ENDBRANCH   1  11
BRANCH  10  23
ATOM     23  O   UNL     1      13.522  21.442  34.474  1.00  0.00    -0.500 OA
ATOM     24  H   UNL     1      12.553  21.493  34.766  1.00  0.00     0.294 HD
ENDBRANCH  10  23
BRANCH   5  25
ATOM     25  O   UNL     1      16.593  14.435  33.170  1.00  0.00    -0.507 OA
ATOM     26  H   UNL     1      17.309  14.220  33.855  1.00  0.00     0.293 HD
ENDBRANCH   5  25
BRANCH   7  27
ATOM     27  O   UNL     1      13.623  17.538  30.991  1.00  0.00    -0.507 OA
ATOM     28  H   UNL     1      13.967  17.811  30.082  1.00  0.00     0.293 HD
ENDBRANCH   7  27
TORSDOF 7
ENDMDL
