MODEL 1
REMARK VINA RESULT:    -6.429      0.000      0.000
REMARK INTER + INTRA:          -8.281
REMARK INTER:                  -7.932
REMARK INTRA:                  -0.348
REMARK UNBOUND:                -0.348
REMARK SMILES COc1cc(-c2oc3cc(O)cc(O)c3c(=O)c2O)ccc1O
REMARK SMILES IDX 6 1 18 2 16 3 17 4 15 5 13 6 12 7 10 8 9 9 8 10 7 11 5 12
REMARK SMILES IDX 3 13 22 14 4 15 21 16 20 17 2 18 1 19 23 20 19 22 14 24
REMARK SMILES IDX 11 26
REMARK H PARENT 23 21 19 23 14 25 11 27
REMARK Flexibility Score: inf
ROOT
ATOM      1  C   UNL     1      25.712   3.541 102.945  1.00  0.00     0.180 A 
ATOM      2  C   UNL     1      26.659   4.033 103.864  1.00  0.00     0.208 A 
ATOM      3  C   UNL     1      27.914   3.410 103.944  1.00  0.00     0.238 A 
ATOM      4  O   UNL     1      28.774   3.849 104.755  1.00  0.00    -0.285 OA
ATOM      5  C   UNL     1      28.194   2.298 103.123  1.00  0.00     0.111 A 
ATOM      6  C   UNL     1      29.432   1.612 103.143  1.00  0.00     0.134 A 
ATOM      7  C   UNL     1      29.630   0.508 102.302  1.00  0.00     0.093 A 
ATOM      8  C   UNL     1      28.618   0.078 101.441  1.00  0.00     0.123 A 
ATOM      9  C   UNL     1      27.393   0.752 101.415  1.00  0.00     0.094 A 
ATOM     10  C   UNL     1      27.176   1.855 102.246  1.00  0.00     0.146 A 
ATOM     11  O   UNL     1      26.006   2.481 102.198  1.00  0.00    -0.452 OA
ENDROOT
BRANCH   1  12
ATOM     12  C   UNL     1      24.374   4.155 102.790  1.00  0.00     0.025 A 
ATOM     13  C   UNL     1      22.083   4.521 103.568  1.00  0.00     0.161 A 
ATOM     14  C   UNL     1      21.863   5.388 102.483  1.00  0.00     0.157 A 
ATOM     15  C   UNL     1      23.345   3.912 103.719  1.00  0.00     0.062 A 
ATOM     16  C   UNL     1      22.894   5.646 101.574  1.00  0.00     0.051 A 
ATOM     17  C   UNL     1      24.142   5.040 101.729  1.00  0.00     0.016 A 
BRANCH  13  18
ATOM     18  O   UNL     1      21.034   4.289 104.473  1.00  0.00    -0.493 OA
ATOM     19  C   UNL     1      21.134   4.445 105.885  1.00  0.00     0.278 C 
ENDBRANCH  13  18
BRANCH  14  20
ATOM     20  O   UNL     1      20.628   6.009 102.295  1.00  0.00    -0.504 OA
ATOM     21  H   UNL     1      20.070   5.858 101.464  1.00  0.00     0.293 HD
ENDBRANCH  14  20
ENDBRANCH   1  12
BRANCH   2  22
ATOM     22  O   UNL     1      26.338   5.104 104.702  1.00  0.00    -0.502 OA
ATOM     23  H   UNL     1      27.046   5.694 105.123  1.00  0.00     0.293 HD
ENDBRANCH   2  22
BRANCH   6  24
ATOM     24  O   UNL     1      30.464   2.017 103.993  1.00  0.00    -0.507 OA
ATOM     25  H   UNL     1      30.423   2.892 104.500  1.00  0.00     0.293 HD
ENDBRANCH   6  24
BRANCH   8  26
ATOM     26  O   UNL     1      28.840  -1.022 100.616  1.00  0.00    -0.508 OA
ATOM     27  H   UNL     1      29.194  -0.914  99.671  1.00  0.00     0.293 HD
ENDBRANCH   8  26
TORSDOF 6
ENDMDL
MODEL 2
REMARK VINA RESULT:    -6.275      3.818      5.314
REMARK INTER + INTRA:          -8.091
REMARK INTER:                  -7.712
REMARK INTRA:                  -0.379
REMARK UNBOUND:                -0.348
REMARK SMILES COc1cc(-c2oc3cc(O)cc(O)c3c(=O)c2O)ccc1O
REMARK SMILES IDX 6 1 18 2 16 3 17 4 15 5 13 6 12 7 10 8 9 9 8 10 7 11 5 12
REMARK SMILES IDX 3 13 22 14 4 15 21 16 20 17 2 18 1 19 23 20 19 22 14 24
REMARK SMILES IDX 11 26
REMARK H PARENT 23 21 19 23 14 25 11 27
REMARK Flexibility Score: inf
ROOT
ATOM      1  C   UNL     1      22.903   0.548 103.062  1.00  0.00     0.180 A 
ATOM      2  C   UNL     1      22.369  -0.276 102.052  1.00  0.00     0.208 A 
ATOM      3  C   UNL     1      22.952  -1.532 101.822  1.00  0.00     0.238 A 
ATOM      4  O   UNL     1      22.475  -2.283 100.928  1.00  0.00    -0.285 OA
ATOM      5  C   UNL     1      24.068  -1.932 102.586  1.00  0.00     0.111 A 
ATOM      6  C   UNL     1      24.716  -3.180 102.415  1.00  0.00     0.134 A 
ATOM      7  C   UNL     1      25.826  -3.502 103.208  1.00  0.00     0.093 A 
ATOM      8  C   UNL     1      26.300  -2.605 104.168  1.00  0.00     0.123 A 
ATOM      9  C   UNL     1      25.663  -1.372 104.343  1.00  0.00     0.094 A 
ATOM     10  C   UNL     1      24.555  -1.032 103.562  1.00  0.00     0.146 A 
ATOM     11  O   UNL     1      23.965   0.143 103.752  1.00  0.00    -0.452 OA
ENDROOT
BRANCH   1  12
ATOM     12  C   UNL     1      22.332   1.877 103.376  1.00  0.00     0.025 A 
ATOM     13  C   UNL     1      22.095   4.269 102.916  1.00  0.00     0.161 A 
ATOM     14  C   UNL     1      21.179   4.373 103.978  1.00  0.00     0.157 A 
ATOM     15  C   UNL     1      22.663   3.014 102.617  1.00  0.00     0.062 A 
ATOM     16  C   UNL     1      20.833   3.237 104.717  1.00  0.00     0.051 A 
ATOM     17  C   UNL     1      21.399   1.997 104.416  1.00  0.00     0.016 A 
BRANCH  13  18
ATOM     18  O   UNL     1      22.415   5.423 102.184  1.00  0.00    -0.493 OA
ATOM     19  C   UNL     1      22.125   5.610 100.802  1.00  0.00     0.278 C 
ENDBRANCH  13  18
BRANCH  14  20
ATOM     20  O   UNL     1      20.595   5.595 104.311  1.00  0.00    -0.504 OA
ATOM     21  H   UNL     1      21.133   6.452 104.369  1.00  0.00     0.293 HD
ENDBRANCH  14  20
ENDBRANCH   1  12
BRANCH   2  22
ATOM     22  O   UNL     1      21.295   0.167 101.276  1.00  0.00    -0.502 OA
ATOM     23  H   UNL     1      21.424   0.608 100.373  1.00  0.00     0.293 HD
ENDBRANCH   2  22
BRANCH   6  24
ATOM     24  O   UNL     1      24.267  -4.098 101.464  1.00  0.00    -0.507 OA
ATOM     25  H   UNL     1      24.011  -5.044 101.716  1.00  0.00     0.293 HD
ENDBRANCH   6  24
BRANCH   8  26
ATOM     26  O   UNL     1      27.405  -2.948 104.943  1.00  0.00    -0.508 OA
ATOM     27  H   UNL     1      28.030  -2.244 105.319  1.00  0.00     0.293 HD
ENDBRANCH   8  26
TORSDOF 6
ENDMDL
MODEL 3
REMARK VINA RESULT:    -6.249      0.905      2.048
REMARK INTER + INTRA:          -8.058
REMARK INTER:                  -7.666
REMARK INTRA:                  -0.392
REMARK UNBOUND:                -0.348
REMARK SMILES COc1cc(-c2oc3cc(O)cc(O)c3c(=O)c2O)ccc1O
REMARK SMILES IDX 6 1 18 2 16 3 17 4 15 5 13 6 12 7 10 8 9 9 8 10 7 11 5 12
REMARK SMILES IDX 3 13 22 14 4 15 21 16 20 17 2 18 1 19 23 20 19 22 14 24
REMARK SMILES IDX 11 26
REMARK H PARENT 23 21 19 23 14 25 11 27
REMARK Flexibility Score: inf
ROOT
ATOM      1  C   UNL     1      25.875   3.364 102.865  1.00  0.00     0.180 A 
ATOM      2  C   UNL     1      26.773   3.859 103.831  1.00  0.00     0.208 A 
ATOM      3  C   UNL     1      28.033   3.254 103.961  1.00  0.00     0.238 A 
ATOM      4  O   UNL     1      28.848   3.697 104.814  1.00  0.00    -0.285 OA
ATOM      5  C   UNL     1      28.365   2.156 103.141  1.00  0.00     0.111 A 
ATOM      6  C   UNL     1      29.612   1.488 103.210  1.00  0.00     0.134 A 
ATOM      7  C   UNL     1      29.865   0.397 102.366  1.00  0.00     0.093 A 
ATOM      8  C   UNL     1      28.899  -0.038 101.457  1.00  0.00     0.123 A 
ATOM      9  C   UNL     1      27.666   0.618 101.383  1.00  0.00     0.094 A 
ATOM     10  C   UNL     1      27.395   1.708 102.215  1.00  0.00     0.146 A 
ATOM     11  O   UNL     1      26.219   2.317 102.121  1.00  0.00    -0.452 OA
ENDROOT
BRANCH   1  12
ATOM     12  C   UNL     1      24.536   3.960 102.657  1.00  0.00     0.025 A 
ATOM     13  C   UNL     1      23.059   5.575 101.563  1.00  0.00     0.161 A 
ATOM     14  C   UNL     1      21.963   5.024 102.251  1.00  0.00     0.157 A 
ATOM     15  C   UNL     1      24.344   5.032 101.766  1.00  0.00     0.062 A 
ATOM     16  C   UNL     1      22.153   3.944 103.118  1.00  0.00     0.051 A 
ATOM     17  C   UNL     1      23.428   3.411 103.315  1.00  0.00     0.016 A 
BRANCH  13  18
ATOM     18  O   UNL     1      22.838   6.652 100.689  1.00  0.00    -0.493 OA
ATOM     19  C   UNL     1      23.824   7.611 100.321  1.00  0.00     0.278 C 
ENDBRANCH  13  18
BRANCH  14  20
ATOM     20  O   UNL     1      20.676   5.533 102.082  1.00  0.00    -0.504 OA
ATOM     21  H   UNL     1      19.926   5.333 102.733  1.00  0.00     0.293 HD
ENDBRANCH  14  20
ENDBRANCH   1  12
BRANCH   2  22
ATOM     22  O   UNL     1      26.398   4.916 104.665  1.00  0.00    -0.502 OA
ATOM     23  H   UNL     1      27.071   5.442 105.210  1.00  0.00     0.293 HD
ENDBRANCH   2  22
BRANCH   6  24
ATOM     24  O   UNL     1      30.598   1.898 104.109  1.00  0.00    -0.507 OA
ATOM     25  H   UNL     1      30.447   1.879 105.111  1.00  0.00     0.293 HD
ENDBRANCH   6  24
BRANCH   8  26
ATOM     26  O   UNL     1      29.174  -1.125 100.630  1.00  0.00    -0.508 OA
ATOM     27  H   UNL     1      28.807  -1.181  99.687  1.00  0.00     0.293 HD
ENDBRANCH   8  26
TORSDOF 6
ENDMDL
MODEL 4
REMARK VINA RESULT:    -6.061      3.814      5.068
REMARK INTER + INTRA:          -7.827
REMARK INTER:                  -7.432
REMARK INTRA:                  -0.395
REMARK UNBOUND:                -0.348
REMARK SMILES COc1cc(-c2oc3cc(O)cc(O)c3c(=O)c2O)ccc1O
REMARK SMILES IDX 6 1 18 2 16 3 17 4 15 5 13 6 12 7 10 8 9 9 8 10 7 11 5 12
REMARK SMILES IDX 3 13 22 14 4 15 21 16 20 17 2 18 1 19 23 20 19 22 14 24
REMARK SMILES IDX 11 26
REMARK H PARENT 23 21 19 23 14 25 11 27
REMARK Flexibility Score: inf
ROOT
ATOM      1  C   UNL     1      23.166   0.413 103.088  1.00  0.00     0.180 A 
ATOM      2  C   UNL     1      22.666  -0.365 102.026  1.00  0.00     0.208 A 
ATOM      3  C   UNL     1      23.255  -1.611 101.761  1.00  0.00     0.238 A 
ATOM      4  O   UNL     1      22.808  -2.321 100.819  1.00  0.00    -0.285 OA
ATOM      5  C   UNL     1      24.343  -2.048 102.545  1.00  0.00     0.111 A 
ATOM      6  C   UNL     1      24.995  -3.288 102.342  1.00  0.00     0.134 A 
ATOM      7  C   UNL     1      26.077  -3.648 103.158  1.00  0.00     0.093 A 
ATOM      8  C   UNL     1      26.518  -2.795 104.172  1.00  0.00     0.123 A 
ATOM      9  C   UNL     1      25.877  -1.569 104.379  1.00  0.00     0.094 A 
ATOM     10  C   UNL     1      24.797  -1.192 103.576  1.00  0.00     0.146 A 
ATOM     11  O   UNL     1      24.203  -0.025 103.796  1.00  0.00    -0.452 OA
ENDROOT
BRANCH   1  12
ATOM     12  C   UNL     1      22.586   1.729 103.441  1.00  0.00     0.025 A 
ATOM     13  C   UNL     1      20.990   3.099 104.691  1.00  0.00     0.161 A 
ATOM     14  C   UNL     1      21.553   4.256 104.122  1.00  0.00     0.157 A 
ATOM     15  C   UNL     1      21.518   1.837 104.350  1.00  0.00     0.062 A 
ATOM     16  C   UNL     1      22.630   4.148 103.237  1.00  0.00     0.051 A 
ATOM     17  C   UNL     1      23.147   2.895 102.903  1.00  0.00     0.016 A 
BRANCH  13  18
ATOM     18  O   UNL     1      19.917   3.238 105.586  1.00  0.00    -0.493 OA
ATOM     19  C   UNL     1      19.040   2.183 105.967  1.00  0.00     0.278 C 
ENDBRANCH  13  18
BRANCH  14  20
ATOM     20  O   UNL     1      21.059   5.524 104.430  1.00  0.00    -0.504 OA
ATOM     21  H   UNL     1      20.857   6.212 103.715  1.00  0.00     0.293 HD
ENDBRANCH  14  20
ENDBRANCH   1  12
BRANCH   2  22
ATOM     22  O   UNL     1      21.620   0.115 101.233  1.00  0.00    -0.502 OA
ATOM     23  H   UNL     1      21.548  -0.096 100.244  1.00  0.00     0.293 HD
ENDBRANCH   2  22
BRANCH   6  24
ATOM     24  O   UNL     1      24.578  -4.163 101.336  1.00  0.00    -0.507 OA
ATOM     25  H   UNL     1      24.859  -5.135 101.326  1.00  0.00     0.293 HD
ENDBRANCH   6  24
BRANCH   8  26
ATOM     26  O   UNL     1      27.595  -3.175 104.969  1.00  0.00    -0.508 OA
ATOM     27  H   UNL     1      28.549  -2.944 104.717  1.00  0.00     0.293 HD
ENDBRANCH   8  26
TORSDOF 6
ENDMDL
MODEL 5
REMARK VINA RESULT:    -5.853      2.450      3.391
REMARK INTER + INTRA:          -7.570
REMARK INTER:                  -7.258
REMARK INTRA:                  -0.311
REMARK UNBOUND:                -0.348
REMARK SMILES COc1cc(-c2oc3cc(O)cc(O)c3c(=O)c2O)ccc1O
REMARK SMILES IDX 6 1 18 2 16 3 17 4 15 5 13 6 12 7 10 8 9 9 8 10 7 11 5 12
REMARK SMILES IDX 3 13 22 14 4 15 21 16 20 17 2 18 1 19 23 20 19 22 14 24
REMARK SMILES IDX 11 26
REMARK H PARENT 23 21 19 23 14 25 11 27
REMARK Flexibility Score: inf
ROOT
ATOM      1  C   UNL     1      24.010   2.461 102.994  1.00  0.00     0.180 A 
ATOM      2  C   UNL     1      25.388   2.756 103.015  1.00  0.00     0.208 A 
ATOM      3  C   UNL     1      26.309   1.699 102.955  1.00  0.00     0.238 A 
ATOM      4  O   UNL     1      27.545   1.953 102.961  1.00  0.00    -0.285 OA
ATOM      5  C   UNL     1      25.842   0.370 102.897  1.00  0.00     0.111 A 
ATOM      6  C   UNL     1      26.704  -0.752 102.838  1.00  0.00     0.134 A 
ATOM      7  C   UNL     1      26.162  -2.045 102.792  1.00  0.00     0.093 A 
ATOM      8  C   UNL     1      24.779  -2.238 102.803  1.00  0.00     0.123 A 
ATOM      9  C   UNL     1      23.922  -1.134 102.860  1.00  0.00     0.094 A 
ATOM     10  C   UNL     1      24.443   0.163 102.906  1.00  0.00     0.146 A 
ATOM     11  O   UNL     1      23.607   1.194 102.954  1.00  0.00    -0.452 OA
ENDROOT
BRANCH   1  12
ATOM     12  C   UNL     1      22.978   3.521 103.035  1.00  0.00     0.025 A 
ATOM     13  C   UNL     1      21.757   5.362 101.983  1.00  0.00     0.161 A 
ATOM     14  C   UNL     1      20.966   5.486 103.139  1.00  0.00     0.157 A 
ATOM     15  C   UNL     1      22.758   4.370 101.936  1.00  0.00     0.062 A 
ATOM     16  C   UNL     1      21.171   4.625 104.222  1.00  0.00     0.051 A 
ATOM     17  C   UNL     1      22.164   3.646 104.169  1.00  0.00     0.016 A 
BRANCH  13  18
ATOM     18  O   UNL     1      21.522   6.232 100.906  1.00  0.00    -0.493 OA
ATOM     19  C   UNL     1      22.541   6.876 100.149  1.00  0.00     0.278 C 
ENDBRANCH  13  18
BRANCH  14  20
ATOM     20  O   UNL     1      19.967   6.455 103.229  1.00  0.00    -0.504 OA
ATOM     21  H   UNL     1      19.583   6.912 102.411  1.00  0.00     0.293 HD
ENDBRANCH  14  20
ENDBRANCH   1  12
BRANCH   2  22
ATOM     22  O   UNL     1      25.823   4.079 103.123  1.00  0.00    -0.502 OA
ATOM     23  H   UNL     1      26.336   4.417 103.929  1.00  0.00     0.293 HD
ENDBRANCH   2  22
BRANCH   6  24
ATOM     24  O   UNL     1      28.091  -0.592 102.827  1.00  0.00    -0.507 OA
ATOM     25  H   UNL     1      28.706  -1.243 103.300  1.00  0.00     0.293 HD
ENDBRANCH   6  24
BRANCH   8  26
ATOM     26  O   UNL     1      24.266  -3.532 102.757  1.00  0.00    -0.508 OA
ATOM     27  H   UNL     1      24.686  -4.288 103.285  1.00  0.00     0.293 HD
ENDBRANCH   8  26
TORSDOF 6
ENDMDL
MODEL 6
REMARK VINA RESULT:    -5.836      1.876      3.055
REMARK INTER + INTRA:          -7.549
REMARK INTER:                  -7.242
REMARK INTRA:                  -0.307
REMARK UNBOUND:                -0.348
REMARK SMILES COc1cc(-c2oc3cc(O)cc(O)c3c(=O)c2O)ccc1O
REMARK SMILES IDX 6 1 18 2 16 3 17 4 15 5 13 6 12 7 10 8 9 9 8 10 7 11 5 12
REMARK SMILES IDX 3 13 22 14 4 15 21 16 20 17 2 18 1 19 23 20 19 22 14 24
REMARK SMILES IDX 11 26
REMARK H PARENT 23 21 19 23 14 25 11 27
REMARK Flexibility Score: inf
ROOT
ATOM      1  C   UNL     1      24.045   2.501 102.946  1.00  0.00     0.180 A 
ATOM      2  C   UNL     1      23.783   1.122 102.833  1.00  0.00     0.208 A 
ATOM      3  C   UNL     1      24.863   0.227 102.782  1.00  0.00     0.238 A 
ATOM      4  O   UNL     1      24.640  -1.011 102.692  1.00  0.00    -0.285 OA
ATOM      5  C   UNL     1      26.182   0.725 102.824  1.00  0.00     0.111 A 
ATOM      6  C   UNL     1      27.326  -0.108 102.774  1.00  0.00     0.134 A 
ATOM      7  C   UNL     1      28.606   0.464 102.811  1.00  0.00     0.093 A 
ATOM      8  C   UNL     1      28.765   1.849 102.898  1.00  0.00     0.123 A 
ATOM      9  C   UNL     1      27.639   2.677 102.949  1.00  0.00     0.094 A 
ATOM     10  C   UNL     1      26.354   2.126 102.913  1.00  0.00     0.146 A 
ATOM     11  O   UNL     1      25.302   2.934 102.968  1.00  0.00    -0.452 OA
ENDROOT
BRANCH   1  12
ATOM     12  C   UNL     1      22.959   3.504 103.024  1.00  0.00     0.025 A 
ATOM     13  C   UNL     1      21.130   4.589 104.234  1.00  0.00     0.161 A 
ATOM     14  C   UNL     1      20.944   5.464 103.149  1.00  0.00     0.157 A 
ATOM     15  C   UNL     1      22.146   3.615 104.167  1.00  0.00     0.062 A 
ATOM     16  C   UNL     1      21.768   5.368 102.023  1.00  0.00     0.051 A 
ATOM     17  C   UNL     1      22.773   4.400 101.963  1.00  0.00     0.016 A 
BRANCH  13  18
ATOM     18  O   UNL     1      20.295   4.716 105.356  1.00  0.00    -0.493 OA
ATOM     19  C   UNL     1      19.822   3.625 106.139  1.00  0.00     0.278 C 
ENDBRANCH  13  18
BRANCH  14  20
ATOM     20  O   UNL     1      19.948   6.440 103.172  1.00  0.00    -0.504 OA
ATOM     21  H   UNL     1      19.146   6.408 102.554  1.00  0.00     0.293 HD
ENDBRANCH  14  20
ENDBRANCH   1  12
BRANCH   2  22
ATOM     22  O   UNL     1      22.467   0.659 102.742  1.00  0.00    -0.502 OA
ATOM     23  H   UNL     1      21.686   1.278 102.560  1.00  0.00     0.293 HD
ENDBRANCH   2  22
BRANCH   6  24
ATOM     24  O   UNL     1      27.201  -1.496 102.686  1.00  0.00    -0.507 OA
ATOM     25  H   UNL     1      27.078  -1.964 101.797  1.00  0.00     0.293 HD
ENDBRANCH   6  24
BRANCH   8  26
ATOM     26  O   UNL     1      30.047   2.392 102.933  1.00  0.00    -0.508 OA
ATOM     27  H   UNL     1      30.718   2.123 103.644  1.00  0.00     0.293 HD
ENDBRANCH   8  26
TORSDOF 6
ENDMDL
MODEL 7
REMARK VINA RESULT:    -5.773      1.933      3.544
REMARK INTER + INTRA:          -7.471
REMARK INTER:                  -7.206
REMARK INTRA:                  -0.265
REMARK UNBOUND:                -0.348
REMARK SMILES COc1cc(-c2oc3cc(O)cc(O)c3c(=O)c2O)ccc1O
REMARK SMILES IDX 6 1 18 2 16 3 17 4 15 5 13 6 12 7 10 8 9 9 8 10 7 11 5 12
REMARK SMILES IDX 3 13 22 14 4 15 21 16 20 17 2 18 1 19 23 20 19 22 14 24
REMARK SMILES IDX 11 26
REMARK H PARENT 23 21 19 23 14 25 11 27
REMARK Flexibility Score: inf
ROOT
ATOM      1  C   UNL     1      24.089   2.511 103.006  1.00  0.00     0.180 A 
ATOM      2  C   UNL     1      23.785   1.137 102.955  1.00  0.00     0.208 A 
ATOM      3  C   UNL     1      24.838   0.209 102.939  1.00  0.00     0.238 A 
ATOM      4  O   UNL     1      24.577  -1.024 102.906  1.00  0.00    -0.285 OA
ATOM      5  C   UNL     1      26.171   0.669 102.952  1.00  0.00     0.111 A 
ATOM      6  C   UNL     1      27.289  -0.200 102.935  1.00  0.00     0.134 A 
ATOM      7  C   UNL     1      28.586   0.335 102.940  1.00  0.00     0.093 A 
ATOM      8  C   UNL     1      28.786   1.717 102.963  1.00  0.00     0.123 A 
ATOM      9  C   UNL     1      27.686   2.580 102.982  1.00  0.00     0.094 A 
ATOM     10  C   UNL     1      26.385   2.067 102.978  1.00  0.00     0.146 A 
ATOM     11  O   UNL     1      25.358   2.907 103.002  1.00  0.00    -0.452 OA
ENDROOT
BRANCH   1  12
ATOM     12  C   UNL     1      23.034   3.549 103.044  1.00  0.00     0.025 A 
ATOM     13  C   UNL     1      21.775   5.362 101.987  1.00  0.00     0.161 A 
ATOM     14  C   UNL     1      20.981   5.471 103.143  1.00  0.00     0.157 A 
ATOM     15  C   UNL     1      22.797   4.392 101.943  1.00  0.00     0.062 A 
ATOM     16  C   UNL     1      21.202   4.617 104.227  1.00  0.00     0.051 A 
ATOM     17  C   UNL     1      22.216   3.659 104.177  1.00  0.00     0.016 A 
BRANCH  13  18
ATOM     18  O   UNL     1      21.522   6.225 100.909  1.00  0.00    -0.493 OA
ATOM     19  C   UNL     1      22.529   6.889 100.151  1.00  0.00     0.278 C 
ENDBRANCH  13  18
BRANCH  14  20
ATOM     20  O   UNL     1      19.961   6.419 103.230  1.00  0.00    -0.504 OA
ATOM     21  H   UNL     1      20.077   7.292 103.731  1.00  0.00     0.293 HD
ENDBRANCH  14  20
ENDBRANCH   1  12
BRANCH   2  22
ATOM     22  O   UNL     1      22.456   0.711 102.892  1.00  0.00    -0.502 OA
ATOM     23  H   UNL     1      22.185  -0.250 103.065  1.00  0.00     0.293 HD
ENDBRANCH   2  22
BRANCH   6  24
ATOM     24  O   UNL     1      27.122  -1.586 102.910  1.00  0.00    -0.507 OA
ATOM     25  H   UNL     1      26.320  -2.033 103.336  1.00  0.00     0.293 HD
ENDBRANCH   6  24
BRANCH   8  26
ATOM     26  O   UNL     1      30.084   2.222 102.968  1.00  0.00    -0.508 OA
ATOM     27  H   UNL     1      30.297   3.134 103.358  1.00  0.00     0.293 HD
ENDBRANCH   8  26
TORSDOF 6
ENDMDL
MODEL 8
REMARK VINA RESULT:    -5.650      2.296      2.647
REMARK INTER + INTRA:          -7.319
REMARK INTER:                  -7.067
REMARK INTRA:                  -0.253
REMARK UNBOUND:                -0.348
REMARK SMILES COc1cc(-c2oc3cc(O)cc(O)c3c(=O)c2O)ccc1O
REMARK SMILES IDX 6 1 18 2 16 3 17 4 15 5 13 6 12 7 10 8 9 9 8 10 7 11 5 12
REMARK SMILES IDX 3 13 22 14 4 15 21 16 20 17 2 18 1 19 23 20 19 22 14 24
REMARK SMILES IDX 11 26
REMARK H PARENT 23 21 19 23 14 25 11 27
REMARK Flexibility Score: inf
ROOT
ATOM      1  C   UNL     1      24.121   2.490 103.000  1.00  0.00     0.180 A 
ATOM      2  C   UNL     1      25.476   2.876 103.000  1.00  0.00     0.208 A 
ATOM      3  C   UNL     1      26.465   1.882 102.962  1.00  0.00     0.238 A 
ATOM      4  O   UNL     1      27.681   2.216 102.950  1.00  0.00    -0.285 OA
ATOM      5  C   UNL     1      26.087   0.523 102.946  1.00  0.00     0.111 A 
ATOM      6  C   UNL     1      27.021  -0.541 102.911  1.00  0.00     0.134 A 
ATOM      7  C   UNL     1      26.566  -1.867 102.907  1.00  0.00     0.093 A 
ATOM      8  C   UNL     1      25.199  -2.151 102.936  1.00  0.00     0.123 A 
ATOM      9  C   UNL     1      24.271  -1.105 102.969  1.00  0.00     0.094 A 
ATOM     10  C   UNL     1      24.705   0.224 102.974  1.00  0.00     0.146 A 
ATOM     11  O   UNL     1      23.803   1.198 103.000  1.00  0.00    -0.452 OA
ENDROOT
BRANCH   1  12
ATOM     12  C   UNL     1      23.021   3.480 103.020  1.00  0.00     0.025 A 
ATOM     13  C   UNL     1      21.166   4.595 104.161  1.00  0.00     0.161 A 
ATOM     14  C   UNL     1      20.976   5.413 103.032  1.00  0.00     0.157 A 
ATOM     15  C   UNL     1      22.196   3.634 104.149  1.00  0.00     0.062 A 
ATOM     16  C   UNL     1      21.812   5.275 101.920  1.00  0.00     0.051 A 
ATOM     17  C   UNL     1      22.831   4.320 101.915  1.00  0.00     0.016 A 
BRANCH  13  18
ATOM     18  O   UNL     1      20.320   4.765 105.269  1.00  0.00    -0.493 OA
ATOM     19  C   UNL     1      19.875   3.709 106.115  1.00  0.00     0.278 C 
ENDBRANCH  13  18
BRANCH  14  20
ATOM     20  O   UNL     1      19.967   6.375 103.000  1.00  0.00    -0.504 OA
ATOM     21  H   UNL     1      18.991   6.129 102.888  1.00  0.00     0.293 HD
ENDBRANCH  14  20
ENDBRANCH   1  12
BRANCH   2  22
ATOM     22  O   UNL     1      25.823   4.228 103.067  1.00  0.00    -0.502 OA
ATOM     23  H   UNL     1      26.520   4.640 102.457  1.00  0.00     0.293 HD
ENDBRANCH   2  22
BRANCH   6  24
ATOM     24  O   UNL     1      28.395  -0.290 102.883  1.00  0.00    -0.507 OA
ATOM     25  H   UNL     1      28.902  -0.200 102.011  1.00  0.00     0.293 HD
ENDBRANCH   6  24
BRANCH   8  26
ATOM     26  O   UNL     1      24.773  -3.477 102.932  1.00  0.00    -0.508 OA
ATOM     27  H   UNL     1      25.253  -4.191 103.469  1.00  0.00     0.293 HD
ENDBRANCH   8  26
TORSDOF 6
ENDMDL
