MODEL 1
REMARK VINA RESULT:    -6.750      0.000      0.000
REMARK INTER + INTRA:          -7.331
REMARK INTER:                  -7.342
REMARK INTRA:                   0.011
REMARK UNBOUND:                 0.011
REMARK SMILES C[C@@H]1[C@@H](C)CC[C@@]2(C(=O)[O-])CC[C@@]3(C)C(=CC[C@H]4[C@]5(C)CC[C@H](O)C(C)(C)[C@H]5CC[C@@]43C)[C@@H]12
REMARK SMILES IDX 7 1 6 2 11 3 33 4 5 5 12 6 15 7 2 8 3 9 13 10 16 11 1 12
REMARK SMILES IDX 4 13 14 14 31 15 17 16 18 17 30 18 32 19 19 20 29 21 28 22
REMARK SMILES IDX 21 23 20 24 25 25 22 26 23 27 26 28 27 29 8 30 9 31 10 32
REMARK SMILES IDX 24 33
REMARK H PARENT 24 34
REMARK Flexibility Score: inf
ROOT
ATOM      1  C   UNL     1      15.971  29.347  53.224  1.00  0.00     0.017 C 
ATOM      2  C   UNL     1      16.688  30.660  52.785  1.00  0.00     0.014 C 
ATOM      3  C   UNL     1      15.498  28.596  51.936  1.00  0.00     0.014 C 
ATOM      4  C   UNL     1      16.924  28.474  54.135  1.00  0.00     0.030 C 
ATOM      5  C   UNL     1      17.469  31.284  53.944  1.00  0.00     0.004 C 
ATOM      6  C   UNL     1      16.440  27.473  51.462  1.00  0.00     0.013 C 
ATOM      7  C   UNL     1      16.671  26.967  53.926  1.00  0.00    -0.063 C 
ATOM      8  C   UNL     1      18.432  28.878  54.035  1.00  0.00    -0.003 C 
ATOM      9  C   UNL     1      18.650  30.387  54.388  1.00  0.00    -0.011 C 
ATOM     10  C   UNL     1      16.723  26.341  52.520  1.00  0.00    -0.006 C 
ATOM     11  C   UNL     1      16.406  26.221  55.021  1.00  0.00    -0.027 C 
ATOM     12  C   UNL     1      19.321  27.996  54.941  1.00  0.00     0.008 C 
ATOM     13  C   UNL     1      19.968  30.914  53.790  1.00  0.00     0.008 C 
ATOM     14  C   UNL     1      18.202  25.886  52.267  1.00  0.00     0.017 C 
ATOM     15  C   UNL     1      15.699  25.084  52.416  1.00  0.00    -0.020 C 
ATOM     16  C   UNL     1      15.859  24.822  55.002  1.00  0.00     0.032 C 
ATOM     17  C   UNL     1      15.962  24.103  53.636  1.00  0.00     0.006 C 
ATOM     18  C   UNL     1      15.894  24.284  51.080  1.00  0.00     0.008 C 
ATOM     19  C   UNL     1      14.236  25.607  52.428  1.00  0.00     0.012 C 
ATOM     20  C   UNL     1      15.251  22.673  53.594  1.00  0.00    -0.025 C 
ATOM     21  C   UNL     1      15.153  22.939  51.030  1.00  0.00     0.005 C 
ATOM     22  C   UNL     1      15.604  22.027  52.200  1.00  0.00     0.003 C 
ATOM     23  C   UNL     1      15.877  21.772  54.710  1.00  0.00     0.010 C 
ATOM     24  C   UNL     1      13.707  22.767  53.853  1.00  0.00     0.012 C 
ATOM     25  C   UNL     1      15.266  20.492  52.033  1.00  0.00    -0.006 C 
ATOM     26  C   UNL     1      15.514  20.281  54.593  1.00  0.00     0.033 C 
ATOM     27  C   UNL     1      15.893  19.696  53.224  1.00  0.00     0.120 C 
ATOM     28  C   UNL     1      15.897  19.944  50.721  1.00  0.00     0.014 C 
ATOM     29  C   UNL     1      13.746  20.203  51.939  1.00  0.00     0.014 C 
ENDROOT
BRANCH   1  30
ATOM     30  C   UNL     1      14.715  29.689  54.032  1.00  0.00     0.048 C 
ATOM     31  O   UNL     1      14.823  30.327  55.113  1.00  0.00    -0.550 OA
ATOM     32  O   UNL     1      13.450  29.282  53.620  1.00  0.00    -0.550 OA
ENDBRANCH   1  30
BRANCH  27  33
ATOM     33  O   UNL     1      17.297  19.678  53.111  1.00  0.00    -0.393 OA
ATOM     34  H   UNL     1      17.556  20.469  52.570  1.00  0.00     0.210 HD
ENDBRANCH  27  33
TORSDOF 2
ENDMDL
MODEL 2
REMARK VINA RESULT:    -5.400      2.918      8.983
REMARK INTER + INTRA:          -5.862
REMARK INTER:                  -5.610
REMARK INTRA:                  -0.252
REMARK UNBOUND:                 0.011
REMARK SMILES C[C@@H]1[C@@H](C)CC[C@@]2(C(=O)[O-])CC[C@@]3(C)C(=CC[C@H]4[C@]5(C)CC[C@H](O)C(C)(C)[C@H]5CC[C@@]43C)[C@@H]12
REMARK SMILES IDX 7 1 6 2 11 3 33 4 5 5 12 6 15 7 2 8 3 9 13 10 16 11 1 12
REMARK SMILES IDX 4 13 14 14 31 15 17 16 18 17 30 18 32 19 19 20 29 21 28 22
REMARK SMILES IDX 21 23 20 24 25 25 22 26 23 27 26 28 27 29 8 30 9 31 10 32
REMARK SMILES IDX 24 33
REMARK H PARENT 24 34
REMARK Flexibility Score: inf
ROOT
ATOM      1  C   UNL     1      14.310  19.112  49.818  1.00  0.00     0.017 C 
ATOM      2  C   UNL     1      13.791  17.711  50.261  1.00  0.00     0.014 C 
ATOM      3  C   UNL     1      13.078  19.978  49.396  1.00  0.00     0.014 C 
ATOM      4  C   UNL     1      15.168  19.775  50.970  1.00  0.00     0.030 C 
ATOM      5  C   UNL     1      14.875  16.921  50.999  1.00  0.00     0.004 C 
ATOM      6  C   UNL     1      12.560  20.937  50.486  1.00  0.00     0.013 C 
ATOM      7  C   UNL     1      15.011  21.309  50.971  1.00  0.00    -0.063 C 
ATOM      8  C   UNL     1      14.947  19.119  52.373  1.00  0.00    -0.003 C 
ATOM      9  C   UNL     1      15.250  17.584  52.347  1.00  0.00    -0.011 C 
ATOM     10  C   UNL     1      13.619  21.965  51.036  1.00  0.00    -0.006 C 
ATOM     11  C   UNL     1      16.139  22.052  50.918  1.00  0.00    -0.027 C 
ATOM     12  C   UNL     1      15.803  19.802  53.464  1.00  0.00     0.008 C 
ATOM     13  C   UNL     1      14.544  16.857  53.508  1.00  0.00     0.008 C 
ATOM     14  C   UNL     1      13.267  22.164  52.550  1.00  0.00     0.017 C 
ATOM     15  C   UNL     1      13.619  23.383  50.243  1.00  0.00    -0.020 C 
ATOM     16  C   UNL     1      16.191  23.523  50.625  1.00  0.00     0.032 C 
ATOM     17  C   UNL     1      14.837  24.261  50.758  1.00  0.00     0.006 C 
ATOM     18  C   UNL     1      12.290  24.183  50.482  1.00  0.00     0.008 C 
ATOM     19  C   UNL     1      13.728  23.122  48.715  1.00  0.00     0.012 C 
ATOM     20  C   UNL     1      14.880  25.793  50.307  1.00  0.00    -0.025 C 
ATOM     21  C   UNL     1      12.325  25.637  49.987  1.00  0.00     0.005 C 
ATOM     22  C   UNL     1      13.477  26.416  50.671  1.00  0.00     0.003 C 
ATOM     23  C   UNL     1      15.965  26.533  51.158  1.00  0.00     0.010 C 
ATOM     24  C   UNL     1      15.250  25.960  48.792  1.00  0.00     0.012 C 
ATOM     25  C   UNL     1      13.370  27.991  50.597  1.00  0.00    -0.006 C 
ATOM     26  C   UNL     1      15.908  28.067  51.055  1.00  0.00     0.033 C 
ATOM     27  C   UNL     1      14.528  28.625  51.435  1.00  0.00     0.120 C 
ATOM     28  C   UNL     1      12.027  28.466  51.222  1.00  0.00     0.014 C 
ATOM     29  C   UNL     1      13.395  28.542  49.149  1.00  0.00     0.014 C 
ENDROOT
BRANCH   1  30
ATOM     30  C   UNL     1      15.203  18.966  48.581  1.00  0.00     0.048 C 
ATOM     31  O   UNL     1      14.725  18.480  47.521  1.00  0.00    -0.550 OA
ATOM     32  O   UNL     1      16.546  19.327  48.604  1.00  0.00    -0.550 OA
ENDBRANCH   1  30
BRANCH  27  33
ATOM     33  O   UNL     1      14.311  28.403  52.809  1.00  0.00    -0.393 OA
ATOM     34  H   UNL     1      15.169  28.586  53.273  1.00  0.00     0.210 HD
ENDBRANCH  27  33
TORSDOF 2
ENDMDL
MODEL 3
REMARK VINA RESULT:    -5.372      3.265      5.455
REMARK INTER + INTRA:          -5.832
REMARK INTER:                  -5.563
REMARK INTRA:                  -0.269
REMARK UNBOUND:                 0.011
REMARK SMILES C[C@@H]1[C@@H](C)CC[C@@]2(C(=O)[O-])CC[C@@]3(C)C(=CC[C@H]4[C@]5(C)CC[C@H](O)C(C)(C)[C@H]5CC[C@@]43C)[C@@H]12
REMARK SMILES IDX 7 1 6 2 11 3 33 4 5 5 12 6 15 7 2 8 3 9 13 10 16 11 1 12
REMARK SMILES IDX 4 13 14 14 31 15 17 16 18 17 30 18 32 19 19 20 29 21 28 22
REMARK SMILES IDX 21 23 20 24 25 25 22 26 23 27 26 28 27 29 8 30 9 31 10 32
REMARK SMILES IDX 24 33
REMARK H PARENT 24 34
REMARK Flexibility Score: inf
ROOT
ATOM      1  C   UNL     1      13.088  25.139  52.873  1.00  0.00     0.017 C 
ATOM      2  C   UNL     1      12.658  26.600  53.207  1.00  0.00     0.014 C 
ATOM      3  C   UNL     1      12.067  24.553  51.844  1.00  0.00     0.014 C 
ATOM      4  C   UNL     1      14.581  25.107  52.353  1.00  0.00     0.030 C 
ATOM      5  C   UNL     1      13.770  27.357  53.937  1.00  0.00     0.004 C 
ATOM      6  C   UNL     1      12.526  24.618  50.374  1.00  0.00     0.013 C 
ATOM      7  C   UNL     1      14.786  23.988  51.311  1.00  0.00    -0.063 C 
ATOM      8  C   UNL     1      15.116  26.502  51.892  1.00  0.00    -0.003 C 
ATOM      9  C   UNL     1      15.009  27.567  53.033  1.00  0.00    -0.011 C 
ATOM     10  C   UNL     1      13.890  23.895  50.061  1.00  0.00    -0.006 C 
ATOM     11  C   UNL     1      15.780  23.101  51.534  1.00  0.00    -0.027 C 
ATOM     12  C   UNL     1      16.576  26.418  51.391  1.00  0.00     0.008 C 
ATOM     13  C   UNL     1      15.010  28.998  52.461  1.00  0.00     0.008 C 
ATOM     14  C   UNL     1      14.571  24.745  48.935  1.00  0.00     0.017 C 
ATOM     15  C   UNL     1      13.713  22.347  49.601  1.00  0.00    -0.020 C 
ATOM     16  C   UNL     1      15.955  21.799  50.807  1.00  0.00     0.032 C 
ATOM     17  C   UNL     1      15.147  21.675  49.493  1.00  0.00     0.006 C 
ATOM     18  C   UNL     1      13.002  22.233  48.206  1.00  0.00     0.008 C 
ATOM     19  C   UNL     1      12.823  21.598  50.632  1.00  0.00     0.012 C 
ATOM     20  C   UNL     1      15.233  20.235  48.805  1.00  0.00    -0.025 C 
ATOM     21  C   UNL     1      13.038  20.828  47.586  1.00  0.00     0.005 C 
ATOM     22  C   UNL     1      14.502  20.349  47.413  1.00  0.00     0.003 C 
ATOM     23  C   UNL     1      16.737  19.903  48.529  1.00  0.00     0.010 C 
ATOM     24  C   UNL     1      14.643  19.103  49.716  1.00  0.00     0.012 C 
ATOM     25  C   UNL     1      14.708  19.142  46.413  1.00  0.00    -0.006 C 
ATOM     26  C   UNL     1      16.956  18.697  47.599  1.00  0.00     0.033 C 
ATOM     27  C   UNL     1      16.238  18.864  46.251  1.00  0.00     0.120 C 
ATOM     28  C   UNL     1      14.149  19.509  45.008  1.00  0.00     0.014 C 
ATOM     29  C   UNL     1      13.974  17.849  46.850  1.00  0.00     0.014 C 
ENDROOT
BRANCH   1  30
ATOM     30  C   UNL     1      13.001  24.274  54.135  1.00  0.00     0.048 C 
ATOM     31  O   UNL     1      11.875  24.005  54.631  1.00  0.00    -0.550 OA
ATOM     32  O   UNL     1      14.143  23.799  54.774  1.00  0.00    -0.550 OA
ENDBRANCH   1  30
BRANCH  27  33
ATOM     33  O   UNL     1      16.850  19.913  45.538  1.00  0.00    -0.393 OA
ATOM     34  H   UNL     1      17.831  19.801  45.639  1.00  0.00     0.210 HD
ENDBRANCH  27  33
TORSDOF 2
ENDMDL
MODEL 4
REMARK VINA RESULT:    -5.233      2.015      7.948
REMARK INTER + INTRA:          -5.681
REMARK INTER:                  -5.581
REMARK INTRA:                  -0.100
REMARK UNBOUND:                 0.011
REMARK SMILES C[C@@H]1[C@@H](C)CC[C@@]2(C(=O)[O-])CC[C@@]3(C)C(=CC[C@H]4[C@]5(C)CC[C@H](O)C(C)(C)[C@H]5CC[C@@]43C)[C@@H]12
REMARK SMILES IDX 7 1 6 2 11 3 33 4 5 5 12 6 15 7 2 8 3 9 13 10 16 11 1 12
REMARK SMILES IDX 4 13 14 14 31 15 17 16 18 17 30 18 32 19 19 20 29 21 28 22
REMARK SMILES IDX 21 23 20 24 25 25 22 26 23 27 26 28 27 29 8 30 9 31 10 32
REMARK SMILES IDX 24 33
REMARK H PARENT 24 34
REMARK Flexibility Score: inf
ROOT
ATOM      1  C   UNL     1      14.287  22.477  53.759  1.00  0.00     0.017 C 
ATOM      2  C   UNL     1      14.468  20.929  53.714  1.00  0.00     0.014 C 
ATOM      3  C   UNL     1      15.196  23.042  54.899  1.00  0.00     0.014 C 
ATOM      4  C   UNL     1      14.599  23.112  52.345  1.00  0.00     0.030 C 
ATOM      5  C   UNL     1      13.884  20.335  52.431  1.00  0.00     0.004 C 
ATOM      6  C   UNL     1      16.553  23.597  54.425  1.00  0.00     0.013 C 
ATOM      7  C   UNL     1      15.217  24.517  52.488  1.00  0.00    -0.063 C 
ATOM      8  C   UNL     1      15.402  22.164  51.395  1.00  0.00    -0.003 C 
ATOM      9  C   UNL     1      14.662  20.802  51.177  1.00  0.00    -0.011 C 
ATOM     10  C   UNL     1      16.472  24.747  53.352  1.00  0.00    -0.006 C 
ATOM     11  C   UNL     1      14.622  25.532  51.825  1.00  0.00    -0.027 C 
ATOM     12  C   UNL     1      15.684  22.830  50.028  1.00  0.00     0.008 C 
ATOM     13  C   UNL     1      15.641  19.703  50.721  1.00  0.00     0.008 C 
ATOM     14  C   UNL     1      17.719  24.550  52.425  1.00  0.00     0.017 C 
ATOM     15  C   UNL     1      16.452  26.238  53.999  1.00  0.00    -0.020 C 
ATOM     16  C   UNL     1      14.890  26.991  52.056  1.00  0.00     0.032 C 
ATOM     17  C   UNL     1      16.186  27.296  52.846  1.00  0.00     0.006 C 
ATOM     18  C   UNL     1      17.816  26.588  54.692  1.00  0.00     0.008 C 
ATOM     19  C   UNL     1      15.350  26.314  55.091  1.00  0.00     0.012 C 
ATOM     20  C   UNL     1      16.384  28.840  53.207  1.00  0.00    -0.025 C 
ATOM     21  C   UNL     1      17.967  28.065  55.090  1.00  0.00     0.005 C 
ATOM     22  C   UNL     1      17.818  28.979  53.847  1.00  0.00     0.003 C 
ATOM     23  C   UNL     1      16.373  29.668  51.878  1.00  0.00     0.010 C 
ATOM     24  C   UNL     1      15.243  29.388  54.133  1.00  0.00     0.012 C 
ATOM     25  C   UNL     1      18.370  30.451  54.017  1.00  0.00    -0.006 C 
ATOM     26  C   UNL     1      16.857  31.120  52.037  1.00  0.00     0.033 C 
ATOM     27  C   UNL     1      18.263  31.201  52.649  1.00  0.00     0.120 C 
ATOM     28  C   UNL     1      19.873  30.417  54.416  1.00  0.00     0.014 C 
ATOM     29  C   UNL     1      17.644  31.256  55.125  1.00  0.00     0.014 C 
ENDROOT
BRANCH   1  30
ATOM     30  C   UNL     1      12.839  22.817  54.128  1.00  0.00     0.048 C 
ATOM     31  O   UNL     1      12.270  23.800  53.583  1.00  0.00    -0.550 OA
ATOM     32  O   UNL     1      12.138  22.084  55.081  1.00  0.00    -0.550 OA
ENDBRANCH   1  30
BRANCH  27  33
ATOM     33  O   UNL     1      19.189  30.669  51.731  1.00  0.00    -0.393 OA
ATOM     34  H   UNL     1      18.696  30.492  50.888  1.00  0.00     0.210 HD
ENDBRANCH  27  33
TORSDOF 2
ENDMDL
MODEL 5
REMARK VINA RESULT:    -5.034      6.106      9.097
REMARK INTER + INTRA:          -5.464
REMARK INTER:                  -5.191
REMARK INTRA:                  -0.274
REMARK UNBOUND:                 0.011
REMARK SMILES C[C@@H]1[C@@H](C)CC[C@@]2(C(=O)[O-])CC[C@@]3(C)C(=CC[C@H]4[C@]5(C)CC[C@H](O)C(C)(C)[C@H]5CC[C@@]43C)[C@@H]12
REMARK SMILES IDX 7 1 6 2 11 3 33 4 5 5 12 6 15 7 2 8 3 9 13 10 16 11 1 12
REMARK SMILES IDX 4 13 14 14 31 15 17 16 18 17 30 18 32 19 19 20 29 21 28 22
REMARK SMILES IDX 21 23 20 24 25 25 22 26 23 27 26 28 27 29 8 30 9 31 10 32
REMARK SMILES IDX 24 33
REMARK H PARENT 24 34
REMARK Flexibility Score: inf
ROOT
ATOM      1  C   UNL     1      14.559  19.268  52.557  1.00  0.00     0.017 C 
ATOM      2  C   UNL     1      14.647  19.734  54.042  1.00  0.00     0.014 C 
ATOM      3  C   UNL     1      13.261  19.875  51.931  1.00  0.00     0.014 C 
ATOM      4  C   UNL     1      15.872  19.668  51.772  1.00  0.00     0.030 C 
ATOM      5  C   UNL     1      16.035  19.469  54.630  1.00  0.00     0.004 C 
ATOM      6  C   UNL     1      13.482  21.163  51.115  1.00  0.00     0.013 C 
ATOM      7  C   UNL     1      15.564  19.991  50.296  1.00  0.00    -0.063 C 
ATOM      8  C   UNL     1      16.723  20.766  52.492  1.00  0.00    -0.003 C 
ATOM      9  C   UNL     1      17.123  20.329  53.940  1.00  0.00    -0.011 C 
ATOM     10  C   UNL     1      14.497  21.036  49.918  1.00  0.00    -0.006 C 
ATOM     11  C   UNL     1      16.266  19.326  49.352  1.00  0.00    -0.027 C 
ATOM     12  C   UNL     1      17.993  21.125  51.685  1.00  0.00     0.008 C 
ATOM     13  C   UNL     1      17.465  21.551  54.815  1.00  0.00     0.008 C 
ATOM     14  C   UNL     1      15.218  22.425  49.825  1.00  0.00     0.017 C 
ATOM     15  C   UNL     1      13.793  20.647  48.507  1.00  0.00    -0.020 C 
ATOM     16  C   UNL     1      15.925  19.285  47.890  1.00  0.00     0.032 C 
ATOM     17  C   UNL     1      14.922  20.368  47.427  1.00  0.00     0.006 C 
ATOM     18  C   UNL     1      12.871  21.803  47.979  1.00  0.00     0.008 C 
ATOM     19  C   UNL     1      12.892  19.396  48.706  1.00  0.00     0.012 C 
ATOM     20  C   UNL     1      14.461  20.224  45.904  1.00  0.00    -0.025 C 
ATOM     21  C   UNL     1      12.384  21.619  46.533  1.00  0.00     0.005 C 
ATOM     22  C   UNL     1      13.590  21.494  45.567  1.00  0.00     0.003 C 
ATOM     23  C   UNL     1      15.732  20.262  44.992  1.00  0.00     0.010 C 
ATOM     24  C   UNL     1      13.707  18.875  45.633  1.00  0.00     0.012 C 
ATOM     25  C   UNL     1      13.263  21.735  44.039  1.00  0.00    -0.006 C 
ATOM     26  C   UNL     1      15.428  20.443  43.494  1.00  0.00     0.033 C 
ATOM     27  C   UNL     1      14.593  21.701  43.218  1.00  0.00     0.120 C 
ATOM     28  C   UNL     1      12.627  23.141  43.842  1.00  0.00     0.014 C 
ATOM     29  C   UNL     1      12.251  20.715  43.459  1.00  0.00     0.014 C 
ENDROOT
BRANCH   1  30
ATOM     30  C   UNL     1      14.414  17.743  52.502  1.00  0.00     0.048 C 
ATOM     31  O   UNL     1      13.313  17.210  52.798  1.00  0.00    -0.550 OA
ATOM     32  O   UNL     1      15.484  16.921  52.162  1.00  0.00    -0.550 OA
ENDBRANCH   1  30
BRANCH  27  33
ATOM     33  O   UNL     1      15.373  22.837  43.510  1.00  0.00    -0.393 OA
ATOM     34  H   UNL     1      15.506  22.855  44.493  1.00  0.00     0.210 HD
ENDBRANCH  27  33
TORSDOF 2
ENDMDL
MODEL 6
REMARK VINA RESULT:    -4.898      7.304      9.321
REMARK INTER + INTRA:          -5.317
REMARK INTER:                  -5.218
REMARK INTRA:                  -0.099
REMARK UNBOUND:                 0.011
REMARK SMILES C[C@@H]1[C@@H](C)CC[C@@]2(C(=O)[O-])CC[C@@]3(C)C(=CC[C@H]4[C@]5(C)CC[C@H](O)C(C)(C)[C@H]5CC[C@@]43C)[C@@H]12
REMARK SMILES IDX 7 1 6 2 11 3 33 4 5 5 12 6 15 7 2 8 3 9 13 10 16 11 1 12
REMARK SMILES IDX 4 13 14 14 31 15 17 16 18 17 30 18 32 19 19 20 29 21 28 22
REMARK SMILES IDX 21 23 20 24 25 25 22 26 23 27 26 28 27 29 8 30 9 31 10 32
REMARK SMILES IDX 24 33
REMARK H PARENT 24 34
REMARK Flexibility Score: inf
ROOT
ATOM      1  C   UNL     1      13.081  21.915  46.847  1.00  0.00     0.017 C 
ATOM      2  C   UNL     1      12.622  22.497  45.475  1.00  0.00     0.014 C 
ATOM      3  C   UNL     1      11.875  21.142  47.477  1.00  0.00     0.014 C 
ATOM      4  C   UNL     1      14.367  21.013  46.663  1.00  0.00     0.030 C 
ATOM      5  C   UNL     1      13.815  22.975  44.645  1.00  0.00     0.004 C 
ATOM      6  C   UNL     1      11.899  19.618  47.253  1.00  0.00     0.013 C 
ATOM      7  C   UNL     1      14.380  19.847  47.672  1.00  0.00    -0.063 C 
ATOM      8  C   UNL     1      14.615  20.569  45.184  1.00  0.00    -0.003 C 
ATOM      9  C   UNL     1      14.728  21.799  44.223  1.00  0.00    -0.011 C 
ATOM     10  C   UNL     1      13.185  18.880  47.783  1.00  0.00    -0.006 C 
ATOM     11  C   UNL     1      15.477  19.704  48.448  1.00  0.00    -0.027 C 
ATOM     12  C   UNL     1      15.880  19.689  45.057  1.00  0.00     0.008 C 
ATOM     13  C   UNL     1      14.433  21.395  42.766  1.00  0.00     0.008 C 
ATOM     14  C   UNL     1      13.443  17.704  46.780  1.00  0.00     0.017 C 
ATOM     15  C   UNL     1      13.037  18.330  49.305  1.00  0.00    -0.020 C 
ATOM     16  C   UNL     1      15.568  18.829  49.664  1.00  0.00     0.032 C 
ATOM     17  C   UNL     1      14.442  17.774  49.790  1.00  0.00     0.006 C 
ATOM     18  C   UNL     1      11.981  17.172  49.404  1.00  0.00     0.008 C 
ATOM     19  C   UNL     1      12.545  19.480  50.226  1.00  0.00     0.012 C 
ATOM     20  C   UNL     1      14.472  16.947  51.157  1.00  0.00    -0.025 C 
ATOM     21  C   UNL     1      11.979  16.426  50.747  1.00  0.00     0.005 C 
ATOM     22  C   UNL     1      13.376  15.819  51.033  1.00  0.00     0.003 C 
ATOM     23  C   UNL     1      15.865  16.245  51.286  1.00  0.00     0.010 C 
ATOM     24  C   UNL     1      14.270  17.863  52.414  1.00  0.00     0.012 C 
ATOM     25  C   UNL     1      13.411  14.684  52.133  1.00  0.00    -0.006 C 
ATOM     26  C   UNL     1      15.932  15.174  52.388  1.00  0.00     0.033 C 
ATOM     27  C   UNL     1      14.856  14.092  52.213  1.00  0.00     0.120 C 
ATOM     28  C   UNL     1      12.452  13.526  51.737  1.00  0.00     0.014 C 
ATOM     29  C   UNL     1      12.954  15.169  53.532  1.00  0.00     0.014 C 
ENDROOT
BRANCH   1  30
ATOM     30  C   UNL     1      13.431  23.059  47.804  1.00  0.00     0.048 C 
ATOM     31  O   UNL     1      12.799  24.147  47.733  1.00  0.00    -0.550 OA
ATOM     32  O   UNL     1      14.457  22.942  48.736  1.00  0.00    -0.550 OA
ENDBRANCH   1  30
BRANCH  27  33
ATOM     33  O   UNL     1      15.142  13.350  51.050  1.00  0.00    -0.393 OA
ATOM     34  H   UNL     1      15.789  13.882  50.517  1.00  0.00     0.210 HD
ENDBRANCH  27  33
TORSDOF 2
ENDMDL
MODEL 7
REMARK VINA RESULT:    -4.767      2.659      4.952
REMARK INTER + INTRA:          -5.174
REMARK INTER:                  -5.149
REMARK INTRA:                  -0.025
REMARK UNBOUND:                 0.011
REMARK SMILES C[C@@H]1[C@@H](C)CC[C@@]2(C(=O)[O-])CC[C@@]3(C)C(=CC[C@H]4[C@]5(C)CC[C@H](O)C(C)(C)[C@H]5CC[C@@]43C)[C@@H]12
REMARK SMILES IDX 7 1 6 2 11 3 33 4 5 5 12 6 15 7 2 8 3 9 13 10 16 11 1 12
REMARK SMILES IDX 4 13 14 14 31 15 17 16 18 17 30 18 32 19 19 20 29 21 28 22
REMARK SMILES IDX 21 23 20 24 25 25 22 26 23 27 26 28 27 29 8 30 9 31 10 32
REMARK SMILES IDX 24 33
REMARK H PARENT 24 34
REMARK Flexibility Score: inf
ROOT
ATOM      1  C   UNL     1      16.440  25.924  52.698  1.00  0.00     0.017 C 
ATOM      2  C   UNL     1      16.046  27.430  52.608  1.00  0.00     0.014 C 
ATOM      3  C   UNL     1      15.760  25.317  53.969  1.00  0.00     0.014 C 
ATOM      4  C   UNL     1      16.049  25.169  51.365  1.00  0.00     0.030 C 
ATOM      5  C   UNL     1      16.386  28.015  51.236  1.00  0.00     0.004 C 
ATOM      6  C   UNL     1      14.444  24.563  53.698  1.00  0.00     0.013 C 
ATOM      7  C   UNL     1      15.648  23.707  51.648  1.00  0.00    -0.063 C 
ATOM      8  C   UNL     1      15.015  25.946  50.484  1.00  0.00    -0.003 C 
ATOM      9  C   UNL     1      15.532  27.375  50.113  1.00  0.00    -0.011 C 
ATOM     10  C   UNL     1      14.550  23.370  52.676  1.00  0.00    -0.006 C 
ATOM     11  C   UNL     1      16.291  22.738  50.960  1.00  0.00    -0.027 C 
ATOM     12  C   UNL     1      14.663  25.167  49.196  1.00  0.00     0.008 C 
ATOM     13  C   UNL     1      14.366  28.309  49.738  1.00  0.00     0.008 C 
ATOM     14  C   UNL     1      13.184  23.348  51.908  1.00  0.00     0.017 C 
ATOM     15  C   UNL     1      14.849  21.937  53.380  1.00  0.00    -0.020 C 
ATOM     16  C   UNL     1      16.253  21.274  51.289  1.00  0.00     0.032 C 
ATOM     17  C   UNL     1      15.115  20.854  52.251  1.00  0.00     0.006 C 
ATOM     18  C   UNL     1      13.639  21.457  54.257  1.00  0.00     0.008 C 
ATOM     19  C   UNL     1      16.076  22.070  54.324  1.00  0.00     0.012 C 
ATOM     20  C   UNL     1      15.173  19.322  52.702  1.00  0.00    -0.025 C 
ATOM     21  C   UNL     1      13.738  20.000  54.736  1.00  0.00     0.005 C 
ATOM     22  C   UNL     1      13.859  19.038  53.526  1.00  0.00     0.003 C 
ATOM     23  C   UNL     1      15.136  18.423  51.421  1.00  0.00     0.010 C 
ATOM     24  C   UNL     1      16.481  18.983  53.498  1.00  0.00     0.012 C 
ATOM     25  C   UNL     1      13.536  17.521  53.831  1.00  0.00    -0.006 C 
ATOM     26  C   UNL     1      14.875  16.933  51.705  1.00  0.00     0.033 C 
ATOM     27  C   UNL     1      13.577  16.709  52.495  1.00  0.00     0.120 C 
ATOM     28  C   UNL     1      12.102  17.385  54.416  1.00  0.00     0.014 C 
ATOM     29  C   UNL     1      14.493  16.886  54.871  1.00  0.00     0.014 C 
ENDROOT
BRANCH   1  30
ATOM     30  C   UNL     1      17.955  25.797  52.894  1.00  0.00     0.048 C 
ATOM     31  O   UNL     1      18.507  24.671  52.774  1.00  0.00    -0.550 OA
ATOM     32  O   UNL     1      18.741  26.893  53.236  1.00  0.00    -0.550 OA
ENDBRANCH   1  30
BRANCH  27  33
ATOM     33  O   UNL     1      12.483  17.060  51.680  1.00  0.00    -0.393 OA
ATOM     34  H   UNL     1      11.855  17.581  52.244  1.00  0.00     0.210 HD
ENDBRANCH  27  33
TORSDOF 2
ENDMDL
MODEL 8
REMARK VINA RESULT:    -4.762      3.997      9.639
REMARK INTER + INTRA:          -5.169
REMARK INTER:                  -4.965
REMARK INTRA:                  -0.204
REMARK UNBOUND:                 0.011
REMARK SMILES C[C@@H]1[C@@H](C)CC[C@@]2(C(=O)[O-])CC[C@@]3(C)C(=CC[C@H]4[C@]5(C)CC[C@H](O)C(C)(C)[C@H]5CC[C@@]43C)[C@@H]12
REMARK SMILES IDX 7 1 6 2 11 3 33 4 5 5 12 6 15 7 2 8 3 9 13 10 16 11 1 12
REMARK SMILES IDX 4 13 14 14 31 15 17 16 18 17 30 18 32 19 19 20 29 21 28 22
REMARK SMILES IDX 21 23 20 24 25 25 22 26 23 27 26 28 27 29 8 30 9 31 10 32
REMARK SMILES IDX 24 33
REMARK H PARENT 24 34
REMARK Flexibility Score: inf
ROOT
ATOM      1  C   UNL     1      13.573  20.345  46.401  1.00  0.00     0.017 C 
ATOM      2  C   UNL     1      12.728  19.137  45.895  1.00  0.00     0.014 C 
ATOM      3  C   UNL     1      12.776  21.657  46.101  1.00  0.00     0.014 C 
ATOM      4  C   UNL     1      13.927  20.171  47.932  1.00  0.00     0.030 C 
ATOM      5  C   UNL     1      13.266  17.812  46.440  1.00  0.00     0.004 C 
ATOM      6  C   UNL     1      11.972  22.210  47.295  1.00  0.00     0.013 C 
ATOM      7  C   UNL     1      13.997  21.535  48.648  1.00  0.00    -0.063 C 
ATOM      8  C   UNL     1      13.034  19.119  48.667  1.00  0.00    -0.003 C 
ATOM      9  C   UNL     1      13.107  17.717  47.977  1.00  0.00    -0.011 C 
ATOM     10  C   UNL     1      12.817  22.525  48.586  1.00  0.00    -0.006 C 
ATOM     11  C   UNL     1      15.125  21.826  49.332  1.00  0.00    -0.027 C 
ATOM     12  C   UNL     1      13.417  18.988  50.159  1.00  0.00     0.008 C 
ATOM     13  C   UNL     1      11.876  16.859  48.329  1.00  0.00     0.008 C 
ATOM     14  C   UNL     1      11.875  22.203  49.796  1.00  0.00     0.017 C 
ATOM     15  C   UNL     1      13.354  24.057  48.653  1.00  0.00    -0.020 C 
ATOM     16  C   UNL     1      15.499  23.186  49.845  1.00  0.00     0.032 C 
ATOM     17  C   UNL     1      14.335  24.205  49.892  1.00  0.00     0.006 C 
ATOM     18  C   UNL     1      12.174  25.079  48.824  1.00  0.00     0.008 C 
ATOM     19  C   UNL     1      14.077  24.411  47.324  1.00  0.00     0.012 C 
ATOM     20  C   UNL     1      14.776  25.684  50.305  1.00  0.00    -0.025 C 
ATOM     21  C   UNL     1      12.618  26.511  49.161  1.00  0.00     0.005 C 
ATOM     22  C   UNL     1      13.454  26.528  50.466  1.00  0.00     0.003 C 
ATOM     23  C   UNL     1      15.476  25.623  51.704  1.00  0.00     0.010 C 
ATOM     24  C   UNL     1      15.786  26.314  49.283  1.00  0.00     0.012 C 
ATOM     25  C   UNL     1      13.605  27.942  51.157  1.00  0.00    -0.006 C 
ATOM     26  C   UNL     1      15.678  26.997  52.368  1.00  0.00     0.033 C 
ATOM     27  C   UNL     1      14.360  27.771  52.515  1.00  0.00     0.120 C 
ATOM     28  C   UNL     1      12.202  28.535  51.473  1.00  0.00     0.014 C 
ATOM     29  C   UNL     1      14.330  28.986  50.270  1.00  0.00     0.014 C 
ENDROOT
BRANCH   1  30
ATOM     30  C   UNL     1      14.884  20.425  45.611  1.00  0.00     0.048 C 
ATOM     31  O   UNL     1      14.944  21.134  44.572  1.00  0.00    -0.550 OA
ATOM     32  O   UNL     1      16.011  19.706  45.995  1.00  0.00    -0.550 OA
ENDBRANCH   1  30
BRANCH  27  33
ATOM     33  O   UNL     1      13.541  27.101  53.445  1.00  0.00    -0.393 OA
ATOM     34  H   UNL     1      13.224  27.779  54.096  1.00  0.00     0.210 HD
ENDBRANCH  27  33
TORSDOF 2
ENDMDL
MODEL 9
REMARK VINA RESULT:    -4.730      2.606      4.000
REMARK INTER + INTRA:          -5.133
REMARK INTER:                  -5.149
REMARK INTRA:                   0.016
REMARK UNBOUND:                 0.011
REMARK SMILES C[C@@H]1[C@@H](C)CC[C@@]2(C(=O)[O-])CC[C@@]3(C)C(=CC[C@H]4[C@]5(C)CC[C@H](O)C(C)(C)[C@H]5CC[C@@]43C)[C@@H]12
REMARK SMILES IDX 7 1 6 2 11 3 33 4 5 5 12 6 15 7 2 8 3 9 13 10 16 11 1 12
REMARK SMILES IDX 4 13 14 14 31 15 17 16 18 17 30 18 32 19 19 20 29 21 28 22
REMARK SMILES IDX 21 23 20 24 25 25 22 26 23 27 26 28 27 29 8 30 9 31 10 32
REMARK SMILES IDX 24 33
REMARK H PARENT 24 34
REMARK Flexibility Score: inf
ROOT
ATOM      1  C   UNL     1      13.139  27.390  52.670  1.00  0.00     0.017 C 
ATOM      2  C   UNL     1      13.220  28.945  52.762  1.00  0.00     0.014 C 
ATOM      3  C   UNL     1      12.354  27.019  51.369  1.00  0.00     0.014 C 
ATOM      4  C   UNL     1      14.587  26.757  52.723  1.00  0.00     0.030 C 
ATOM      5  C   UNL     1      14.244  29.389  53.809  1.00  0.00     0.004 C 
ATOM      6  C   UNL     1      13.242  26.664  50.161  1.00  0.00     0.013 C 
ATOM      7  C   UNL     1      14.665  25.472  51.874  1.00  0.00    -0.063 C 
ATOM      8  C   UNL     1      15.731  27.780  52.424  1.00  0.00    -0.003 C 
ATOM      9  C   UNL     1      15.686  29.000  53.403  1.00  0.00    -0.011 C 
ATOM     10  C   UNL     1      14.247  25.473  50.391  1.00  0.00    -0.006 C 
ATOM     11  C   UNL     1      15.117  24.350  52.478  1.00  0.00    -0.027 C 
ATOM     12  C   UNL     1      17.124  27.112  52.485  1.00  0.00     0.008 C 
ATOM     13  C   UNL     1      16.415  30.219  52.807  1.00  0.00     0.008 C 
ATOM     14  C   UNL     1      15.520  25.826  49.549  1.00  0.00     0.017 C 
ATOM     15  C   UNL     1      13.646  24.025  49.967  1.00  0.00    -0.020 C 
ATOM     16  C   UNL     1      15.000  22.961  51.920  1.00  0.00     0.032 C 
ATOM     17  C   UNL     1      14.667  22.894  50.410  1.00  0.00     0.006 C 
ATOM     18  C   UNL     1      13.426  23.919  48.416  1.00  0.00     0.008 C 
ATOM     19  C   UNL     1      12.261  23.821  50.641  1.00  0.00     0.012 C 
ATOM     20  C   UNL     1      14.407  21.415  49.863  1.00  0.00    -0.025 C 
ATOM     21  C   UNL     1      13.116  22.501  47.912  1.00  0.00     0.005 C 
ATOM     22  C   UNL     1      14.258  21.526  48.298  1.00  0.00     0.003 C 
ATOM     23  C   UNL     1      15.673  20.544  50.161  1.00  0.00     0.010 C 
ATOM     24  C   UNL     1      13.173  20.733  50.550  1.00  0.00     0.012 C 
ATOM     25  C   UNL     1      14.290  20.166  47.492  1.00  0.00    -0.006 C 
ATOM     26  C   UNL     1      15.694  19.192  49.425  1.00  0.00     0.033 C 
ATOM     27  C   UNL     1      15.562  19.356  47.904  1.00  0.00     0.120 C 
ATOM     28  C   UNL     1      14.389  20.450  45.966  1.00  0.00     0.014 C 
ATOM     29  C   UNL     1      13.019  19.302  47.693  1.00  0.00     0.014 C 
ENDROOT
BRANCH   1  30
ATOM     30  C   UNL     1      12.333  26.844  53.853  1.00  0.00     0.048 C 
ATOM     31  O   UNL     1      12.024  25.623  53.887  1.00  0.00    -0.550 OA
ATOM     32  O   UNL     1      11.900  27.671  54.885  1.00  0.00    -0.550 OA
ENDBRANCH   1  30
BRANCH  27  33
ATOM     33  O   UNL     1      16.721  19.989  47.413  1.00  0.00    -0.393 OA
ATOM     34  H   UNL     1      16.579  20.145  46.443  1.00  0.00     0.210 HD
ENDBRANCH  27  33
TORSDOF 2
ENDMDL
