MODEL 1
REMARK VINA RESULT:    -6.946      0.000      0.000
REMARK INTER + INTRA:          -8.429
REMARK INTER:                  -8.164
REMARK INTRA:                  -0.265
REMARK UNBOUND:                -0.265
REMARK SMILES O=c1c(O)c(-c2ccc(O)c(O)c2)oc2cc(O)ccc12
REMARK SMILES IDX 5 1 3 2 2 3 1 4 21 5 15 6 14 7 16 8 17 9 19 10 20 11 6 12
REMARK SMILES IDX 7 13 8 14 9 15 13 16 11 17 10 18 12 20 4 22 18 24
REMARK H PARENT 10 19 12 21 4 23 18 25
REMARK Flexibility Score: inf
ROOT
ATOM      1  C   UNL     1     -24.183  -0.772  11.579  1.00  0.00     0.180 A 
ATOM      2  C   UNL     1     -24.618  -1.867  10.803  1.00  0.00     0.208 A 
ATOM      3  C   UNL     1     -25.564  -1.645   9.791  1.00  0.00     0.235 A 
ATOM      4  O   UNL     1     -25.959  -2.606   9.075  1.00  0.00    -0.285 OA
ATOM      5  C   UNL     1     -26.069  -0.351   9.589  1.00  0.00     0.069 A 
ATOM      6  C   UNL     1     -25.602   0.687  10.424  1.00  0.00     0.142 A 
ATOM      7  O   UNL     1     -24.699   0.437  11.365  1.00  0.00    -0.452 OA
ATOM      8  C   UNL     1     -26.089   1.989  10.261  1.00  0.00     0.094 A 
ATOM      9  C   UNL     1     -27.037   2.269   9.271  1.00  0.00     0.119 A 
ATOM     10  C   UNL     1     -27.501   1.241   8.439  1.00  0.00     0.047 A 
ATOM     11  C   UNL     1     -27.022  -0.062   8.595  1.00  0.00     0.020 A 
ENDROOT
BRANCH   1  12
ATOM     12  C   UNL     1     -23.175  -0.921  12.653  1.00  0.00     0.025 A 
ATOM     13  C   UNL     1     -21.821  -1.070  12.312  1.00  0.00     0.016 A 
ATOM     14  C   UNL     1     -20.855  -1.233  13.308  1.00  0.00     0.051 A 
ATOM     15  C   UNL     1     -21.226  -1.265  14.655  1.00  0.00     0.157 A 
ATOM     16  C   UNL     1     -23.549  -0.975  14.008  1.00  0.00     0.062 A 
ATOM     17  C   UNL     1     -22.580  -1.141  15.009  1.00  0.00     0.158 A 
BRANCH  15  18
ATOM     18  O   UNL     1     -20.239  -1.427  15.628  1.00  0.00    -0.504 OA
ATOM     19  H   UNL     1     -19.259  -1.259  15.434  1.00  0.00     0.293 HD
ENDBRANCH  15  18
BRANCH  17  20
ATOM     20  O   UNL     1     -22.959  -1.186  16.349  1.00  0.00    -0.504 OA
ATOM     21  H   UNL     1     -23.915  -1.009  16.638  1.00  0.00     0.293 HD
ENDBRANCH  17  20
ENDBRANCH   1  12
BRANCH   2  22
ATOM     22  O   UNL     1     -24.134  -3.152  11.059  1.00  0.00    -0.502 OA
ATOM     23  H   UNL     1     -24.709  -3.875  11.474  1.00  0.00     0.293 HD
ENDBRANCH   2  22
BRANCH   9  24
ATOM     24  O   UNL     1     -27.509   3.571   9.122  1.00  0.00    -0.508 OA
ATOM     25  H   UNL     1     -28.198   3.959   9.754  1.00  0.00     0.293 HD
ENDBRANCH   9  24
TORSDOF 5
ENDMDL
MODEL 2
REMARK VINA RESULT:    -6.774      2.150      3.118
REMARK INTER + INTRA:          -8.227
REMARK INTER:                  -7.910
REMARK INTRA:                  -0.317
REMARK UNBOUND:                -0.265
REMARK SMILES O=c1c(O)c(-c2ccc(O)c(O)c2)oc2cc(O)ccc12
REMARK SMILES IDX 5 1 3 2 2 3 1 4 21 5 15 6 14 7 16 8 17 9 19 10 20 11 6 12
REMARK SMILES IDX 7 13 8 14 9 15 13 16 11 17 10 18 12 20 4 22 18 24
REMARK H PARENT 10 19 12 21 4 23 18 25
REMARK Flexibility Score: inf
ROOT
ATOM      1  C   UNL     1     -23.015  -1.592  14.308  1.00  0.00     0.180 A 
ATOM      2  C   UNL     1     -23.375  -2.650  13.447  1.00  0.00     0.208 A 
ATOM      3  C   UNL     1     -24.129  -2.360  12.299  1.00  0.00     0.235 A 
ATOM      4  O   UNL     1     -24.453  -3.287  11.507  1.00  0.00    -0.285 OA
ATOM      5  C   UNL     1     -24.522  -1.036  12.047  1.00  0.00     0.069 A 
ATOM      6  C   UNL     1     -24.142  -0.039  12.970  1.00  0.00     0.142 A 
ATOM      7  O   UNL     1     -23.421  -0.353  14.041  1.00  0.00    -0.452 OA
ATOM      8  C   UNL     1     -24.524   1.292  12.760  1.00  0.00     0.094 A 
ATOM      9  C   UNL     1     -25.280   1.639  11.636  1.00  0.00     0.119 A 
ATOM     10  C   UNL     1     -25.657   0.651  10.716  1.00  0.00     0.047 A 
ATOM     11  C   UNL     1     -25.282  -0.680  10.918  1.00  0.00     0.020 A 
ENDROOT
BRANCH   1  12
ATOM     12  C   UNL     1     -22.206  -1.813  15.528  1.00  0.00     0.025 A 
ATOM     13  C   UNL     1     -20.805  -1.798  15.440  1.00  0.00     0.016 A 
ATOM     14  C   UNL     1     -20.022  -2.025  16.574  1.00  0.00     0.051 A 
ATOM     15  C   UNL     1     -20.623  -2.286  17.809  1.00  0.00     0.157 A 
ATOM     16  C   UNL     1     -22.809  -2.097  16.767  1.00  0.00     0.062 A 
ATOM     17  C   UNL     1     -22.025  -2.328  17.907  1.00  0.00     0.158 A 
BRANCH  15  18
ATOM     18  O   UNL     1     -19.816  -2.507  18.924  1.00  0.00    -0.504 OA
ATOM     19  H   UNL     1     -19.934  -3.316  19.522  1.00  0.00     0.293 HD
ENDBRANCH  15  18
BRANCH  17  20
ATOM     20  O   UNL     1     -22.632  -2.601  19.130  1.00  0.00    -0.504 OA
ATOM     21  H   UNL     1     -22.392  -3.424  19.671  1.00  0.00     0.293 HD
ENDBRANCH  17  20
ENDBRANCH   1  12
BRANCH   2  22
ATOM     22  O   UNL     1     -23.011  -3.964  13.749  1.00  0.00    -0.502 OA
ATOM     23  H   UNL     1     -22.537  -4.561  13.083  1.00  0.00     0.293 HD
ENDBRANCH   2  22
BRANCH   9  24
ATOM     24  O   UNL     1     -25.650   2.968  11.441  1.00  0.00    -0.508 OA
ATOM     25  H   UNL     1     -26.558   3.215  11.067  1.00  0.00     0.293 HD
ENDBRANCH   9  24
TORSDOF 5
ENDMDL
MODEL 3
REMARK VINA RESULT:    -6.658      1.200      2.771
REMARK INTER + INTRA:          -8.090
REMARK INTER:                  -7.929
REMARK INTRA:                  -0.161
REMARK UNBOUND:                -0.265
REMARK SMILES O=c1c(O)c(-c2ccc(O)c(O)c2)oc2cc(O)ccc12
REMARK SMILES IDX 5 1 3 2 2 3 1 4 21 5 15 6 14 7 16 8 17 9 19 10 20 11 6 12
REMARK SMILES IDX 7 13 8 14 9 15 13 16 11 17 10 18 12 20 4 22 18 24
REMARK H PARENT 10 19 12 21 4 23 18 25
REMARK Flexibility Score: inf
ROOT
ATOM      1  C   UNL     1     -24.128  -0.052  11.893  1.00  0.00     0.180 A 
ATOM      2  C   UNL     1     -24.787   1.190  12.003  1.00  0.00     0.208 A 
ATOM      3  C   UNL     1     -25.752   1.531  11.042  1.00  0.00     0.235 A 
ATOM      4  O   UNL     1     -26.364   2.631  11.126  1.00  0.00    -0.285 OA
ATOM      5  C   UNL     1     -26.021   0.643   9.989  1.00  0.00     0.069 A 
ATOM      6  C   UNL     1     -25.301  -0.569   9.936  1.00  0.00     0.142 A 
ATOM      7  O   UNL     1     -24.402  -0.859  10.870  1.00  0.00    -0.452 OA
ATOM      8  C   UNL     1     -25.532  -1.477   8.895  1.00  0.00     0.094 A 
ATOM      9  C   UNL     1     -26.479  -1.188   7.906  1.00  0.00     0.119 A 
ATOM     10  C   UNL     1     -27.197   0.014   7.958  1.00  0.00     0.047 A 
ATOM     11  C   UNL     1     -26.971   0.927   8.991  1.00  0.00     0.020 A 
ENDROOT
BRANCH   1  12
ATOM     12  C   UNL     1     -23.112  -0.492  12.876  1.00  0.00     0.025 A 
ATOM     13  C   UNL     1     -21.807  -0.772  12.442  1.00  0.00     0.016 A 
ATOM     14  C   UNL     1     -20.837  -1.209  13.348  1.00  0.00     0.051 A 
ATOM     15  C   UNL     1     -21.159  -1.387  14.697  1.00  0.00     0.157 A 
ATOM     16  C   UNL     1     -23.439  -0.691  14.229  1.00  0.00     0.062 A 
ATOM     17  C   UNL     1     -22.468  -1.132  15.141  1.00  0.00     0.158 A 
BRANCH  15  18
ATOM     18  O   UNL     1     -20.171  -1.821  15.580  1.00  0.00    -0.504 OA
ATOM     19  H   UNL     1     -19.324  -2.275  15.259  1.00  0.00     0.293 HD
ENDBRANCH  15  18
BRANCH  17  20
ATOM     20  O   UNL     1     -22.800  -1.320  16.481  1.00  0.00    -0.504 OA
ATOM     21  H   UNL     1     -22.256  -1.926  17.084  1.00  0.00     0.293 HD
ENDBRANCH  17  20
ENDBRANCH   1  12
BRANCH   2  22
ATOM     22  O   UNL     1     -24.463   2.075  13.035  1.00  0.00    -0.502 OA
ATOM     23  H   UNL     1     -25.086   2.819  13.326  1.00  0.00     0.293 HD
ENDBRANCH   2  22
BRANCH   9  24
ATOM     24  O   UNL     1     -26.698  -2.103   6.879  1.00  0.00    -0.508 OA
ATOM     25  H   UNL     1     -26.277  -1.985   5.966  1.00  0.00     0.293 HD
ENDBRANCH   9  24
TORSDOF 5
ENDMDL
MODEL 4
REMARK VINA RESULT:    -6.566      3.017      6.731
REMARK INTER + INTRA:          -7.982
REMARK INTER:                  -7.668
REMARK INTRA:                  -0.314
REMARK UNBOUND:                -0.265
REMARK SMILES O=c1c(O)c(-c2ccc(O)c(O)c2)oc2cc(O)ccc12
REMARK SMILES IDX 5 1 3 2 2 3 1 4 21 5 15 6 14 7 16 8 17 9 19 10 20 11 6 12
REMARK SMILES IDX 7 13 8 14 9 15 13 16 11 17 10 18 12 20 4 22 18 24
REMARK H PARENT 10 19 12 21 4 23 18 25
REMARK Flexibility Score: inf
ROOT
ATOM      1  C   UNL     1     -25.411  -1.884   8.587  1.00  0.00     0.180 A 
ATOM      2  C   UNL     1     -24.819  -2.729   9.549  1.00  0.00     0.208 A 
ATOM      3  C   UNL     1     -24.585  -2.225  10.838  1.00  0.00     0.235 A 
ATOM      4  O   UNL     1     -24.067  -2.965  11.720  1.00  0.00    -0.285 OA
ATOM      5  C   UNL     1     -24.922  -0.894  11.131  1.00  0.00     0.069 A 
ATOM      6  C   UNL     1     -25.488  -0.107  10.106  1.00  0.00     0.142 A 
ATOM      7  O   UNL     1     -25.703  -0.623   8.902  1.00  0.00    -0.452 OA
ATOM      8  C   UNL     1     -25.829   1.228  10.356  1.00  0.00     0.094 A 
ATOM      9  C   UNL     1     -25.613   1.786  11.621  1.00  0.00     0.119 A 
ATOM     10  C   UNL     1     -25.054   1.005  12.641  1.00  0.00     0.047 A 
ATOM     11  C   UNL     1     -24.708  -0.327  12.401  1.00  0.00     0.020 A 
ENDROOT
BRANCH   1  12
ATOM     12  C   UNL     1     -25.708  -2.346   7.212  1.00  0.00     0.025 A 
ATOM     13  C   UNL     1     -24.718  -2.244   6.221  1.00  0.00     0.016 A 
ATOM     14  C   UNL     1     -24.982  -2.655   4.912  1.00  0.00     0.051 A 
ATOM     15  C   UNL     1     -26.241  -3.158   4.569  1.00  0.00     0.157 A 
ATOM     16  C   UNL     1     -26.979  -2.832   6.860  1.00  0.00     0.062 A 
ATOM     17  C   UNL     1     -27.248  -3.243   5.546  1.00  0.00     0.158 A 
BRANCH  15  18
ATOM     18  O   UNL     1     -26.475  -3.562   3.255  1.00  0.00    -0.504 OA
ATOM     19  H   UNL     1     -26.674  -4.526   3.016  1.00  0.00     0.293 HD
ENDBRANCH  15  18
BRANCH  17  20
ATOM     20  O   UNL     1     -28.509  -3.730   5.208  1.00  0.00    -0.504 OA
ATOM     21  H   UNL     1     -28.756  -4.704   5.342  1.00  0.00     0.293 HD
ENDBRANCH  17  20
ENDBRANCH   1  12
BRANCH   2  22
ATOM     22  O   UNL     1     -24.449  -4.033   9.214  1.00  0.00    -0.502 OA
ATOM     23  H   UNL     1     -25.054  -4.828   9.382  1.00  0.00     0.293 HD
ENDBRANCH   2  22
BRANCH   9  24
ATOM     24  O   UNL     1     -25.960   3.115  11.853  1.00  0.00    -0.508 OA
ATOM     25  H   UNL     1     -25.588   3.629  12.642  1.00  0.00     0.293 HD
ENDBRANCH   9  24
TORSDOF 5
ENDMDL
MODEL 5
REMARK VINA RESULT:    -6.552      2.715      6.992
REMARK INTER + INTRA:          -7.967
REMARK INTER:                  -7.743
REMARK INTRA:                  -0.224
REMARK UNBOUND:                -0.265
REMARK SMILES O=c1c(O)c(-c2ccc(O)c(O)c2)oc2cc(O)ccc12
REMARK SMILES IDX 5 1 3 2 2 3 1 4 21 5 15 6 14 7 16 8 17 9 19 10 20 11 6 12
REMARK SMILES IDX 7 13 8 14 9 15 13 16 11 17 10 18 12 20 4 22 18 24
REMARK H PARENT 10 19 12 21 4 23 18 25
REMARK Flexibility Score: inf
ROOT
ATOM      1  C   UNL     1     -26.199  -0.365   8.546  1.00  0.00     0.180 A 
ATOM      2  C   UNL     1     -26.936   0.838   8.529  1.00  0.00     0.208 A 
ATOM      3  C   UNL     1     -26.775   1.745   9.589  1.00  0.00     0.235 A 
ATOM      4  O   UNL     1     -27.414   2.832   9.591  1.00  0.00    -0.285 OA
ATOM      5  C   UNL     1     -25.906   1.425  10.644  1.00  0.00     0.069 A 
ATOM      6  C   UNL     1     -25.223   0.191  10.598  1.00  0.00     0.142 A 
ATOM      7  O   UNL     1     -25.397  -0.636   9.573  1.00  0.00    -0.452 OA
ATOM      8  C   UNL     1     -24.356  -0.168  11.637  1.00  0.00     0.094 A 
ATOM      9  C   UNL     1     -24.159   0.693  12.721  1.00  0.00     0.119 A 
ATOM     10  C   UNL     1     -24.834   1.920  12.768  1.00  0.00     0.047 A 
ATOM     11  C   UNL     1     -25.703   2.287  11.738  1.00  0.00     0.020 A 
ENDROOT
BRANCH   1  12
ATOM     12  C   UNL     1     -26.300  -1.362   7.457  1.00  0.00     0.025 A 
ATOM     13  C   UNL     1     -25.244  -1.493   6.540  1.00  0.00     0.016 A 
ATOM     14  C   UNL     1     -25.326  -2.413   5.492  1.00  0.00     0.051 A 
ATOM     15  C   UNL     1     -26.468  -3.204   5.334  1.00  0.00     0.157 A 
ATOM     16  C   UNL     1     -27.456  -2.144   7.283  1.00  0.00     0.062 A 
ATOM     17  C   UNL     1     -27.542  -3.067   6.230  1.00  0.00     0.158 A 
BRANCH  15  18
ATOM     18  O   UNL     1     -26.521  -4.116   4.280  1.00  0.00    -0.504 OA
ATOM     19  H   UNL     1     -25.786  -4.794   4.116  1.00  0.00     0.293 HD
ENDBRANCH  15  18
BRANCH  17  20
ATOM     20  O   UNL     1     -28.688  -3.842   6.071  1.00  0.00    -0.504 OA
ATOM     21  H   UNL     1     -29.470  -3.775   6.713  1.00  0.00     0.293 HD
ENDBRANCH  17  20
ENDBRANCH   1  12
BRANCH   2  22
ATOM     22  O   UNL     1     -27.830   1.106   7.490  1.00  0.00    -0.502 OA
ATOM     23  H   UNL     1     -28.454   0.401   7.117  1.00  0.00     0.293 HD
ENDBRANCH   2  22
BRANCH   9  24
ATOM     24  O   UNL     1     -23.291   0.320  13.745  1.00  0.00    -0.508 OA
ATOM     25  H   UNL     1     -23.077   0.947  14.511  1.00  0.00     0.293 HD
ENDBRANCH   9  24
TORSDOF 5
ENDMDL
MODEL 6
REMARK VINA RESULT:    -6.426      2.092      3.369
REMARK INTER + INTRA:          -7.818
REMARK INTER:                  -7.507
REMARK INTRA:                  -0.311
REMARK UNBOUND:                -0.265
REMARK SMILES O=c1c(O)c(-c2ccc(O)c(O)c2)oc2cc(O)ccc12
REMARK SMILES IDX 5 1 3 2 2 3 1 4 21 5 15 6 14 7 16 8 17 9 19 10 20 11 6 12
REMARK SMILES IDX 7 13 8 14 9 15 13 16 11 17 10 18 12 20 4 22 18 24
REMARK H PARENT 10 19 12 21 4 23 18 25
REMARK Flexibility Score: inf
ROOT
ATOM      1  C   UNL     1     -24.229  -1.130  10.324  1.00  0.00     0.180 A 
ATOM      2  C   UNL     1     -25.296  -0.213  10.433  1.00  0.00     0.208 A 
ATOM      3  C   UNL     1     -26.203  -0.102   9.367  1.00  0.00     0.235 A 
ATOM      4  O   UNL     1     -27.171   0.703   9.445  1.00  0.00    -0.285 OA
ATOM      5  C   UNL     1     -26.016  -0.885   8.217  1.00  0.00     0.069 A 
ATOM      6  C   UNL     1     -24.911  -1.761   8.177  1.00  0.00     0.142 A 
ATOM      7  O   UNL     1     -24.080  -1.844   9.210  1.00  0.00    -0.452 OA
ATOM      8  C   UNL     1     -24.685  -2.551   7.043  1.00  0.00     0.094 A 
ATOM      9  C   UNL     1     -25.553  -2.479   5.949  1.00  0.00     0.119 A 
ATOM     10  C   UNL     1     -26.653  -1.612   5.987  1.00  0.00     0.047 A 
ATOM     11  C   UNL     1     -26.886  -0.818   7.113  1.00  0.00     0.020 A 
ENDROOT
BRANCH   1  12
ATOM     12  C   UNL     1     -23.242  -1.319  11.411  1.00  0.00     0.025 A 
ATOM     13  C   UNL     1     -21.982  -0.706  11.314  1.00  0.00     0.016 A 
ATOM     14  C   UNL     1     -21.027  -0.888  12.317  1.00  0.00     0.051 A 
ATOM     15  C   UNL     1     -21.309  -1.694  13.424  1.00  0.00     0.157 A 
ATOM     16  C   UNL     1     -23.515  -2.147  12.514  1.00  0.00     0.062 A 
ATOM     17  C   UNL     1     -22.557  -2.332  13.522  1.00  0.00     0.158 A 
BRANCH  15  18
ATOM     18  O   UNL     1     -20.338  -1.855  14.411  1.00  0.00    -0.504 OA
ATOM     19  H   UNL     1     -19.595  -2.539  14.330  1.00  0.00     0.293 HD
ENDBRANCH  15  18
BRANCH  17  20
ATOM     20  O   UNL     1     -22.840  -3.149  14.615  1.00  0.00    -0.504 OA
ATOM     21  H   UNL     1     -23.278  -2.784  15.453  1.00  0.00     0.293 HD
ENDBRANCH  17  20
ENDBRANCH   1  12
BRANCH   2  22
ATOM     22  O   UNL     1     -25.427   0.588  11.569  1.00  0.00    -0.502 OA
ATOM     23  H   UNL     1     -25.493   0.199  12.502  1.00  0.00     0.293 HD
ENDBRANCH   2  22
BRANCH   9  24
ATOM     24  O   UNL     1     -25.315  -3.274   4.830  1.00  0.00    -0.508 OA
ATOM     25  H   UNL     1     -25.938  -3.264   4.032  1.00  0.00     0.293 HD
ENDBRANCH   9  24
TORSDOF 5
ENDMDL
MODEL 7
REMARK VINA RESULT:    -6.418      3.186      5.052
REMARK INTER + INTRA:          -7.809
REMARK INTER:                  -7.496
REMARK INTRA:                  -0.313
REMARK UNBOUND:                -0.265
REMARK SMILES O=c1c(O)c(-c2ccc(O)c(O)c2)oc2cc(O)ccc12
REMARK SMILES IDX 5 1 3 2 2 3 1 4 21 5 15 6 14 7 16 8 17 9 19 10 20 11 6 12
REMARK SMILES IDX 7 13 8 14 9 15 13 16 11 17 10 18 12 20 4 22 18 24
REMARK H PARENT 10 19 12 21 4 23 18 25
REMARK Flexibility Score: inf
ROOT
ATOM      1  C   UNL     1     -25.965  -1.442   8.686  1.00  0.00     0.180 A 
ATOM      2  C   UNL     1     -27.073  -2.309   8.796  1.00  0.00     0.208 A 
ATOM      3  C   UNL     1     -27.486  -3.025   7.661  1.00  0.00     0.235 A 
ATOM      4  O   UNL     1     -28.466  -3.815   7.737  1.00  0.00    -0.285 OA
ATOM      5  C   UNL     1     -26.804  -2.847   6.447  1.00  0.00     0.069 A 
ATOM      6  C   UNL     1     -25.721  -1.944   6.414  1.00  0.00     0.142 A 
ATOM      7  O   UNL     1     -25.356  -1.291   7.512  1.00  0.00    -0.452 OA
ATOM      8  C   UNL     1     -25.022  -1.731   5.219  1.00  0.00     0.094 A 
ATOM      9  C   UNL     1     -25.392  -2.413   4.055  1.00  0.00     0.119 A 
ATOM     10  C   UNL     1     -26.466  -3.313   4.086  1.00  0.00     0.047 A 
ATOM     11  C   UNL     1     -27.171  -3.530   5.272  1.00  0.00     0.020 A 
ENDROOT
BRANCH   1  12
ATOM     12  C   UNL     1     -25.457  -0.667   9.841  1.00  0.00     0.025 A 
ATOM     13  C   UNL     1     -24.546  -1.265  10.726  1.00  0.00     0.016 A 
ATOM     14  C   UNL     1     -24.070  -0.559  11.834  1.00  0.00     0.051 A 
ATOM     15  C   UNL     1     -24.506   0.745  12.083  1.00  0.00     0.157 A 
ATOM     16  C   UNL     1     -25.911   0.637  10.105  1.00  0.00     0.062 A 
ATOM     17  C   UNL     1     -25.436   1.347  11.218  1.00  0.00     0.158 A 
BRANCH  15  18
ATOM     18  O   UNL     1     -24.012   1.426  13.196  1.00  0.00    -0.504 OA
ATOM     19  H   UNL     1     -23.815   0.956  14.071  1.00  0.00     0.293 HD
ENDBRANCH  15  18
BRANCH  17  20
ATOM     20  O   UNL     1     -25.887   2.641  11.467  1.00  0.00    -0.504 OA
ATOM     21  H   UNL     1     -25.293   3.449  11.317  1.00  0.00     0.293 HD
ENDBRANCH  17  20
ENDBRANCH   1  12
BRANCH   2  22
ATOM     22  O   UNL     1     -27.761  -2.428  10.005  1.00  0.00    -0.502 OA
ATOM     23  H   UNL     1     -28.772  -2.401  10.058  1.00  0.00     0.293 HD
ENDBRANCH   2  22
BRANCH   9  24
ATOM     24  O   UNL     1     -24.685  -2.191   2.876  1.00  0.00    -0.508 OA
ATOM     25  H   UNL     1     -24.962  -2.623   2.003  1.00  0.00     0.293 HD
ENDBRANCH   9  24
TORSDOF 5
ENDMDL
MODEL 8
REMARK VINA RESULT:    -6.403      2.617      6.975
REMARK INTER + INTRA:          -7.790
REMARK INTER:                  -7.562
REMARK INTRA:                  -0.229
REMARK UNBOUND:                -0.265
REMARK SMILES O=c1c(O)c(-c2ccc(O)c(O)c2)oc2cc(O)ccc12
REMARK SMILES IDX 5 1 3 2 2 3 1 4 21 5 15 6 14 7 16 8 17 9 19 10 20 11 6 12
REMARK SMILES IDX 7 13 8 14 9 15 13 16 11 17 10 18 12 20 4 22 18 24
REMARK H PARENT 10 19 12 21 4 23 18 25
REMARK Flexibility Score: inf
ROOT
ATOM      1  C   UNL     1     -23.653  -1.077  13.126  1.00  0.00     0.180 A 
ATOM      2  C   UNL     1     -22.255  -1.045  13.313  1.00  0.00     0.208 A 
ATOM      3  C   UNL     1     -21.643  -2.096  14.013  1.00  0.00     0.235 A 
ATOM      4  O   UNL     1     -20.393  -2.096  14.183  1.00  0.00    -0.285 OA
ATOM      5  C   UNL     1     -22.433  -3.138  14.525  1.00  0.00     0.069 A 
ATOM      6  C   UNL     1     -23.827  -3.084  14.315  1.00  0.00     0.142 A 
ATOM      7  O   UNL     1     -24.368  -2.076  13.640  1.00  0.00    -0.452 OA
ATOM      8  C   UNL     1     -24.650  -4.098  14.819  1.00  0.00     0.094 A 
ATOM      9  C   UNL     1     -24.096  -5.169  15.529  1.00  0.00     0.119 A 
ATOM     10  C   UNL     1     -22.711  -5.226  15.736  1.00  0.00     0.047 A 
ATOM     11  C   UNL     1     -21.882  -4.218  15.239  1.00  0.00     0.020 A 
ENDROOT
BRANCH   1  12
ATOM     12  C   UNL     1     -24.371  -0.016  12.384  1.00  0.00     0.025 A 
ATOM     13  C   UNL     1     -24.558   1.240  12.983  1.00  0.00     0.016 A 
ATOM     14  C   UNL     1     -25.250   2.250  12.310  1.00  0.00     0.051 A 
ATOM     15  C   UNL     1     -25.779   2.017  11.037  1.00  0.00     0.157 A 
ATOM     16  C   UNL     1     -24.921  -0.254  11.112  1.00  0.00     0.062 A 
ATOM     17  C   UNL     1     -25.619   0.758  10.435  1.00  0.00     0.158 A 
BRANCH  15  18
ATOM     18  O   UNL     1     -26.463   3.045  10.388  1.00  0.00    -0.504 OA
ATOM     19  H   UNL     1     -26.167   4.011  10.448  1.00  0.00     0.293 HD
ENDBRANCH  15  18
BRANCH  17  20
ATOM     20  O   UNL     1     -26.155   0.514   9.172  1.00  0.00    -0.504 OA
ATOM     21  H   UNL     1     -26.522   1.263   8.597  1.00  0.00     0.293 HD
ENDBRANCH  17  20
ENDBRANCH   1  12
BRANCH   2  22
ATOM     22  O   UNL     1     -21.502   0.030  12.835  1.00  0.00    -0.502 OA
ATOM     23  H   UNL     1     -20.700  -0.099  12.229  1.00  0.00     0.293 HD
ENDBRANCH   2  22
BRANCH   9  24
ATOM     24  O   UNL     1     -24.930  -6.170  16.021  1.00  0.00    -0.508 OA
ATOM     25  H   UNL     1     -25.937  -6.112  15.932  1.00  0.00     0.293 HD
ENDBRANCH   9  24
TORSDOF 5
ENDMDL
MODEL 9
REMARK VINA RESULT:    -6.333      1.905      6.707
REMARK INTER + INTRA:          -7.709
REMARK INTER:                  -7.659
REMARK INTRA:                  -0.050
REMARK UNBOUND:                -0.265
REMARK SMILES O=c1c(O)c(-c2ccc(O)c(O)c2)oc2cc(O)ccc12
REMARK SMILES IDX 5 1 3 2 2 3 1 4 21 5 15 6 14 7 16 8 17 9 19 10 20 11 6 12
REMARK SMILES IDX 7 13 8 14 9 15 13 16 11 17 10 18 12 20 4 22 18 24
REMARK H PARENT 10 19 12 21 4 23 18 25
REMARK Flexibility Score: inf
ROOT
ATOM      1  C   UNL     1     -24.860  -0.917  12.234  1.00  0.00     0.180 A 
ATOM      2  C   UNL     1     -25.605  -2.063  12.586  1.00  0.00     0.208 A 
ATOM      3  C   UNL     1     -24.993  -3.050  13.375  1.00  0.00     0.235 A 
ATOM      4  O   UNL     1     -25.642  -4.078  13.713  1.00  0.00    -0.285 OA
ATOM      5  C   UNL     1     -23.658  -2.886  13.775  1.00  0.00     0.069 A 
ATOM      6  C   UNL     1     -22.974  -1.723  13.361  1.00  0.00     0.142 A 
ATOM      7  O   UNL     1     -23.591  -0.807  12.622  1.00  0.00    -0.452 OA
ATOM      8  C   UNL     1     -21.638  -1.527  13.730  1.00  0.00     0.094 A 
ATOM      9  C   UNL     1     -20.976  -2.480  14.512  1.00  0.00     0.119 A 
ATOM     10  C   UNL     1     -21.653  -3.635  14.926  1.00  0.00     0.047 A 
ATOM     11  C   UNL     1     -22.986  -3.840  14.561  1.00  0.00     0.020 A 
ENDROOT
BRANCH   1  12
ATOM     12  C   UNL     1     -25.438   0.176  11.421  1.00  0.00     0.025 A 
ATOM     13  C   UNL     1     -25.471   1.480  11.941  1.00  0.00     0.016 A 
ATOM     14  C   UNL     1     -26.032   2.524  11.200  1.00  0.00     0.051 A 
ATOM     15  C   UNL     1     -26.580   2.279   9.937  1.00  0.00     0.157 A 
ATOM     16  C   UNL     1     -26.010  -0.071  10.160  1.00  0.00     0.062 A 
ATOM     17  C   UNL     1     -26.575   0.975   9.415  1.00  0.00     0.158 A 
BRANCH  15  18
ATOM     18  O   UNL     1     -27.131   3.341   9.219  1.00  0.00    -0.504 OA
ATOM     19  H   UNL     1     -27.298   3.287   8.222  1.00  0.00     0.293 HD
ENDBRANCH  15  18
BRANCH  17  20
ATOM     20  O   UNL     1     -27.132   0.721   8.164  1.00  0.00    -0.504 OA
ATOM     21  H   UNL     1     -27.565  -0.169   7.944  1.00  0.00     0.293 HD
ENDBRANCH  17  20
ENDBRANCH   1  12
BRANCH   2  22
ATOM     22  O   UNL     1     -26.916  -2.221  12.132  1.00  0.00    -0.502 OA
ATOM     23  H   UNL     1     -27.509  -1.432  11.905  1.00  0.00     0.293 HD
ENDBRANCH   2  22
BRANCH   9  24
ATOM     24  O   UNL     1     -19.647  -2.268  14.872  1.00  0.00    -0.508 OA
ATOM     25  H   UNL     1     -19.359  -2.245  15.842  1.00  0.00     0.293 HD
ENDBRANCH   9  24
TORSDOF 5
ENDMDL
