MODEL 1
REMARK VINA RESULT:    -3.853      0.000      0.000
REMARK INTER + INTRA:          -4.358
REMARK INTER:                  -4.529
REMARK INTRA:                   0.171
REMARK UNBOUND:                 0.171
REMARK SMILES O=c1c(O)c(-c2ccc(O)cc2)oc2cc(O)cc(O)c12
REMARK SMILES IDX 5 1 3 2 2 3 1 4 21 5 19 6 18 7 16 8 15 9 14 10 13 11 6 12
REMARK SMILES IDX 7 13 8 14 9 15 12 16 11 17 10 18 4 20 20 22 17 24
REMARK H PARENT 10 19 4 21 20 23 17 25
REMARK Flexibility Score: inf
ROOT
ATOM      1  C   UNL     1       0.803  21.059  19.745  1.00  0.00     0.180 A 
ATOM      2  C   UNL     1       1.435  22.078  19.012  1.00  0.00     0.208 A 
ATOM      3  C   UNL     1       1.604  23.339  19.605  1.00  0.00     0.238 A 
ATOM      4  O   UNL     1       2.122  24.263  18.925  1.00  0.00    -0.285 OA
ATOM      5  C   UNL     1       1.154  23.561  20.929  1.00  0.00     0.111 A 
ATOM      6  C   UNL     1       1.310  24.786  21.644  1.00  0.00     0.134 A 
ATOM      7  C   UNL     1       0.711  24.934  22.901  1.00  0.00     0.093 A 
ATOM      8  C   UNL     1       0.017  23.878  23.496  1.00  0.00     0.123 A 
ATOM      9  C   UNL     1      -0.089  22.658  22.832  1.00  0.00     0.094 A 
ATOM     10  C   UNL     1       0.467  22.492  21.562  1.00  0.00     0.146 A 
ATOM     11  O   UNL     1       0.333  21.316  20.959  1.00  0.00    -0.452 OA
ENDROOT
BRANCH   1  12
ATOM     12  C   UNL     1       0.610  19.697  19.195  1.00  0.00     0.021 A 
ATOM     13  C   UNL     1       0.225  19.494  17.857  1.00  0.00     0.016 A 
ATOM     14  C   UNL     1       0.074  18.198  17.354  1.00  0.00     0.047 A 
ATOM     15  C   UNL     1       0.318  17.091  18.173  1.00  0.00     0.115 A 
ATOM     16  C   UNL     1       0.874  18.581  20.006  1.00  0.00     0.016 A 
ATOM     17  C   UNL     1       0.722  17.286  19.500  1.00  0.00     0.047 A 
BRANCH  15  18
ATOM     18  O   UNL     1       0.163  15.806  17.659  1.00  0.00    -0.508 OA
ATOM     19  H   UNL     1       0.955  15.191  17.522  1.00  0.00     0.293 HD
ENDBRANCH  15  18
ENDBRANCH   1  12
BRANCH   2  20
ATOM     20  O   UNL     1       1.851  21.845  17.698  1.00  0.00    -0.502 OA
ATOM     21  H   UNL     1       2.334  20.997  17.422  1.00  0.00     0.293 HD
ENDBRANCH   2  20
BRANCH   6  22
ATOM     22  O   UNL     1       2.060  25.870  21.179  1.00  0.00    -0.507 OA
ATOM     23  H   UNL     1       1.895  26.833  21.429  1.00  0.00     0.293 HD
ENDBRANCH   6  22
BRANCH   8  24
ATOM     24  O   UNL     1      -0.563  24.029  24.754  1.00  0.00    -0.508 OA
ATOM     25  H   UNL     1      -0.344  23.400  25.518  1.00  0.00     0.293 HD
ENDBRANCH   8  24
TORSDOF 5
ENDMDL
MODEL 2
REMARK VINA RESULT:    -3.835      1.550      6.741
REMARK INTER + INTRA:          -4.336
REMARK INTER:                  -4.110
REMARK INTRA:                  -0.226
REMARK UNBOUND:                 0.171
REMARK SMILES O=c1c(O)c(-c2ccc(O)cc2)oc2cc(O)cc(O)c12
REMARK SMILES IDX 5 1 3 2 2 3 1 4 21 5 19 6 18 7 16 8 15 9 14 10 13 11 6 12
REMARK SMILES IDX 7 13 8 14 9 15 12 16 11 17 10 18 4 20 20 22 17 24
REMARK H PARENT 10 19 4 21 20 23 17 25
REMARK Flexibility Score: inf
ROOT
ATOM      1  C   UNL     1       0.735  20.837  20.285  1.00  0.00     0.180 A 
ATOM      2  C   UNL     1       0.324  20.913  18.943  1.00  0.00     0.208 A 
ATOM      3  C   UNL     1       0.226  19.730  18.193  1.00  0.00     0.238 A 
ATOM      4  O   UNL     1      -0.091  19.809  16.978  1.00  0.00    -0.285 OA
ATOM      5  C   UNL     1       0.524  18.485  18.798  1.00  0.00     0.111 A 
ATOM      6  C   UNL     1       0.419  17.220  18.145  1.00  0.00     0.134 A 
ATOM      7  C   UNL     1       0.865  16.065  18.800  1.00  0.00     0.093 A 
ATOM      8  C   UNL     1       1.350  16.122  20.109  1.00  0.00     0.123 A 
ATOM      9  C   UNL     1       1.400  17.343  20.776  1.00  0.00     0.094 A 
ATOM     10  C   UNL     1       0.997  18.518  20.136  1.00  0.00     0.146 A 
ATOM     11  O   UNL     1       1.071  19.663  20.805  1.00  0.00    -0.452 OA
ENDROOT
BRANCH   1  12
ATOM     12  C   UNL     1       0.839  22.037  21.146  1.00  0.00     0.021 A 
ATOM     13  C   UNL     1      -0.108  22.302  22.153  1.00  0.00     0.016 A 
ATOM     14  C   UNL     1       0.025  23.430  22.970  1.00  0.00     0.047 A 
ATOM     15  C   UNL     1       1.109  24.297  22.803  1.00  0.00     0.115 A 
ATOM     16  C   UNL     1       1.936  22.902  20.997  1.00  0.00     0.016 A 
ATOM     17  C   UNL     1       2.066  24.029  21.816  1.00  0.00     0.047 A 
BRANCH  15  18
ATOM     18  O   UNL     1       1.227  25.416  23.623  1.00  0.00    -0.508 OA
ATOM     19  H   UNL     1       2.113  25.894  23.742  1.00  0.00     0.293 HD
ENDBRANCH  15  18
ENDBRANCH   1  12
BRANCH   2  20
ATOM     20  O   UNL     1       0.056  22.154  18.359  1.00  0.00    -0.502 OA
ATOM     21  H   UNL     1      -0.078  22.996  18.907  1.00  0.00     0.293 HD
ENDBRANCH   2  20
BRANCH   6  22
ATOM     22  O   UNL     1      -0.136  17.042  16.875  1.00  0.00    -0.507 OA
ATOM     23  H   UNL     1       0.271  16.479  16.143  1.00  0.00     0.293 HD
ENDBRANCH   6  22
BRANCH   8  24
ATOM     24  O   UNL     1       1.777  14.966  20.759  1.00  0.00    -0.508 OA
ATOM     25  H   UNL     1       1.544  14.785  21.728  1.00  0.00     0.293 HD
ENDBRANCH   8  24
TORSDOF 5
ENDMDL
MODEL 3
REMARK VINA RESULT:    -3.389      1.966      2.712
REMARK INTER + INTRA:          -3.812
REMARK INTER:                  -3.718
REMARK INTRA:                  -0.094
REMARK UNBOUND:                 0.171
REMARK SMILES O=c1c(O)c(-c2ccc(O)cc2)oc2cc(O)cc(O)c12
REMARK SMILES IDX 5 1 3 2 2 3 1 4 21 5 19 6 18 7 16 8 15 9 14 10 13 11 6 12
REMARK SMILES IDX 7 13 8 14 9 15 12 16 11 17 10 18 4 20 20 22 17 24
REMARK H PARENT 10 19 4 21 20 23 17 25
REMARK Flexibility Score: inf
ROOT
ATOM      1  C   UNL     1       0.937  19.973  19.077  1.00  0.00     0.180 A 
ATOM      2  C   UNL     1       0.229  20.471  17.969  1.00  0.00     0.208 A 
ATOM      3  C   UNL     1       0.053  21.858  17.840  1.00  0.00     0.238 A 
ATOM      4  O   UNL     1      -0.627  22.294  16.875  1.00  0.00    -0.285 OA
ATOM      5  C   UNL     1       0.602  22.731  18.810  1.00  0.00     0.111 A 
ATOM      6  C   UNL     1       0.521  24.155  18.757  1.00  0.00     0.134 A 
ATOM      7  C   UNL     1       0.987  24.914  19.838  1.00  0.00     0.093 A 
ATOM      8  C   UNL     1       1.590  24.303  20.940  1.00  0.00     0.123 A 
ATOM      9  C   UNL     1       1.728  22.917  20.973  1.00  0.00     0.094 A 
ATOM     10  C   UNL     1       1.241  22.131  19.926  1.00  0.00     0.146 A 
ATOM     11  O   UNL     1       1.383  20.813  20.003  1.00  0.00    -0.452 OA
ENDROOT
BRANCH   1  12
ATOM     12  C   UNL     1       1.183  18.526  19.269  1.00  0.00     0.021 A 
ATOM     13  C   UNL     1       1.872  17.765  18.305  1.00  0.00     0.016 A 
ATOM     14  C   UNL     1       2.113  16.404  18.520  1.00  0.00     0.047 A 
ATOM     15  C   UNL     1       1.687  15.791  19.701  1.00  0.00     0.115 A 
ATOM     16  C   UNL     1       0.775  17.907  20.462  1.00  0.00     0.016 A 
ATOM     17  C   UNL     1       1.019  16.546  20.674  1.00  0.00     0.047 A 
BRANCH  15  18
ATOM     18  O   UNL     1       1.934  14.435  19.902  1.00  0.00    -0.508 OA
ATOM     19  H   UNL     1       2.869  14.087  20.073  1.00  0.00     0.293 HD
ENDBRANCH  15  18
ENDBRANCH   1  12
BRANCH   2  20
ATOM     20  O   UNL     1      -0.324  19.590  17.035  1.00  0.00    -0.502 OA
ATOM     21  H   UNL     1      -0.677  18.675  17.292  1.00  0.00     0.293 HD
ENDBRANCH   2  20
BRANCH   6  22
ATOM     22  O   UNL     1       0.021  24.867  17.664  1.00  0.00    -0.507 OA
ATOM     23  H   UNL     1       0.568  25.154  16.865  1.00  0.00     0.293 HD
ENDBRANCH   6  22
BRANCH   8  24
ATOM     24  O   UNL     1       2.065  25.066  22.004  1.00  0.00    -0.508 OA
ATOM     25  H   UNL     1       2.364  24.638  22.872  1.00  0.00     0.293 HD
ENDBRANCH   8  24
TORSDOF 5
ENDMDL
MODEL 4
REMARK VINA RESULT:    -3.347      1.479      1.630
REMARK INTER + INTRA:          -3.763
REMARK INTER:                  -4.143
REMARK INTRA:                   0.380
REMARK UNBOUND:                 0.171
REMARK SMILES O=c1c(O)c(-c2ccc(O)cc2)oc2cc(O)cc(O)c12
REMARK SMILES IDX 5 1 3 2 2 3 1 4 21 5 19 6 18 7 16 8 15 9 14 10 13 11 6 12
REMARK SMILES IDX 7 13 8 14 9 15 12 16 11 17 10 18 4 20 20 22 17 24
REMARK H PARENT 10 19 4 21 20 23 17 25
REMARK Flexibility Score: inf
ROOT
ATOM      1  C   UNL     1       0.653  21.017  19.060  1.00  0.00     0.180 A 
ATOM      2  C   UNL     1       0.218  21.932  18.087  1.00  0.00     0.208 A 
ATOM      3  C   UNL     1       0.283  23.307  18.367  1.00  0.00     0.238 A 
ATOM      4  O   UNL     1      -0.158  24.120  17.513  1.00  0.00    -0.285 OA
ATOM      5  C   UNL     1       0.797  23.748  19.610  1.00  0.00     0.111 A 
ATOM      6  C   UNL     1       0.948  25.117  19.984  1.00  0.00     0.134 A 
ATOM      7  C   UNL     1       1.345  25.438  21.288  1.00  0.00     0.093 A 
ATOM      8  C   UNL     1       1.661  24.437  22.210  1.00  0.00     0.123 A 
ATOM      9  C   UNL     1       1.575  23.098  21.836  1.00  0.00     0.094 A 
ATOM     10  C   UNL     1       1.147  22.748  20.553  1.00  0.00     0.146 A 
ATOM     11  O   UNL     1       1.068  21.459  20.240  1.00  0.00    -0.452 OA
ENDROOT
BRANCH   1  12
ATOM     12  C   UNL     1       0.637  19.554  18.829  1.00  0.00     0.021 A 
ATOM     13  C   UNL     1       0.604  19.018  17.528  1.00  0.00     0.016 A 
ATOM     14  C   UNL     1       0.615  17.633  17.333  1.00  0.00     0.047 A 
ATOM     15  C   UNL     1       0.674  16.768  18.430  1.00  0.00     0.115 A 
ATOM     16  C   UNL     1       0.716  18.679  19.925  1.00  0.00     0.016 A 
ATOM     17  C   UNL     1       0.727  17.294  19.727  1.00  0.00     0.047 A 
BRANCH  15  18
ATOM     18  O   UNL     1       0.683  15.391  18.221  1.00  0.00    -0.508 OA
ATOM     19  H   UNL     1      -0.163  14.838  18.298  1.00  0.00     0.293 HD
ENDBRANCH  15  18
ENDBRANCH   1  12
BRANCH   2  20
ATOM     20  O   UNL     1      -0.308  21.474  16.875  1.00  0.00    -0.502 OA
ATOM     21  H   UNL     1      -0.736  20.560  16.779  1.00  0.00     0.293 HD
ENDBRANCH   2  20
BRANCH   6  22
ATOM     22  O   UNL     1       0.747  26.191  19.112  1.00  0.00    -0.507 OA
ATOM     23  H   UNL     1       1.087  27.128  19.265  1.00  0.00     0.293 HD
ENDBRANCH   6  22
BRANCH   8  24
ATOM     24  O   UNL     1       2.071  24.764  23.501  1.00  0.00    -0.508 OA
ATOM     25  H   UNL     1       1.708  25.578  23.982  1.00  0.00     0.293 HD
ENDBRANCH   8  24
TORSDOF 5
ENDMDL
MODEL 5
REMARK VINA RESULT:    -2.869      4.284      8.049
REMARK INTER + INTRA:          -3.201
REMARK INTER:                  -2.958
REMARK INTRA:                  -0.243
REMARK UNBOUND:                 0.171
REMARK SMILES O=c1c(O)c(-c2ccc(O)cc2)oc2cc(O)cc(O)c12
REMARK SMILES IDX 5 1 3 2 2 3 1 4 21 5 19 6 18 7 16 8 15 9 14 10 13 11 6 12
REMARK SMILES IDX 7 13 8 14 9 15 12 16 11 17 10 18 4 20 20 22 17 24
REMARK H PARENT 10 19 4 21 20 23 17 25
REMARK Flexibility Score: inf
ROOT
ATOM      1  C   UNL     1       0.786  26.173  22.445  1.00  0.00     0.180 A 
ATOM      2  C   UNL     1       1.200  24.860  22.163  1.00  0.00     0.208 A 
ATOM      3  C   UNL     1       1.252  24.434  20.826  1.00  0.00     0.238 A 
ATOM      4  O   UNL     1       1.571  23.241  20.582  1.00  0.00    -0.285 OA
ATOM      5  C   UNL     1       0.905  25.332  19.787  1.00  0.00     0.111 A 
ATOM      6  C   UNL     1       0.961  25.021  18.395  1.00  0.00     0.134 A 
ATOM      7  C   UNL     1       0.471  25.942  17.461  1.00  0.00     0.093 A 
ATOM      8  C   UNL     1      -0.012  27.189  17.865  1.00  0.00     0.123 A 
ATOM      9  C   UNL     1      -0.014  27.525  19.217  1.00  0.00     0.094 A 
ATOM     10  C   UNL     1       0.434  26.613  20.175  1.00  0.00     0.146 A 
ATOM     11  O   UNL     1       0.405  26.969  21.454  1.00  0.00    -0.452 OA
ENDROOT
BRANCH   1  12
ATOM     12  C   UNL     1       0.729  26.701  23.827  1.00  0.00     0.021 A 
ATOM     13  C   UNL     1      -0.489  26.800  24.525  1.00  0.00     0.016 A 
ATOM     14  C   UNL     1      -0.515  27.279  25.839  1.00  0.00     0.047 A 
ATOM     15  C   UNL     1       0.673  27.649  26.477  1.00  0.00     0.115 A 
ATOM     16  C   UNL     1       1.921  27.055  24.482  1.00  0.00     0.016 A 
ATOM     17  C   UNL     1       1.892  27.534  25.796  1.00  0.00     0.047 A 
BRANCH  15  18
ATOM     18  O   UNL     1       0.632  28.125  27.785  1.00  0.00    -0.508 OA
ATOM     19  H   UNL     1       0.714  27.501  28.578  1.00  0.00     0.293 HD
ENDBRANCH  15  18
ENDBRANCH   1  12
BRANCH   2  20
ATOM     20  O   UNL     1       1.516  23.983  23.205  1.00  0.00    -0.502 OA
ATOM     21  H   UNL     1       1.146  23.041  23.254  1.00  0.00     0.293 HD
ENDBRANCH   2  20
BRANCH   6  22
ATOM     22  O   UNL     1       1.509  23.843  17.880  1.00  0.00    -0.507 OA
ATOM     23  H   UNL     1       0.972  23.054  17.554  1.00  0.00     0.293 HD
ENDBRANCH   6  22
BRANCH   8  24
ATOM     24  O   UNL     1      -0.483  28.107  16.929  1.00  0.00    -0.508 OA
ATOM     25  H   UNL     1      -0.395  27.941  15.933  1.00  0.00     0.293 HD
ENDBRANCH   8  24
TORSDOF 5
ENDMDL
MODEL 6
REMARK VINA RESULT:    -2.846      1.490      2.113
REMARK INTER + INTRA:          -3.175
REMARK INTER:                  -3.139
REMARK INTRA:                  -0.035
REMARK UNBOUND:                 0.171
REMARK SMILES O=c1c(O)c(-c2ccc(O)cc2)oc2cc(O)cc(O)c12
REMARK SMILES IDX 5 1 3 2 2 3 1 4 21 5 19 6 18 7 16 8 15 9 14 10 13 11 6 12
REMARK SMILES IDX 7 13 8 14 9 15 12 16 11 17 10 18 4 20 20 22 17 24
REMARK H PARENT 10 19 4 21 20 23 17 25
REMARK Flexibility Score: inf
ROOT
ATOM      1  C   UNL     1       1.199  22.790  19.634  1.00  0.00     0.180 A 
ATOM      2  C   UNL     1       1.367  23.886  18.770  1.00  0.00     0.208 A 
ATOM      3  C   UNL     1       1.356  25.184  19.306  1.00  0.00     0.238 A 
ATOM      4  O   UNL     1       1.453  26.163  18.522  1.00  0.00    -0.285 OA
ATOM      5  C   UNL     1       1.195  25.368  20.700  1.00  0.00     0.111 A 
ATOM      6  C   UNL     1       1.210  26.635  21.358  1.00  0.00     0.134 A 
ATOM      7  C   UNL     1       0.911  26.709  22.724  1.00  0.00     0.093 A 
ATOM      8  C   UNL     1       0.662  25.554  23.469  1.00  0.00     0.123 A 
ATOM      9  C   UNL     1       0.704  24.308  22.849  1.00  0.00     0.094 A 
ATOM     10  C   UNL     1       0.964  24.205  21.481  1.00  0.00     0.146 A 
ATOM     11  O   UNL     1       0.985  22.998  20.927  1.00  0.00    -0.452 OA
ENDROOT
BRANCH   1  12
ATOM     12  C   UNL     1       1.223  21.392  19.146  1.00  0.00     0.021 A 
ATOM     13  C   UNL     1       2.125  20.447  19.671  1.00  0.00     0.016 A 
ATOM     14  C   UNL     1       2.112  19.126  19.211  1.00  0.00     0.047 A 
ATOM     15  C   UNL     1       1.192  18.728  18.237  1.00  0.00     0.115 A 
ATOM     16  C   UNL     1       0.289  20.980  18.181  1.00  0.00     0.016 A 
ATOM     17  C   UNL     1       0.278  19.658  17.724  1.00  0.00     0.047 A 
BRANCH  15  18
ATOM     18  O   UNL     1       1.192  17.410  17.788  1.00  0.00    -0.508 OA
ATOM     19  H   UNL     1       1.602  17.153  16.898  1.00  0.00     0.293 HD
ENDBRANCH  15  18
ENDBRANCH   1  12
BRANCH   2  20
ATOM     20  O   UNL     1       1.502  23.682  17.394  1.00  0.00    -0.502 OA
ATOM     21  H   UNL     1       0.937  24.176  16.712  1.00  0.00     0.293 HD
ENDBRANCH   2  20
BRANCH   6  22
ATOM     22  O   UNL     1       1.537  27.838  20.725  1.00  0.00    -0.507 OA
ATOM     23  H   UNL     1       2.076  28.580  21.144  1.00  0.00     0.293 HD
ENDBRANCH   6  22
BRANCH   8  24
ATOM     24  O   UNL     1       0.380  25.635  24.831  1.00  0.00    -0.508 OA
ATOM     25  H   UNL     1       1.057  25.997  25.492  1.00  0.00     0.293 HD
ENDBRANCH   8  24
TORSDOF 5
ENDMDL
MODEL 7
REMARK VINA RESULT:    -2.644      2.497      3.873
REMARK INTER + INTRA:          -2.937
REMARK INTER:                  -3.001
REMARK INTRA:                   0.065
REMARK UNBOUND:                 0.171
REMARK SMILES O=c1c(O)c(-c2ccc(O)cc2)oc2cc(O)cc(O)c12
REMARK SMILES IDX 5 1 3 2 2 3 1 4 21 5 19 6 18 7 16 8 15 9 14 10 13 11 6 12
REMARK SMILES IDX 7 13 8 14 9 15 12 16 11 17 10 18 4 20 20 22 17 24
REMARK H PARENT 10 19 4 21 20 23 17 25
REMARK Flexibility Score: inf
ROOT
ATOM      1  C   UNL     1       0.906  23.005  19.304  1.00  0.00     0.180 A 
ATOM      2  C   UNL     1       1.450  23.494  20.504  1.00  0.00     0.208 A 
ATOM      3  C   UNL     1       1.338  24.863  20.795  1.00  0.00     0.238 A 
ATOM      4  O   UNL     1       1.874  25.304  21.845  1.00  0.00    -0.285 OA
ATOM      5  C   UNL     1       0.671  25.723  19.890  1.00  0.00     0.111 A 
ATOM      6  C   UNL     1       0.463  27.119  20.102  1.00  0.00     0.134 A 
ATOM      7  C   UNL     1      -0.096  27.898  19.080  1.00  0.00     0.093 A 
ATOM      8  C   UNL     1      -0.514  27.318  17.880  1.00  0.00     0.123 A 
ATOM      9  C   UNL     1      -0.371  25.946  17.688  1.00  0.00     0.094 A 
ATOM     10  C   UNL     1       0.216  25.149  18.674  1.00  0.00     0.146 A 
ATOM     11  O   UNL     1       0.344  23.847  18.446  1.00  0.00    -0.452 OA
ENDROOT
BRANCH   1  12
ATOM     12  C   UNL     1       0.963  21.571  18.940  1.00  0.00     0.021 A 
ATOM     13  C   UNL     1       0.641  20.565  19.870  1.00  0.00     0.016 A 
ATOM     14  C   UNL     1       0.678  19.218  19.496  1.00  0.00     0.047 A 
ATOM     15  C   UNL     1       1.022  18.859  18.189  1.00  0.00     0.115 A 
ATOM     16  C   UNL     1       1.288  21.204  17.623  1.00  0.00     0.016 A 
ATOM     17  C   UNL     1       1.324  19.855  17.252  1.00  0.00     0.047 A 
BRANCH  15  18
ATOM     18  O   UNL     1       1.056  17.514  17.831  1.00  0.00    -0.508 OA
ATOM     19  H   UNL     1       0.244  16.917  17.936  1.00  0.00     0.293 HD
ENDBRANCH  15  18
ENDBRANCH   1  12
BRANCH   2  20
ATOM     20  O   UNL     1       2.125  22.632  21.373  1.00  0.00    -0.502 OA
ATOM     21  H   UNL     1       2.314  22.870  22.339  1.00  0.00     0.293 HD
ENDBRANCH   2  20
BRANCH   6  22
ATOM     22  O   UNL     1       0.760  27.779  21.297  1.00  0.00    -0.507 OA
ATOM     23  H   UNL     1       0.122  27.883  22.071  1.00  0.00     0.293 HD
ENDBRANCH   6  22
BRANCH   8  24
ATOM     24  O   UNL     1      -1.083  28.097  16.875  1.00  0.00    -0.508 OA
ATOM     25  H   UNL     1      -2.062  28.015  16.631  1.00  0.00     0.293 HD
ENDBRANCH   8  24
TORSDOF 5
ENDMDL
