MODEL 1
REMARK VINA RESULT:    -5.035      0.000      0.000
REMARK INTER + INTRA:          -5.529
REMARK INTER:                  -5.329
REMARK INTRA:                  -0.200
REMARK UNBOUND:                -0.200
REMARK SMILES CC1=CC[C@H](C(C)C)C=C1
REMARK SMILES IDX 1 1 2 2 3 3 4 4 5 5 9 6 10 7 6 8 7 9 8 10
REMARK H PARENT
REMARK Flexibility Score: inf
ROOT
ATOM      1  C   UNL     1       9.417  10.038  29.931  1.00  0.00     0.044 C 
ATOM      2  C   UNL     1       9.473   8.547  29.781  1.00  0.00    -0.055 C 
ATOM      3  C   UNL     1       9.255   7.750  30.839  1.00  0.00    -0.023 C 
ATOM      4  C   UNL     1       9.446   6.259  30.733  1.00  0.00     0.035 C 
ATOM      5  C   UNL     1       9.075   5.742  29.318  1.00  0.00     0.018 C 
ATOM      6  C   UNL     1       9.730   6.634  28.276  1.00  0.00    -0.023 C 
ATOM      7  C   UNL     1       9.854   7.949  28.484  1.00  0.00    -0.001 C 
ENDROOT
BRANCH   5   8
ATOM      8  C   UNL     1       9.447   4.242  29.099  1.00  0.00    -0.010 C 
ATOM      9  C   UNL     1      10.543   3.791  30.083  1.00  0.00     0.008 C 
ATOM     10  C   UNL     1       9.932   3.957  27.665  1.00  0.00     0.008 C 
ENDBRANCH   5   8
TORSDOF 1
ENDMDL
MODEL 2
REMARK VINA RESULT:    -4.655      0.446      1.598
REMARK INTER + INTRA:          -5.127
REMARK INTER:                  -5.007
REMARK INTRA:                  -0.120
REMARK UNBOUND:                -0.200
REMARK SMILES CC1=CC[C@H](C(C)C)C=C1
REMARK SMILES IDX 1 1 2 2 3 3 4 4 5 5 9 6 10 7 6 8 7 9 8 10
REMARK H PARENT
REMARK Flexibility Score: inf
ROOT
ATOM      1  C   UNL     1       9.481  10.124  30.394  1.00  0.00     0.044 C 
ATOM      2  C   UNL     1       9.424   8.679  30.000  1.00  0.00    -0.055 C 
ATOM      3  C   UNL     1       9.391   8.329  28.704  1.00  0.00    -0.023 C 
ATOM      4  C   UNL     1       9.192   6.891  28.299  1.00  0.00     0.035 C 
ATOM      5  C   UNL     1       9.847   5.922  29.319  1.00  0.00     0.018 C 
ATOM      6  C   UNL     1       9.452   6.341  30.725  1.00  0.00    -0.023 C 
ATOM      7  C   UNL     1       9.316   7.634  31.040  1.00  0.00    -0.001 C 
ENDROOT
BRANCH   5   8
ATOM      8  C   UNL     1       9.495   4.425  29.051  1.00  0.00    -0.010 C 
ATOM      9  C   UNL     1      10.242   3.494  30.025  1.00  0.00     0.008 C 
ATOM     10  C   UNL     1       9.825   3.990  27.610  1.00  0.00     0.008 C 
ENDBRANCH   5   8
TORSDOF 1
ENDMDL
MODEL 3
REMARK VINA RESULT:    -4.591     14.989     15.850
REMARK INTER + INTRA:          -5.059
REMARK INTER:                  -4.860
REMARK INTRA:                  -0.199
REMARK UNBOUND:                -0.200
REMARK SMILES CC1=CC[C@H](C(C)C)C=C1
REMARK SMILES IDX 1 1 2 2 3 3 4 4 5 5 9 6 10 7 6 8 7 9 8 10
REMARK H PARENT
REMARK Flexibility Score: inf
ROOT
ATOM      1  C   UNL     1       2.651   8.306  15.656  1.00  0.00     0.044 C 
ATOM      2  C   UNL     1       4.034   8.061  15.129  1.00  0.00    -0.055 C 
ATOM      3  C   UNL     1       5.055   8.840  15.518  1.00  0.00    -0.023 C 
ATOM      4  C   UNL     1       6.417   8.694  14.890  1.00  0.00     0.035 C 
ATOM      5  C   UNL     1       6.706   7.218  14.507  1.00  0.00     0.018 C 
ATOM      6  C   UNL     1       5.504   6.653  13.770  1.00  0.00    -0.023 C 
ATOM      7  C   UNL     1       4.262   7.013  14.113  1.00  0.00    -0.001 C 
ENDROOT
BRANCH   5   8
ATOM      8  C   UNL     1       8.016   7.050  13.673  1.00  0.00    -0.010 C 
ATOM      9  C   UNL     1       8.337   8.328  12.876  1.00  0.00     0.008 C 
ATOM     10  C   UNL     1       7.940   5.867  12.689  1.00  0.00     0.008 C 
ENDBRANCH   5   8
TORSDOF 1
ENDMDL
MODEL 4
REMARK VINA RESULT:    -4.546      2.354      3.825
REMARK INTER + INTRA:          -5.012
REMARK INTER:                  -4.812
REMARK INTRA:                  -0.200
REMARK UNBOUND:                -0.200
REMARK SMILES CC1=CC[C@H](C(C)C)C=C1
REMARK SMILES IDX 1 1 2 2 3 3 4 4 5 5 9 6 10 7 6 8 7 9 8 10
REMARK H PARENT
REMARK Flexibility Score: inf
ROOT
ATOM      1  C   UNL     1      13.674   7.095  25.692  1.00  0.00     0.044 C 
ATOM      2  C   UNL     1      12.504   6.909  26.611  1.00  0.00    -0.055 C 
ATOM      3  C   UNL     1      11.574   7.870  26.729  1.00  0.00    -0.023 C 
ATOM      4  C   UNL     1      10.473   7.755  27.751  1.00  0.00     0.035 C 
ATOM      5  C   UNL     1      10.051   6.277  27.962  1.00  0.00     0.018 C 
ATOM      6  C   UNL     1      11.298   5.427  28.140  1.00  0.00    -0.023 C 
ATOM      7  C   UNL     1      12.415   5.700  27.457  1.00  0.00    -0.001 C 
ENDROOT
BRANCH   5   8
ATOM      8  C   UNL     1       9.059   6.090  29.153  1.00  0.00    -0.010 C 
ATOM      9  C   UNL     1       8.991   7.357  30.026  1.00  0.00     0.008 C 
ATOM     10  C   UNL     1       9.436   4.898  30.053  1.00  0.00     0.008 C 
ENDBRANCH   5   8
TORSDOF 1
ENDMDL
MODEL 5
REMARK VINA RESULT:    -4.319     14.450     16.065
REMARK INTER + INTRA:          -4.771
REMARK INTER:                  -4.613
REMARK INTRA:                  -0.158
REMARK UNBOUND:                -0.200
REMARK SMILES CC1=CC[C@H](C(C)C)C=C1
REMARK SMILES IDX 1 1 2 2 3 3 4 4 5 5 9 6 10 7 6 8 7 9 8 10
REMARK H PARENT
REMARK Flexibility Score: inf
ROOT
ATOM      1  C   UNL     1       6.759   5.554  10.892  1.00  0.00     0.044 C 
ATOM      2  C   UNL     1       6.716   6.256  12.217  1.00  0.00    -0.055 C 
ATOM      3  C   UNL     1       5.571   6.319  12.914  1.00  0.00    -0.023 C 
ATOM      4  C   UNL     1       5.481   7.139  14.175  1.00  0.00     0.035 C 
ATOM      5  C   UNL     1       6.827   7.137  14.946  1.00  0.00     0.018 C 
ATOM      6  C   UNL     1       7.957   7.425  13.972  1.00  0.00    -0.023 C 
ATOM      7  C   UNL     1       7.916   6.956  12.720  1.00  0.00    -0.001 C 
ENDROOT
BRANCH   5   8
ATOM      8  C   UNL     1       6.843   8.134  16.148  1.00  0.00    -0.010 C 
ATOM      9  C   UNL     1       6.236   7.493  17.410  1.00  0.00     0.008 C 
ATOM     10  C   UNL     1       6.079   9.436  15.845  1.00  0.00     0.008 C 
ENDBRANCH   5   8
TORSDOF 1
ENDMDL
MODEL 6
REMARK VINA RESULT:    -4.238     14.488     16.046
REMARK INTER + INTRA:          -4.686
REMARK INTER:                  -4.501
REMARK INTRA:                  -0.185
REMARK UNBOUND:                -0.200
REMARK SMILES CC1=CC[C@H](C(C)C)C=C1
REMARK SMILES IDX 1 1 2 2 3 3 4 4 5 5 9 6 10 7 6 8 7 9 8 10
REMARK H PARENT
REMARK Flexibility Score: inf
ROOT
ATOM      1  C   UNL     1       7.535   6.012  11.529  1.00  0.00     0.044 C 
ATOM      2  C   UNL     1       6.725   6.274  12.763  1.00  0.00    -0.055 C 
ATOM      3  C   UNL     1       7.324   6.363  13.961  1.00  0.00    -0.023 C 
ATOM      4  C   UNL     1       6.509   6.485  15.222  1.00  0.00     0.035 C 
ATOM      5  C   UNL     1       5.206   7.291  14.976  1.00  0.00     0.018 C 
ATOM      6  C   UNL     1       4.528   6.765  13.722  1.00  0.00    -0.023 C 
ATOM      7  C   UNL     1       5.252   6.351  12.677  1.00  0.00    -0.001 C 
ENDROOT
BRANCH   5   8
ATOM      8  C   UNL     1       4.235   7.271  16.199  1.00  0.00    -0.010 C 
ATOM      9  C   UNL     1       3.790   5.835  16.533  1.00  0.00     0.008 C 
ATOM     10  C   UNL     1       2.979   8.131  15.969  1.00  0.00     0.008 C 
ENDBRANCH   5   8
TORSDOF 1
ENDMDL
MODEL 7
REMARK VINA RESULT:    -4.227      2.736      3.828
REMARK INTER + INTRA:          -4.674
REMARK INTER:                  -4.531
REMARK INTRA:                  -0.143
REMARK UNBOUND:                -0.200
REMARK SMILES CC1=CC[C@H](C(C)C)C=C1
REMARK SMILES IDX 1 1 2 2 3 3 4 4 5 5 9 6 10 7 6 8 7 9 8 10
REMARK H PARENT
REMARK Flexibility Score: inf
ROOT
ATOM      1  C   UNL     1      14.007   7.971  25.512  1.00  0.00     0.044 C 
ATOM      2  C   UNL     1      12.873   7.262  26.189  1.00  0.00    -0.055 C 
ATOM      3  C   UNL     1      13.051   6.038  26.709  1.00  0.00    -0.023 C 
ATOM      4  C   UNL     1      11.887   5.260  27.265  1.00  0.00     0.035 C 
ATOM      5  C   UNL     1      10.837   6.202  27.912  1.00  0.00     0.018 C 
ATOM      6  C   UNL     1      10.553   7.354  26.963  1.00  0.00    -0.023 C 
ATOM      7  C   UNL     1      11.528   7.875  26.210  1.00  0.00    -0.001 C 
ENDROOT
BRANCH   5   8
ATOM      8  C   UNL     1       9.523   5.463  28.320  1.00  0.00    -0.010 C 
ATOM      9  C   UNL     1       9.428   5.298  29.848  1.00  0.00     0.008 C 
ATOM     10  C   UNL     1       9.403   4.071  27.670  1.00  0.00     0.008 C 
ENDBRANCH   5   8
TORSDOF 1
ENDMDL
MODEL 8
REMARK VINA RESULT:    -4.221      2.095      4.107
REMARK INTER + INTRA:          -4.668
REMARK INTER:                  -4.522
REMARK INTRA:                  -0.146
REMARK UNBOUND:                -0.200
REMARK SMILES CC1=CC[C@H](C(C)C)C=C1
REMARK SMILES IDX 1 1 2 2 3 3 4 4 5 5 9 6 10 7 6 8 7 9 8 10
REMARK H PARENT
REMARK Flexibility Score: inf
ROOT
ATOM      1  C   UNL     1       9.807   4.562  30.789  1.00  0.00     0.044 C 
ATOM      2  C   UNL     1       9.984   5.370  29.539  1.00  0.00    -0.055 C 
ATOM      3  C   UNL     1       9.043   6.248  29.158  1.00  0.00    -0.023 C 
ATOM      4  C   UNL     1       9.144   6.960  27.835  1.00  0.00     0.035 C 
ATOM      5  C   UNL     1      10.623   7.239  27.455  1.00  0.00     0.018 C 
ATOM      6  C   UNL     1      11.434   5.970  27.661  1.00  0.00    -0.023 C 
ATOM      7  C   UNL     1      11.160   5.140  28.673  1.00  0.00    -0.001 C 
ENDROOT
BRANCH   5   8
ATOM      8  C   UNL     1      10.787   7.792  26.005  1.00  0.00    -0.010 C 
ATOM      9  C   UNL     1      11.727   6.899  25.172  1.00  0.00     0.008 C 
ATOM     10  C   UNL     1      11.333   9.232  25.980  1.00  0.00     0.008 C 
ENDBRANCH   5   8
TORSDOF 1
ENDMDL
MODEL 9
REMARK VINA RESULT:    -4.169      6.884      8.244
REMARK INTER + INTRA:          -4.612
REMARK INTER:                  -4.458
REMARK INTRA:                  -0.154
REMARK UNBOUND:                -0.200
REMARK SMILES CC1=CC[C@H](C(C)C)C=C1
REMARK SMILES IDX 1 1 2 2 3 3 4 4 5 5 9 6 10 7 6 8 7 9 8 10
REMARK H PARENT
REMARK Flexibility Score: inf
ROOT
ATOM      1  C   UNL     1      11.397   7.109  22.973  1.00  0.00     0.044 C 
ATOM      2  C   UNL     1      12.711   7.549  23.547  1.00  0.00    -0.055 C 
ATOM      3  C   UNL     1      13.031   7.250  24.816  1.00  0.00    -0.023 C 
ATOM      4  C   UNL     1      14.282   7.804  25.446  1.00  0.00     0.035 C 
ATOM      5  C   UNL     1      15.421   7.952  24.403  1.00  0.00     0.018 C 
ATOM      6  C   UNL     1      14.871   8.634  23.161  1.00  0.00    -0.023 C 
ATOM      7  C   UNL     1      13.624   8.388  22.743  1.00  0.00    -0.001 C 
ENDROOT
BRANCH   5   8
ATOM      8  C   UNL     1      16.667   8.709  24.962  1.00  0.00    -0.010 C 
ATOM      9  C   UNL     1      16.776  10.123  24.362  1.00  0.00     0.008 C 
ATOM     10  C   UNL     1      17.985   7.959  24.689  1.00  0.00     0.008 C 
ENDBRANCH   5   8
TORSDOF 1
ENDMDL
