MODEL 1
REMARK VINA RESULT:    -2.826      0.000      0.000
REMARK INTER + INTRA:         -10.810
REMARK INTER:                  -6.460
REMARK INTRA:                  -4.350
REMARK UNBOUND:                -4.350
REMARK SMILES CCCCCCCCCCCCCCCCCCCCCCCC(=O)[O-]
REMARK SMILES IDX 13 1 14 2 15 3 16 4 17 5 18 6 19 7 20 8 21 9 22 10 23 11
REMARK SMILES IDX 24 12 25 13 26 14 12 15 11 16 10 17 9 18 8 19 7 20 6 21 5 22
REMARK SMILES IDX 4 23 3 24 2 25 1 26
REMARK H PARENT
REMARK Flexibility Score: inf
ROOT
ATOM      1  C   UNL     1     -18.057 -24.023  24.426  1.00  0.00     0.000 C 
ENDROOT
BRANCH   1   2
ATOM      2  C   UNL     1     -17.014 -22.942  24.095  1.00  0.00     0.000 C 
BRANCH   2   3
ATOM      3  C   UNL     1     -15.634 -23.479  23.665  1.00  0.00     0.000 C 
BRANCH   3   4
ATOM      4  C   UNL     1     -15.376 -24.961  24.001  1.00  0.00     0.000 C 
BRANCH   4   5
ATOM      5  C   UNL     1     -14.011 -25.505  23.533  1.00  0.00     0.000 C 
BRANCH   5   6
ATOM      6  C   UNL     1     -13.043 -24.442  22.979  1.00  0.00     0.000 C 
BRANCH   6   7
ATOM      7  C   UNL     1     -12.983 -24.350  21.442  1.00  0.00     0.000 C 
BRANCH   7   8
ATOM      8  C   UNL     1     -13.053 -22.921  20.874  1.00  0.00     0.000 C 
BRANCH   8   9
ATOM      9  C   UNL     1     -12.800 -21.844  21.939  1.00  0.00     0.000 C 
BRANCH   9  10
ATOM     10  C   UNL     1     -13.835 -20.714  21.835  1.00  0.00     0.006 C 
BRANCH  10  11
ATOM     11  C   UNL     1     -13.177 -19.333  21.711  1.00  0.00     0.053 C 
BRANCH  11  12
ATOM     12  C   UNL     1     -12.888 -18.981  20.284  1.00  0.00     0.041 C 
ATOM     13  O   UNL     1     -13.498 -19.566  19.350  1.00  0.00    -0.550 OA
ATOM     14  O   UNL     1     -11.974 -17.978  19.987  1.00  0.00    -0.550 OA
ENDBRANCH  11  12
ENDBRANCH  10  11
ENDBRANCH   9  10
ENDBRANCH   8   9
ENDBRANCH   7   8
ENDBRANCH   6   7
ENDBRANCH   5   6
ENDBRANCH   4   5
ENDBRANCH   3   4
ENDBRANCH   2   3
ENDBRANCH   1   2
BRANCH   1  15
ATOM     15  C   UNL     1     -18.658 -23.861  25.831  1.00  0.00     0.000 C 
BRANCH  15  16
ATOM     16  C   UNL     1     -18.375 -22.464  26.394  1.00  0.00     0.000 C 
BRANCH  16  17
ATOM     17  C   UNL     1     -17.438 -22.540  27.609  1.00  0.00     0.000 C 
BRANCH  17  18
ATOM     18  C   UNL     1     -16.978 -23.975  27.915  1.00  0.00    -0.000 C 
BRANCH  18  19
ATOM     19  C   UNL     1     -15.481 -24.189  27.629  1.00  0.00    -0.000 C 
BRANCH  19  20
ATOM     20  C   UNL     1     -14.753 -22.879  27.287  1.00  0.00    -0.000 C 
BRANCH  20  21
ATOM     21  C   UNL     1     -13.331 -23.113  26.750  1.00  0.00    -0.000 C 
BRANCH  21  22
ATOM     22  C   UNL     1     -12.903 -22.059  25.716  1.00  0.00    -0.000 C 
BRANCH  22  23
ATOM     23  C   UNL     1     -13.859 -20.849  25.636  1.00  0.00    -0.000 C 
BRANCH  23  24
ATOM     24  C   UNL     1     -13.105 -19.529  25.394  1.00  0.00    -0.000 C 
BRANCH  24  25
ATOM     25  C   UNL     1     -13.324 -18.508  26.521  1.00  0.00    -0.003 C 
ATOM     26  C   UNL     1     -14.160 -19.067  27.673  1.00  0.00     0.004 C 
ENDBRANCH  24  25
ENDBRANCH  23  24
ENDBRANCH  22  23
ENDBRANCH  21  22
ENDBRANCH  20  21
ENDBRANCH  19  20
ENDBRANCH  18  19
ENDBRANCH  17  18
ENDBRANCH  16  17
ENDBRANCH  15  16
ENDBRANCH   1  15
TORSDOF 22
ENDMDL
MODEL 2
REMARK VINA RESULT:    -2.789      2.226      6.122
REMARK INTER + INTRA:         -10.725
REMARK INTER:                  -6.997
REMARK INTRA:                  -3.728
REMARK UNBOUND:                -4.350
REMARK SMILES CCCCCCCCCCCCCCCCCCCCCCCC(=O)[O-]
REMARK SMILES IDX 13 1 14 2 15 3 16 4 17 5 18 6 19 7 20 8 21 9 22 10 23 11
REMARK SMILES IDX 24 12 25 13 26 14 12 15 11 16 10 17 9 18 8 19 7 20 6 21 5 22
REMARK SMILES IDX 4 23 3 24 2 25 1 26
REMARK H PARENT
REMARK Flexibility Score: inf
ROOT
ATOM      1  C   UNL     1     -12.746 -18.358  22.933  1.00  0.00     0.000 C 
ENDROOT
BRANCH   1   2
ATOM      2  C   UNL     1     -12.647 -17.700  21.545  1.00  0.00     0.000 C 
BRANCH   2   3
ATOM      3  C   UNL     1     -11.225 -17.639  20.953  1.00  0.00     0.000 C 
BRANCH   3   4
ATOM      4  C   UNL     1     -11.159 -17.625  19.413  1.00  0.00     0.000 C 
BRANCH   4   5
ATOM      5  C   UNL     1     -12.268 -18.431  18.707  1.00  0.00     0.000 C 
BRANCH   5   6
ATOM      6  C   UNL     1     -11.812 -19.774  18.106  1.00  0.00     0.000 C 
BRANCH   6   7
ATOM      7  C   UNL     1     -12.095 -21.011  18.981  1.00  0.00     0.000 C 
BRANCH   7   8
ATOM      8  C   UNL     1     -13.476 -21.024  19.660  1.00  0.00     0.000 C 
BRANCH   8   9
ATOM      9  C   UNL     1     -13.418 -21.511  21.116  1.00  0.00     0.000 C 
BRANCH   9  10
ATOM     10  C   UNL     1     -11.973 -21.815  21.538  1.00  0.00     0.006 C 
BRANCH  10  11
ATOM     11  C   UNL     1     -11.852 -23.155  22.276  1.00  0.00     0.053 C 
BRANCH  11  12
ATOM     12  C   UNL     1     -12.395 -24.289  21.462  1.00  0.00     0.041 C 
ATOM     13  O   UNL     1     -13.315 -25.016  21.921  1.00  0.00    -0.550 OA
ATOM     14  O   UNL     1     -11.911 -24.518  20.180  1.00  0.00    -0.550 OA
ENDBRANCH  11  12
ENDBRANCH  10  11
ENDBRANCH   9  10
ENDBRANCH   8   9
ENDBRANCH   7   8
ENDBRANCH   6   7
ENDBRANCH   5   6
ENDBRANCH   4   5
ENDBRANCH   3   4
ENDBRANCH   2   3
ENDBRANCH   1   2
BRANCH   1  15
ATOM     15  C   UNL     1     -11.384 -18.821  23.471  1.00  0.00     0.000 C 
BRANCH  15  16
ATOM     16  C   UNL     1     -11.555 -19.735  24.690  1.00  0.00     0.000 C 
BRANCH  16  17
ATOM     17  C   UNL     1     -12.786 -19.328  25.513  1.00  0.00     0.000 C 
BRANCH  17  18
ATOM     18  C   UNL     1     -13.630 -20.534  25.956  1.00  0.00    -0.000 C 
BRANCH  18  19
ATOM     19  C   UNL     1     -13.931 -21.501  24.797  1.00  0.00    -0.000 C 
BRANCH  19  20
ATOM     20  C   UNL     1     -15.329 -22.131  24.903  1.00  0.00    -0.000 C 
BRANCH  20  21
ATOM     21  C   UNL     1     -15.680 -23.005  23.687  1.00  0.00    -0.000 C 
BRANCH  21  22
ATOM     22  C   UNL     1     -16.464 -24.271  24.070  1.00  0.00    -0.000 C 
BRANCH  22  23
ATOM     23  C   UNL     1     -17.996 -24.101  23.978  1.00  0.00    -0.000 C 
BRANCH  23  24
ATOM     24  C   UNL     1     -18.684 -24.295  25.341  1.00  0.00    -0.000 C 
BRANCH  24  25
ATOM     25  C   UNL     1     -18.702 -23.010  26.183  1.00  0.00    -0.003 C 
ATOM     26  C   UNL     1     -17.838 -23.114  27.440  1.00  0.00     0.004 C 
ENDBRANCH  24  25
ENDBRANCH  23  24
ENDBRANCH  22  23
ENDBRANCH  21  22
ENDBRANCH  20  21
ENDBRANCH  19  20
ENDBRANCH  18  19
ENDBRANCH  17  18
ENDBRANCH  16  17
ENDBRANCH  15  16
ENDBRANCH   1  15
TORSDOF 22
ENDMDL
MODEL 3
REMARK VINA RESULT:    -2.785      1.654      5.382
REMARK INTER + INTRA:         -10.716
REMARK INTER:                  -7.028
REMARK INTRA:                  -3.688
REMARK UNBOUND:                -4.350
REMARK SMILES CCCCCCCCCCCCCCCCCCCCCCCC(=O)[O-]
REMARK SMILES IDX 13 1 14 2 15 3 16 4 17 5 18 6 19 7 20 8 21 9 22 10 23 11
REMARK SMILES IDX 24 12 25 13 26 14 12 15 11 16 10 17 9 18 8 19 7 20 6 21 5 22
REMARK SMILES IDX 4 23 3 24 2 25 1 26
REMARK H PARENT
REMARK Flexibility Score: inf
ROOT
ATOM      1  C   UNL     1     -17.043 -24.268  24.359  1.00  0.00     0.000 C 
ENDROOT
BRANCH   1   2
ATOM      2  C   UNL     1     -18.520 -24.151  24.776  1.00  0.00     0.000 C 
BRANCH   2   3
ATOM      3  C   UNL     1     -18.751 -23.793  26.258  1.00  0.00     0.000 C 
BRANCH   3   4
ATOM      4  C   UNL     1     -18.376 -22.350  26.648  1.00  0.00     0.000 C 
BRANCH   4   5
ATOM      5  C   UNL     1     -17.457 -22.228  27.880  1.00  0.00     0.000 C 
BRANCH   5   6
ATOM      6  C   UNL     1     -16.185 -21.385  27.660  1.00  0.00     0.000 C 
BRANCH   6   7
ATOM      7  C   UNL     1     -15.110 -22.044  26.773  1.00  0.00     0.000 C 
BRANCH   7   8
ATOM      8  C   UNL     1     -14.019 -21.088  26.259  1.00  0.00     0.000 C 
BRANCH   8   9
ATOM      9  C   UNL     1     -12.740 -21.821  25.828  1.00  0.00     0.000 C 
BRANCH   9  10
ATOM     10  C   UNL     1     -12.193 -21.247  24.512  1.00  0.00     0.006 C 
BRANCH  10  11
ATOM     11  C   UNL     1     -13.118 -20.178  23.915  1.00  0.00     0.053 C 
BRANCH  11  12
ATOM     12  C   UNL     1     -12.466 -18.830  23.887  1.00  0.00     0.041 C 
ATOM     13  O   UNL     1     -12.768 -17.998  22.991  1.00  0.00    -0.550 OA
ATOM     14  O   UNL     1     -11.554 -18.479  24.874  1.00  0.00    -0.550 OA
ENDBRANCH  11  12
ENDBRANCH  10  11
ENDBRANCH   9  10
ENDBRANCH   8   9
ENDBRANCH   7   8
ENDBRANCH   6   7
ENDBRANCH   5   6
ENDBRANCH   4   5
ENDBRANCH   3   4
ENDBRANCH   2   3
ENDBRANCH   1   2
BRANCH   1  15
ATOM     15  C   UNL     1     -16.543 -23.038  23.586  1.00  0.00     0.000 C 
BRANCH  15  16
ATOM     16  C   UNL     1     -15.064 -23.186  23.213  1.00  0.00     0.000 C 
BRANCH  16  17
ATOM     17  C   UNL     1     -14.480 -24.487  23.786  1.00  0.00     0.000 C 
BRANCH  17  18
ATOM     18  C   UNL     1     -13.085 -24.808  23.229  1.00  0.00    -0.000 C 
BRANCH  18  19
ATOM     19  C   UNL     1     -12.920 -24.372  21.761  1.00  0.00    -0.000 C 
BRANCH  19  20
ATOM     20  C   UNL     1     -11.687 -23.479  21.546  1.00  0.00    -0.000 C 
BRANCH  20  21
ATOM     21  C   UNL     1     -12.038 -22.131  20.893  1.00  0.00    -0.000 C 
BRANCH  21  22
ATOM     22  C   UNL     1     -12.776 -22.293  19.554  1.00  0.00    -0.000 C 
BRANCH  22  23
ATOM     23  C   UNL     1     -13.647 -21.075  19.177  1.00  0.00    -0.000 C 
BRANCH  23  24
ATOM     24  C   UNL     1     -13.378 -19.865  20.090  1.00  0.00    -0.000 C 
BRANCH  24  25
ATOM     25  C   UNL     1     -12.933 -18.621  19.307  1.00  0.00    -0.003 C 
ATOM     26  C   UNL     1     -11.725 -18.886  18.409  1.00  0.00     0.004 C 
ENDBRANCH  24  25
ENDBRANCH  23  24
ENDBRANCH  22  23
ENDBRANCH  21  22
ENDBRANCH  20  21
ENDBRANCH  19  20
ENDBRANCH  18  19
ENDBRANCH  17  18
ENDBRANCH  16  17
ENDBRANCH  15  16
ENDBRANCH   1  15
TORSDOF 22
ENDMDL
MODEL 4
REMARK VINA RESULT:    -2.757      3.097      6.874
REMARK INTER + INTRA:         -10.654
REMARK INTER:                  -6.732
REMARK INTRA:                  -3.922
REMARK UNBOUND:                -4.350
REMARK SMILES CCCCCCCCCCCCCCCCCCCCCCCC(=O)[O-]
REMARK SMILES IDX 13 1 14 2 15 3 16 4 17 5 18 6 19 7 20 8 21 9 22 10 23 11
REMARK SMILES IDX 24 12 25 13 26 14 12 15 11 16 10 17 9 18 8 19 7 20 6 21 5 22
REMARK SMILES IDX 4 23 3 24 2 25 1 26
REMARK H PARENT
REMARK Flexibility Score: inf
ROOT
ATOM      1  C   UNL     1     -13.113 -22.365  19.592  1.00  0.00     0.000 C 
ENDROOT
BRANCH   1   2
ATOM      2  C   UNL     1     -11.666 -22.601  20.060  1.00  0.00     0.000 C 
BRANCH   2   3
ATOM      3  C   UNL     1     -11.366 -24.031  20.552  1.00  0.00     0.000 C 
BRANCH   3   4
ATOM      4  C   UNL     1     -12.595 -24.954  20.666  1.00  0.00     0.000 C 
BRANCH   4   5
ATOM      5  C   UNL     1     -12.810 -25.581  22.059  1.00  0.00     0.000 C 
BRANCH   5   6
ATOM      6  C   UNL     1     -12.411 -24.681  23.244  1.00  0.00     0.000 C 
BRANCH   6   7
ATOM      7  C   UNL     1     -13.576 -24.242  24.153  1.00  0.00     0.000 C 
BRANCH   7   8
ATOM      8  C   UNL     1     -14.852 -23.807  23.408  1.00  0.00     0.000 C 
BRANCH   8   9
ATOM      9  C   UNL     1     -16.129 -24.404  24.017  1.00  0.00     0.000 C 
BRANCH   9  10
ATOM     10  C   UNL     1     -17.240 -23.348  24.110  1.00  0.00     0.006 C 
BRANCH  10  11
ATOM     11  C   UNL     1     -16.946 -22.286  25.178  1.00  0.00     0.053 C 
BRANCH  11  12
ATOM     12  C   UNL     1     -17.881 -22.394  26.343  1.00  0.00     0.041 C 
ATOM     13  O   UNL     1     -17.704 -21.683  27.367  1.00  0.00    -0.550 OA
ATOM     14  O   UNL     1     -18.972 -23.251  26.280  1.00  0.00    -0.550 OA
ENDBRANCH  11  12
ENDBRANCH  10  11
ENDBRANCH   9  10
ENDBRANCH   8   9
ENDBRANCH   7   8
ENDBRANCH   6   7
ENDBRANCH   5   6
ENDBRANCH   4   5
ENDBRANCH   3   4
ENDBRANCH   2   3
ENDBRANCH   1   2
BRANCH   1  15
ATOM     15  C   UNL     1     -13.235 -21.200  18.598  1.00  0.00     0.000 C 
BRANCH  15  16
ATOM     16  C   UNL     1     -11.868 -20.831  18.010  1.00  0.00     0.000 C 
BRANCH  16  17
ATOM     17  C   UNL     1     -11.690 -19.306  17.950  1.00  0.00     0.000 C 
BRANCH  17  18
ATOM     18  C   UNL     1     -12.564 -18.565  18.974  1.00  0.00    -0.000 C 
BRANCH  18  19
ATOM     19  C   UNL     1     -11.749 -18.012  20.156  1.00  0.00    -0.000 C 
BRANCH  19  20
ATOM     20  C   UNL     1     -11.778 -18.943  21.379  1.00  0.00    -0.000 C 
BRANCH  20  21
ATOM     21  C   UNL     1     -13.207 -19.243  21.862  1.00  0.00    -0.000 C 
BRANCH  21  22
ATOM     22  C   UNL     1     -13.310 -20.570  22.633  1.00  0.00    -0.000 C 
BRANCH  22  23
ATOM     23  C   UNL     1     -12.010 -20.958  23.369  1.00  0.00    -0.000 C 
BRANCH  23  24
ATOM     24  C   UNL     1     -12.149 -20.837  24.897  1.00  0.00    -0.000 C 
BRANCH  24  25
ATOM     25  C   UNL     1     -13.609 -20.669  25.346  1.00  0.00    -0.003 C 
ATOM     26  C   UNL     1     -13.736 -19.950  26.690  1.00  0.00     0.004 C 
ENDBRANCH  24  25
ENDBRANCH  23  24
ENDBRANCH  22  23
ENDBRANCH  21  22
ENDBRANCH  20  21
ENDBRANCH  19  20
ENDBRANCH  18  19
ENDBRANCH  17  18
ENDBRANCH  16  17
ENDBRANCH  15  16
ENDBRANCH   1  15
TORSDOF 22
ENDMDL
MODEL 5
REMARK VINA RESULT:    -2.729      2.513      6.408
REMARK INTER + INTRA:         -10.588
REMARK INTER:                  -7.480
REMARK INTRA:                  -3.108
REMARK UNBOUND:                -4.350
REMARK SMILES CCCCCCCCCCCCCCCCCCCCCCCC(=O)[O-]
REMARK SMILES IDX 13 1 14 2 15 3 16 4 17 5 18 6 19 7 20 8 21 9 22 10 23 11
REMARK SMILES IDX 24 12 25 13 26 14 12 15 11 16 10 17 9 18 8 19 7 20 6 21 5 22
REMARK SMILES IDX 4 23 3 24 2 25 1 26
REMARK H PARENT
REMARK Flexibility Score: inf
ROOT
ATOM      1  C   UNL     1     -12.998 -22.182  19.693  1.00  0.00     0.000 C 
ENDROOT
BRANCH   1   2
ATOM      2  C   UNL     1     -13.103 -21.288  18.446  1.00  0.00     0.000 C 
BRANCH   2   3
ATOM      3  C   UNL     1     -11.754 -20.831  17.857  1.00  0.00     0.000 C 
BRANCH   3   4
ATOM      4  C   UNL     1     -11.589 -19.306  17.704  1.00  0.00     0.000 C 
BRANCH   4   5
ATOM      5  C   UNL     1     -12.370 -18.463  18.733  1.00  0.00     0.000 C 
BRANCH   5   6
ATOM      6  C   UNL     1     -11.774 -18.456  20.153  1.00  0.00     0.000 C 
BRANCH   6   7
ATOM      7  C   UNL     1     -12.788 -18.200  21.286  1.00  0.00     0.000 C 
BRANCH   7   8
ATOM      8  C   UNL     1     -13.075 -19.414  22.188  1.00  0.00     0.000 C 
BRANCH   8   9
ATOM      9  C   UNL     1     -11.826 -19.910  22.933  1.00  0.00     0.000 C 
BRANCH   9  10
ATOM     10  C   UNL     1     -11.720 -19.261  24.321  1.00  0.00     0.006 C 
BRANCH  10  11
ATOM     11  C   UNL     1     -13.001 -19.440  25.147  1.00  0.00     0.053 C 
BRANCH  11  12
ATOM     12  C   UNL     1     -13.006 -18.567  26.364  1.00  0.00     0.041 C 
ATOM     13  O   UNL     1     -12.295 -18.865  27.360  1.00  0.00    -0.550 OA
ATOM     14  O   UNL     1     -13.763 -17.403  26.381  1.00  0.00    -0.550 OA
ENDBRANCH  11  12
ENDBRANCH  10  11
ENDBRANCH   9  10
ENDBRANCH   8   9
ENDBRANCH   7   8
ENDBRANCH   6   7
ENDBRANCH   5   6
ENDBRANCH   4   5
ENDBRANCH   3   4
ENDBRANCH   2   3
ENDBRANCH   1   2
BRANCH   1  15
ATOM     15  C   UNL     1     -11.562 -22.298  20.225  1.00  0.00     0.000 C 
BRANCH  15  16
ATOM     16  C   UNL     1     -11.482 -23.298  21.384  1.00  0.00     0.000 C 
BRANCH  16  17
ATOM     17  C   UNL     1     -12.663 -24.280  21.344  1.00  0.00     0.000 C 
BRANCH  17  18
ATOM     18  C   UNL     1     -13.361 -24.424  22.706  1.00  0.00    -0.000 C 
BRANCH  18  19
ATOM     19  C   UNL     1     -13.370 -23.110  23.507  1.00  0.00    -0.000 C 
BRANCH  19  20
ATOM     20  C   UNL     1     -14.793 -22.590  23.770  1.00  0.00    -0.000 C 
BRANCH  20  21
ATOM     21  C   UNL     1     -15.857 -23.696  23.672  1.00  0.00    -0.000 C 
BRANCH  21  22
ATOM     22  C   UNL     1     -17.285 -23.170  23.893  1.00  0.00    -0.000 C 
BRANCH  22  23
ATOM     23  C   UNL     1     -18.173 -24.123  24.722  1.00  0.00    -0.000 C 
BRANCH  23  24
ATOM     24  C   UNL     1     -18.695 -23.458  26.008  1.00  0.00    -0.000 C 
BRANCH  24  25
ATOM     25  C   UNL     1     -17.777 -22.332  26.506  1.00  0.00    -0.003 C 
ATOM     26  C   UNL     1     -18.478 -21.383  27.479  1.00  0.00     0.004 C 
ENDBRANCH  24  25
ENDBRANCH  23  24
ENDBRANCH  22  23
ENDBRANCH  21  22
ENDBRANCH  20  21
ENDBRANCH  19  20
ENDBRANCH  18  19
ENDBRANCH  17  18
ENDBRANCH  16  17
ENDBRANCH  15  16
ENDBRANCH   1  15
TORSDOF 22
ENDMDL
MODEL 6
REMARK VINA RESULT:    -2.718      2.415      4.776
REMARK INTER + INTRA:         -10.563
REMARK INTER:                  -6.185
REMARK INTRA:                  -4.378
REMARK UNBOUND:                -4.350
REMARK SMILES CCCCCCCCCCCCCCCCCCCCCCCC(=O)[O-]
REMARK SMILES IDX 13 1 14 2 15 3 16 4 17 5 18 6 19 7 20 8 21 9 22 10 23 11
REMARK SMILES IDX 24 12 25 13 26 14 12 15 11 16 10 17 9 18 8 19 7 20 6 21 5 22
REMARK SMILES IDX 4 23 3 24 2 25 1 26
REMARK H PARENT
REMARK Flexibility Score: inf
ROOT
ATOM      1  C   UNL     1     -15.396 -22.809  23.859  1.00  0.00     0.000 C 
ENDROOT
BRANCH   1   2
ATOM      2  C   UNL     1     -14.629 -21.776  24.703  1.00  0.00     0.000 C 
BRANCH   2   3
ATOM      3  C   UNL     1     -13.104 -21.993  24.771  1.00  0.00     0.000 C 
BRANCH   3   4
ATOM      4  C   UNL     1     -12.254 -20.721  24.582  1.00  0.00     0.000 C 
BRANCH   4   5
ATOM      5  C   UNL     1     -11.315 -20.743  23.359  1.00  0.00     0.000 C 
BRANCH   5   6
ATOM      6  C   UNL     1     -11.629 -19.688  22.281  1.00  0.00     0.000 C 
BRANCH   6   7
ATOM      7  C   UNL     1     -13.128 -19.404  22.061  1.00  0.00     0.000 C 
BRANCH   7   8
ATOM      8  C   UNL     1     -13.868 -20.449  21.206  1.00  0.00     0.000 C 
BRANCH   8   9
ATOM      9  C   UNL     1     -13.066 -20.884  19.971  1.00  0.00     0.000 C 
BRANCH   9  10
ATOM     10  C   UNL     1     -13.079 -22.412  19.816  1.00  0.00     0.006 C 
BRANCH  10  11
ATOM     11  C   UNL     1     -12.990 -23.134  21.167  1.00  0.00     0.053 C 
BRANCH  11  12
ATOM     12  C   UNL     1     -12.963 -24.623  21.002  1.00  0.00     0.041 C 
ATOM     13  O   UNL     1     -12.724 -25.131  19.874  1.00  0.00    -0.550 OA
ATOM     14  O   UNL     1     -13.163 -25.448  22.101  1.00  0.00    -0.550 OA
ENDBRANCH  11  12
ENDBRANCH  10  11
ENDBRANCH   9  10
ENDBRANCH   8   9
ENDBRANCH   7   8
ENDBRANCH   6   7
ENDBRANCH   5   6
ENDBRANCH   4   5
ENDBRANCH   3   4
ENDBRANCH   2   3
ENDBRANCH   1   2
BRANCH   1  15
ATOM     15  C   UNL     1     -16.886 -22.889  24.224  1.00  0.00     0.000 C 
BRANCH  15  16
ATOM     16  C   UNL     1     -17.148 -22.284  25.608  1.00  0.00     0.000 C 
BRANCH  16  17
ATOM     17  C   UNL     1     -18.434 -22.857  26.224  1.00  0.00     0.000 C 
BRANCH  17  18
ATOM     18  C   UNL     1     -18.969 -24.074  25.454  1.00  0.00    -0.000 C 
BRANCH  18  19
ATOM     19  C   UNL     1     -19.029 -25.343  26.323  1.00  0.00    -0.000 C 
BRANCH  19  20
ATOM     20  C   UNL     1     -18.509 -26.588  25.585  1.00  0.00    -0.000 C 
BRANCH  20  21
ATOM     21  C   UNL     1     -18.000 -26.269  24.169  1.00  0.00    -0.000 C 
BRANCH  21  22
ATOM     22  C   UNL     1     -16.476 -26.427  24.035  1.00  0.00    -0.000 C 
BRANCH  22  23
ATOM     23  C   UNL     1     -15.791 -26.927  25.324  1.00  0.00    -0.000 C 
BRANCH  23  24
ATOM     24  C   UNL     1     -14.821 -25.885  25.908  1.00  0.00    -0.000 C 
BRANCH  24  25
ATOM     25  C   UNL     1     -15.411 -25.137  27.113  1.00  0.00    -0.003 C 
ATOM     26  C   UNL     1     -14.497 -24.022  27.624  1.00  0.00     0.004 C 
ENDBRANCH  24  25
ENDBRANCH  23  24
ENDBRANCH  22  23
ENDBRANCH  21  22
ENDBRANCH  20  21
ENDBRANCH  19  20
ENDBRANCH  18  19
ENDBRANCH  17  18
ENDBRANCH  16  17
ENDBRANCH  15  16
ENDBRANCH   1  15
TORSDOF 22
ENDMDL
MODEL 7
REMARK VINA RESULT:    -2.711      1.905      4.152
REMARK INTER + INTRA:         -10.548
REMARK INTER:                  -6.288
REMARK INTRA:                  -4.260
REMARK UNBOUND:                -4.350
REMARK SMILES CCCCCCCCCCCCCCCCCCCCCCCC(=O)[O-]
REMARK SMILES IDX 13 1 14 2 15 3 16 4 17 5 18 6 19 7 20 8 21 9 22 10 23 11
REMARK SMILES IDX 24 12 25 13 26 14 12 15 11 16 10 17 9 18 8 19 7 20 6 21 5 22
REMARK SMILES IDX 4 23 3 24 2 25 1 26
REMARK H PARENT
REMARK Flexibility Score: inf
ROOT
ATOM      1  C   UNL     1     -17.289 -22.181  25.474  1.00  0.00     0.000 C 
ENDROOT
BRANCH   1   2
ATOM      2  C   UNL     1     -15.934 -22.283  26.196  1.00  0.00     0.000 C 
BRANCH   2   3
ATOM      3  C   UNL     1     -14.709 -22.407  25.267  1.00  0.00     0.000 C 
BRANCH   3   4
ATOM      4  C   UNL     1     -15.036 -22.513  23.765  1.00  0.00     0.000 C 
BRANCH   4   5
ATOM      5  C   UNL     1     -14.085 -21.731  22.836  1.00  0.00     0.000 C 
BRANCH   5   6
ATOM      6  C   UNL     1     -13.189 -20.698  23.546  1.00  0.00     0.000 C 
BRANCH   6   7
ATOM      7  C   UNL     1     -11.750 -20.597  23.002  1.00  0.00     0.000 C 
BRANCH   7   8
ATOM      8  C   UNL     1     -11.374 -19.225  22.414  1.00  0.00     0.000 C 
BRANCH   8   9
ATOM      9  C   UNL     1     -12.590 -18.447  21.890  1.00  0.00     0.000 C 
BRANCH   9  10
ATOM     10  C   UNL     1     -12.635 -18.464  20.355  1.00  0.00     0.006 C 
BRANCH  10  11
ATOM     11  C   UNL     1     -13.598 -19.529  19.813  1.00  0.00     0.053 C 
BRANCH  11  12
ATOM     12  C   UNL     1     -12.865 -20.696  19.227  1.00  0.00     0.041 C 
ATOM     13  O   UNL     1     -11.605 -20.715  19.219  1.00  0.00    -0.550 OA
ATOM     14  O   UNL     1     -13.573 -21.782  18.727  1.00  0.00    -0.550 OA
ENDBRANCH  11  12
ENDBRANCH  10  11
ENDBRANCH   9  10
ENDBRANCH   8   9
ENDBRANCH   7   8
ENDBRANCH   6   7
ENDBRANCH   5   6
ENDBRANCH   4   5
ENDBRANCH   3   4
ENDBRANCH   2   3
ENDBRANCH   1   2
BRANCH   1  15
ATOM     15  C   UNL     1     -18.432 -22.845  26.256  1.00  0.00     0.000 C 
BRANCH  15  16
ATOM     16  C   UNL     1     -18.778 -24.218  25.667  1.00  0.00     0.000 C 
BRANCH  16  17
ATOM     17  C   UNL     1     -18.295 -24.328  24.212  1.00  0.00     0.000 C 
BRANCH  17  18
ATOM     18  C   UNL     1     -17.277 -25.461  24.009  1.00  0.00    -0.000 C 
BRANCH  18  19
ATOM     19  C   UNL     1     -16.891 -26.153  25.329  1.00  0.00    -0.000 C 
BRANCH  19  20
ATOM     20  C   UNL     1     -15.381 -26.086  25.610  1.00  0.00    -0.000 C 
BRANCH  20  21
ATOM     21  C   UNL     1     -14.539 -26.056  24.323  1.00  0.00    -0.000 C 
BRANCH  21  22
ATOM     22  C   UNL     1     -13.092 -25.598  24.568  1.00  0.00    -0.000 C 
BRANCH  22  23
ATOM     23  C   UNL     1     -12.343 -25.201  23.279  1.00  0.00    -0.000 C 
BRANCH  23  24
ATOM     24  C   UNL     1     -13.162 -25.509  22.013  1.00  0.00    -0.000 C 
BRANCH  24  25
ATOM     25  C   UNL     1     -12.898 -24.506  20.880  1.00  0.00    -0.003 C 
ATOM     26  C   UNL     1     -11.533 -23.827  20.995  1.00  0.00     0.004 C 
ENDBRANCH  24  25
ENDBRANCH  23  24
ENDBRANCH  22  23
ENDBRANCH  21  22
ENDBRANCH  20  21
ENDBRANCH  19  20
ENDBRANCH  18  19
ENDBRANCH  17  18
ENDBRANCH  16  17
ENDBRANCH  15  16
ENDBRANCH   1  15
TORSDOF 22
ENDMDL
MODEL 8
REMARK VINA RESULT:    -2.700      2.198      4.339
REMARK INTER + INTRA:         -10.522
REMARK INTER:                  -7.122
REMARK INTRA:                  -3.401
REMARK UNBOUND:                -4.350
REMARK SMILES CCCCCCCCCCCCCCCCCCCCCCCC(=O)[O-]
REMARK SMILES IDX 13 1 14 2 15 3 16 4 17 5 18 6 19 7 20 8 21 9 22 10 23 11
REMARK SMILES IDX 24 12 25 13 26 14 12 15 11 16 10 17 9 18 8 19 7 20 6 21 5 22
REMARK SMILES IDX 4 23 3 24 2 25 1 26
REMARK H PARENT
REMARK Flexibility Score: inf
ROOT
ATOM      1  C   UNL     1     -15.716 -22.996  23.580  1.00  0.00     0.000 C 
ENDROOT
BRANCH   1   2
ATOM      2  C   UNL     1     -14.748 -22.089  24.358  1.00  0.00     0.000 C 
BRANCH   2   3
ATOM      3  C   UNL     1     -13.571 -21.532  23.533  1.00  0.00     0.000 C 
BRANCH   3   4
ATOM      4  C   UNL     1     -13.755 -21.598  22.004  1.00  0.00     0.000 C 
BRANCH   4   5
ATOM      5  C   UNL     1     -12.561 -22.192  21.230  1.00  0.00     0.000 C 
BRANCH   5   6
ATOM      6  C   UNL     1     -12.896 -22.711  19.819  1.00  0.00     0.000 C 
BRANCH   6   7
ATOM      7  C   UNL     1     -13.434 -21.648  18.841  1.00  0.00     0.000 C 
BRANCH   7   8
ATOM      8  C   UNL     1     -12.367 -20.989  17.949  1.00  0.00     0.000 C 
BRANCH   8   9
ATOM      9  C   UNL     1     -11.708 -19.769  18.610  1.00  0.00     0.000 C 
BRANCH   9  10
ATOM     10  C   UNL     1     -12.749 -18.917  19.352  1.00  0.00     0.006 C 
BRANCH  10  11
ATOM     11  C   UNL     1     -12.098 -17.901  20.302  1.00  0.00     0.053 C 
BRANCH  11  12
ATOM     12  C   UNL     1     -12.077 -18.396  21.716  1.00  0.00     0.041 C 
ATOM     13  O   UNL     1     -13.036 -18.141  22.492  1.00  0.00    -0.550 OA
ATOM     14  O   UNL     1     -11.018 -19.175  22.163  1.00  0.00    -0.550 OA
ENDBRANCH  11  12
ENDBRANCH  10  11
ENDBRANCH   9  10
ENDBRANCH   8   9
ENDBRANCH   7   8
ENDBRANCH   6   7
ENDBRANCH   5   6
ENDBRANCH   4   5
ENDBRANCH   3   4
ENDBRANCH   2   3
ENDBRANCH   1   2
BRANCH   1  15
ATOM     15  C   UNL     1     -17.108 -23.077  24.225  1.00  0.00     0.000 C 
BRANCH  15  16
ATOM     16  C   UNL     1     -17.074 -22.571  25.672  1.00  0.00     0.000 C 
BRANCH  16  17
ATOM     17  C   UNL     1     -18.415 -22.830  26.375  1.00  0.00     0.000 C 
BRANCH  17  18
ATOM     18  C   UNL     1     -19.131 -24.082  25.846  1.00  0.00    -0.000 C 
BRANCH  18  19
ATOM     19  C   UNL     1     -18.738 -25.357  26.615  1.00  0.00    -0.000 C 
BRANCH  19  20
ATOM     20  C   UNL     1     -18.482 -26.552  25.683  1.00  0.00    -0.000 C 
BRANCH  20  21
ATOM     21  C   UNL     1     -16.990 -26.904  25.566  1.00  0.00    -0.000 C 
BRANCH  21  22
ATOM     22  C   UNL     1     -16.577 -27.284  24.134  1.00  0.00    -0.000 C 
BRANCH  22  23
ATOM     23  C   UNL     1     -15.245 -26.647  23.685  1.00  0.00    -0.000 C 
BRANCH  23  24
ATOM     24  C   UNL     1     -14.419 -26.129  24.875  1.00  0.00    -0.000 C 
BRANCH  24  25
ATOM     25  C   UNL     1     -13.087 -25.499  24.441  1.00  0.00    -0.003 C 
ATOM     26  C   UNL     1     -12.935 -25.424  22.922  1.00  0.00     0.004 C 
ENDBRANCH  24  25
ENDBRANCH  23  24
ENDBRANCH  22  23
ENDBRANCH  21  22
ENDBRANCH  20  21
ENDBRANCH  19  20
ENDBRANCH  18  19
ENDBRANCH  17  18
ENDBRANCH  16  17
ENDBRANCH  15  16
ENDBRANCH   1  15
TORSDOF 22
ENDMDL
MODEL 9
REMARK VINA RESULT:    -2.699      1.628      3.884
REMARK INTER + INTRA:         -10.520
REMARK INTER:                  -6.473
REMARK INTRA:                  -4.047
REMARK UNBOUND:                -4.350
REMARK SMILES CCCCCCCCCCCCCCCCCCCCCCCC(=O)[O-]
REMARK SMILES IDX 13 1 14 2 15 3 16 4 17 5 18 6 19 7 20 8 21 9 22 10 23 11
REMARK SMILES IDX 24 12 25 13 26 14 12 15 11 16 10 17 9 18 8 19 7 20 6 21 5 22
REMARK SMILES IDX 4 23 3 24 2 25 1 26
REMARK H PARENT
REMARK Flexibility Score: inf
ROOT
ATOM      1  C   UNL     1     -14.156 -25.167  24.734  1.00  0.00     0.000 C 
ENDROOT
BRANCH   1   2
ATOM      2  C   UNL     1     -13.859 -24.385  23.443  1.00  0.00     0.000 C 
BRANCH   2   3
ATOM      3  C   UNL     1     -14.795 -23.189  23.176  1.00  0.00     0.000 C 
BRANCH   3   4
ATOM      4  C   UNL     1     -14.083 -21.865  22.837  1.00  0.00     0.000 C 
BRANCH   4   5
ATOM      5  C   UNL     1     -12.546 -21.956  22.757  1.00  0.00     0.000 C 
BRANCH   5   6
ATOM      6  C   UNL     1     -11.793 -20.740  23.332  1.00  0.00     0.000 C 
BRANCH   6   7
ATOM      7  C   UNL     1     -12.642 -19.465  23.500  1.00  0.00     0.000 C 
BRANCH   7   8
ATOM      8  C   UNL     1     -12.000 -18.180  22.946  1.00  0.00     0.000 C 
BRANCH   8   9
ATOM      9  C   UNL     1     -12.748 -17.620  21.726  1.00  0.00     0.000 C 
BRANCH   9  10
ATOM     10  C   UNL     1     -12.362 -18.380  20.448  1.00  0.00     0.006 C 
BRANCH  10  11
ATOM     11  C   UNL     1     -13.460 -19.353  19.996  1.00  0.00     0.053 C 
BRANCH  11  12
ATOM     12  C   UNL     1     -12.909 -20.460  19.152  1.00  0.00     0.041 C 
ATOM     13  O   UNL     1     -11.939 -20.245  18.377  1.00  0.00    -0.550 OA
ATOM     14  O   UNL     1     -13.440 -21.740  19.251  1.00  0.00    -0.550 OA
ENDBRANCH  11  12
ENDBRANCH  10  11
ENDBRANCH   9  10
ENDBRANCH   8   9
ENDBRANCH   7   8
ENDBRANCH   6   7
ENDBRANCH   5   6
ENDBRANCH   4   5
ENDBRANCH   3   4
ENDBRANCH   2   3
ENDBRANCH   1   2
BRANCH   1  15
ATOM     15  C   UNL     1     -15.215 -26.263  24.537  1.00  0.00     0.000 C 
BRANCH  15  16
ATOM     16  C   UNL     1     -16.170 -26.328  25.734  1.00  0.00     0.000 C 
BRANCH  16  17
ATOM     17  C   UNL     1     -17.632 -26.397  25.266  1.00  0.00     0.000 C 
BRANCH  17  18
ATOM     18  C   UNL     1     -17.868 -25.648  23.945  1.00  0.00    -0.000 C 
BRANCH  18  19
ATOM     19  C   UNL     1     -18.312 -24.191  24.163  1.00  0.00    -0.000 C 
BRANCH  19  20
ATOM     20  C   UNL     1     -19.076 -23.999  25.484  1.00  0.00    -0.000 C 
BRANCH  20  21
ATOM     21  C   UNL     1     -18.541 -22.819  26.313  1.00  0.00    -0.000 C 
BRANCH  21  22
ATOM     22  C   UNL     1     -17.212 -22.265  25.772  1.00  0.00    -0.000 C 
BRANCH  22  23
ATOM     23  C   UNL     1     -15.991 -22.634  26.641  1.00  0.00    -0.000 C 
BRANCH  23  24
ATOM     24  C   UNL     1     -15.276 -21.390  27.196  1.00  0.00    -0.000 C 
BRANCH  24  25
ATOM     25  C   UNL     1     -13.967 -21.080  26.455  1.00  0.00    -0.003 C 
ATOM     26  C   UNL     1     -12.925 -22.189  26.604  1.00  0.00     0.004 C 
ENDBRANCH  24  25
ENDBRANCH  23  24
ENDBRANCH  22  23
ENDBRANCH  21  22
ENDBRANCH  20  21
ENDBRANCH  19  20
ENDBRANCH  18  19
ENDBRANCH  17  18
ENDBRANCH  16  17
ENDBRANCH  15  16
ENDBRANCH   1  15
TORSDOF 22
ENDMDL
