MODEL 1
REMARK VINA RESULT:    -4.820      0.000      0.000
REMARK INTER + INTRA:         -11.501
REMARK INTER:                  -9.047
REMARK INTRA:                  -2.454
REMARK UNBOUND:                -2.454
REMARK SMILES CCCCCCCCC=CCCCCCCCC(=O)[O-]
REMARK SMILES IDX 10 1 9 2 11 3 12 4 13 5 14 6 15 7 16 8 17 9 18 10 19 11
REMARK SMILES IDX 20 12 8 13 7 14 6 15 5 16 4 17 3 18 2 19 1 20
REMARK H PARENT
REMARK Flexibility Score: inf
ROOT
ATOM      1  C   UNL     1     -24.807 -30.877 -11.082  1.00  0.00    -0.031 C 
ATOM      2  C   UNL     1     -25.960 -31.066 -10.422  1.00  0.00    -0.031 C 
ENDROOT
BRANCH   1   3
ATOM      3  C   UNL     1     -23.476 -30.995 -10.392  1.00  0.00     0.027 C 
BRANCH   3   4
ATOM      4  C   UNL     1     -22.559 -31.987 -11.124  1.00  0.00     0.004 C 
BRANCH   4   5
ATOM      5  C   UNL     1     -22.673 -31.883 -12.653  1.00  0.00     0.000 C 
BRANCH   5   6
ATOM      6  C   UNL     1     -21.420 -32.408 -13.377  1.00  0.00     0.000 C 
BRANCH   6   7
ATOM      7  C   UNL     1     -21.538 -33.895 -13.754  1.00  0.00     0.000 C 
BRANCH   7   8
ATOM      8  C   UNL     1     -20.299 -34.709 -13.345  1.00  0.00     0.006 C 
BRANCH   8   9
ATOM      9  C   UNL     1     -20.597 -35.675 -12.190  1.00  0.00     0.053 C 
BRANCH   9  10
ATOM     10  C   UNL     1     -19.973 -35.217 -10.907  1.00  0.00     0.041 C 
ATOM     11  O   UNL     1     -19.630 -34.015 -10.761  1.00  0.00    -0.550 OA
ATOM     12  O   UNL     1     -19.798 -36.113  -9.861  1.00  0.00    -0.550 OA
ENDBRANCH   9  10
ENDBRANCH   8   9
ENDBRANCH   7   8
ENDBRANCH   6   7
ENDBRANCH   5   6
ENDBRANCH   4   5
ENDBRANCH   3   4
ENDBRANCH   1   3
BRANCH   2  13
ATOM     13  C   UNL     1     -27.291 -30.957 -11.114  1.00  0.00     0.027 C 
BRANCH  13  14
ATOM     14  C   UNL     1     -27.159 -31.232 -12.617  1.00  0.00     0.004 C 
BRANCH  14  15
ATOM     15  C   UNL     1     -28.232 -32.223 -13.090  1.00  0.00     0.000 C 
BRANCH  15  16
ATOM     16  C   UNL     1     -27.701 -33.661 -13.219  1.00  0.00     0.000 C 
BRANCH  16  17
ATOM     17  C   UNL     1     -27.777 -34.503 -11.929  1.00  0.00    -0.000 C 
BRANCH  17  18
ATOM     18  C   UNL     1     -26.432 -34.719 -11.207  1.00  0.00    -0.000 C 
BRANCH  18  19
ATOM     19  C   UNL     1     -25.186 -34.466 -12.074  1.00  0.00    -0.003 C 
ATOM     20  C   UNL     1     -24.617 -35.745 -12.686  1.00  0.00     0.004 C 
ENDBRANCH  18  19
ENDBRANCH  17  18
ENDBRANCH  16  17
ENDBRANCH  15  16
ENDBRANCH  14  15
ENDBRANCH  13  14
ENDBRANCH   2  13
TORSDOF 15
ENDMDL
MODEL 2
REMARK VINA RESULT:    -4.647      2.358      6.262
REMARK INTER + INTRA:         -11.175
REMARK INTER:                  -9.451
REMARK INTRA:                  -1.724
REMARK UNBOUND:                -2.454
REMARK SMILES CCCCCCCCC=CCCCCCCCC(=O)[O-]
REMARK SMILES IDX 10 1 9 2 11 3 12 4 13 5 14 6 15 7 16 8 17 9 18 10 19 11
REMARK SMILES IDX 20 12 8 13 7 14 6 15 5 16 4 17 3 18 2 19 1 20
REMARK H PARENT
REMARK Flexibility Score: inf
ROOT
ATOM      1  C   UNL     1     -23.588 -31.590 -11.190  1.00  0.00    -0.031 C 
ATOM      2  C   UNL     1     -23.458 -32.454 -12.207  1.00  0.00    -0.031 C 
ENDROOT
BRANCH   1   3
ATOM      3  C   UNL     1     -24.755 -30.645 -11.104  1.00  0.00     0.027 C 
BRANCH   3   4
ATOM      4  C   UNL     1     -25.943 -31.297 -10.379  1.00  0.00     0.004 C 
BRANCH   4   5
ATOM      5  C   UNL     1     -27.300 -30.859 -10.954  1.00  0.00     0.000 C 
BRANCH   5   6
ATOM      6  C   UNL     1     -27.340 -30.921 -12.491  1.00  0.00     0.000 C 
BRANCH   6   7
ATOM      7  C   UNL     1     -28.545 -31.718 -13.018  1.00  0.00     0.000 C 
BRANCH   7   8
ATOM      8  C   UNL     1     -28.332 -33.239 -12.928  1.00  0.00     0.006 C 
BRANCH   8   9
ATOM      9  C   UNL     1     -26.898 -33.645 -13.292  1.00  0.00     0.053 C 
BRANCH   9  10
ATOM     10  C   UNL     1     -26.358 -34.681 -12.354  1.00  0.00     0.041 C 
ATOM     11  O   UNL     1     -25.516 -35.526 -12.758  1.00  0.00    -0.550 OA
ATOM     12  O   UNL     1     -26.761 -34.695 -11.025  1.00  0.00    -0.550 OA
ENDBRANCH   9  10
ENDBRANCH   8   9
ENDBRANCH   7   8
ENDBRANCH   6   7
ENDBRANCH   5   6
ENDBRANCH   4   5
ENDBRANCH   3   4
ENDBRANCH   1   3
BRANCH   2  13
ATOM     13  C   UNL     1     -22.296 -33.406 -12.290  1.00  0.00     0.027 C 
BRANCH  13  14
ATOM     14  C   UNL     1     -21.202 -32.866 -13.219  1.00  0.00     0.004 C 
BRANCH  14  15
ATOM     15  C   UNL     1     -20.843 -33.895 -14.301  1.00  0.00     0.000 C 
BRANCH  15  16
ATOM     16  C   UNL     1     -20.631 -35.309 -13.732  1.00  0.00     0.000 C 
BRANCH  16  17
ATOM     17  C   UNL     1     -19.177 -35.644 -13.344  1.00  0.00    -0.000 C 
BRANCH  17  18
ATOM     18  C   UNL     1     -19.009 -36.372 -11.995  1.00  0.00    -0.000 C 
BRANCH  18  19
ATOM     19  C   UNL     1     -19.710 -35.693 -10.804  1.00  0.00    -0.003 C 
ATOM     20  C   UNL     1     -19.298 -36.283  -9.456  1.00  0.00     0.004 C 
ENDBRANCH  18  19
ENDBRANCH  17  18
ENDBRANCH  16  17
ENDBRANCH  15  16
ENDBRANCH  14  15
ENDBRANCH  13  14
ENDBRANCH   2  13
TORSDOF 15
ENDMDL
MODEL 3
REMARK VINA RESULT:    -4.626      1.240      1.811
REMARK INTER + INTRA:         -11.135
REMARK INTER:                  -8.810
REMARK INTRA:                  -2.325
REMARK UNBOUND:                -2.454
REMARK SMILES CCCCCCCCC=CCCCCCCCC(=O)[O-]
REMARK SMILES IDX 10 1 9 2 11 3 12 4 13 5 14 6 15 7 16 8 17 9 18 10 19 11
REMARK SMILES IDX 20 12 8 13 7 14 6 15 5 16 4 17 3 18 2 19 1 20
REMARK H PARENT
REMARK Flexibility Score: inf
ROOT
ATOM      1  C   UNL     1     -24.363 -31.803 -11.970  1.00  0.00    -0.031 C 
ATOM      2  C   UNL     1     -24.904 -31.754 -10.743  1.00  0.00    -0.031 C 
ENDROOT
BRANCH   1   3
ATOM      3  C   UNL     1     -23.092 -32.561 -12.240  1.00  0.00     0.027 C 
BRANCH   3   4
ATOM      4  C   UNL     1     -21.919 -31.982 -11.434  1.00  0.00     0.004 C 
BRANCH   4   5
ATOM      5  C   UNL     1     -20.635 -31.851 -12.267  1.00  0.00     0.000 C 
BRANCH   5   6
ATOM      6  C   UNL     1     -20.911 -31.833 -13.781  1.00  0.00     0.000 C 
BRANCH   6   7
ATOM      7  C   UNL     1     -20.111 -32.906 -14.539  1.00  0.00     0.000 C 
BRANCH   7   8
ATOM      8  C   UNL     1     -20.747 -34.303 -14.432  1.00  0.00     0.006 C 
BRANCH   8   9
ATOM      9  C   UNL     1     -19.964 -35.223 -13.486  1.00  0.00     0.053 C 
BRANCH   9  10
ATOM     10  C   UNL     1     -20.739 -35.535 -12.243  1.00  0.00     0.041 C 
ATOM     11  O   UNL     1     -21.970 -35.792 -12.310  1.00  0.00    -0.550 OA
ATOM     12  O   UNL     1     -20.097 -35.570 -11.013  1.00  0.00    -0.550 OA
ENDBRANCH   9  10
ENDBRANCH   8   9
ENDBRANCH   7   8
ENDBRANCH   6   7
ENDBRANCH   5   6
ENDBRANCH   4   5
ENDBRANCH   3   4
ENDBRANCH   1   3
BRANCH   2  13
ATOM     13  C   UNL     1     -26.179 -31.003 -10.474  1.00  0.00     0.027 C 
BRANCH  13  14
ATOM     14  C   UNL     1     -26.750 -30.400 -11.763  1.00  0.00     0.004 C 
BRANCH  14  15
ATOM     15  C   UNL     1     -28.252 -30.694 -11.889  1.00  0.00     0.000 C 
BRANCH  15  16
ATOM     16  C   UNL     1     -28.597 -31.504 -13.152  1.00  0.00     0.000 C 
BRANCH  16  17
ATOM     17  C   UNL     1     -27.911 -32.882 -13.250  1.00  0.00    -0.000 C 
BRANCH  17  18
ATOM     18  C   UNL     1     -28.237 -33.859 -12.103  1.00  0.00    -0.000 C 
BRANCH  18  19
ATOM     19  C   UNL     1     -27.018 -34.592 -11.515  1.00  0.00    -0.003 C 
ATOM     20  C   UNL     1     -26.020 -35.039 -12.582  1.00  0.00     0.004 C 
ENDBRANCH  18  19
ENDBRANCH  17  18
ENDBRANCH  16  17
ENDBRANCH  15  16
ENDBRANCH  14  15
ENDBRANCH  13  14
ENDBRANCH   2  13
TORSDOF 15
ENDMDL
MODEL 4
REMARK VINA RESULT:    -4.573      1.143      3.850
REMARK INTER + INTRA:         -11.037
REMARK INTER:                  -9.080
REMARK INTRA:                  -1.957
REMARK UNBOUND:                -2.454
REMARK SMILES CCCCCCCCC=CCCCCCCCC(=O)[O-]
REMARK SMILES IDX 10 1 9 2 11 3 12 4 13 5 14 6 15 7 16 8 17 9 18 10 19 11
REMARK SMILES IDX 20 12 8 13 7 14 6 15 5 16 4 17 3 18 2 19 1 20
REMARK H PARENT
REMARK Flexibility Score: inf
ROOT
ATOM      1  C   UNL     1     -27.828 -33.603 -13.766  1.00  0.00    -0.031 C 
ATOM      2  C   UNL     1     -28.479 -32.860 -12.858  1.00  0.00    -0.031 C 
ENDROOT
BRANCH   1   3
ATOM      3  C   UNL     1     -27.687 -35.092 -13.609  1.00  0.00     0.027 C 
BRANCH   3   4
ATOM      4  C   UNL     1     -26.221 -35.488 -13.373  1.00  0.00     0.004 C 
BRANCH   4   5
ATOM      5  C   UNL     1     -25.658 -34.921 -12.061  1.00  0.00     0.000 C 
BRANCH   5   6
ATOM      6  C   UNL     1     -24.280 -34.260 -12.246  1.00  0.00     0.000 C 
BRANCH   6   7
ATOM      7  C   UNL     1     -23.201 -35.262 -12.691  1.00  0.00     0.000 C 
BRANCH   7   8
ATOM      8  C   UNL     1     -21.792 -34.645 -12.710  1.00  0.00     0.006 C 
BRANCH   8   9
ATOM      9  C   UNL     1     -20.713 -35.655 -12.297  1.00  0.00     0.053 C 
BRANCH   9  10
ATOM     10  C   UNL     1     -19.947 -35.190 -11.096  1.00  0.00     0.041 C 
ATOM     11  O   UNL     1     -19.788 -35.955 -10.109  1.00  0.00    -0.550 OA
ATOM     12  O   UNL     1     -19.381 -33.922 -11.080  1.00  0.00    -0.550 OA
ENDBRANCH   9  10
ENDBRANCH   8   9
ENDBRANCH   7   8
ENDBRANCH   6   7
ENDBRANCH   5   6
ENDBRANCH   4   5
ENDBRANCH   3   4
ENDBRANCH   1   3
BRANCH   2  13
ATOM     13  C   UNL     1     -28.628 -31.371 -13.019  1.00  0.00     0.027 C 
BRANCH  13  14
ATOM     14  C   UNL     1     -27.998 -30.620 -11.839  1.00  0.00     0.004 C 
BRANCH  14  15
ATOM     15  C   UNL     1     -27.000 -31.514 -11.090  1.00  0.00     0.000 C 
BRANCH  15  16
ATOM     16  C   UNL     1     -25.556 -30.987 -11.161  1.00  0.00     0.000 C 
BRANCH  16  17
ATOM     17  C   UNL     1     -25.048 -30.667 -12.581  1.00  0.00    -0.000 C 
BRANCH  17  18
ATOM     18  C   UNL     1     -23.514 -30.660 -12.742  1.00  0.00    -0.000 C 
BRANCH  18  19
ATOM     19  C   UNL     1     -22.733 -30.300 -11.466  1.00  0.00    -0.003 C 
ATOM     20  C   UNL     1     -22.026 -31.502 -10.842  1.00  0.00     0.004 C 
ENDBRANCH  18  19
ENDBRANCH  17  18
ENDBRANCH  16  17
ENDBRANCH  15  16
ENDBRANCH  14  15
ENDBRANCH  13  14
ENDBRANCH   2  13
TORSDOF 15
ENDMDL
MODEL 5
REMARK VINA RESULT:    -4.564      2.669      6.197
REMARK INTER + INTRA:         -11.020
REMARK INTER:                  -9.003
REMARK INTRA:                  -2.017
REMARK UNBOUND:                -2.454
REMARK SMILES CCCCCCCCC=CCCCCCCCC(=O)[O-]
REMARK SMILES IDX 10 1 9 2 11 3 12 4 13 5 14 6 15 7 16 8 17 9 18 10 19 11
REMARK SMILES IDX 20 12 8 13 7 14 6 15 5 16 4 17 3 18 2 19 1 20
REMARK H PARENT
REMARK Flexibility Score: inf
ROOT
ATOM      1  C   UNL     1     -23.836 -32.288 -11.851  1.00  0.00    -0.031 C 
ATOM      2  C   UNL     1     -22.751 -31.794 -11.236  1.00  0.00    -0.031 C 
ENDROOT
BRANCH   1   3
ATOM      3  C   UNL     1     -25.102 -32.587 -11.096  1.00  0.00     0.027 C 
BRANCH   3   4
ATOM      4  C   UNL     1     -25.568 -31.365 -10.289  1.00  0.00     0.004 C 
BRANCH   4   5
ATOM      5  C   UNL     1     -26.244 -30.299 -11.166  1.00  0.00     0.000 C 
BRANCH   5   6
ATOM      6  C   UNL     1     -27.711 -30.640 -11.486  1.00  0.00     0.000 C 
BRANCH   6   7
ATOM      7  C   UNL     1     -27.891 -31.186 -12.913  1.00  0.00     0.000 C 
BRANCH   7   8
ATOM      8  C   UNL     1     -28.543 -32.579 -12.935  1.00  0.00     0.006 C 
BRANCH   8   9
ATOM      9  C   UNL     1     -27.717 -33.590 -13.742  1.00  0.00     0.053 C 
BRANCH   9  10
ATOM     10  C   UNL     1     -27.196 -34.698 -12.878  1.00  0.00     0.041 C 
ATOM     11  O   UNL     1     -27.721 -34.930 -11.758  1.00  0.00    -0.550 OA
ATOM     12  O   UNL     1     -26.150 -35.495 -13.325  1.00  0.00    -0.550 OA
ENDBRANCH   9  10
ENDBRANCH   8   9
ENDBRANCH   7   8
ENDBRANCH   6   7
ENDBRANCH   5   6
ENDBRANCH   4   5
ENDBRANCH   3   4
ENDBRANCH   1   3
BRANCH   2  13
ATOM     13  C   UNL     1     -21.488 -31.485 -11.993  1.00  0.00     0.027 C 
BRANCH  13  14
ATOM     14  C   UNL     1     -21.754 -31.394 -13.501  1.00  0.00     0.004 C 
BRANCH  14  15
ATOM     15  C   UNL     1     -20.492 -31.745 -14.303  1.00  0.00     0.000 C 
BRANCH  15  16
ATOM     16  C   UNL     1     -20.476 -33.209 -14.779  1.00  0.00     0.000 C 
BRANCH  16  17
ATOM     17  C   UNL     1     -19.567 -34.150 -13.964  1.00  0.00    -0.000 C 
BRANCH  17  18
ATOM     18  C   UNL     1     -20.231 -35.461 -13.496  1.00  0.00    -0.000 C 
BRANCH  18  19
ATOM     19  C   UNL     1     -21.120 -35.324 -12.247  1.00  0.00    -0.003 C 
ATOM     20  C   UNL     1     -22.611 -35.419 -12.565  1.00  0.00     0.004 C 
ENDBRANCH  18  19
ENDBRANCH  17  18
ENDBRANCH  16  17
ENDBRANCH  15  16
ENDBRANCH  14  15
ENDBRANCH  13  14
ENDBRANCH   2  13
TORSDOF 15
ENDMDL
MODEL 6
REMARK VINA RESULT:    -4.530      1.180      2.990
REMARK INTER + INTRA:         -10.955
REMARK INTER:                  -8.658
REMARK INTRA:                  -2.297
REMARK UNBOUND:                -2.454
REMARK SMILES CCCCCCCCC=CCCCCCCCC(=O)[O-]
REMARK SMILES IDX 10 1 9 2 11 3 12 4 13 5 14 6 15 7 16 8 17 9 18 10 19 11
REMARK SMILES IDX 20 12 8 13 7 14 6 15 5 16 4 17 3 18 2 19 1 20
REMARK H PARENT
REMARK Flexibility Score: inf
ROOT
ATOM      1  C   UNL     1     -23.997 -32.967 -11.816  1.00  0.00    -0.031 C 
ATOM      2  C   UNL     1     -23.890 -34.198 -12.340  1.00  0.00    -0.031 C 
ENDROOT
BRANCH   1   3
ATOM      3  C   UNL     1     -22.839 -32.007 -11.820  1.00  0.00     0.027 C 
BRANCH   3   4
ATOM      4  C   UNL     1     -23.139 -30.782 -12.697  1.00  0.00     0.004 C 
BRANCH   4   5
ATOM      5  C   UNL     1     -22.030 -30.502 -13.724  1.00  0.00     0.000 C 
BRANCH   5   6
ATOM      6  C   UNL     1     -20.834 -31.459 -13.578  1.00  0.00     0.000 C 
BRANCH   6   7
ATOM      7  C   UNL     1     -20.702 -32.422 -14.771  1.00  0.00     0.000 C 
BRANCH   7   8
ATOM      8  C   UNL     1     -20.802 -33.899 -14.352  1.00  0.00     0.006 C 
BRANCH   8   9
ATOM      9  C   UNL     1     -19.676 -34.305 -13.391  1.00  0.00     0.053 C 
BRANCH   9  10
ATOM     10  C   UNL     1     -20.208 -34.717 -12.053  1.00  0.00     0.041 C 
ATOM     11  O   UNL     1     -20.064 -33.965 -11.054  1.00  0.00    -0.550 OA
ATOM     12  O   UNL     1     -20.889 -35.919 -11.916  1.00  0.00    -0.550 OA
ENDBRANCH   9  10
ENDBRANCH   8   9
ENDBRANCH   7   8
ENDBRANCH   6   7
ENDBRANCH   5   6
ENDBRANCH   4   5
ENDBRANCH   3   4
ENDBRANCH   1   3
BRANCH   2  13
ATOM     13  C   UNL     1     -25.051 -35.156 -12.345  1.00  0.00     0.027 C 
BRANCH  13  14
ATOM     14  C   UNL     1     -26.294 -34.524 -11.706  1.00  0.00     0.004 C 
BRANCH  14  15
ATOM     15  C   UNL     1     -27.541 -34.776 -12.565  1.00  0.00     0.000 C 
BRANCH  15  16
ATOM     16  C   UNL     1     -27.849 -33.615 -13.526  1.00  0.00     0.000 C 
BRANCH  16  17
ATOM     17  C   UNL     1     -27.271 -32.249 -13.104  1.00  0.00    -0.000 C 
BRANCH  17  18
ATOM     18  C   UNL     1     -28.318 -31.184 -12.722  1.00  0.00    -0.000 C 
BRANCH  18  19
ATOM     19  C   UNL     1     -27.995 -30.391 -11.443  1.00  0.00    -0.003 C 
ATOM     20  C   UNL     1     -26.776 -30.935 -10.698  1.00  0.00     0.004 C 
ENDBRANCH  18  19
ENDBRANCH  17  18
ENDBRANCH  16  17
ENDBRANCH  15  16
ENDBRANCH  14  15
ENDBRANCH  13  14
ENDBRANCH   2  13
TORSDOF 15
ENDMDL
MODEL 7
REMARK VINA RESULT:    -4.522      2.453      6.236
REMARK INTER + INTRA:         -10.941
REMARK INTER:                  -9.217
REMARK INTRA:                  -1.725
REMARK UNBOUND:                -2.454
REMARK SMILES CCCCCCCCC=CCCCCCCCC(=O)[O-]
REMARK SMILES IDX 10 1 9 2 11 3 12 4 13 5 14 6 15 7 16 8 17 9 18 10 19 11
REMARK SMILES IDX 20 12 8 13 7 14 6 15 5 16 4 17 3 18 2 19 1 20
REMARK H PARENT
REMARK Flexibility Score: inf
ROOT
ATOM      1  C   UNL     1     -24.963 -31.470 -11.536  1.00  0.00    -0.031 C 
ATOM      2  C   UNL     1     -23.809 -32.126 -11.339  1.00  0.00    -0.031 C 
ENDROOT
BRANCH   1   3
ATOM      3  C   UNL     1     -25.877 -31.126 -10.392  1.00  0.00     0.027 C 
BRANCH   3   4
ATOM      4  C   UNL     1     -27.284 -30.769 -10.896  1.00  0.00     0.004 C 
BRANCH   4   5
ATOM      5  C   UNL     1     -27.347 -30.625 -12.425  1.00  0.00     0.000 C 
BRANCH   5   6
ATOM      6  C   UNL     1     -28.592 -31.296 -13.032  1.00  0.00     0.000 C 
BRANCH   6   7
ATOM      7  C   UNL     1     -28.530 -32.831 -12.955  1.00  0.00     0.000 C 
BRANCH   7   8
ATOM      8  C   UNL     1     -27.359 -33.417 -13.761  1.00  0.00     0.006 C 
BRANCH   8   9
ATOM      9  C   UNL     1     -27.267 -34.943 -13.621  1.00  0.00     0.053 C 
BRANCH   9  10
ATOM     10  C   UNL     1     -26.098 -35.355 -12.780  1.00  0.00     0.041 C 
ATOM     11  O   UNL     1     -25.970 -34.910 -11.609  1.00  0.00    -0.550 OA
ATOM     12  O   UNL     1     -25.166 -36.256 -13.278  1.00  0.00    -0.550 OA
ENDBRANCH   9  10
ENDBRANCH   8   9
ENDBRANCH   7   8
ENDBRANCH   6   7
ENDBRANCH   5   6
ENDBRANCH   4   5
ENDBRANCH   3   4
ENDBRANCH   1   3
BRANCH   2  13
ATOM     13  C   UNL     1     -22.889 -32.462 -12.481  1.00  0.00     0.027 C 
BRANCH  13  14
ATOM     14  C   UNL     1     -22.727 -33.980 -12.634  1.00  0.00     0.004 C 
BRANCH  14  15
ATOM     15  C   UNL     1     -21.252 -34.389 -12.520  1.00  0.00     0.000 C 
BRANCH  15  16
ATOM     16  C   UNL     1     -20.595 -34.642 -13.889  1.00  0.00     0.000 C 
BRANCH  16  17
ATOM     17  C   UNL     1     -19.224 -33.967 -14.089  1.00  0.00    -0.000 C 
BRANCH  17  18
ATOM     18  C   UNL     1     -19.270 -32.568 -14.737  1.00  0.00    -0.000 C 
BRANCH  18  19
ATOM     19  C   UNL     1     -20.530 -32.286 -15.574  1.00  0.00    -0.003 C 
ATOM     20  C   UNL     1     -20.676 -30.813 -15.953  1.00  0.00     0.004 C 
ENDBRANCH  18  19
ENDBRANCH  17  18
ENDBRANCH  16  17
ENDBRANCH  15  16
ENDBRANCH  14  15
ENDBRANCH  13  14
ENDBRANCH   2  13
TORSDOF 15
ENDMDL
MODEL 8
REMARK VINA RESULT:    -4.514      2.801      6.404
REMARK INTER + INTRA:         -10.926
REMARK INTER:                  -8.232
REMARK INTRA:                  -2.693
REMARK UNBOUND:                -2.454
REMARK SMILES CCCCCCCCC=CCCCCCCCC(=O)[O-]
REMARK SMILES IDX 10 1 9 2 11 3 12 4 13 5 14 6 15 7 16 8 17 9 18 10 19 11
REMARK SMILES IDX 20 12 8 13 7 14 6 15 5 16 4 17 3 18 2 19 1 20
REMARK H PARENT
REMARK Flexibility Score: inf
ROOT
ATOM      1  C   UNL     1     -24.448 -32.952 -11.447  1.00  0.00    -0.031 C 
ATOM      2  C   UNL     1     -23.726 -33.354 -12.503  1.00  0.00    -0.031 C 
ENDROOT
BRANCH   1   3
ATOM      3  C   UNL     1     -24.980 -31.548 -11.345  1.00  0.00     0.027 C 
BRANCH   3   4
ATOM      4  C   UNL     1     -24.670 -30.745 -12.618  1.00  0.00     0.004 C 
BRANCH   4   5
ATOM      5  C   UNL     1     -25.931 -30.419 -13.435  1.00  0.00     0.000 C 
BRANCH   5   6
ATOM      6  C   UNL     1     -27.184 -30.268 -12.554  1.00  0.00     0.000 C 
BRANCH   6   7
ATOM      7  C   UNL     1     -28.361 -31.123 -13.053  1.00  0.00     0.000 C 
BRANCH   7   8
ATOM      8  C   UNL     1     -28.314 -32.565 -12.518  1.00  0.00     0.006 C 
BRANCH   8   9
ATOM      9  C   UNL     1     -27.809 -33.556 -13.574  1.00  0.00     0.053 C 
BRANCH   9  10
ATOM     10  C   UNL     1     -27.174 -34.760 -12.949  1.00  0.00     0.041 C 
ATOM     11  O   UNL     1     -26.494 -35.556 -13.649  1.00  0.00    -0.550 OA
ATOM     12  O   UNL     1     -27.308 -34.988 -11.585  1.00  0.00    -0.550 OA
ENDBRANCH   9  10
ENDBRANCH   8   9
ENDBRANCH   7   8
ENDBRANCH   6   7
ENDBRANCH   5   6
ENDBRANCH   4   5
ENDBRANCH   3   4
ENDBRANCH   1   3
BRANCH   2  13
ATOM     13  C   UNL     1     -23.202 -34.760 -12.611  1.00  0.00     0.027 C 
BRANCH  13  14
ATOM     14  C   UNL     1     -21.699 -34.816 -12.308  1.00  0.00     0.004 C 
BRANCH  14  15
ATOM     15  C   UNL     1     -20.899 -35.178 -13.567  1.00  0.00     0.000 C 
BRANCH  15  16
ATOM     16  C   UNL     1     -20.001 -34.027 -14.055  1.00  0.00     0.000 C 
BRANCH  16  17
ATOM     17  C   UNL     1     -20.719 -32.952 -14.895  1.00  0.00    -0.000 C 
BRANCH  17  18
ATOM     18  C   UNL     1     -20.939 -31.602 -14.183  1.00  0.00    -0.000 C 
BRANCH  18  19
ATOM     19  C   UNL     1     -20.169 -31.437 -12.861  1.00  0.00    -0.003 C 
ATOM     20  C   UNL     1     -21.059 -30.977 -11.707  1.00  0.00     0.004 C 
ENDBRANCH  18  19
ENDBRANCH  17  18
ENDBRANCH  16  17
ENDBRANCH  15  16
ENDBRANCH  14  15
ENDBRANCH  13  14
ENDBRANCH   2  13
TORSDOF 15
ENDMDL
MODEL 9
REMARK VINA RESULT:    -4.483      2.754      6.548
REMARK INTER + INTRA:         -10.868
REMARK INTER:                  -8.503
REMARK INTRA:                  -2.365
REMARK UNBOUND:                -2.454
REMARK SMILES CCCCCCCCC=CCCCCCCCC(=O)[O-]
REMARK SMILES IDX 10 1 9 2 11 3 12 4 13 5 14 6 15 7 16 8 17 9 18 10 19 11
REMARK SMILES IDX 20 12 8 13 7 14 6 15 5 16 4 17 3 18 2 19 1 20
REMARK H PARENT
REMARK Flexibility Score: inf
ROOT
ATOM      1  C   UNL     1     -23.262 -34.051 -12.862  1.00  0.00    -0.031 C 
ATOM      2  C   UNL     1     -23.203 -33.030 -11.994  1.00  0.00    -0.031 C 
ENDROOT
BRANCH   1   3
ATOM      3  C   UNL     1     -23.739 -35.414 -12.443  1.00  0.00     0.027 C 
BRANCH   3   4
ATOM      4  C   UNL     1     -25.259 -35.550 -12.628  1.00  0.00     0.004 C 
BRANCH   4   5
ATOM      5  C   UNL     1     -26.050 -35.091 -11.393  1.00  0.00     0.000 C 
BRANCH   5   6
ATOM      6  C   UNL     1     -27.470 -34.613 -11.744  1.00  0.00     0.000 C 
BRANCH   6   7
ATOM      7  C   UNL     1     -27.566 -34.053 -13.174  1.00  0.00     0.000 C 
BRANCH   7   8
ATOM      8  C   UNL     1     -27.882 -32.548 -13.200  1.00  0.00     0.006 C 
BRANCH   8   9
ATOM      9  C   UNL     1     -26.678 -31.698 -12.773  1.00  0.00     0.053 C 
BRANCH   9  10
ATOM     10  C   UNL     1     -26.848 -31.147 -11.390  1.00  0.00     0.041 C 
ATOM     11  O   UNL     1     -26.039 -31.462 -10.478  1.00  0.00    -0.550 OA
ATOM     12  O   UNL     1     -27.883 -30.263 -11.115  1.00  0.00    -0.550 OA
ENDBRANCH   9  10
ENDBRANCH   8   9
ENDBRANCH   7   8
ENDBRANCH   6   7
ENDBRANCH   5   6
ENDBRANCH   4   5
ENDBRANCH   3   4
ENDBRANCH   1   3
BRANCH   2  13
ATOM     13  C   UNL     1     -22.734 -31.663 -12.415  1.00  0.00     0.027 C 
BRANCH  13  14
ATOM     14  C   UNL     1     -21.376 -31.326 -11.788  1.00  0.00     0.004 C 
BRANCH  14  15
ATOM     15  C   UNL     1     -20.250 -31.434 -12.827  1.00  0.00     0.000 C 
BRANCH  15  16
ATOM     16  C   UNL     1     -20.770 -31.760 -14.239  1.00  0.00     0.000 C 
BRANCH  16  17
ATOM     17  C   UNL     1     -20.219 -33.062 -14.852  1.00  0.00    -0.000 C 
BRANCH  17  18
ATOM     18  C   UNL     1     -19.448 -33.972 -13.874  1.00  0.00    -0.000 C 
BRANCH  18  19
ATOM     19  C   UNL     1     -20.073 -35.362 -13.660  1.00  0.00    -0.003 C 
ATOM     20  C   UNL     1     -19.974 -35.841 -12.212  1.00  0.00     0.004 C 
ENDBRANCH  18  19
ENDBRANCH  17  18
ENDBRANCH  16  17
ENDBRANCH  15  16
ENDBRANCH  14  15
ENDBRANCH  13  14
ENDBRANCH   2  13
TORSDOF 15
ENDMDL
