MODEL 1
REMARK VINA RESULT:    -4.763      0.000      0.000
REMARK INTER + INTRA:          -7.475
REMARK INTER:                  -6.434
REMARK INTRA:                  -1.041
REMARK UNBOUND:                -1.041
REMARK SMILES CC(=O)CCC=C(C)CCC=C(C)C
REMARK SMILES IDX 7 1 6 2 8 3 9 4 10 5 11 6 13 7 12 8 14 9 5 10 4 11 2 12 3 13
REMARK SMILES IDX 1 14
REMARK H PARENT
REMARK Flexibility Score: inf
ROOT
ATOM      1  C   UNL     1      17.756  -9.559  13.401  1.00  0.00    -0.077 C 
ATOM      2  C   UNL     1      17.647  -8.440  12.649  1.00  0.00    -0.028 C 
ATOM      3  C   UNL     1      18.524  -9.573  14.702  1.00  0.00     0.039 C 
ENDROOT
BRANCH   1   4
ATOM      4  C   UNL     1      17.080 -10.829  12.930  1.00  0.00     0.034 C 
BRANCH   4   5
ATOM      5  C   UNL     1      15.999 -10.519  11.889  1.00  0.00     0.032 C 
BRANCH   5   6
ATOM      6  C   UNL     1      14.666 -11.102  12.292  1.00  0.00    -0.028 C 
ATOM      7  C   UNL     1      13.704  -8.837  12.716  1.00  0.00     0.039 C 
ATOM      8  C   UNL     1      13.615 -10.345  12.669  1.00  0.00    -0.080 C 
ATOM      9  C   UNL     1      12.328 -11.030  13.052  1.00  0.00     0.039 C 
ENDBRANCH   5   6
ENDBRANCH   4   5
ENDBRANCH   1   4
BRANCH   2  10
ATOM     10  C   UNL     1      18.299  -7.121  12.980  1.00  0.00     0.035 C 
BRANCH  10  11
ATOM     11  C   UNL     1      17.253  -6.006  13.078  1.00  0.00     0.079 C 
BRANCH  11  12
ATOM     12  C   UNL     1      16.463  -6.127  14.355  1.00  0.00     0.130 C 
ATOM     13  O   UNL     1      15.243  -6.099  14.311  1.00  0.00    -0.300 OA
ATOM     14  C   UNL     1      17.143  -6.291  15.682  1.00  0.00     0.087 C 
ENDBRANCH  11  12
ENDBRANCH  10  11
ENDBRANCH   2  10
TORSDOF 6
ENDMDL
MODEL 2
REMARK VINA RESULT:    -4.637      2.342      5.292
REMARK INTER + INTRA:          -7.304
REMARK INTER:                  -6.542
REMARK INTRA:                  -0.762
REMARK UNBOUND:                -1.041
REMARK SMILES CC(=O)CCC=C(C)CCC=C(C)C
REMARK SMILES IDX 7 1 6 2 8 3 9 4 10 5 11 6 13 7 12 8 14 9 5 10 4 11 2 12 3 13
REMARK SMILES IDX 1 14
REMARK H PARENT
REMARK Flexibility Score: inf
ROOT
ATOM      1  C   UNL     1      17.793  -8.981  12.802  1.00  0.00    -0.077 C 
ATOM      2  C   UNL     1      16.890  -9.752  12.152  1.00  0.00    -0.028 C 
ATOM      3  C   UNL     1      18.389  -9.397  14.126  1.00  0.00     0.039 C 
ENDROOT
BRANCH   1   4
ATOM      4  C   UNL     1      18.223  -7.671  12.177  1.00  0.00     0.034 C 
BRANCH   4   5
ATOM      5  C   UNL     1      18.130  -6.526  13.191  1.00  0.00     0.032 C 
BRANCH   5   6
ATOM      6  C   UNL     1      16.694  -6.147  13.459  1.00  0.00    -0.028 C 
ATOM      7  C   UNL     1      17.019  -6.308  15.929  1.00  0.00     0.039 C 
ATOM      8  C   UNL     1      16.179  -6.045  14.702  1.00  0.00    -0.080 C 
ATOM      9  C   UNL     1      14.730  -5.659  14.857  1.00  0.00     0.039 C 
ENDBRANCH   5   6
ENDBRANCH   4   5
ENDBRANCH   1   4
BRANCH   2  10
ATOM     10  C   UNL     1      16.348 -11.058  12.677  1.00  0.00     0.035 C 
BRANCH  10  11
ATOM     11  C   UNL     1      14.882 -11.241  12.269  1.00  0.00     0.079 C 
BRANCH  11  12
ATOM     12  C   UNL     1      14.405 -12.629  12.606  1.00  0.00     0.130 C 
ATOM     13  O   UNL     1      15.199 -13.557  12.591  1.00  0.00    -0.300 OA
ATOM     14  C   UNL     1      12.975 -12.899  12.970  1.00  0.00     0.087 C 
ENDBRANCH  11  12
ENDBRANCH  10  11
ENDBRANCH   2  10
TORSDOF 6
ENDMDL
MODEL 3
REMARK VINA RESULT:    -4.517      1.792      2.596
REMARK INTER + INTRA:          -7.141
REMARK INTER:                  -6.640
REMARK INTRA:                  -0.501
REMARK UNBOUND:                -1.041
REMARK SMILES CC(=O)CCC=C(C)CCC=C(C)C
REMARK SMILES IDX 7 1 6 2 8 3 9 4 10 5 11 6 13 7 12 8 14 9 5 10 4 11 2 12 3 13
REMARK SMILES IDX 1 14
REMARK H PARENT
REMARK Flexibility Score: inf
ROOT
ATOM      1  C   UNL     1      17.895  -8.543  13.964  1.00  0.00    -0.077 C 
ATOM      2  C   UNL     1      17.468  -7.364  14.469  1.00  0.00    -0.028 C 
ATOM      3  C   UNL     1      18.577  -9.580  14.825  1.00  0.00     0.039 C 
ENDROOT
BRANCH   1   4
ATOM      4  C   UNL     1      17.674  -8.835  12.494  1.00  0.00     0.034 C 
BRANCH   4   5
ATOM      5  C   UNL     1      17.009 -10.202  12.303  1.00  0.00     0.032 C 
BRANCH   5   6
ATOM      6  C   UNL     1      15.517 -10.120  12.515  1.00  0.00    -0.028 C 
ATOM      7  C   UNL     1      15.239 -12.573  12.140  1.00  0.00     0.039 C 
ATOM      8  C   UNL     1      14.703 -11.194  12.444  1.00  0.00    -0.080 C 
ATOM      9  C   UNL     1      13.226 -11.000  12.675  1.00  0.00     0.039 C 
ENDBRANCH   5   6
ENDBRANCH   4   5
ENDBRANCH   1   4
BRANCH   2  10
ATOM     10  C   UNL     1      17.656  -6.930  15.902  1.00  0.00     0.035 C 
BRANCH  10  11
ATOM     11  C   UNL     1      16.551  -5.957  16.326  1.00  0.00     0.079 C 
BRANCH  11  12
ATOM     12  C   UNL     1      16.364  -5.981  17.820  1.00  0.00     0.130 C 
ATOM     13  O   UNL     1      16.000  -7.013  18.363  1.00  0.00    -0.300 OA
ATOM     14  C   UNL     1      16.625  -4.766  18.661  1.00  0.00     0.087 C 
ENDBRANCH  11  12
ENDBRANCH  10  11
ENDBRANCH   2  10
TORSDOF 6
ENDMDL
MODEL 4
REMARK VINA RESULT:    -4.359      1.203      2.369
REMARK INTER + INTRA:          -6.928
REMARK INTER:                  -6.069
REMARK INTRA:                  -0.859
REMARK UNBOUND:                -1.041
REMARK SMILES CC(=O)CCC=C(C)CCC=C(C)C
REMARK SMILES IDX 7 1 6 2 8 3 9 4 10 5 11 6 13 7 12 8 14 9 5 10 4 11 2 12 3 13
REMARK SMILES IDX 1 14
REMARK H PARENT
REMARK Flexibility Score: inf
ROOT
ATOM      1  C   UNL     1      17.951  -8.013  13.280  1.00  0.00    -0.077 C 
ATOM      2  C   UNL     1      17.354  -7.239  14.215  1.00  0.00    -0.028 C 
ATOM      3  C   UNL     1      18.515  -7.431  12.005  1.00  0.00     0.039 C 
ENDROOT
BRANCH   1   4
ATOM      4  C   UNL     1      18.067  -9.503  13.524  1.00  0.00     0.034 C 
BRANCH   4   5
ATOM      5  C   UNL     1      17.392 -10.295  12.399  1.00  0.00     0.032 C 
BRANCH   5   6
ATOM      6  C   UNL     1      15.888 -10.222  12.504  1.00  0.00    -0.028 C 
ATOM      7  C   UNL     1      15.673 -12.709  12.435  1.00  0.00     0.039 C 
ATOM      8  C   UNL     1      15.097 -11.315  12.522  1.00  0.00    -0.080 C 
ATOM      9  C   UNL     1      13.605 -11.129  12.630  1.00  0.00     0.039 C 
ENDBRANCH   5   6
ENDBRANCH   4   5
ENDBRANCH   1   4
BRANCH   2  10
ATOM     10  C   UNL     1      17.140  -5.752  14.083  1.00  0.00     0.035 C 
BRANCH  10  11
ATOM     11  C   UNL     1      15.878  -5.455  13.266  1.00  0.00     0.079 C 
BRANCH  11  12
ATOM     12  C   UNL     1      14.668  -6.077  13.910  1.00  0.00     0.130 C 
ATOM     13  O   UNL     1      14.268  -5.646  14.981  1.00  0.00    -0.300 OA
ATOM     14  C   UNL     1      13.932  -7.212  13.260  1.00  0.00     0.087 C 
ENDBRANCH  11  12
ENDBRANCH  10  11
ENDBRANCH   2  10
TORSDOF 6
ENDMDL
MODEL 5
REMARK VINA RESULT:    -4.281      1.880      4.122
REMARK INTER + INTRA:          -6.824
REMARK INTER:                  -6.046
REMARK INTRA:                  -0.778
REMARK UNBOUND:                -1.041
REMARK SMILES CC(=O)CCC=C(C)CCC=C(C)C
REMARK SMILES IDX 7 1 6 2 8 3 9 4 10 5 11 6 13 7 12 8 14 9 5 10 4 11 2 12 3 13
REMARK SMILES IDX 1 14
REMARK H PARENT
REMARK Flexibility Score: inf
ROOT
ATOM      1  C   UNL     1      14.183  -9.248  12.611  1.00  0.00    -0.077 C 
ATOM      2  C   UNL     1      14.718  -8.006  12.577  1.00  0.00    -0.028 C 
ATOM      3  C   UNL     1      12.718  -9.477  12.898  1.00  0.00     0.039 C 
ENDROOT
BRANCH   1   4
ATOM      4  C   UNL     1      15.077 -10.439  12.343  1.00  0.00     0.034 C 
BRANCH   4   5
ATOM      5  C   UNL     1      16.531  -9.998  12.144  1.00  0.00     0.032 C 
BRANCH   5   6
ATOM      6  C   UNL     1      17.361 -10.276  13.374  1.00  0.00    -0.028 C 
ATOM      7  C   UNL     1      18.085  -7.891  13.533  1.00  0.00     0.039 C 
ATOM      8  C   UNL     1      18.071  -9.323  14.014  1.00  0.00    -0.080 C 
ATOM      9  C   UNL     1      18.866  -9.709  15.235  1.00  0.00     0.039 C 
ENDBRANCH   5   6
ENDBRANCH   4   5
ENDBRANCH   1   4
BRANCH   2  10
ATOM     10  C   UNL     1      13.951  -6.738  12.861  1.00  0.00     0.035 C 
BRANCH  10  11
ATOM     11  C   UNL     1      14.498  -6.040  14.111  1.00  0.00     0.079 C 
BRANCH  11  12
ATOM     12  C   UNL     1      13.666  -4.833  14.453  1.00  0.00     0.130 C 
ATOM     13  O   UNL     1      13.451  -4.564  15.625  1.00  0.00    -0.300 OA
ATOM     14  C   UNL     1      13.101  -3.942  13.385  1.00  0.00     0.087 C 
ENDBRANCH  11  12
ENDBRANCH  10  11
ENDBRANCH   2  10
TORSDOF 6
ENDMDL
MODEL 6
REMARK VINA RESULT:    -4.129      2.018      5.316
REMARK INTER + INTRA:          -6.618
REMARK INTER:                  -5.809
REMARK INTRA:                  -0.810
REMARK UNBOUND:                -1.041
REMARK SMILES CC(=O)CCC=C(C)CCC=C(C)C
REMARK SMILES IDX 7 1 6 2 8 3 9 4 10 5 11 6 13 7 12 8 14 9 5 10 4 11 2 12 3 13
REMARK SMILES IDX 1 14
REMARK H PARENT
REMARK Flexibility Score: inf
ROOT
ATOM      1  C   UNL     1      15.207  -7.102  12.679  1.00  0.00    -0.077 C 
ATOM      2  C   UNL     1      14.893  -8.277  12.087  1.00  0.00    -0.028 C 
ATOM      3  C   UNL     1      14.343  -6.498  13.761  1.00  0.00     0.039 C 
ENDROOT
BRANCH   1   4
ATOM      4  C   UNL     1      16.466  -6.377  12.252  1.00  0.00     0.034 C 
BRANCH   4   5
ATOM      5  C   UNL     1      17.629  -7.360  12.075  1.00  0.00     0.032 C 
BRANCH   5   6
ATOM      6  C   UNL     1      18.131  -7.860  13.408  1.00  0.00    -0.028 C 
ATOM      7  C   UNL     1      17.600 -10.228  12.822  1.00  0.00     0.039 C 
ATOM      8  C   UNL     1      18.123  -9.163  13.757  1.00  0.00    -0.080 C 
ATOM      9  C   UNL     1      18.650  -9.554  15.114  1.00  0.00     0.039 C 
ENDBRANCH   5   6
ENDBRANCH   4   5
ENDBRANCH   1   4
BRANCH   2  10
ATOM     10  C   UNL     1      13.654  -9.081  12.390  1.00  0.00     0.035 C 
BRANCH  10  11
ATOM     11  C   UNL     1      13.981 -10.576  12.465  1.00  0.00     0.079 C 
BRANCH  11  12
ATOM     12  C   UNL     1      12.803 -11.354  12.991  1.00  0.00     0.130 C 
ATOM     13  O   UNL     1      11.813 -10.754  13.381  1.00  0.00    -0.300 OA
ATOM     14  C   UNL     1      12.813 -12.854  13.037  1.00  0.00     0.087 C 
ENDBRANCH  11  12
ENDBRANCH  10  11
ENDBRANCH   2  10
TORSDOF 6
ENDMDL
MODEL 7
REMARK VINA RESULT:    -3.945      2.100      2.816
REMARK INTER + INTRA:          -6.369
REMARK INTER:                  -5.862
REMARK INTRA:                  -0.507
REMARK UNBOUND:                -1.041
REMARK SMILES CC(=O)CCC=C(C)CCC=C(C)C
REMARK SMILES IDX 7 1 6 2 8 3 9 4 10 5 11 6 13 7 12 8 14 9 5 10 4 11 2 12 3 13
REMARK SMILES IDX 1 14
REMARK H PARENT
REMARK Flexibility Score: inf
ROOT
ATOM      1  C   UNL     1      16.572  -7.896  13.101  1.00  0.00    -0.077 C 
ATOM      2  C   UNL     1      15.597  -6.965  12.990  1.00  0.00    -0.028 C 
ATOM      3  C   UNL     1      17.744  -7.715  14.036  1.00  0.00     0.039 C 
ENDROOT
BRANCH   1   4
ATOM      4  C   UNL     1      16.478  -9.159  12.272  1.00  0.00     0.034 C 
BRANCH   4   5
ATOM      5  C   UNL     1      15.091  -9.799  12.405  1.00  0.00     0.032 C 
BRANCH   5   6
ATOM      6  C   UNL     1      15.180 -11.305  12.394  1.00  0.00    -0.028 C 
ATOM      7  C   UNL     1      12.763 -11.540  12.976  1.00  0.00     0.039 C 
ATOM      8  C   UNL     1      14.125 -12.107  12.652  1.00  0.00    -0.080 C 
ATOM      9  C   UNL     1      14.323 -13.600  12.613  1.00  0.00     0.039 C 
ENDBRANCH   5   6
ENDBRANCH   4   5
ENDBRANCH   1   4
BRANCH   2  10
ATOM     10  C   UNL     1      15.585  -5.649  13.728  1.00  0.00     0.035 C 
BRANCH  10  11
ATOM     11  C   UNL     1      14.630  -5.704  14.924  1.00  0.00     0.079 C 
BRANCH  11  12
ATOM     12  C   UNL     1      13.539  -4.676  14.782  1.00  0.00     0.130 C 
ATOM     13  O   UNL     1      12.998  -4.232  15.783  1.00  0.00    -0.300 OA
ATOM     14  C   UNL     1      13.107  -4.174  13.435  1.00  0.00     0.087 C 
ENDBRANCH  11  12
ENDBRANCH  10  11
ENDBRANCH   2  10
TORSDOF 6
ENDMDL
MODEL 8
REMARK VINA RESULT:    -3.937      2.071      5.059
REMARK INTER + INTRA:          -6.359
REMARK INTER:                  -5.287
REMARK INTRA:                  -1.072
REMARK UNBOUND:                -1.041
REMARK SMILES CC(=O)CCC=C(C)CCC=C(C)C
REMARK SMILES IDX 7 1 6 2 8 3 9 4 10 5 11 6 13 7 12 8 14 9 5 10 4 11 2 12 3 13
REMARK SMILES IDX 1 14
REMARK H PARENT
REMARK Flexibility Score: inf
ROOT
ATOM      1  C   UNL     1      14.938  -7.076  12.802  1.00  0.00    -0.077 C 
ATOM      2  C   UNL     1      15.083  -8.421  12.793  1.00  0.00    -0.028 C 
ATOM      3  C   UNL     1      15.729  -6.183  11.875  1.00  0.00     0.039 C 
ENDROOT
BRANCH   1   4
ATOM      4  C   UNL     1      13.946  -6.451  13.760  1.00  0.00     0.034 C 
BRANCH   4   5
ATOM      5  C   UNL     1      14.548  -5.216  14.440  1.00  0.00     0.032 C 
BRANCH   5   6
ATOM      6  C   UNL     1      14.867  -5.489  15.890  1.00  0.00    -0.028 C 
ATOM      7  C   UNL     1      17.220  -6.123  15.344  1.00  0.00     0.039 C 
ATOM      8  C   UNL     1      16.081  -5.902  16.311  1.00  0.00    -0.080 C 
ATOM      9  C   UNL     1      16.293  -6.145  17.783  1.00  0.00     0.039 C 
ENDBRANCH   5   6
ENDBRANCH   4   5
ENDBRANCH   1   4
BRANCH   2  10
ATOM     10  C   UNL     1      16.057  -9.169  11.918  1.00  0.00     0.035 C 
BRANCH  10  11
ATOM     11  C   UNL     1      16.968 -10.067  12.762  1.00  0.00     0.079 C 
BRANCH  11  12
ATOM     12  C   UNL     1      18.040  -9.253  13.437  1.00  0.00     0.130 C 
ATOM     13  O   UNL     1      18.501  -8.276  12.868  1.00  0.00    -0.300 OA
ATOM     14  C   UNL     1      18.549  -9.610  14.803  1.00  0.00     0.087 C 
ENDBRANCH  11  12
ENDBRANCH  10  11
ENDBRANCH   2  10
TORSDOF 6
ENDMDL
MODEL 9
REMARK VINA RESULT:    -3.820      2.502      5.826
REMARK INTER + INTRA:          -6.201
REMARK INTER:                  -5.516
REMARK INTRA:                  -0.684
REMARK UNBOUND:                -1.041
REMARK SMILES CC(=O)CCC=C(C)CCC=C(C)C
REMARK SMILES IDX 7 1 6 2 8 3 9 4 10 5 11 6 13 7 12 8 14 9 5 10 4 11 2 12 3 13
REMARK SMILES IDX 1 14
REMARK H PARENT
REMARK Flexibility Score: inf
ROOT
ATOM      1  C   UNL     1      15.922  -8.734  12.422  1.00  0.00    -0.077 C 
ATOM      2  C   UNL     1      14.680  -9.271  12.453  1.00  0.00    -0.028 C 
ATOM      3  C   UNL     1      17.163  -9.591  12.504  1.00  0.00     0.039 C 
ENDROOT
BRANCH   1   4
ATOM      4  C   UNL     1      16.069  -7.233  12.289  1.00  0.00     0.034 C 
BRANCH   4   5
ATOM      5  C   UNL     1      17.318  -6.739  13.029  1.00  0.00     0.032 C 
BRANCH   5   6
ATOM      6  C   UNL     1      16.960  -6.136  14.365  1.00  0.00    -0.028 C 
ATOM      7  C   UNL     1      18.014  -8.032  15.602  1.00  0.00     0.039 C 
ATOM      8  C   UNL     1      17.273  -6.717  15.542  1.00  0.00    -0.080 C 
ATOM      9  C   UNL     1      16.869  -6.028  16.821  1.00  0.00     0.039 C 
ENDBRANCH   5   6
ENDBRANCH   4   5
ENDBRANCH   1   4
BRANCH   2  10
ATOM     10  C   UNL     1      14.390 -10.742  12.619  1.00  0.00     0.035 C 
BRANCH  10  11
ATOM     11  C   UNL     1      12.901 -10.975  12.891  1.00  0.00     0.079 C 
BRANCH  11  12
ATOM     12  C   UNL     1      12.532 -12.413  12.638  1.00  0.00     0.130 C 
ATOM     13  O   UNL     1      11.420 -12.682  12.210  1.00  0.00    -0.300 OA
ATOM     14  C   UNL     1      13.505 -13.527  12.892  1.00  0.00     0.087 C 
ENDBRANCH  11  12
ENDBRANCH  10  11
ENDBRANCH   2  10
TORSDOF 6
ENDMDL
