MODEL 1
REMARK VINA RESULT:    -3.337      0.000      0.000
REMARK INTER + INTRA:          -3.967
REMARK INTER:                  -3.922
REMARK INTRA:                  -0.045
REMARK UNBOUND:                -0.045
REMARK SMILES CCCCC(=O)[O-]
REMARK SMILES IDX 4 1 5 2 6 3 7 4 3 5 2 6 1 7
REMARK H PARENT
REMARK Flexibility Score: inf
ROOT
ATOM      1  C   UNL     1      -2.935  -1.983 -19.013  1.00  0.00     0.053 C 
ENDROOT
BRANCH   1   2
ATOM      2  C   UNL     1      -1.478  -1.721 -19.232  1.00  0.00     0.041 C 
ATOM      3  O   UNL     1      -0.875  -2.259 -20.197  1.00  0.00    -0.550 OA
ATOM      4  O   UNL     1      -0.798  -0.842 -18.399  1.00  0.00    -0.550 OA
ENDBRANCH   1   2
BRANCH   1   5
ATOM      5  C   UNL     1      -3.373  -1.471 -17.638  1.00  0.00     0.006 C 
BRANCH   5   6
ATOM      6  C   UNL     1      -3.644  -2.634 -16.678  1.00  0.00    -0.003 C 
ATOM      7  C   UNL     1      -4.425  -2.168 -15.453  1.00  0.00     0.004 C 
ENDBRANCH   5   6
ENDBRANCH   1   5
TORSDOF 3
ENDMDL
MODEL 2
REMARK VINA RESULT:    -3.319      9.099      9.986
REMARK INTER + INTRA:          -3.946
REMARK INTER:                  -3.864
REMARK INTRA:                  -0.082
REMARK UNBOUND:                -0.045
REMARK SMILES CCCCC(=O)[O-]
REMARK SMILES IDX 4 1 5 2 6 3 7 4 3 5 2 6 1 7
REMARK H PARENT
REMARK Flexibility Score: inf
ROOT
ATOM      1  C   UNL     1     -11.441  -4.845 -16.122  1.00  0.00     0.053 C 
ENDROOT
BRANCH   1   2
ATOM      2  C   UNL     1     -12.535  -4.323 -15.246  1.00  0.00     0.041 C 
ATOM      3  O   UNL     1     -13.441  -3.595 -15.729  1.00  0.00    -0.550 OA
ATOM      4  O   UNL     1     -12.583  -4.683 -13.905  1.00  0.00    -0.550 OA
ENDBRANCH   1   2
BRANCH   1   5
ATOM      5  C   UNL     1     -10.368  -3.774 -16.338  1.00  0.00     0.006 C 
BRANCH   5   6
ATOM      6  C   UNL     1      -9.026  -4.210 -15.740  1.00  0.00    -0.003 C 
ATOM      7  C   UNL     1      -8.811  -3.596 -14.361  1.00  0.00     0.004 C 
ENDBRANCH   5   6
ENDBRANCH   1   5
TORSDOF 3
ENDMDL
MODEL 3
REMARK VINA RESULT:    -3.248      8.222      9.329
REMARK INTER + INTRA:          -3.862
REMARK INTER:                  -3.772
REMARK INTRA:                  -0.090
REMARK UNBOUND:                -0.045
REMARK SMILES CCCCC(=O)[O-]
REMARK SMILES IDX 4 1 5 2 6 3 7 4 3 5 2 6 1 7
REMARK H PARENT
REMARK Flexibility Score: inf
ROOT
ATOM      1  C   UNL     1     -10.258  -4.322 -14.662  1.00  0.00     0.053 C 
ENDROOT
BRANCH   1   2
ATOM      2  C   UNL     1      -9.723  -4.248 -16.057  1.00  0.00     0.041 C 
ATOM      3  O   UNL     1      -8.991  -5.168 -16.504  1.00  0.00    -0.550 OA
ATOM      4  O   UNL     1     -10.075  -3.186 -16.881  1.00  0.00    -0.550 OA
ENDBRANCH   1   2
BRANCH   1   5
ATOM      5  C   UNL     1     -11.429  -5.306 -14.586  1.00  0.00     0.006 C 
BRANCH   5   6
ATOM      6  C   UNL     1     -12.708  -4.604 -14.116  1.00  0.00    -0.003 C 
ATOM      7  C   UNL     1     -13.392  -3.874 -15.267  1.00  0.00     0.004 C 
ENDBRANCH   5   6
ENDBRANCH   1   5
TORSDOF 3
ENDMDL
MODEL 4
REMARK VINA RESULT:    -3.239      7.930      9.000
REMARK INTER + INTRA:          -3.852
REMARK INTER:                  -3.794
REMARK INTRA:                  -0.058
REMARK UNBOUND:                -0.045
REMARK SMILES CCCCC(=O)[O-]
REMARK SMILES IDX 4 1 5 2 6 3 7 4 3 5 2 6 1 7
REMARK H PARENT
REMARK Flexibility Score: inf
ROOT
ATOM      1  C   UNL     1     -10.442  -3.751 -16.211  1.00  0.00     0.053 C 
ENDROOT
BRANCH   1   2
ATOM      2  C   UNL     1      -9.119  -4.034 -15.571  1.00  0.00     0.041 C 
ATOM      3  O   UNL     1      -8.802  -3.466 -14.494  1.00  0.00    -0.550 OA
ATOM      4  O   UNL     1      -8.257  -4.964 -16.139  1.00  0.00    -0.550 OA
ENDBRANCH   1   2
BRANCH   1   5
ATOM      5  C   UNL     1     -11.408  -4.918 -15.986  1.00  0.00     0.006 C 
BRANCH   5   6
ATOM      6  C   UNL     1     -12.227  -4.715 -14.706  1.00  0.00    -0.003 C 
ATOM      7  C   UNL     1     -13.552  -4.020 -15.003  1.00  0.00     0.004 C 
ENDBRANCH   5   6
ENDBRANCH   1   5
TORSDOF 3
ENDMDL
MODEL 5
REMARK VINA RESULT:    -3.114      9.747     10.382
REMARK INTER + INTRA:          -3.706
REMARK INTER:                  -3.628
REMARK INTRA:                  -0.077
REMARK UNBOUND:                -0.045
REMARK SMILES CCCCC(=O)[O-]
REMARK SMILES IDX 4 1 5 2 6 3 7 4 3 5 2 6 1 7
REMARK H PARENT
REMARK Flexibility Score: inf
ROOT
ATOM      1  C   UNL     1      -7.296   0.750  -8.705  1.00  0.00     0.053 C 
ENDROOT
BRANCH   1   2
ATOM      2  C   UNL     1      -6.451  -0.391  -9.177  1.00  0.00     0.041 C 
ATOM      3  O   UNL     1      -6.818  -1.087 -10.160  1.00  0.00    -0.550 OA
ATOM      4  O   UNL     1      -5.233  -0.655  -8.564  1.00  0.00    -0.550 OA
ENDBRANCH   1   2
BRANCH   1   5
ATOM      5  C   UNL     1      -6.563   2.080  -8.906  1.00  0.00     0.006 C 
BRANCH   5   6
ATOM      6  C   UNL     1      -6.554   2.485 -10.384  1.00  0.00    -0.003 C 
ATOM      7  C   UNL     1      -7.419   3.717 -10.624  1.00  0.00     0.004 C 
ENDBRANCH   5   6
ENDBRANCH   1   5
TORSDOF 3
ENDMDL
MODEL 6
REMARK VINA RESULT:    -3.054      9.267     10.404
REMARK INTER + INTRA:          -3.635
REMARK INTER:                  -3.578
REMARK INTRA:                  -0.056
REMARK UNBOUND:                -0.045
REMARK SMILES CCCCC(=O)[O-]
REMARK SMILES IDX 4 1 5 2 6 3 7 4 3 5 2 6 1 7
REMARK H PARENT
REMARK Flexibility Score: inf
ROOT
ATOM      1  C   UNL     1      -7.310   0.675  -8.658  1.00  0.00     0.053 C 
ENDROOT
BRANCH   1   2
ATOM      2  C   UNL     1      -6.514   1.942  -8.697  1.00  0.00     0.041 C 
ATOM      3  O   UNL     1      -5.593   2.137  -7.861  1.00  0.00    -0.550 OA
ATOM      4  O   UNL     1      -6.756   2.885  -9.687  1.00  0.00    -0.550 OA
ENDBRANCH   1   2
BRANCH   1   5
ATOM      5  C   UNL     1      -6.531  -0.469  -9.314  1.00  0.00     0.006 C 
BRANCH   5   6
ATOM      6  C   UNL     1      -6.840  -0.557 -10.813  1.00  0.00    -0.003 C 
ATOM      7  C   UNL     1      -7.272  -1.966 -11.205  1.00  0.00     0.004 C 
ENDBRANCH   5   6
ENDBRANCH   1   5
TORSDOF 3
ENDMDL
MODEL 7
REMARK VINA RESULT:    -3.006      8.482      9.293
REMARK INTER + INTRA:          -3.578
REMARK INTER:                  -3.482
REMARK INTRA:                  -0.096
REMARK UNBOUND:                -0.045
REMARK SMILES CCCCC(=O)[O-]
REMARK SMILES IDX 4 1 5 2 6 3 7 4 3 5 2 6 1 7
REMARK H PARENT
REMARK Flexibility Score: inf
ROOT
ATOM      1  C   UNL     1     -11.527  -4.808 -15.620  1.00  0.00     0.053 C 
ENDROOT
BRANCH   1   2
ATOM      2  C   UNL     1     -10.372  -3.860 -15.707  1.00  0.00     0.041 C 
ATOM      3  O   UNL     1     -10.114  -3.273 -16.790  1.00  0.00    -0.550 OA
ATOM      4  O   UNL     1      -9.612  -3.586 -14.577  1.00  0.00    -0.550 OA
ENDBRANCH   1   2
BRANCH   1   5
ATOM      5  C   UNL     1     -11.442  -5.643 -14.339  1.00  0.00     0.006 C 
BRANCH   5   6
ATOM      6  C   UNL     1     -10.769  -6.993 -14.606  1.00  0.00    -0.003 C 
ATOM      7  C   UNL     1      -9.350  -7.023 -14.046  1.00  0.00     0.004 C 
ENDBRANCH   5   6
ENDBRANCH   1   5
TORSDOF 3
ENDMDL
MODEL 8
REMARK VINA RESULT:    -2.928      7.179      8.255
REMARK INTER + INTRA:          -3.486
REMARK INTER:                  -3.414
REMARK INTRA:                  -0.072
REMARK UNBOUND:                -0.045
REMARK SMILES CCCCC(=O)[O-]
REMARK SMILES IDX 4 1 5 2 6 3 7 4 3 5 2 6 1 7
REMARK H PARENT
REMARK Flexibility Score: inf
ROOT
ATOM      1  C   UNL     1      -9.680  -3.902 -14.581  1.00  0.00     0.053 C 
ENDROOT
BRANCH   1   2
ATOM      2  C   UNL     1     -10.446  -3.882 -15.866  1.00  0.00     0.041 C 
ATOM      3  O   UNL     1     -10.046  -3.179 -16.831  1.00  0.00    -0.550 OA
ATOM      4  O   UNL     1     -11.574  -4.678 -16.016  1.00  0.00    -0.550 OA
ENDBRANCH   1   2
BRANCH   1   5
ATOM      5  C   UNL     1      -8.173  -3.885 -14.853  1.00  0.00     0.006 C 
BRANCH   5   6
ATOM      6  C   UNL     1      -7.503  -2.692 -14.163  1.00  0.00    -0.003 C 
ATOM      7  C   UNL     1      -8.206  -2.345 -12.855  1.00  0.00     0.004 C 
ENDBRANCH   5   6
ENDBRANCH   1   5
TORSDOF 3
ENDMDL
MODEL 9
REMARK VINA RESULT:    -2.892      9.444     10.293
REMARK INTER + INTRA:          -3.444
REMARK INTER:                  -3.333
REMARK INTRA:                  -0.110
REMARK UNBOUND:                -0.045
REMARK SMILES CCCCC(=O)[O-]
REMARK SMILES IDX 4 1 5 2 6 3 7 4 3 5 2 6 1 7
REMARK H PARENT
REMARK Flexibility Score: inf
ROOT
ATOM      1  C   UNL     1      -6.466   1.017 -10.365  1.00  0.00     0.053 C 
ENDROOT
BRANCH   1   2
ATOM      2  C   UNL     1      -6.762   1.120  -8.902  1.00  0.00     0.041 C 
ATOM      3  O   UNL     1      -6.143   1.951  -8.188  1.00  0.00    -0.550 OA
ATOM      4  O   UNL     1      -7.757   0.332  -8.337  1.00  0.00    -0.550 OA
ENDBRANCH   1   2
BRANCH   1   5
ATOM      5  C   UNL     1      -5.644   2.223 -10.833  1.00  0.00     0.006 C 
BRANCH   5   6
ATOM      6  C   UNL     1      -4.237   1.795 -11.265  1.00  0.00    -0.003 C 
ATOM      7  C   UNL     1      -3.208   2.117 -10.187  1.00  0.00     0.004 C 
ENDBRANCH   5   6
ENDBRANCH   1   5
TORSDOF 3
ENDMDL
