MODEL 1
REMARK VINA RESULT:    -4.448      0.000      0.000
REMARK INTER + INTRA:          -7.018
REMARK INTER:                  -6.268
REMARK INTRA:                  -0.749
REMARK UNBOUND:                -0.749
REMARK SMILES CCCCCCCCC(=O)[O-]
REMARK SMILES IDX 6 1 7 2 8 3 9 4 10 5 11 6 5 7 4 8 3 9 2 10 1 11
REMARK H PARENT
REMARK Flexibility Score: inf
ROOT
ATOM      1  C   UNL     1       1.906  57.348  25.376  1.00  0.00     0.000 C 
ENDROOT
BRANCH   1   2
ATOM      2  C   UNL     1       2.965  56.945  24.329  1.00  0.00     0.006 C 
BRANCH   2   3
ATOM      3  C   UNL     1       3.648  58.145  23.655  1.00  0.00     0.053 C 
BRANCH   3   4
ATOM      4  C   UNL     1       3.248  58.298  22.221  1.00  0.00     0.041 C 
ATOM      5  O   UNL     1       2.430  57.493  21.704  1.00  0.00    -0.550 OA
ATOM      6  O   UNL     1       3.756  59.345  21.464  1.00  0.00    -0.550 OA
ENDBRANCH   3   4
ENDBRANCH   2   3
ENDBRANCH   1   2
BRANCH   1   7
ATOM      7  C   UNL     1       0.592  57.821  24.730  1.00  0.00     0.000 C 
BRANCH   7   8
ATOM      8  C   UNL     1      -0.165  58.848  25.592  1.00  0.00    -0.000 C 
BRANCH   8   9
ATOM      9  C   UNL     1      -0.010  60.312  25.143  1.00  0.00    -0.000 C 
BRANCH   9  10
ATOM     10  C   UNL     1       0.500  60.445  23.701  1.00  0.00    -0.003 C 
ATOM     11  C   UNL     1       1.739  61.334  23.636  1.00  0.00     0.004 C 
ENDBRANCH   9  10
ENDBRANCH   8   9
ENDBRANCH   7   8
ENDBRANCH   1   7
TORSDOF 7
ENDMDL
MODEL 2
REMARK VINA RESULT:    -4.407     10.704     11.315
REMARK INTER + INTRA:          -6.959
REMARK INTER:                  -6.370
REMARK INTRA:                  -0.589
REMARK UNBOUND:                -0.749
REMARK SMILES CCCCCCCCC(=O)[O-]
REMARK SMILES IDX 6 1 7 2 8 3 9 4 10 5 11 6 5 7 4 8 3 9 2 10 1 11
REMARK H PARENT
REMARK Flexibility Score: inf
ROOT
ATOM      1  C   UNL     1       4.574  48.756  24.975  1.00  0.00     0.000 C 
ENDROOT
BRANCH   1   2
ATOM      2  C   UNL     1       5.945  48.053  24.899  1.00  0.00     0.006 C 
BRANCH   2   3
ATOM      3  C   UNL     1       7.114  49.015  24.643  1.00  0.00     0.053 C 
BRANCH   3   4
ATOM      4  C   UNL     1       7.773  49.463  25.910  1.00  0.00     0.041 C 
ATOM      5  O   UNL     1       7.587  48.824  26.979  1.00  0.00    -0.550 OA
ATOM      6  O   UNL     1       8.614  50.568  25.905  1.00  0.00    -0.550 OA
ENDBRANCH   3   4
ENDBRANCH   2   3
ENDBRANCH   1   2
BRANCH   1   7
ATOM      7  C   UNL     1       3.432  47.781  25.315  1.00  0.00     0.000 C 
BRANCH   7   8
ATOM      8  C   UNL     1       2.365  47.697  24.210  1.00  0.00    -0.000 C 
BRANCH   8   9
ATOM      9  C   UNL     1       2.742  48.391  22.888  1.00  0.00    -0.000 C 
BRANCH   9  10
ATOM     10  C   UNL     1       3.131  47.400  21.782  1.00  0.00    -0.003 C 
ATOM     11  C   UNL     1       4.601  47.550  21.400  1.00  0.00     0.004 C 
ENDBRANCH   9  10
ENDBRANCH   8   9
ENDBRANCH   7   8
ENDBRANCH   1   7
TORSDOF 7
ENDMDL
MODEL 3
REMARK VINA RESULT:    -4.338      1.384      1.807
REMARK INTER + INTRA:          -6.862
REMARK INTER:                  -6.307
REMARK INTRA:                  -0.555
REMARK UNBOUND:                -0.749
REMARK SMILES CCCCCCCCC(=O)[O-]
REMARK SMILES IDX 6 1 7 2 8 3 9 4 10 5 11 6 5 7 4 8 3 9 2 10 1 11
REMARK H PARENT
REMARK Flexibility Score: inf
ROOT
ATOM      1  C   UNL     1       0.363  57.359  23.397  1.00  0.00     0.000 C 
ENDROOT
BRANCH   1   2
ATOM      2  C   UNL     1       1.537  56.502  22.880  1.00  0.00     0.006 C 
BRANCH   2   3
ATOM      3  C   UNL     1       2.369  57.194  21.790  1.00  0.00     0.053 C 
BRANCH   3   4
ATOM      4  C   UNL     1       3.302  58.221  22.350  1.00  0.00     0.041 C 
ATOM      5  O   UNL     1       3.811  58.057  23.490  1.00  0.00    -0.550 OA
ATOM      6  O   UNL     1       3.632  59.344  21.603  1.00  0.00    -0.550 OA
ENDBRANCH   3   4
ENDBRANCH   2   3
ENDBRANCH   1   2
BRANCH   1   7
ATOM      7  C   UNL     1       0.544  57.777  24.867  1.00  0.00     0.000 C 
BRANCH   7   8
ATOM      8  C   UNL     1       0.223  59.263  25.112  1.00  0.00    -0.000 C 
BRANCH   8   9
ATOM      9  C   UNL     1       0.677  60.219  23.994  1.00  0.00    -0.000 C 
BRANCH   9  10
ATOM     10  C   UNL     1      -0.174  61.494  23.915  1.00  0.00    -0.003 C 
ATOM     11  C   UNL     1      -1.308  61.336  22.906  1.00  0.00     0.004 C 
ENDBRANCH   9  10
ENDBRANCH   8   9
ENDBRANCH   7   8
ENDBRANCH   1   7
TORSDOF 7
ENDMDL
MODEL 4
REMARK VINA RESULT:    -4.322     10.479     11.700
REMARK INTER + INTRA:          -6.840
REMARK INTER:                  -6.199
REMARK INTRA:                  -0.641
REMARK UNBOUND:                -0.749
REMARK SMILES CCCCCCCCC(=O)[O-]
REMARK SMILES IDX 6 1 7 2 8 3 9 4 10 5 11 6 5 7 4 8 3 9 2 10 1 11
REMARK H PARENT
REMARK Flexibility Score: inf
ROOT
ATOM      1  C   UNL     1       4.949  47.875  21.542  1.00  0.00     0.000 C 
ENDROOT
BRANCH   1   2
ATOM      2  C   UNL     1       3.647  47.142  21.161  1.00  0.00     0.006 C 
BRANCH   2   3
ATOM      3  C   UNL     1       2.701  46.913  22.350  1.00  0.00     0.053 C 
BRANCH   3   4
ATOM      4  C   UNL     1       1.576  47.898  22.382  1.00  0.00     0.041 C 
ATOM      5  O   UNL     1       1.729  49.016  22.941  1.00  0.00    -0.550 OA
ATOM      6  O   UNL     1       0.367  47.595  21.769  1.00  0.00    -0.550 OA
ENDBRANCH   3   4
ENDBRANCH   2   3
ENDBRANCH   1   2
BRANCH   1   7
ATOM      7  C   UNL     1       5.660  47.225  22.743  1.00  0.00     0.000 C 
BRANCH   7   8
ATOM      8  C   UNL     1       6.577  48.203  23.498  1.00  0.00    -0.000 C 
BRANCH   8   9
ATOM      9  C   UNL     1       6.095  48.587  24.910  1.00  0.00    -0.000 C 
BRANCH   9  10
ATOM     10  C   UNL     1       4.589  48.879  24.969  1.00  0.00    -0.003 C 
ATOM     11  C   UNL     1       3.872  47.887  25.881  1.00  0.00     0.004 C 
ENDBRANCH   9  10
ENDBRANCH   8   9
ENDBRANCH   7   8
ENDBRANCH   1   7
TORSDOF 7
ENDMDL
MODEL 5
REMARK VINA RESULT:    -4.264     11.112     11.888
REMARK INTER + INTRA:          -6.758
REMARK INTER:                  -6.118
REMARK INTRA:                  -0.640
REMARK UNBOUND:                -0.749
REMARK SMILES CCCCCCCCC(=O)[O-]
REMARK SMILES IDX 6 1 7 2 8 3 9 4 10 5 11 6 5 7 4 8 3 9 2 10 1 11
REMARK H PARENT
REMARK Flexibility Score: inf
ROOT
ATOM      1  C   UNL     1       2.817  47.842  24.995  1.00  0.00     0.000 C 
ENDROOT
BRANCH   1   2
ATOM      2  C   UNL     1       1.933  47.133  23.948  1.00  0.00     0.006 C 
BRANCH   2   3
ATOM      3  C   UNL     1       1.469  48.055  22.810  1.00  0.00     0.053 C 
BRANCH   3   4
ATOM      4  C   UNL     1       0.369  47.449  21.998  1.00  0.00     0.041 C 
ATOM      5  O   UNL     1      -0.708  47.101  22.550  1.00  0.00    -0.550 OA
ATOM      6  O   UNL     1       0.520  47.294  20.626  1.00  0.00    -0.550 OA
ENDBRANCH   3   4
ENDBRANCH   2   3
ENDBRANCH   1   2
BRANCH   1   7
ATOM      7  C   UNL     1       3.903  46.916  25.570  1.00  0.00     0.000 C 
BRANCH   7   8
ATOM      8  C   UNL     1       5.322  47.494  25.425  1.00  0.00    -0.000 C 
BRANCH   8   9
ATOM      9  C   UNL     1       5.527  48.415  24.209  1.00  0.00    -0.000 C 
BRANCH   9  10
ATOM     10  C   UNL     1       6.078  47.673  22.982  1.00  0.00    -0.003 C 
ATOM     11  C   UNL     1       5.084  47.712  21.824  1.00  0.00     0.004 C 
ENDBRANCH   9  10
ENDBRANCH   8   9
ENDBRANCH   7   8
ENDBRANCH   1   7
TORSDOF 7
ENDMDL
MODEL 6
REMARK VINA RESULT:    -4.242     10.866     11.646
REMARK INTER + INTRA:          -6.727
REMARK INTER:                  -6.294
REMARK INTRA:                  -0.434
REMARK UNBOUND:                -0.749
REMARK SMILES CCCCCCCCC(=O)[O-]
REMARK SMILES IDX 6 1 7 2 8 3 9 4 10 5 11 6 5 7 4 8 3 9 2 10 1 11
REMARK H PARENT
REMARK Flexibility Score: inf
ROOT
ATOM      1  C   UNL     1       6.095  47.342  23.122  1.00  0.00     0.000 C 
ENDROOT
BRANCH   1   2
ATOM      2  C   UNL     1       7.046  48.490  23.519  1.00  0.00     0.006 C 
BRANCH   2   3
ATOM      3  C   UNL     1       6.660  49.178  24.837  1.00  0.00     0.053 C 
BRANCH   3   4
ATOM      4  C   UNL     1       7.807  49.262  25.794  1.00  0.00     0.041 C 
ATOM      5  O   UNL     1       7.657  48.912  26.994  1.00  0.00    -0.550 OA
ATOM      6  O   UNL     1       9.050  49.700  25.355  1.00  0.00    -0.550 OA
ENDBRANCH   3   4
ENDBRANCH   2   3
ENDBRANCH   1   2
BRANCH   1   7
ATOM      7  C   UNL     1       5.182  47.718  21.942  1.00  0.00     0.000 C 
BRANCH   7   8
ATOM      8  C   UNL     1       3.698  47.410  22.210  1.00  0.00    -0.000 C 
BRANCH   8   9
ATOM      9  C   UNL     1       2.978  48.422  23.120  1.00  0.00    -0.000 C 
BRANCH   9  10
ATOM     10  C   UNL     1       2.637  47.848  24.502  1.00  0.00    -0.003 C 
ATOM     11  C   UNL     1       1.293  47.123  24.480  1.00  0.00     0.004 C 
ENDBRANCH   9  10
ENDBRANCH   8   9
ENDBRANCH   7   8
ENDBRANCH   1   7
TORSDOF 7
ENDMDL
MODEL 7
REMARK VINA RESULT:    -4.209      1.396      1.683
REMARK INTER + INTRA:          -6.681
REMARK INTER:                  -5.980
REMARK INTRA:                  -0.701
REMARK UNBOUND:                -0.749
REMARK SMILES CCCCCCCCC(=O)[O-]
REMARK SMILES IDX 6 1 7 2 8 3 9 4 10 5 11 6 5 7 4 8 3 9 2 10 1 11
REMARK H PARENT
REMARK Flexibility Score: inf
ROOT
ATOM      1  C   UNL     1       1.897  57.481  25.139  1.00  0.00     0.000 C 
ENDROOT
BRANCH   1   2
ATOM      2  C   UNL     1       2.943  57.455  24.006  1.00  0.00     0.006 C 
BRANCH   2   3
ATOM      3  C   UNL     1       2.325  57.475  22.600  1.00  0.00     0.053 C 
BRANCH   3   4
ATOM      4  C   UNL     1       2.241  56.110  21.994  1.00  0.00     0.041 C 
ATOM      5  O   UNL     1       2.153  55.094  22.734  1.00  0.00    -0.550 OA
ATOM      6  O   UNL     1       2.231  55.959  20.614  1.00  0.00    -0.550 OA
ENDBRANCH   3   4
ENDBRANCH   2   3
ENDBRANCH   1   2
BRANCH   1   7
ATOM      7  C   UNL     1       0.505  57.910  24.644  1.00  0.00     0.000 C 
BRANCH   7   8
ATOM      8  C   UNL     1      -0.171  58.938  25.568  1.00  0.00    -0.000 C 
BRANCH   8   9
ATOM      9  C   UNL     1       0.087  60.410  25.201  1.00  0.00    -0.000 C 
BRANCH   9  10
ATOM     10  C   UNL     1       0.436  60.605  23.718  1.00  0.00    -0.003 C 
ATOM     11  C   UNL     1       1.855  61.145  23.554  1.00  0.00     0.004 C 
ENDBRANCH   9  10
ENDBRANCH   8   9
ENDBRANCH   7   8
ENDBRANCH   1   7
TORSDOF 7
ENDMDL
MODEL 8
REMARK VINA RESULT:    -4.146      1.913      3.988
REMARK INTER + INTRA:          -6.592
REMARK INTER:                  -6.178
REMARK INTRA:                  -0.415
REMARK UNBOUND:                -0.749
REMARK SMILES CCCCCCCCC(=O)[O-]
REMARK SMILES IDX 6 1 7 2 8 3 9 4 10 5 11 6 5 7 4 8 3 9 2 10 1 11
REMARK H PARENT
REMARK Flexibility Score: inf
ROOT
ATOM      1  C   UNL     1       0.530  58.114  24.607  1.00  0.00     0.000 C 
ENDROOT
BRANCH   1   2
ATOM      2  C   UNL     1      -0.237  59.061  25.552  1.00  0.00     0.006 C 
BRANCH   2   3
ATOM      3  C   UNL     1       0.106  60.544  25.347  1.00  0.00     0.053 C 
BRANCH   3   4
ATOM      4  C   UNL     1       0.324  60.885  23.906  1.00  0.00     0.041 C 
ATOM      5  O   UNL     1       1.492  61.033  23.460  1.00  0.00    -0.550 OA
ATOM      6  O   UNL     1      -0.761  61.010  23.048  1.00  0.00    -0.550 OA
ENDBRANCH   3   4
ENDBRANCH   2   3
ENDBRANCH   1   2
BRANCH   1   7
ATOM      7  C   UNL     1       1.705  57.409  25.307  1.00  0.00     0.000 C 
BRANCH   7   8
ATOM      8  C   UNL     1       2.791  56.934  24.326  1.00  0.00    -0.000 C 
BRANCH   8   9
ATOM      9  C   UNL     1       3.506  58.058  23.554  1.00  0.00    -0.000 C 
BRANCH   9  10
ATOM     10  C   UNL     1       3.101  58.117  22.074  1.00  0.00    -0.003 C 
ATOM     11  C   UNL     1       2.250  56.911  21.687  1.00  0.00     0.004 C 
ENDBRANCH   9  10
ENDBRANCH   8   9
ENDBRANCH   7   8
ENDBRANCH   1   7
TORSDOF 7
ENDMDL
MODEL 9
REMARK VINA RESULT:    -4.108     10.611     11.449
REMARK INTER + INTRA:          -6.539
REMARK INTER:                  -6.288
REMARK INTRA:                  -0.251
REMARK UNBOUND:                -0.749
REMARK SMILES CCCCCCCCC(=O)[O-]
REMARK SMILES IDX 6 1 7 2 8 3 9 4 10 5 11 6 5 7 4 8 3 9 2 10 1 11
REMARK H PARENT
REMARK Flexibility Score: inf
ROOT
ATOM      1  C   UNL     1       3.831  47.836  25.889  1.00  0.00     0.000 C 
ENDROOT
BRANCH   1   2
ATOM      2  C   UNL     1       5.340  47.515  25.865  1.00  0.00     0.006 C 
BRANCH   2   3
ATOM      3  C   UNL     1       6.197  48.640  25.266  1.00  0.00     0.053 C 
BRANCH   3   4
ATOM      4  C   UNL     1       7.317  49.046  26.172  1.00  0.00     0.041 C 
ATOM      5  O   UNL     1       8.120  49.950  25.819  1.00  0.00    -0.550 OA
ATOM      6  O   UNL     1       7.459  48.447  27.417  1.00  0.00    -0.550 OA
ENDBRANCH   3   4
ENDBRANCH   2   3
ENDBRANCH   1   2
BRANCH   1   7
ATOM      7  C   UNL     1       3.106  47.348  24.622  1.00  0.00     0.000 C 
BRANCH   7   8
ATOM      8  C   UNL     1       3.024  48.425  23.526  1.00  0.00    -0.000 C 
BRANCH   8   9
ATOM      9  C   UNL     1       1.639  48.582  22.871  1.00  0.00    -0.000 C 
BRANCH   9  10
ATOM     10  C   UNL     1       0.743  47.351  23.066  1.00  0.00    -0.003 C 
ATOM     11  C   UNL     1      -0.410  47.346  22.066  1.00  0.00     0.004 C 
ENDBRANCH   9  10
ENDBRANCH   8   9
ENDBRANCH   7   8
ENDBRANCH   1   7
TORSDOF 7
ENDMDL
