MODEL 1
REMARK VINA RESULT:    -6.531      0.000      0.000
REMARK INTER + INTRA:          -7.894
REMARK INTER:                  -7.486
REMARK INTRA:                  -0.408
REMARK UNBOUND:                -0.408
REMARK SMILES O=C1C[C@H](c2ccc(O)cc2)Oc2cc(O)cc(O)c21
REMARK SMILES IDX 3 1 4 2 12 3 13 4 14 5 15 6 17 7 18 8 20 9 2 10 1 11 5 12
REMARK SMILES IDX 6 13 11 14 7 15 10 16 8 17 9 18 19 20 16 22
REMARK H PARENT 9 19 19 21 16 23
REMARK Flexibility Score: inf
ROOT
ATOM      1  C   UNL     1      18.417  47.750  46.236  1.00  0.00     0.131 C 
ATOM      2  C   UNL     1      19.282  47.099  45.141  1.00  0.00     0.211 C 
ATOM      3  O   UNL     1      18.507  46.786  43.976  1.00  0.00    -0.484 OA
ATOM      4  C   UNL     1      17.377  47.511  43.566  1.00  0.00     0.138 A 
ATOM      5  C   UNL     1      16.795  47.213  42.331  1.00  0.00     0.093 A 
ATOM      6  C   UNL     1      15.687  47.931  41.881  1.00  0.00     0.123 A 
ATOM      7  C   UNL     1      15.140  48.939  42.683  1.00  0.00     0.093 A 
ATOM      8  C   UNL     1      15.687  49.232  43.938  1.00  0.00     0.133 A 
ATOM      9  C   UNL     1      16.840  48.532  44.377  1.00  0.00     0.102 A 
ATOM     10  C   UNL     1      17.547  48.816  45.646  1.00  0.00     0.174 C 
ATOM     11  O   UNL     1      17.479  49.944  46.205  1.00  0.00    -0.294 OA
ENDROOT
BRANCH   2  12
ATOM     12  C   UNL     1      20.476  47.967  44.792  1.00  0.00    -0.007 A 
ATOM     13  C   UNL     1      20.977  48.870  45.748  1.00  0.00     0.011 A 
ATOM     14  C   UNL     1      21.062  47.941  43.511  1.00  0.00     0.011 A 
ATOM     15  C   UNL     1      22.053  49.706  45.440  1.00  0.00     0.046 A 
ATOM     16  C   UNL     1      22.139  48.779  43.206  1.00  0.00     0.046 A 
ATOM     17  C   UNL     1      22.638  49.663  44.171  1.00  0.00     0.115 A 
BRANCH  17  18
ATOM     18  O   UNL     1      23.711  50.502  43.877  1.00  0.00    -0.508 OA
ATOM     19  H   UNL     1      24.580  50.450  44.395  1.00  0.00     0.293 HD
ENDBRANCH  17  18
ENDBRANCH   2  12
BRANCH   8  20
ATOM     20  O   UNL     1      15.035  50.189  44.719  1.00  0.00    -0.507 OA
ATOM     21  H   UNL     1      14.053  50.408  44.638  1.00  0.00     0.293 HD
ENDBRANCH   8  20
BRANCH   6  22
ATOM     22  O   UNL     1      15.133  47.632  40.639  1.00  0.00    -0.508 OA
ATOM     23  H   UNL     1      15.060  48.331  39.908  1.00  0.00     0.293 HD
ENDBRANCH   6  22
TORSDOF 4
ENDMDL
MODEL 2
REMARK VINA RESULT:    -6.483      2.235      3.451
REMARK INTER + INTRA:          -7.838
REMARK INTER:                  -7.388
REMARK INTRA:                  -0.450
REMARK UNBOUND:                -0.408
REMARK SMILES O=C1C[C@H](c2ccc(O)cc2)Oc2cc(O)cc(O)c21
REMARK SMILES IDX 3 1 4 2 12 3 13 4 14 5 15 6 17 7 18 8 20 9 2 10 1 11 5 12
REMARK SMILES IDX 6 13 11 14 7 15 10 16 8 17 9 18 19 20 16 22
REMARK H PARENT 9 19 19 21 16 23
REMARK Flexibility Score: inf
ROOT
ATOM      1  C   UNL     1      18.256  50.709  43.462  1.00  0.00     0.131 C 
ATOM      2  C   UNL     1      18.588  49.901  44.729  1.00  0.00     0.211 C 
ATOM      3  O   UNL     1      17.402  49.553  45.455  1.00  0.00    -0.484 OA
ATOM      4  C   UNL     1      16.149  49.341  44.858  1.00  0.00     0.138 A 
ATOM      5  C   UNL     1      15.101  48.853  45.643  1.00  0.00     0.093 A 
ATOM      6  C   UNL     1      13.850  48.606  45.076  1.00  0.00     0.123 A 
ATOM      7  C   UNL     1      13.637  48.874  43.719  1.00  0.00     0.093 A 
ATOM      8  C   UNL     1      14.663  49.395  42.922  1.00  0.00     0.133 A 
ATOM      9  C   UNL     1      15.947  49.605  43.487  1.00  0.00     0.102 A 
ATOM     10  C   UNL     1      17.123  50.072  42.719  1.00  0.00     0.174 C 
ATOM     11  O   UNL     1      17.215  49.896  41.475  1.00  0.00    -0.294 OA
ENDROOT
BRANCH   2  12
ATOM     12  C   UNL     1      19.413  48.671  44.400  1.00  0.00    -0.007 A 
ATOM     13  C   UNL     1      20.556  48.803  43.589  1.00  0.00     0.011 A 
ATOM     14  C   UNL     1      19.032  47.386  44.831  1.00  0.00     0.011 A 
ATOM     15  C   UNL     1      21.313  47.681  43.241  1.00  0.00     0.046 A 
ATOM     16  C   UNL     1      19.792  46.266  44.482  1.00  0.00     0.046 A 
ATOM     17  C   UNL     1      20.936  46.411  43.687  1.00  0.00     0.115 A 
BRANCH  17  18
ATOM     18  O   UNL     1      21.700  45.301  43.333  1.00  0.00    -0.508 OA
ATOM     19  H   UNL     1      22.688  45.384  43.122  1.00  0.00     0.293 HD
ENDBRANCH  17  18
ENDBRANCH   2  12
BRANCH   8  20
ATOM     20  O   UNL     1      14.352  49.719  41.600  1.00  0.00    -0.507 OA
ATOM     21  H   UNL     1      13.688  50.433  41.336  1.00  0.00     0.293 HD
ENDBRANCH   8  20
BRANCH   6  22
ATOM     22  O   UNL     1      12.824  48.101  45.870  1.00  0.00    -0.508 OA
ATOM     23  H   UNL     1      12.983  47.344  46.525  1.00  0.00     0.293 HD
ENDBRANCH   6  22
TORSDOF 4
ENDMDL
MODEL 3
REMARK VINA RESULT:    -6.472      2.255      5.513
REMARK INTER + INTRA:          -7.826
REMARK INTER:                  -7.615
REMARK INTRA:                  -0.211
REMARK UNBOUND:                -0.408
REMARK SMILES O=C1C[C@H](c2ccc(O)cc2)Oc2cc(O)cc(O)c21
REMARK SMILES IDX 3 1 4 2 12 3 13 4 14 5 15 6 17 7 18 8 20 9 2 10 1 11 5 12
REMARK SMILES IDX 6 13 11 14 7 15 10 16 8 17 9 18 19 20 16 22
REMARK H PARENT 9 19 19 21 16 23
REMARK Flexibility Score: inf
ROOT
ATOM      1  C   UNL     1      18.875  50.360  45.469  1.00  0.00     0.131 C 
ATOM      2  C   UNL     1      18.847  50.352  43.930  1.00  0.00     0.211 C 
ATOM      3  O   UNL     1      19.714  49.343  43.395  1.00  0.00    -0.484 OA
ATOM      4  C   UNL     1      20.009  48.134  44.047  1.00  0.00     0.138 A 
ATOM      5  C   UNL     1      20.737  47.158  43.362  1.00  0.00     0.093 A 
ATOM      6  C   UNL     1      21.025  45.936  43.969  1.00  0.00     0.123 A 
ATOM      7  C   UNL     1      20.604  45.696  45.282  1.00  0.00     0.093 A 
ATOM      8  C   UNL     1      19.901  46.672  45.998  1.00  0.00     0.133 A 
ATOM      9  C   UNL     1      19.570  47.899  45.366  1.00  0.00     0.102 A 
ATOM     10  C   UNL     1      18.761  48.964  45.999  1.00  0.00     0.174 C 
ATOM     11  O   UNL     1      17.946  48.715  46.927  1.00  0.00    -0.294 OA
ENDROOT
BRANCH   2  12
ATOM     12  C   UNL     1      17.433  50.200  43.403  1.00  0.00    -0.007 A 
ATOM     13  C   UNL     1      16.350  50.268  44.300  1.00  0.00     0.011 A 
ATOM     14  C   UNL     1      17.173  49.929  42.046  1.00  0.00     0.011 A 
ATOM     15  C   UNL     1      15.040  50.096  43.847  1.00  0.00     0.046 A 
ATOM     16  C   UNL     1      15.860  49.758  41.595  1.00  0.00     0.046 A 
ATOM     17  C   UNL     1      14.790  49.842  42.495  1.00  0.00     0.115 A 
BRANCH  17  18
ATOM     18  O   UNL     1      13.479  49.673  42.057  1.00  0.00    -0.508 OA
ATOM     19  H   UNL     1      12.728  49.460  42.702  1.00  0.00     0.293 HD
ENDBRANCH  17  18
ENDBRANCH   2  12
BRANCH   8  20
ATOM     20  O   UNL     1      19.590  46.396  47.331  1.00  0.00    -0.507 OA
ATOM     21  H   UNL     1      19.841  45.540  47.802  1.00  0.00     0.293 HD
ENDBRANCH   8  20
BRANCH   6  22
ATOM     22  O   UNL     1      21.737  44.969  43.263  1.00  0.00    -0.508 OA
ATOM     23  H   UNL     1      21.291  44.392  42.559  1.00  0.00     0.293 HD
ENDBRANCH   6  22
TORSDOF 4
ENDMDL
MODEL 4
REMARK VINA RESULT:    -6.441      2.828      5.738
REMARK INTER + INTRA:          -7.791
REMARK INTER:                  -7.327
REMARK INTRA:                  -0.464
REMARK UNBOUND:                -0.408
REMARK SMILES O=C1C[C@H](c2ccc(O)cc2)Oc2cc(O)cc(O)c21
REMARK SMILES IDX 3 1 4 2 12 3 13 4 14 5 15 6 17 7 18 8 20 9 2 10 1 11 5 12
REMARK SMILES IDX 6 13 11 14 7 15 10 16 8 17 9 18 19 20 16 22
REMARK H PARENT 9 19 19 21 16 23
REMARK Flexibility Score: inf
ROOT
ATOM      1  C   UNL     1      18.896  50.359  44.746  1.00  0.00     0.131 C 
ATOM      2  C   UNL     1      20.308  49.858  44.393  1.00  0.00     0.211 C 
ATOM      3  O   UNL     1      21.239  50.128  45.450  1.00  0.00    -0.484 OA
ATOM      4  C   UNL     1      20.890  50.187  46.809  1.00  0.00     0.138 A 
ATOM      5  C   UNL     1      21.906  50.299  47.762  1.00  0.00     0.093 A 
ATOM      6  C   UNL     1      21.596  50.334  49.122  1.00  0.00     0.123 A 
ATOM      7  C   UNL     1      20.260  50.282  49.532  1.00  0.00     0.093 A 
ATOM      8  C   UNL     1      19.224  50.203  48.593  1.00  0.00     0.133 A 
ATOM      9  C   UNL     1      19.540  50.123  47.212  1.00  0.00     0.102 A 
ATOM     10  C   UNL     1      18.533  49.954  46.141  1.00  0.00     0.174 C 
ATOM     11  O   UNL     1      17.409  49.431  46.365  1.00  0.00    -0.294 OA
ENDROOT
BRANCH   2  12
ATOM     12  C   UNL     1      20.297  48.385  44.030  1.00  0.00    -0.007 A 
ATOM     13  C   UNL     1      19.220  47.864  43.290  1.00  0.00     0.011 A 
ATOM     14  C   UNL     1      21.308  47.507  44.468  1.00  0.00     0.011 A 
ATOM     15  C   UNL     1      19.168  46.504  42.973  1.00  0.00     0.046 A 
ATOM     16  C   UNL     1      21.253  46.147  44.149  1.00  0.00     0.046 A 
ATOM     17  C   UNL     1      20.183  45.642  43.399  1.00  0.00     0.115 A 
BRANCH  17  18
ATOM     18  O   UNL     1      20.119  44.289  43.075  1.00  0.00    -0.508 OA
ATOM     19  H   UNL     1      19.294  43.735  43.275  1.00  0.00     0.293 HD
ENDBRANCH  17  18
ENDBRANCH   2  12
BRANCH   8  20
ATOM     20  O   UNL     1      17.913  50.244  49.071  1.00  0.00    -0.507 OA
ATOM     21  H   UNL     1      17.349  51.081  49.097  1.00  0.00     0.293 HD
ENDBRANCH   8  20
BRANCH   6  22
ATOM     22  O   UNL     1      22.624  50.426  50.058  1.00  0.00    -0.508 OA
ATOM     23  H   UNL     1      22.431  50.522  51.048  1.00  0.00     0.293 HD
ENDBRANCH   6  22
TORSDOF 4
ENDMDL
MODEL 5
REMARK VINA RESULT:    -6.377      2.557      3.875
REMARK INTER + INTRA:          -7.717
REMARK INTER:                  -7.270
REMARK INTRA:                  -0.448
REMARK UNBOUND:                -0.408
REMARK SMILES O=C1C[C@H](c2ccc(O)cc2)Oc2cc(O)cc(O)c21
REMARK SMILES IDX 3 1 4 2 12 3 13 4 14 5 15 6 17 7 18 8 20 9 2 10 1 11 5 12
REMARK SMILES IDX 6 13 11 14 7 15 10 16 8 17 9 18 19 20 16 22
REMARK H PARENT 9 19 19 21 16 23
REMARK Flexibility Score: inf
ROOT
ATOM      1  C   UNL     1      18.571  50.433  44.878  1.00  0.00     0.131 C 
ATOM      2  C   UNL     1      19.429  49.593  45.841  1.00  0.00     0.211 C 
ATOM      3  O   UNL     1      18.676  49.178  46.989  1.00  0.00    -0.484 OA
ATOM      4  C   UNL     1      17.291  48.944  46.977  1.00  0.00     0.138 A 
ATOM      5  C   UNL     1      16.691  48.391  48.111  1.00  0.00     0.093 A 
ATOM      6  C   UNL     1      15.322  48.120  48.124  1.00  0.00     0.123 A 
ATOM      7  C   UNL     1      14.542  48.429  47.005  1.00  0.00     0.093 A 
ATOM      8  C   UNL     1      15.117  49.014  45.870  1.00  0.00     0.133 A 
ATOM      9  C   UNL     1      16.516  49.248  45.839  1.00  0.00     0.102 A 
ATOM     10  C   UNL     1      17.239  49.784  44.664  1.00  0.00     0.174 C 
ATOM     11  O   UNL     1      16.790  49.655  43.494  1.00  0.00    -0.294 OA
ENDROOT
BRANCH   2  12
ATOM     12  C   UNL     1      20.052  48.405  45.132  1.00  0.00    -0.007 A 
ATOM     13  C   UNL     1      20.036  47.143  45.754  1.00  0.00     0.011 A 
ATOM     14  C   UNL     1      20.705  48.542  43.892  1.00  0.00     0.011 A 
ATOM     15  C   UNL     1      20.634  46.040  45.139  1.00  0.00     0.046 A 
ATOM     16  C   UNL     1      21.303  47.437  43.279  1.00  0.00     0.046 A 
ATOM     17  C   UNL     1      21.268  46.182  43.901  1.00  0.00     0.115 A 
BRANCH  17  18
ATOM     18  O   UNL     1      21.860  45.074  43.299  1.00  0.00    -0.508 OA
ATOM     19  H   UNL     1      22.724  44.680  43.649  1.00  0.00     0.293 HD
ENDBRANCH  17  18
ENDBRANCH   2  12
BRANCH   8  20
ATOM     20  O   UNL     1      14.263  49.374  44.826  1.00  0.00    -0.507 OA
ATOM     21  H   UNL     1      13.337  49.753  44.961  1.00  0.00     0.293 HD
ENDBRANCH   8  20
BRANCH   6  22
ATOM     22  O   UNL     1      14.745  47.551  49.257  1.00  0.00    -0.508 OA
ATOM     23  H   UNL     1      13.944  47.973  49.713  1.00  0.00     0.293 HD
ENDBRANCH   6  22
TORSDOF 4
ENDMDL
MODEL 6
REMARK VINA RESULT:    -6.209      2.082      3.982
REMARK INTER + INTRA:          -7.525
REMARK INTER:                  -7.132
REMARK INTRA:                  -0.392
REMARK UNBOUND:                -0.408
REMARK SMILES O=C1C[C@H](c2ccc(O)cc2)Oc2cc(O)cc(O)c21
REMARK SMILES IDX 3 1 4 2 12 3 13 4 14 5 15 6 17 7 18 8 20 9 2 10 1 11 5 12
REMARK SMILES IDX 6 13 11 14 7 15 10 16 8 17 9 18 19 20 16 22
REMARK H PARENT 9 19 19 21 16 23
REMARK Flexibility Score: inf
ROOT
ATOM      1  C   UNL     1      20.730  48.537  44.088  1.00  0.00     0.131 C 
ATOM      2  C   UNL     1      20.023  49.797  44.620  1.00  0.00     0.211 C 
ATOM      3  O   UNL     1      18.899  50.151  43.804  1.00  0.00    -0.484 OA
ATOM      4  C   UNL     1      18.125  49.224  43.087  1.00  0.00     0.138 A 
ATOM      5  C   UNL     1      16.959  49.664  42.454  1.00  0.00     0.093 A 
ATOM      6  C   UNL     1      16.153  48.766  41.755  1.00  0.00     0.123 A 
ATOM      7  C   UNL     1      16.528  47.420  41.665  1.00  0.00     0.093 A 
ATOM      8  C   UNL     1      17.709  46.964  42.264  1.00  0.00     0.133 A 
ATOM      9  C   UNL     1      18.506  47.869  43.012  1.00  0.00     0.102 A 
ATOM     10  C   UNL     1      19.727  47.478  43.753  1.00  0.00     0.174 C 
ATOM     11  O   UNL     1      19.910  46.298  44.153  1.00  0.00    -0.294 OA
ENDROOT
BRANCH   2  12
ATOM     12  C   UNL     1      19.619  49.631  46.073  1.00  0.00    -0.007 A 
ATOM     13  C   UNL     1      20.615  49.436  47.048  1.00  0.00     0.011 A 
ATOM     14  C   UNL     1      18.268  49.606  46.468  1.00  0.00     0.011 A 
ATOM     15  C   UNL     1      20.268  49.245  48.389  1.00  0.00     0.046 A 
ATOM     16  C   UNL     1      17.925  49.415  47.810  1.00  0.00     0.046 A 
ATOM     17  C   UNL     1      18.925  49.236  48.774  1.00  0.00     0.115 A 
BRANCH  17  18
ATOM     18  O   UNL     1      18.594  49.045  50.114  1.00  0.00    -0.508 OA
ATOM     19  H   UNL     1      18.946  49.659  50.839  1.00  0.00     0.293 HD
ENDBRANCH  17  18
ENDBRANCH   2  12
BRANCH   8  20
ATOM     20  O   UNL     1      18.063  45.629  42.059  1.00  0.00    -0.507 OA
ATOM     21  H   UNL     1      18.217  45.221  41.149  1.00  0.00     0.293 HD
ENDBRANCH   8  20
BRANCH   6  22
ATOM     22  O   UNL     1      14.985  49.219  41.147  1.00  0.00    -0.508 OA
ATOM     23  H   UNL     1      14.526  50.070  41.450  1.00  0.00     0.293 HD
ENDBRANCH   6  22
TORSDOF 4
ENDMDL
MODEL 7
REMARK VINA RESULT:    -6.139      2.752      3.841
REMARK INTER + INTRA:          -7.445
REMARK INTER:                  -7.292
REMARK INTRA:                  -0.153
REMARK UNBOUND:                -0.408
REMARK SMILES O=C1C[C@H](c2ccc(O)cc2)Oc2cc(O)cc(O)c21
REMARK SMILES IDX 3 1 4 2 12 3 13 4 14 5 15 6 17 7 18 8 20 9 2 10 1 11 5 12
REMARK SMILES IDX 6 13 11 14 7 15 10 16 8 17 9 18 19 20 16 22
REMARK H PARENT 9 19 19 21 16 23
REMARK Flexibility Score: inf
ROOT
ATOM      1  C   UNL     1      18.580  49.819  46.924  1.00  0.00     0.131 C 
ATOM      2  C   UNL     1      19.670  48.999  47.637  1.00  0.00     0.211 C 
ATOM      3  O   UNL     1      19.880  47.734  46.995  1.00  0.00    -0.484 OA
ATOM      4  C   UNL     1      19.690  47.509  45.622  1.00  0.00     0.138 A 
ATOM      5  C   UNL     1      20.077  46.280  45.080  1.00  0.00     0.093 A 
ATOM      6  C   UNL     1      19.927  46.033  43.715  1.00  0.00     0.123 A 
ATOM      7  C   UNL     1      19.362  47.011  42.889  1.00  0.00     0.093 A 
ATOM      8  C   UNL     1      18.938  48.237  43.417  1.00  0.00     0.133 A 
ATOM      9  C   UNL     1      19.130  48.506  44.797  1.00  0.00     0.102 A 
ATOM     10  C   UNL     1      18.796  49.795  45.443  1.00  0.00     0.174 C 
ATOM     11  O   UNL     1      18.745  50.871  44.789  1.00  0.00    -0.294 OA
ENDROOT
BRANCH   2  12
ATOM     12  C   UNL     1      20.965  49.781  47.750  1.00  0.00    -0.007 A 
ATOM     13  C   UNL     1      21.196  50.574  48.890  1.00  0.00     0.011 A 
ATOM     14  C   UNL     1      21.920  49.786  46.715  1.00  0.00     0.011 A 
ATOM     15  C   UNL     1      22.364  51.332  49.003  1.00  0.00     0.046 A 
ATOM     16  C   UNL     1      23.088  50.546  46.831  1.00  0.00     0.046 A 
ATOM     17  C   UNL     1      23.314  51.320  47.977  1.00  0.00     0.115 A 
BRANCH  17  18
ATOM     18  O   UNL     1      24.474  52.080  48.103  1.00  0.00    -0.508 OA
ATOM     19  H   UNL     1      25.261  51.758  48.654  1.00  0.00     0.293 HD
ENDBRANCH  17  18
ENDBRANCH   2  12
BRANCH   8  20
ATOM     20  O   UNL     1      18.305  49.129  42.550  1.00  0.00    -0.507 OA
ATOM     21  H   UNL     1      18.793  49.819  41.998  1.00  0.00     0.293 HD
ENDBRANCH   8  20
BRANCH   6  22
ATOM     22  O   UNL     1      20.335  44.809  43.190  1.00  0.00    -0.508 OA
ATOM     23  H   UNL     1      20.997  44.755  42.424  1.00  0.00     0.293 HD
ENDBRANCH   6  22
TORSDOF 4
ENDMDL
MODEL 8
REMARK VINA RESULT:    -6.126      2.276      3.485
REMARK INTER + INTRA:          -7.429
REMARK INTER:                  -7.290
REMARK INTRA:                  -0.139
REMARK UNBOUND:                -0.408
REMARK SMILES O=C1C[C@H](c2ccc(O)cc2)Oc2cc(O)cc(O)c21
REMARK SMILES IDX 3 1 4 2 12 3 13 4 14 5 15 6 17 7 18 8 20 9 2 10 1 11 5 12
REMARK SMILES IDX 6 13 11 14 7 15 10 16 8 17 9 18 19 20 16 22
REMARK H PARENT 9 19 19 21 16 23
REMARK Flexibility Score: inf
ROOT
ATOM      1  C   UNL     1      20.768  47.361  44.768  1.00  0.00     0.131 C 
ATOM      2  C   UNL     1      20.840  48.879  44.523  1.00  0.00     0.211 C 
ATOM      3  O   UNL     1      19.548  49.424  44.224  1.00  0.00    -0.484 OA
ATOM      4  C   UNL     1      18.341  48.900  44.715  1.00  0.00     0.138 A 
ATOM      5  C   UNL     1      17.157  49.606  44.487  1.00  0.00     0.093 A 
ATOM      6  C   UNL     1      15.944  49.128  44.984  1.00  0.00     0.123 A 
ATOM      7  C   UNL     1      15.910  47.922  45.693  1.00  0.00     0.093 A 
ATOM      8  C   UNL     1      17.080  47.182  45.905  1.00  0.00     0.133 A 
ATOM      9  C   UNL     1      18.320  47.689  45.438  1.00  0.00     0.102 A 
ATOM     10  C   UNL     1      19.625  47.034  45.677  1.00  0.00     0.174 C 
ATOM     11  O   UNL     1      19.808  46.257  46.653  1.00  0.00    -0.294 OA
ENDROOT
BRANCH   2  12
ATOM     12  C   UNL     1      21.483  49.598  45.694  1.00  0.00    -0.007 A 
ATOM     13  C   UNL     1      22.871  49.833  45.683  1.00  0.00     0.011 A 
ATOM     14  C   UNL     1      20.739  49.983  46.826  1.00  0.00     0.011 A 
ATOM     15  C   UNL     1      23.494  50.461  46.764  1.00  0.00     0.046 A 
ATOM     16  C   UNL     1      21.366  50.612  47.907  1.00  0.00     0.046 A 
ATOM     17  C   UNL     1      22.745  50.854  47.877  1.00  0.00     0.115 A 
BRANCH  17  18
ATOM     18  O   UNL     1      23.379  51.479  48.948  1.00  0.00    -0.508 OA
ATOM     19  H   UNL     1      22.899  51.645  49.825  1.00  0.00     0.293 HD
ENDBRANCH  17  18
ENDBRANCH   2  12
BRANCH   8  20
ATOM     20  O   UNL     1      16.956  45.947  46.544  1.00  0.00    -0.507 OA
ATOM     21  H   UNL     1      17.740  45.373  46.816  1.00  0.00     0.293 HD
ENDBRANCH   8  20
BRANCH   6  22
ATOM     22  O   UNL     1      14.777  49.855  44.763  1.00  0.00    -0.508 OA
ATOM     23  H   UNL     1      14.048  49.914  45.464  1.00  0.00     0.293 HD
ENDBRANCH   6  22
TORSDOF 4
ENDMDL
MODEL 9
REMARK VINA RESULT:    -5.966      2.141      5.957
REMARK INTER + INTRA:          -7.246
REMARK INTER:                  -6.915
REMARK INTRA:                  -0.332
REMARK UNBOUND:                -0.408
REMARK SMILES O=C1C[C@H](c2ccc(O)cc2)Oc2cc(O)cc(O)c21
REMARK SMILES IDX 3 1 4 2 12 3 13 4 14 5 15 6 17 7 18 8 20 9 2 10 1 11 5 12
REMARK SMILES IDX 6 13 11 14 7 15 10 16 8 17 9 18 19 20 16 22
REMARK H PARENT 9 19 19 21 16 23
REMARK Flexibility Score: inf
ROOT
ATOM      1  C   UNL     1      18.035  49.880  42.608  1.00  0.00     0.131 C 
ATOM      2  C   UNL     1      17.169  48.649  42.285  1.00  0.00     0.211 C 
ATOM      3  O   UNL     1      17.956  47.451  42.245  1.00  0.00    -0.484 OA
ATOM      4  C   UNL     1      19.118  47.248  43.007  1.00  0.00     0.138 A 
ATOM      5  C   UNL     1      19.713  45.984  43.007  1.00  0.00     0.093 A 
ATOM      6  C   UNL     1      20.853  45.740  43.773  1.00  0.00     0.123 A 
ATOM      7  C   UNL     1      21.418  46.775  44.527  1.00  0.00     0.093 A 
ATOM      8  C   UNL     1      20.857  48.058  44.516  1.00  0.00     0.133 A 
ATOM      9  C   UNL     1      19.673  48.295  43.771  1.00  0.00     0.102 A 
ATOM     10  C   UNL     1      18.951  49.587  43.755  1.00  0.00     0.174 C 
ATOM     11  O   UNL     1      19.046  50.412  44.702  1.00  0.00    -0.294 OA
ENDROOT
BRANCH   2  12
ATOM     12  C   UNL     1      16.012  48.516  43.257  1.00  0.00    -0.007 A 
ATOM     13  C   UNL     1      14.945  49.431  43.189  1.00  0.00     0.011 A 
ATOM     14  C   UNL     1      16.004  47.538  44.269  1.00  0.00     0.011 A 
ATOM     15  C   UNL     1      13.884  49.354  44.095  1.00  0.00     0.046 A 
ATOM     16  C   UNL     1      14.941  47.463  45.174  1.00  0.00     0.046 A 
ATOM     17  C   UNL     1      13.877  48.370  45.088  1.00  0.00     0.115 A 
BRANCH  17  18
ATOM     18  O   UNL     1      12.813  48.304  45.985  1.00  0.00    -0.508 OA
ATOM     19  H   UNL     1      12.544  47.431  46.424  1.00  0.00     0.293 HD
ENDBRANCH  17  18
ENDBRANCH   2  12
BRANCH   8  20
ATOM     20  O   UNL     1      21.525  49.061  45.222  1.00  0.00    -0.507 OA
ATOM     21  H   UNL     1      21.249  49.383  46.138  1.00  0.00     0.293 HD
ENDBRANCH   8  20
BRANCH   6  22
ATOM     22  O   UNL     1      21.421  44.468  43.775  1.00  0.00    -0.508 OA
ATOM     23  H   UNL     1      21.240  43.806  43.030  1.00  0.00     0.293 HD
ENDBRANCH   6  22
TORSDOF 4
ENDMDL
