MODEL 1
REMARK VINA RESULT:    -7.684      0.000      0.000
REMARK INTER + INTRA:          -9.054
REMARK INTER:                  -9.256
REMARK INTRA:                   0.202
REMARK UNBOUND:                 0.202
REMARK SMILES O=c1c(O)c(-c2ccc(O)c(O)c2)oc2cc(O)cc(O)c12
REMARK SMILES IDX 5 1 3 2 2 3 1 4 22 5 20 6 19 7 17 8 16 9 15 10 14 11 6 12
REMARK SMILES IDX 7 13 8 14 9 15 13 16 11 17 10 18 12 20 4 22 21 24 18 26
REMARK H PARENT 10 19 12 21 4 23 21 25 18 27
REMARK Flexibility Score: inf
ROOT
ATOM      1  C   UNL     1      19.593  10.471 152.646  1.00  0.00     0.180 A 
ATOM      2  C   UNL     1      20.886  10.788 153.095  1.00  0.00     0.208 A 
ATOM      3  C   UNL     1      21.958  10.722 152.190  1.00  0.00     0.238 A 
ATOM      4  O   UNL     1      23.121  10.955 152.611  1.00  0.00    -0.285 OA
ATOM      5  C   UNL     1      21.719  10.358 150.842  1.00  0.00     0.111 A 
ATOM      6  C   UNL     1      22.723  10.298 149.829  1.00  0.00     0.134 A 
ATOM      7  C   UNL     1      22.397   9.799 148.562  1.00  0.00     0.093 A 
ATOM      8  C   UNL     1      21.089   9.418 148.253  1.00  0.00     0.123 A 
ATOM      9  C   UNL     1      20.090   9.528 149.218  1.00  0.00     0.094 A 
ATOM     10  C   UNL     1      20.392   9.989 150.502  1.00  0.00     0.146 A 
ATOM     11  O   UNL     1      19.412  10.068 151.393  1.00  0.00    -0.452 OA
ENDROOT
BRANCH   1  12
ATOM     12  C   UNL     1      18.412  10.540 153.535  1.00  0.00     0.025 A 
ATOM     13  C   UNL     1      17.198  11.032 153.033  1.00  0.00     0.016 A 
ATOM     14  C   UNL     1      16.077  11.125 153.860  1.00  0.00     0.051 A 
ATOM     15  C   UNL     1      16.148  10.745 155.205  1.00  0.00     0.157 A 
ATOM     16  C   UNL     1      18.492  10.178 154.891  1.00  0.00     0.062 A 
ATOM     17  C   UNL     1      17.374  10.272 155.729  1.00  0.00     0.158 A 
BRANCH  15  18
ATOM     18  O   UNL     1      14.989  10.856 155.977  1.00  0.00    -0.504 OA
ATOM     19  H   UNL     1      14.639  11.727 156.347  1.00  0.00     0.293 HD
ENDBRANCH  15  18
BRANCH  17  20
ATOM     20  O   UNL     1      17.528   9.893 157.065  1.00  0.00    -0.504 OA
ATOM     21  H   UNL     1      16.775   9.548 157.643  1.00  0.00     0.293 HD
ENDBRANCH  17  20
ENDBRANCH   1  12
BRANCH   2  22
ATOM     22  O   UNL     1      21.103  11.125 154.435  1.00  0.00    -0.502 OA
ATOM     23  H   UNL     1      21.255  10.427 155.153  1.00  0.00     0.293 HD
ENDBRANCH   2  22
BRANCH   6  24
ATOM     24  O   UNL     1      24.037  10.740 150.006  1.00  0.00    -0.507 OA
ATOM     25  H   UNL     1      24.376  11.226 150.823  1.00  0.00     0.293 HD
ENDBRANCH   6  24
BRANCH   8  26
ATOM     26  O   UNL     1      20.770   8.937 146.985  1.00  0.00    -0.508 OA
ATOM     27  H   UNL     1      20.965   9.475 146.150  1.00  0.00     0.293 HD
ENDBRANCH   8  26
TORSDOF 6
ENDMDL
MODEL 2
REMARK VINA RESULT:    -7.288     11.589     12.911
REMARK INTER + INTRA:          -8.577
REMARK INTER:                  -8.428
REMARK INTRA:                  -0.148
REMARK UNBOUND:                 0.202
REMARK SMILES O=c1c(O)c(-c2ccc(O)c(O)c2)oc2cc(O)cc(O)c12
REMARK SMILES IDX 5 1 3 2 2 3 1 4 22 5 20 6 19 7 17 8 16 9 15 10 14 11 6 12
REMARK SMILES IDX 7 13 8 14 9 15 13 16 11 17 10 18 12 20 4 22 21 24 18 26
REMARK H PARENT 10 19 12 21 4 23 21 25 18 27
REMARK Flexibility Score: inf
ROOT
ATOM      1  C   UNL     1      17.502   4.771 141.169  1.00  0.00     0.180 A 
ATOM      2  C   UNL     1      17.816   3.532 140.585  1.00  0.00     0.208 A 
ATOM      3  C   UNL     1      19.164   3.165 140.448  1.00  0.00     0.238 A 
ATOM      4  O   UNL     1      19.441   2.079 139.875  1.00  0.00    -0.285 OA
ATOM      5  C   UNL     1      20.181   4.035 140.913  1.00  0.00     0.111 A 
ATOM      6  C   UNL     1      21.579   3.748 140.862  1.00  0.00     0.134 A 
ATOM      7  C   UNL     1      22.500   4.735 141.231  1.00  0.00     0.093 A 
ATOM      8  C   UNL     1      22.073   5.976 141.710  1.00  0.00     0.123 A 
ATOM      9  C   UNL     1      20.710   6.244 141.818  1.00  0.00     0.094 A 
ATOM     10  C   UNL     1      19.767   5.292 141.424  1.00  0.00     0.146 A 
ATOM     11  O   UNL     1      18.479   5.592 141.535  1.00  0.00    -0.452 OA
ENDROOT
BRANCH   1  12
ATOM     12  C   UNL     1      16.104   5.215 141.370  1.00  0.00     0.025 A 
ATOM     13  C   UNL     1      15.673   6.420 140.795  1.00  0.00     0.016 A 
ATOM     14  C   UNL     1      14.365   6.867 140.988  1.00  0.00     0.051 A 
ATOM     15  C   UNL     1      13.466   6.131 141.769  1.00  0.00     0.157 A 
ATOM     16  C   UNL     1      15.211   4.485 142.172  1.00  0.00     0.062 A 
ATOM     17  C   UNL     1      13.897   4.927 142.375  1.00  0.00     0.158 A 
BRANCH  15  18
ATOM     18  O   UNL     1      12.170   6.630 141.917  1.00  0.00    -0.504 OA
ATOM     19  H   UNL     1      11.881   7.234 142.673  1.00  0.00     0.293 HD
ENDBRANCH  15  18
BRANCH  17  20
ATOM     20  O   UNL     1      13.065   4.150 143.183  1.00  0.00    -0.504 OA
ATOM     21  H   UNL     1      12.698   3.249 142.914  1.00  0.00     0.293 HD
ENDBRANCH  17  20
ENDBRANCH   1  12
BRANCH   2  22
ATOM     22  O   UNL     1      16.797   2.698 140.113  1.00  0.00    -0.502 OA
ATOM     23  H   UNL     1      16.777   1.704 140.304  1.00  0.00     0.293 HD
ENDBRANCH   2  22
BRANCH   6  24
ATOM     24  O   UNL     1      22.107   2.509 140.487  1.00  0.00    -0.507 OA
ATOM     25  H   UNL     1      21.653   1.853 139.869  1.00  0.00     0.293 HD
ENDBRANCH   6  24
BRANCH   8  26
ATOM     26  O   UNL     1      22.997   6.948 142.089  1.00  0.00    -0.508 OA
ATOM     27  H   UNL     1      23.602   6.819 142.890  1.00  0.00     0.293 HD
ENDBRANCH   8  26
TORSDOF 6
ENDMDL
MODEL 3
REMARK VINA RESULT:    -7.068     11.739     12.729
REMARK INTER + INTRA:          -8.312
REMARK INTER:                  -8.297
REMARK INTRA:                  -0.015
REMARK UNBOUND:                 0.202
REMARK SMILES O=c1c(O)c(-c2ccc(O)c(O)c2)oc2cc(O)cc(O)c12
REMARK SMILES IDX 5 1 3 2 2 3 1 4 22 5 20 6 19 7 17 8 16 9 15 10 14 11 6 12
REMARK SMILES IDX 7 13 8 14 9 15 13 16 11 17 10 18 12 20 4 22 21 24 18 26
REMARK H PARENT 10 19 12 21 4 23 21 25 18 27
REMARK Flexibility Score: inf
ROOT
ATOM      1  C   UNL     1      17.650   5.154 141.354  1.00  0.00     0.180 A 
ATOM      2  C   UNL     1      18.679   6.072 141.628  1.00  0.00     0.208 A 
ATOM      3  C   UNL     1      20.013   5.674 141.445  1.00  0.00     0.238 A 
ATOM      4  O   UNL     1      20.932   6.481 141.743  1.00  0.00    -0.285 OA
ATOM      5  C   UNL     1      20.301   4.369 140.975  1.00  0.00     0.111 A 
ATOM      6  C   UNL     1      21.613   3.873 140.715  1.00  0.00     0.134 A 
ATOM      7  C   UNL     1      21.788   2.525 140.377  1.00  0.00     0.093 A 
ATOM      8  C   UNL     1      20.691   1.673 140.227  1.00  0.00     0.123 A 
ATOM      9  C   UNL     1      19.402   2.163 140.421  1.00  0.00     0.094 A 
ATOM     10  C   UNL     1      19.199   3.494 140.794  1.00  0.00     0.146 A 
ATOM     11  O   UNL     1      17.954   3.917 140.978  1.00  0.00    -0.452 OA
ENDROOT
BRANCH   1  12
ATOM     12  C   UNL     1      16.220   5.509 141.500  1.00  0.00     0.025 A 
ATOM     13  C   UNL     1      15.727   6.661 140.872  1.00  0.00     0.016 A 
ATOM     14  C   UNL     1      14.386   7.024 141.013  1.00  0.00     0.051 A 
ATOM     15  C   UNL     1      13.516   6.255 141.794  1.00  0.00     0.157 A 
ATOM     16  C   UNL     1      15.354   4.746 142.303  1.00  0.00     0.062 A 
ATOM     17  C   UNL     1      14.008   5.104 142.453  1.00  0.00     0.158 A 
BRANCH  15  18
ATOM     18  O   UNL     1      12.185   6.669 141.888  1.00  0.00    -0.504 OA
ATOM     19  H   UNL     1      11.629   6.965 141.099  1.00  0.00     0.293 HD
ENDBRANCH  15  18
BRANCH  17  20
ATOM     20  O   UNL     1      13.206   4.299 143.264  1.00  0.00    -0.504 OA
ATOM     21  H   UNL     1      13.184   3.291 143.214  1.00  0.00     0.293 HD
ENDBRANCH  17  20
ENDBRANCH   1  12
BRANCH   2  22
ATOM     22  O   UNL     1      18.373   7.348 142.112  1.00  0.00    -0.502 OA
ATOM     23  H   UNL     1      18.500   8.184 141.556  1.00  0.00     0.293 HD
ENDBRANCH   2  22
BRANCH   6  24
ATOM     24  O   UNL     1      22.766   4.662 140.747  1.00  0.00    -0.507 OA
ATOM     25  H   UNL     1      23.527   4.543 141.399  1.00  0.00     0.293 HD
ENDBRANCH   6  24
BRANCH   8  26
ATOM     26  O   UNL     1      20.873   0.336 139.876  1.00  0.00    -0.508 OA
ATOM     27  H   UNL     1      20.570  -0.021 138.978  1.00  0.00     0.293 HD
ENDBRANCH   8  26
TORSDOF 6
ENDMDL
MODEL 4
REMARK VINA RESULT:    -6.975     10.812     14.587
REMARK INTER + INTRA:          -8.200
REMARK INTER:                  -8.096
REMARK INTRA:                  -0.103
REMARK UNBOUND:                 0.202
REMARK SMILES O=c1c(O)c(-c2ccc(O)c(O)c2)oc2cc(O)cc(O)c12
REMARK SMILES IDX 5 1 3 2 2 3 1 4 22 5 20 6 19 7 17 8 16 9 15 10 14 11 6 12
REMARK SMILES IDX 7 13 8 14 9 15 13 16 11 17 10 18 12 20 4 22 21 24 18 26
REMARK H PARENT 10 19 12 21 4 23 21 25 18 27
REMARK Flexibility Score: inf
ROOT
ATOM      1  C   UNL     1      14.611   5.072 141.539  1.00  0.00     0.180 A 
ATOM      2  C   UNL     1      13.483   5.909 141.503  1.00  0.00     0.208 A 
ATOM      3  C   UNL     1      12.204   5.331 141.557  1.00  0.00     0.238 A 
ATOM      4  O   UNL     1      11.197   6.081 141.470  1.00  0.00    -0.285 OA
ATOM      5  C   UNL     1      12.071   3.925 141.665  1.00  0.00     0.111 A 
ATOM      6  C   UNL     1      10.825   3.235 141.768  1.00  0.00     0.134 A 
ATOM      7  C   UNL     1      10.807   1.836 141.737  1.00  0.00     0.093 A 
ATOM      8  C   UNL     1      11.994   1.101 141.673  1.00  0.00     0.123 A 
ATOM      9  C   UNL     1      13.217   1.766 141.631  1.00  0.00     0.094 A 
ATOM     10  C   UNL     1      13.265   3.162 141.624  1.00  0.00     0.146 A 
ATOM     11  O   UNL     1      14.452   3.754 141.573  1.00  0.00    -0.452 OA
ENDROOT
BRANCH   1  12
ATOM     12  C   UNL     1      15.991   5.609 141.511  1.00  0.00     0.025 A 
ATOM     13  C   UNL     1      16.892   5.145 140.542  1.00  0.00     0.016 A 
ATOM     14  C   UNL     1      18.203   5.624 140.511  1.00  0.00     0.051 A 
ATOM     15  C   UNL     1      18.645   6.561 141.451  1.00  0.00     0.157 A 
ATOM     16  C   UNL     1      16.437   6.534 142.471  1.00  0.00     0.062 A 
ATOM     17  C   UNL     1      17.752   7.017 142.450  1.00  0.00     0.158 A 
BRANCH  15  18
ATOM     18  O   UNL     1      19.967   7.004 141.360  1.00  0.00    -0.504 OA
ATOM     19  H   UNL     1      20.753   6.522 141.772  1.00  0.00     0.293 HD
ENDBRANCH  15  18
BRANCH  17  20
ATOM     20  O   UNL     1      18.125   7.935 143.433  1.00  0.00    -0.504 OA
ATOM     21  H   UNL     1      18.021   8.935 143.341  1.00  0.00     0.293 HD
ENDBRANCH  17  20
ENDBRANCH   1  12
BRANCH   2  22
ATOM     22  O   UNL     1      13.637   7.293 141.375  1.00  0.00    -0.502 OA
ATOM     23  H   UNL     1      14.532   7.753 141.486  1.00  0.00     0.293 HD
ENDBRANCH   2  22
BRANCH   6  24
ATOM     24  O   UNL     1       9.592   3.872 141.929  1.00  0.00    -0.507 OA
ATOM     25  H   UNL     1       8.762   3.663 141.395  1.00  0.00     0.293 HD
ENDBRANCH   6  24
BRANCH   8  26
ATOM     26  O   UNL     1      11.967  -0.292 141.659  1.00  0.00    -0.508 OA
ATOM     27  H   UNL     1      11.262  -0.803 141.141  1.00  0.00     0.293 HD
ENDBRANCH   8  26
TORSDOF 6
ENDMDL
MODEL 5
REMARK VINA RESULT:    -6.866     11.586     14.011
REMARK INTER + INTRA:          -8.070
REMARK INTER:                  -7.862
REMARK INTRA:                  -0.208
REMARK UNBOUND:                 0.202
REMARK SMILES O=c1c(O)c(-c2ccc(O)c(O)c2)oc2cc(O)cc(O)c12
REMARK SMILES IDX 5 1 3 2 2 3 1 4 22 5 20 6 19 7 17 8 16 9 15 10 14 11 6 12
REMARK SMILES IDX 7 13 8 14 9 15 13 16 11 17 10 18 12 20 4 22 21 24 18 26
REMARK H PARENT 10 19 12 21 4 23 21 25 18 27
REMARK Flexibility Score: inf
ROOT
ATOM      1  C   UNL     1      17.397   5.321 141.153  1.00  0.00     0.180 A 
ATOM      2  C   UNL     1      16.739   6.550 140.982  1.00  0.00     0.208 A 
ATOM      3  C   UNL     1      15.345   6.606 141.147  1.00  0.00     0.238 A 
ATOM      4  O   UNL     1      14.754   7.698 140.940  1.00  0.00    -0.285 OA
ATOM      5  C   UNL     1      14.631   5.434 141.497  1.00  0.00     0.111 A 
ATOM      6  C   UNL     1      13.223   5.382 141.730  1.00  0.00     0.134 A 
ATOM      7  C   UNL     1      12.603   4.145 141.942  1.00  0.00     0.093 A 
ATOM      8  C   UNL     1      13.350   2.965 141.996  1.00  0.00     0.123 A 
ATOM      9  C   UNL     1      14.732   3.013 141.829  1.00  0.00     0.094 A 
ATOM     10  C   UNL     1      15.374   4.229 141.579  1.00  0.00     0.146 A 
ATOM     11  O   UNL     1      16.692   4.227 141.416  1.00  0.00    -0.452 OA
ENDROOT
BRANCH   1  12
ATOM     12  C   UNL     1      18.866   5.190 141.020  1.00  0.00     0.025 A 
ATOM     13  C   UNL     1      19.398   4.380 140.007  1.00  0.00     0.016 A 
ATOM     14  C   UNL     1      20.779   4.226 139.876  1.00  0.00     0.051 A 
ATOM     15  C   UNL     1      21.656   4.864 140.761  1.00  0.00     0.157 A 
ATOM     16  C   UNL     1      19.743   5.814 141.924  1.00  0.00     0.062 A 
ATOM     17  C   UNL     1      21.130   5.663 141.804  1.00  0.00     0.158 A 
BRANCH  15  18
ATOM     18  O   UNL     1      23.027   4.675 140.572  1.00  0.00    -0.504 OA
ATOM     19  H   UNL     1      23.460   3.771 140.449  1.00  0.00     0.293 HD
ENDBRANCH  15  18
BRANCH  17  20
ATOM     20  O   UNL     1      21.940   6.314 142.737  1.00  0.00    -0.504 OA
ATOM     21  H   UNL     1      22.073   7.314 142.768  1.00  0.00     0.293 HD
ENDBRANCH  17  20
ENDBRANCH   1  12
BRANCH   2  22
ATOM     22  O   UNL     1      17.461   7.691 140.615  1.00  0.00    -0.502 OA
ATOM     23  H   UNL     1      17.982   8.243 141.285  1.00  0.00     0.293 HD
ENDBRANCH   2  22
BRANCH   6  24
ATOM     24  O   UNL     1      12.401   6.511 141.788  1.00  0.00    -0.507 OA
ATOM     25  H   UNL     1      12.550   7.301 142.398  1.00  0.00     0.293 HD
ENDBRANCH   6  24
BRANCH   8  26
ATOM     26  O   UNL     1      12.727   1.740 142.223  1.00  0.00    -0.508 OA
ATOM     27  H   UNL     1      12.798   1.267 143.116  1.00  0.00     0.293 HD
ENDBRANCH   8  26
TORSDOF 6
ENDMDL
MODEL 6
REMARK VINA RESULT:    -6.779      1.320      2.226
REMARK INTER + INTRA:          -7.964
REMARK INTER:                  -8.496
REMARK INTRA:                   0.531
REMARK UNBOUND:                 0.202
REMARK SMILES O=c1c(O)c(-c2ccc(O)c(O)c2)oc2cc(O)cc(O)c12
REMARK SMILES IDX 5 1 3 2 2 3 1 4 22 5 20 6 19 7 17 8 16 9 15 10 14 11 6 12
REMARK SMILES IDX 7 13 8 14 9 15 13 16 11 17 10 18 12 20 4 22 21 24 18 26
REMARK H PARENT 10 19 12 21 4 23 21 25 18 27
REMARK Flexibility Score: inf
ROOT
ATOM      1  C   UNL     1      18.265  10.700 153.380  1.00  0.00     0.180 A 
ATOM      2  C   UNL     1      19.476  10.879 154.070  1.00  0.00     0.208 A 
ATOM      3  C   UNL     1      20.685  10.770 153.366  1.00  0.00     0.238 A 
ATOM      4  O   UNL     1      21.767  10.878 153.999  1.00  0.00    -0.285 OA
ATOM      5  C   UNL     1      20.668  10.499 151.975  1.00  0.00     0.111 A 
ATOM      6  C   UNL     1      21.831  10.407 151.153  1.00  0.00     0.134 A 
ATOM      7  C   UNL     1      21.703  10.006 149.818  1.00  0.00     0.093 A 
ATOM      8  C   UNL     1      20.448   9.757 149.258  1.00  0.00     0.123 A 
ATOM      9  C   UNL     1      19.302   9.901 150.037  1.00  0.00     0.094 A 
ATOM     10  C   UNL     1      19.401  10.265 151.382  1.00  0.00     0.146 A 
ATOM     11  O   UNL     1      18.284  10.382 152.091  1.00  0.00    -0.452 OA
ENDROOT
BRANCH   1  12
ATOM     12  C   UNL     1      16.951  10.824 154.050  1.00  0.00     0.025 A 
ATOM     13  C   UNL     1      16.895  10.933 155.446  1.00  0.00     0.016 A 
ATOM     14  C   UNL     1      15.665  11.031 156.099  1.00  0.00     0.051 A 
ATOM     15  C   UNL     1      14.468  11.007 155.375  1.00  0.00     0.157 A 
ATOM     16  C   UNL     1      15.750  10.778 153.321  1.00  0.00     0.062 A 
ATOM     17  C   UNL     1      14.511  10.871 153.967  1.00  0.00     0.158 A 
BRANCH  15  18
ATOM     18  O   UNL     1      13.272  11.116 156.088  1.00  0.00    -0.504 OA
ATOM     19  H   UNL     1      12.722  11.961 156.141  1.00  0.00     0.293 HD
ENDBRANCH  15  18
BRANCH  17  20
ATOM     20  O   UNL     1      13.359  10.820 153.179  1.00  0.00    -0.504 OA
ATOM     21  H   UNL     1      12.815   9.983 153.029  1.00  0.00     0.293 HD
ENDBRANCH  17  20
ENDBRANCH   1  12
BRANCH   2  22
ATOM     22  O   UNL     1      19.471  11.125 155.447  1.00  0.00    -0.502 OA
ATOM     23  H   UNL     1      18.732  10.795 156.055  1.00  0.00     0.293 HD
ENDBRANCH   2  22
BRANCH   6  24
ATOM     24  O   UNL     1      23.121  10.723 151.589  1.00  0.00    -0.507 OA
ATOM     25  H   UNL     1      23.369  11.561 152.093  1.00  0.00     0.293 HD
ENDBRANCH   6  24
BRANCH   8  26
ATOM     26  O   UNL     1      20.328   9.373 147.924  1.00  0.00    -0.508 OA
ATOM     27  H   UNL     1      20.698   8.491 147.591  1.00  0.00     0.293 HD
ENDBRANCH   8  26
TORSDOF 6
ENDMDL
MODEL 7
REMARK VINA RESULT:    -6.756     11.423     15.051
REMARK INTER + INTRA:          -7.936
REMARK INTER:                  -7.613
REMARK INTRA:                  -0.323
REMARK UNBOUND:                 0.202
REMARK SMILES O=c1c(O)c(-c2ccc(O)c(O)c2)oc2cc(O)cc(O)c12
REMARK SMILES IDX 5 1 3 2 2 3 1 4 22 5 20 6 19 7 17 8 16 9 15 10 14 11 6 12
REMARK SMILES IDX 7 13 8 14 9 15 13 16 11 17 10 18 12 20 4 22 21 24 18 26
REMARK H PARENT 10 19 12 21 4 23 21 25 18 27
REMARK Flexibility Score: inf
ROOT
ATOM      1  C   UNL     1      13.789   4.827 141.455  1.00  0.00     0.180 A 
ATOM      2  C   UNL     1      13.798   3.445 141.711  1.00  0.00     0.208 A 
ATOM      3  C   UNL     1      12.575   2.765 141.822  1.00  0.00     0.238 A 
ATOM      4  O   UNL     1      12.588   1.539 142.105  1.00  0.00    -0.285 OA
ATOM      5  C   UNL     1      11.358   3.473 141.660  1.00  0.00     0.111 A 
ATOM      6  C   UNL     1      10.062   2.878 141.712  1.00  0.00     0.134 A 
ATOM      7  C   UNL     1       8.925   3.695 141.668  1.00  0.00     0.093 A 
ATOM      8  C   UNL     1       9.038   5.078 141.509  1.00  0.00     0.123 A 
ATOM      9  C   UNL     1      10.299   5.661 141.398  1.00  0.00     0.094 A 
ATOM     10  C   UNL     1      11.452   4.876 141.474  1.00  0.00     0.146 A 
ATOM     11  O   UNL     1      12.633   5.474 141.374  1.00  0.00    -0.452 OA
ENDROOT
BRANCH   1  12
ATOM     12  C   UNL     1      15.038   5.607 141.300  1.00  0.00     0.025 A 
ATOM     13  C   UNL     1      15.645   5.697 140.039  1.00  0.00     0.016 A 
ATOM     14  C   UNL     1      16.833   6.410 139.875  1.00  0.00     0.051 A 
ATOM     15  C   UNL     1      17.448   7.035 140.967  1.00  0.00     0.157 A 
ATOM     16  C   UNL     1      15.665   6.214 142.403  1.00  0.00     0.062 A 
ATOM     17  C   UNL     1      16.860   6.929 142.249  1.00  0.00     0.158 A 
BRANCH  15  18
ATOM     18  O   UNL     1      18.632   7.738 140.734  1.00  0.00    -0.504 OA
ATOM     19  H   UNL     1      18.679   8.740 140.615  1.00  0.00     0.293 HD
ENDBRANCH  15  18
BRANCH  17  20
ATOM     20  O   UNL     1      17.424   7.507 143.388  1.00  0.00    -0.504 OA
ATOM     21  H   UNL     1      17.313   8.478 143.642  1.00  0.00     0.293 HD
ENDBRANCH  17  20
ENDBRANCH   1  12
BRANCH   2  22
ATOM     22  O   UNL     1      15.010   2.770 141.889  1.00  0.00    -0.502 OA
ATOM     23  H   UNL     1      15.843   3.002 141.363  1.00  0.00     0.293 HD
ENDBRANCH   2  22
BRANCH   6  24
ATOM     24  O   UNL     1       9.838   1.500 141.778  1.00  0.00    -0.507 OA
ATOM     25  H   UNL     1       9.491   1.012 142.590  1.00  0.00     0.293 HD
ENDBRANCH   6  24
BRANCH   8  26
ATOM     26  O   UNL     1       7.901   5.882 141.451  1.00  0.00    -0.508 OA
ATOM     27  H   UNL     1       7.622   6.342 140.593  1.00  0.00     0.293 HD
ENDBRANCH   8  26
TORSDOF 6
ENDMDL
MODEL 8
REMARK VINA RESULT:    -6.487     12.709     13.370
REMARK INTER + INTRA:          -7.612
REMARK INTER:                  -7.843
REMARK INTRA:                   0.231
REMARK UNBOUND:                 0.202
REMARK SMILES O=c1c(O)c(-c2ccc(O)c(O)c2)oc2cc(O)cc(O)c12
REMARK SMILES IDX 5 1 3 2 2 3 1 4 22 5 20 6 19 7 17 8 16 9 15 10 14 11 6 12
REMARK SMILES IDX 7 13 8 14 9 15 13 16 11 17 10 18 12 20 4 22 21 24 18 26
REMARK H PARENT 10 19 12 21 4 23 21 25 18 27
REMARK Flexibility Score: inf
ROOT
ATOM      1  C   UNL     1      15.877   4.782 141.127  1.00  0.00     0.180 A 
ATOM      2  C   UNL     1      16.495   5.996 140.782  1.00  0.00     0.208 A 
ATOM      3  C   UNL     1      17.893   6.038 140.661  1.00  0.00     0.238 A 
ATOM      4  O   UNL     1      18.446   7.140 140.405  1.00  0.00    -0.285 OA
ATOM      5  C   UNL     1      18.654   4.862 140.870  1.00  0.00     0.111 A 
ATOM      6  C   UNL     1      20.073   4.779 140.734  1.00  0.00     0.134 A 
ATOM      7  C   UNL     1      20.733   3.597 141.093  1.00  0.00     0.093 A 
ATOM      8  C   UNL     1      20.020   2.475 141.520  1.00  0.00     0.123 A 
ATOM      9  C   UNL     1      18.630   2.527 141.599  1.00  0.00     0.094 A 
ATOM     10  C   UNL     1      17.946   3.704 141.283  1.00  0.00     0.146 A 
ATOM     11  O   UNL     1      16.622   3.713 141.382  1.00  0.00    -0.452 OA
ENDROOT
BRANCH   1  12
ATOM     12  C   UNL     1      14.407   4.654 141.249  1.00  0.00     0.025 A 
ATOM     13  C   UNL     1      13.778   3.476 140.821  1.00  0.00     0.016 A 
ATOM     14  C   UNL     1      12.392   3.343 140.909  1.00  0.00     0.051 A 
ATOM     15  C   UNL     1      11.604   4.386 141.410  1.00  0.00     0.157 A 
ATOM     16  C   UNL     1      13.617   5.712 141.732  1.00  0.00     0.062 A 
ATOM     17  C   UNL     1      12.224   5.589 141.820  1.00  0.00     0.158 A 
BRANCH  15  18
ATOM     18  O   UNL     1      10.223   4.186 141.477  1.00  0.00    -0.504 OA
ATOM     19  H   UNL     1       9.671   4.338 142.309  1.00  0.00     0.293 HD
ENDBRANCH  15  18
BRANCH  17  20
ATOM     20  O   UNL     1      11.503   6.680 142.312  1.00  0.00    -0.504 OA
ATOM     21  H   UNL     1      11.898   7.397 142.902  1.00  0.00     0.293 HD
ENDBRANCH  17  20
ENDBRANCH   1  12
BRANCH   2  22
ATOM     22  O   UNL     1      15.727   7.150 140.601  1.00  0.00    -0.502 OA
ATOM     23  H   UNL     1      16.047   7.935 140.046  1.00  0.00     0.293 HD
ENDBRANCH   2  22
BRANCH   6  24
ATOM     24  O   UNL     1      20.869   5.811 140.231  1.00  0.00    -0.507 OA
ATOM     25  H   UNL     1      20.538   6.557 139.638  1.00  0.00     0.293 HD
ENDBRANCH   6  24
BRANCH   8  26
ATOM     26  O   UNL     1      20.684   1.298 141.860  1.00  0.00    -0.508 OA
ATOM     27  H   UNL     1      20.433   0.410 141.443  1.00  0.00     0.293 HD
ENDBRANCH   8  26
TORSDOF 6
ENDMDL
MODEL 9
REMARK VINA RESULT:    -6.476     12.824     16.041
REMARK INTER + INTRA:          -7.599
REMARK INTER:                  -7.730
REMARK INTRA:                   0.131
REMARK UNBOUND:                 0.202
REMARK SMILES O=c1c(O)c(-c2ccc(O)c(O)c2)oc2cc(O)cc(O)c12
REMARK SMILES IDX 5 1 3 2 2 3 1 4 22 5 20 6 19 7 17 8 16 9 15 10 14 11 6 12
REMARK SMILES IDX 7 13 8 14 9 15 13 16 11 17 10 18 12 20 4 22 21 24 18 26
REMARK H PARENT 10 19 12 21 4 23 21 25 18 27
REMARK Flexibility Score: inf
ROOT
ATOM      1  C   UNL     1      12.560   4.217 141.434  1.00  0.00     0.180 A 
ATOM      2  C   UNL     1      12.588   2.872 141.838  1.00  0.00     0.208 A 
ATOM      3  C   UNL     1      11.375   2.179 141.984  1.00  0.00     0.238 A 
ATOM      4  O   UNL     1      11.404   0.990 142.397  1.00  0.00    -0.285 OA
ATOM      5  C   UNL     1      10.151   2.835 141.708  1.00  0.00     0.111 A 
ATOM      6  C   UNL     1       8.866   2.219 141.784  1.00  0.00     0.134 A 
ATOM      7  C   UNL     1       7.715   2.999 141.617  1.00  0.00     0.093 A 
ATOM      8  C   UNL     1       7.805   4.359 141.313  1.00  0.00     0.123 A 
ATOM      9  C   UNL     1       9.056   4.957 141.178  1.00  0.00     0.094 A 
ATOM     10  C   UNL     1      10.222   4.213 141.375  1.00  0.00     0.146 A 
ATOM     11  O   UNL     1      11.393   4.824 141.247  1.00  0.00    -0.452 OA
ENDROOT
BRANCH   1  12
ATOM     12  C   UNL     1      13.797   5.006 141.235  1.00  0.00     0.025 A 
ATOM     13  C   UNL     1      13.811   6.366 141.574  1.00  0.00     0.016 A 
ATOM     14  C   UNL     1      14.961   7.132 141.375  1.00  0.00     0.051 A 
ATOM     15  C   UNL     1      16.113   6.562 140.821  1.00  0.00     0.157 A 
ATOM     16  C   UNL     1      14.944   4.435 140.658  1.00  0.00     0.062 A 
ATOM     17  C   UNL     1      16.102   5.196 140.451  1.00  0.00     0.158 A 
BRANCH  15  18
ATOM     18  O   UNL     1      17.232   7.381 140.655  1.00  0.00    -0.504 OA
ATOM     19  H   UNL     1      17.326   8.064 139.917  1.00  0.00     0.293 HD
ENDBRANCH  15  18
BRANCH  17  20
ATOM     20  O   UNL     1      17.205   4.562 139.875  1.00  0.00    -0.504 OA
ATOM     21  H   UNL     1      17.265   3.567 139.716  1.00  0.00     0.293 HD
ENDBRANCH  17  20
ENDBRANCH   1  12
BRANCH   2  22
ATOM     22  O   UNL     1      13.806   2.249 142.125  1.00  0.00    -0.502 OA
ATOM     23  H   UNL     1      14.591   2.269 141.486  1.00  0.00     0.293 HD
ENDBRANCH   2  22
BRANCH   6  24
ATOM     24  O   UNL     1       8.668   0.851 141.991  1.00  0.00    -0.507 OA
ATOM     25  H   UNL     1       9.200   0.284 142.634  1.00  0.00     0.293 HD
ENDBRANCH   6  24
BRANCH   8  26
ATOM     26  O   UNL     1       6.654   5.125 141.132  1.00  0.00    -0.508 OA
ATOM     27  H   UNL     1       6.588   6.072 141.485  1.00  0.00     0.293 HD
ENDBRANCH   8  26
TORSDOF 6
ENDMDL
