MODEL 1
REMARK VINA RESULT:    -5.988      0.000      0.000
REMARK INTER + INTRA:          -6.729
REMARK INTER:                  -6.688
REMARK INTRA:                  -0.040
REMARK UNBOUND:                -0.040
REMARK SMILES O=C([O-])c1ccc(O)c(O)c1
REMARK SMILES IDX 4 1 11 2 5 3 9 4 6 5 7 6 2 7 1 8 3 9 10 10 8 12
REMARK H PARENT 10 11 8 13
REMARK Flexibility Score: inf
ROOT
ATOM      1  C   UNL     1       9.119  69.287   0.460  1.00  0.00     0.001 A 
ATOM      2  C   UNL     1       9.303  69.599   1.818  1.00  0.00     0.060 A 
ATOM      3  C   UNL     1       9.509  70.223  -0.515  1.00  0.00     0.014 A 
ATOM      4  C   UNL     1       9.866  70.828   2.197  1.00  0.00     0.158 A 
ATOM      5  C   UNL     1      10.071  71.445  -0.137  1.00  0.00     0.051 A 
ATOM      6  C   UNL     1      10.251  71.751   1.218  1.00  0.00     0.157 A 
ENDROOT
BRANCH   1   7
ATOM      7  C   UNL     1       8.523  67.991   0.065  1.00  0.00     0.072 C 
ATOM      8  O   UNL     1       7.658  67.936  -0.850  1.00  0.00    -0.545 OA
ATOM      9  O   UNL     1       8.910  66.816   0.698  1.00  0.00    -0.545 OA
ENDBRANCH   1   7
BRANCH   4  10
ATOM     10  O   UNL     1      10.047  71.135   3.544  1.00  0.00    -0.504 OA
ATOM     11  H   UNL     1       9.413  71.753   4.037  1.00  0.00     0.293 HD
ENDBRANCH   4  10
BRANCH   6  12
ATOM     12  O   UNL     1      10.811  72.969   1.599  1.00  0.00    -0.504 OA
ATOM     13  H   UNL     1      10.470  73.479   2.406  1.00  0.00     0.293 HD
ENDBRANCH   6  12
TORSDOF 3
ENDMDL
MODEL 2
REMARK VINA RESULT:    -5.964      2.556      3.939
REMARK INTER + INTRA:          -6.702
REMARK INTER:                  -6.659
REMARK INTRA:                  -0.043
REMARK UNBOUND:                -0.040
REMARK SMILES O=C([O-])c1ccc(O)c(O)c1
REMARK SMILES IDX 4 1 11 2 5 3 9 4 6 5 7 6 2 7 1 8 3 9 10 10 8 12
REMARK H PARENT 10 11 8 13
REMARK Flexibility Score: inf
ROOT
ATOM      1  C   UNL     1       9.298  68.097   0.687  1.00  0.00     0.001 A 
ATOM      2  C   UNL     1       8.175  67.912  -0.138  1.00  0.00     0.060 A 
ATOM      3  C   UNL     1      10.382  68.853   0.205  1.00  0.00     0.014 A 
ATOM      4  C   UNL     1       8.135  68.473  -1.425  1.00  0.00     0.158 A 
ATOM      5  C   UNL     1      10.341  69.412  -1.075  1.00  0.00     0.051 A 
ATOM      6  C   UNL     1       9.220  69.224  -1.892  1.00  0.00     0.157 A 
ENDROOT
BRANCH   1   7
ATOM      7  C   UNL     1       9.336  67.502   2.042  1.00  0.00     0.072 C 
ATOM      8  O   UNL     1      10.036  68.024   2.951  1.00  0.00    -0.545 OA
ATOM      9  O   UNL     1       8.599  66.360   2.330  1.00  0.00    -0.545 OA
ENDBRANCH   1   7
BRANCH   4  10
ATOM     10  O   UNL     1       7.021  68.287  -2.240  1.00  0.00    -0.504 OA
ATOM     11  H   UNL     1       7.027  68.558  -3.216  1.00  0.00     0.293 HD
ENDBRANCH   4  10
BRANCH   6  12
ATOM     12  O   UNL     1       9.176  69.780  -3.170  1.00  0.00    -0.504 OA
ATOM     13  H   UNL     1       8.295  69.961  -3.638  1.00  0.00     0.293 HD
ENDBRANCH   6  12
TORSDOF 3
ENDMDL
MODEL 3
REMARK VINA RESULT:    -5.952      2.063      3.182
REMARK INTER + INTRA:          -6.688
REMARK INTER:                  -6.650
REMARK INTRA:                  -0.038
REMARK UNBOUND:                -0.040
REMARK SMILES O=C([O-])c1ccc(O)c(O)c1
REMARK SMILES IDX 4 1 11 2 5 3 9 4 6 5 7 6 2 7 1 8 3 9 10 10 8 12
REMARK H PARENT 10 11 8 13
REMARK Flexibility Score: inf
ROOT
ATOM      1  C   UNL     1      10.145  69.169   0.093  1.00  0.00     0.001 A 
ATOM      2  C   UNL     1      10.040  69.410  -1.288  1.00  0.00     0.060 A 
ATOM      3  C   UNL     1      10.110  70.259   0.981  1.00  0.00     0.014 A 
ATOM      4  C   UNL     1       9.902  70.719  -1.774  1.00  0.00     0.158 A 
ATOM      5  C   UNL     1       9.972  71.562   0.496  1.00  0.00     0.051 A 
ATOM      6  C   UNL     1       9.869  71.796  -0.880  1.00  0.00     0.157 A 
ENDROOT
BRANCH   1   7
ATOM      7  C   UNL     1      10.291  67.786   0.601  1.00  0.00     0.072 C 
ATOM      8  O   UNL     1      11.280  67.467   1.314  1.00  0.00    -0.545 OA
ATOM      9  O   UNL     1       9.339  66.821   0.299  1.00  0.00    -0.545 OA
ENDBRANCH   1   7
BRANCH   4  10
ATOM     10  O   UNL     1       9.798  70.955  -3.143  1.00  0.00    -0.504 OA
ATOM     11  H   UNL     1       9.914  70.210  -3.821  1.00  0.00     0.293 HD
ENDBRANCH   4  10
BRANCH   6  12
ATOM     12  O   UNL     1       9.731  73.095  -1.368  1.00  0.00    -0.504 OA
ATOM     13  H   UNL     1       8.963  73.690  -1.080  1.00  0.00     0.293 HD
ENDBRANCH   6  12
TORSDOF 3
ENDMDL
MODEL 4
REMARK VINA RESULT:    -5.898      1.221      2.444
REMARK INTER + INTRA:          -6.628
REMARK INTER:                  -6.587
REMARK INTRA:                  -0.041
REMARK UNBOUND:                -0.040
REMARK SMILES O=C([O-])c1ccc(O)c(O)c1
REMARK SMILES IDX 4 1 11 2 5 3 9 4 6 5 7 6 2 7 1 8 3 9 10 10 8 12
REMARK H PARENT 10 11 8 13
REMARK Flexibility Score: inf
ROOT
ATOM      1  C   UNL     1       9.404  69.593  -0.228  1.00  0.00     0.001 A 
ATOM      2  C   UNL     1       9.959  70.864  -0.003  1.00  0.00     0.060 A 
ATOM      3  C   UNL     1       9.085  68.780   0.875  1.00  0.00     0.014 A 
ATOM      4  C   UNL     1      10.194  71.317   1.305  1.00  0.00     0.158 A 
ATOM      5  C   UNL     1       9.318  69.233   2.176  1.00  0.00     0.051 A 
ATOM      6  C   UNL     1       9.872  70.500   2.395  1.00  0.00     0.157 A 
ENDROOT
BRANCH   1   7
ATOM      7  C   UNL     1       9.160  69.118  -1.609  1.00  0.00     0.072 C 
ATOM      8  O   UNL     1       9.990  69.360  -2.526  1.00  0.00    -0.545 OA
ATOM      9  O   UNL     1       8.011  68.397  -1.913  1.00  0.00    -0.545 OA
ENDBRANCH   1   7
BRANCH   4  10
ATOM     10  O   UNL     1      10.745  72.578   1.525  1.00  0.00    -0.504 OA
ATOM     11  H   UNL     1      11.229  73.081   0.791  1.00  0.00     0.293 HD
ENDBRANCH   4  10
BRANCH   6  12
ATOM     12  O   UNL     1      10.106  70.955   3.692  1.00  0.00    -0.504 OA
ATOM     13  H   UNL     1       9.354  71.311   4.271  1.00  0.00     0.293 HD
ENDBRANCH   6  12
TORSDOF 3
ENDMDL
MODEL 5
REMARK VINA RESULT:    -5.833      2.120      3.479
REMARK INTER + INTRA:          -6.556
REMARK INTER:                  -6.514
REMARK INTRA:                  -0.041
REMARK UNBOUND:                -0.040
REMARK SMILES O=C([O-])c1ccc(O)c(O)c1
REMARK SMILES IDX 4 1 11 2 5 3 9 4 6 5 7 6 2 7 1 8 3 9 10 10 8 12
REMARK H PARENT 10 11 8 13
REMARK Flexibility Score: inf
ROOT
ATOM      1  C   UNL     1       9.885  69.731   0.737  1.00  0.00     0.001 A 
ATOM      2  C   UNL     1       9.833  71.087   0.369  1.00  0.00     0.060 A 
ATOM      3  C   UNL     1       9.910  68.750  -0.270  1.00  0.00     0.014 A 
ATOM      4  C   UNL     1       9.808  71.457  -0.984  1.00  0.00     0.158 A 
ATOM      5  C   UNL     1       9.886  69.120  -1.617  1.00  0.00     0.051 A 
ATOM      6  C   UNL     1       9.835  70.472  -1.978  1.00  0.00     0.157 A 
ENDROOT
BRANCH   1   7
ATOM      7  C   UNL     1       9.909  69.346   2.167  1.00  0.00     0.072 C 
ATOM      8  O   UNL     1       9.260  70.007   3.020  1.00  0.00    -0.545 OA
ATOM      9  O   UNL     1      10.649  68.246   2.586  1.00  0.00    -0.545 OA
ENDBRANCH   1   7
BRANCH   4  10
ATOM     10  O   UNL     1       9.757  72.801  -1.346  1.00  0.00    -0.504 OA
ATOM     11  H   UNL     1       9.285  73.489  -0.770  1.00  0.00     0.293 HD
ENDBRANCH   4  10
BRANCH   6  12
ATOM     12  O   UNL     1       9.810  70.844  -3.321  1.00  0.00    -0.504 OA
ATOM     13  H   UNL     1       9.908  70.159  -4.062  1.00  0.00     0.293 HD
ENDBRANCH   6  12
TORSDOF 3
ENDMDL
MODEL 6
REMARK VINA RESULT:    -5.735      1.904      3.431
REMARK INTER + INTRA:          -6.446
REMARK INTER:                  -6.403
REMARK INTRA:                  -0.043
REMARK UNBOUND:                -0.040
REMARK SMILES O=C([O-])c1ccc(O)c(O)c1
REMARK SMILES IDX 4 1 11 2 5 3 9 4 6 5 7 6 2 7 1 8 3 9 10 10 8 12
REMARK H PARENT 10 11 8 13
REMARK Flexibility Score: inf
ROOT
ATOM      1  C   UNL     1       9.693  70.191  -0.121  1.00  0.00     0.001 A 
ATOM      2  C   UNL     1       9.930  70.677   1.176  1.00  0.00     0.060 A 
ATOM      3  C   UNL     1       9.435  68.820  -0.301  1.00  0.00     0.014 A 
ATOM      4  C   UNL     1       9.910  69.807   2.278  1.00  0.00     0.158 A 
ATOM      5  C   UNL     1       9.414  67.955   0.796  1.00  0.00     0.051 A 
ATOM      6  C   UNL     1       9.651  68.444   2.087  1.00  0.00     0.157 A 
ENDROOT
BRANCH   1   7
ATOM      7  C   UNL     1       9.717  71.111  -1.280  1.00  0.00     0.072 C 
ATOM      8  O   UNL     1       9.971  70.679  -2.436  1.00  0.00    -0.545 OA
ATOM      9  O   UNL     1       9.458  72.466  -1.109  1.00  0.00    -0.545 OA
ENDBRANCH   1   7
BRANCH   4  10
ATOM     10  O   UNL     1      10.145  70.291   3.562  1.00  0.00    -0.504 OA
ATOM     11  H   UNL     1      10.284  69.667   4.348  1.00  0.00     0.293 HD
ENDBRANCH   4  10
BRANCH   6  12
ATOM     12  O   UNL     1       9.632  67.585   3.184  1.00  0.00    -0.504 OA
ATOM     13  H   UNL     1       8.799  67.062   3.431  1.00  0.00     0.293 HD
ENDBRANCH   6  12
TORSDOF 3
ENDMDL
MODEL 7
REMARK VINA RESULT:    -5.705      1.652      4.546
REMARK INTER + INTRA:          -6.412
REMARK INTER:                  -6.369
REMARK INTRA:                  -0.043
REMARK UNBOUND:                -0.040
REMARK SMILES O=C([O-])c1ccc(O)c(O)c1
REMARK SMILES IDX 4 1 11 2 5 3 9 4 6 5 7 6 2 7 1 8 3 9 10 10 8 12
REMARK H PARENT 10 11 8 13
REMARK Flexibility Score: inf
ROOT
ATOM      1  C   UNL     1       9.824  70.119   0.563  1.00  0.00     0.001 A 
ATOM      2  C   UNL     1       9.850  70.617  -0.752  1.00  0.00     0.060 A 
ATOM      3  C   UNL     1       9.531  68.760   0.774  1.00  0.00     0.014 A 
ATOM      4  C   UNL     1       9.587  69.770  -1.839  1.00  0.00     0.158 A 
ATOM      5  C   UNL     1       9.271  67.917  -0.310  1.00  0.00     0.051 A 
ATOM      6  C   UNL     1       9.297  68.418  -1.617  1.00  0.00     0.157 A 
ENDROOT
BRANCH   1   7
ATOM      7  C   UNL     1      10.100  71.017   1.707  1.00  0.00     0.072 C 
ATOM      8  O   UNL     1      10.698  72.112   1.532  1.00  0.00    -0.545 OA
ATOM      9  O   UNL     1       9.702  70.664   2.991  1.00  0.00    -0.545 OA
ENDBRANCH   1   7
BRANCH   4  10
ATOM     10  O   UNL     1       9.613  70.265  -3.141  1.00  0.00    -0.504 OA
ATOM     11  H   UNL     1       8.993  71.009  -3.438  1.00  0.00     0.293 HD
ENDBRANCH   4  10
BRANCH   6  12
ATOM     12  O   UNL     1       9.038  67.580  -2.701  1.00  0.00    -0.504 OA
ATOM     13  H   UNL     1       8.652  67.939  -3.567  1.00  0.00     0.293 HD
ENDBRANCH   6  12
TORSDOF 3
ENDMDL
MODEL 8
REMARK VINA RESULT:    -5.680      1.869      2.565
REMARK INTER + INTRA:          -6.384
REMARK INTER:                  -6.340
REMARK INTRA:                  -0.044
REMARK UNBOUND:                -0.040
REMARK SMILES O=C([O-])c1ccc(O)c(O)c1
REMARK SMILES IDX 4 1 11 2 5 3 9 4 6 5 7 6 2 7 1 8 3 9 10 10 8 12
REMARK H PARENT 10 11 8 13
REMARK Flexibility Score: inf
ROOT
ATOM      1  C   UNL     1       9.878  70.080  -0.894  1.00  0.00     0.001 A 
ATOM      2  C   UNL     1       9.838  69.143   0.153  1.00  0.00     0.060 A 
ATOM      3  C   UNL     1      10.000  71.446  -0.585  1.00  0.00     0.014 A 
ATOM      4  C   UNL     1       9.919  69.564   1.489  1.00  0.00     0.158 A 
ATOM      5  C   UNL     1      10.082  71.865   0.746  1.00  0.00     0.051 A 
ATOM      6  C   UNL     1      10.041  70.927   1.785  1.00  0.00     0.157 A 
ENDROOT
BRANCH   1   7
ATOM      7  C   UNL     1       9.790  69.631  -2.302  1.00  0.00     0.072 C 
ATOM      8  O   UNL     1       9.398  68.466  -2.580  1.00  0.00    -0.545 OA
ATOM      9  O   UNL     1      10.139  70.489  -3.338  1.00  0.00    -0.545 OA
ENDBRANCH   1   7
BRANCH   4  10
ATOM     10  O   UNL     1       9.879  68.634   2.525  1.00  0.00    -0.504 OA
ATOM     11  H   UNL     1       9.760  68.919   3.490  1.00  0.00     0.293 HD
ENDBRANCH   4  10
BRANCH   6  12
ATOM     12  O   UNL     1      10.121  71.341   3.114  1.00  0.00    -0.504 OA
ATOM     13  H   UNL     1       9.666  72.189   3.433  1.00  0.00     0.293 HD
ENDBRANCH   6  12
TORSDOF 3
ENDMDL
MODEL 9
REMARK VINA RESULT:    -5.617      1.836      3.666
REMARK INTER + INTRA:          -6.314
REMARK INTER:                  -6.269
REMARK INTRA:                  -0.044
REMARK UNBOUND:                -0.040
REMARK SMILES O=C([O-])c1ccc(O)c(O)c1
REMARK SMILES IDX 4 1 11 2 5 3 9 4 6 5 7 6 2 7 1 8 3 9 10 10 8 12
REMARK H PARENT 10 11 8 13
REMARK Flexibility Score: inf
ROOT
ATOM      1  C   UNL     1       9.730  69.927   1.063  1.00  0.00     0.001 A 
ATOM      2  C   UNL     1       9.566  68.919   0.098  1.00  0.00     0.060 A 
ATOM      3  C   UNL     1       9.898  71.258   0.640  1.00  0.00     0.014 A 
ATOM      4  C   UNL     1       9.572  69.234  -1.270  1.00  0.00     0.158 A 
ATOM      5  C   UNL     1       9.902  71.571  -0.722  1.00  0.00     0.051 A 
ATOM      6  C   UNL     1       9.739  70.562  -1.680  1.00  0.00     0.157 A 
ENDROOT
BRANCH   1   7
ATOM      7  C   UNL     1       9.726  69.590   2.505  1.00  0.00     0.072 C 
ATOM      8  O   UNL     1       9.741  70.500   3.376  1.00  0.00    -0.545 OA
ATOM      9  O   UNL     1       9.703  68.263   2.917  1.00  0.00    -0.545 OA
ENDBRANCH   1   7
BRANCH   4  10
ATOM     10  O   UNL     1       9.410  68.232  -2.224  1.00  0.00    -0.504 OA
ATOM     11  H   UNL     1      10.083  67.482  -2.326  1.00  0.00     0.293 HD
ENDBRANCH   4  10
BRANCH   6  12
ATOM     12  O   UNL     1       9.743  70.871  -3.039  1.00  0.00    -0.504 OA
ATOM     13  H   UNL     1      10.524  70.621  -3.636  1.00  0.00     0.293 HD
ENDBRANCH   6  12
TORSDOF 3
ENDMDL
