MODEL 1
REMARK VINA RESULT:    -4.361      0.000      0.000
REMARK INTER + INTRA:          -5.322
REMARK INTER:                  -5.254
REMARK INTRA:                  -0.068
REMARK UNBOUND:                -0.068
REMARK SMILES OCCc1ccc(O)c(O)c1
REMARK SMILES IDX 3 1 4 2 5 3 6 4 7 5 11 6 9 7 8 8 10 10 2 12 1 13
REMARK H PARENT 8 9 10 11 1 14
REMARK Flexibility Score: inf
ROOT
ATOM      1  C   UNL     1     182.925 179.156 175.656  1.00  0.00     0.064 C 
ENDROOT
BRANCH   1   2
ATOM      2  C   UNL     1     181.926 179.758 176.608  1.00  0.00    -0.042 A 
ATOM      3  C   UNL     1     181.291 180.970 176.294  1.00  0.00     0.008 A 
ATOM      4  C   UNL     1     180.387 181.544 177.192  1.00  0.00     0.050 A 
ATOM      5  C   UNL     1     180.115 180.921 178.417  1.00  0.00     0.157 A 
ATOM      6  C   UNL     1     181.662 179.141 177.841  1.00  0.00     0.054 A 
ATOM      7  C   UNL     1     180.758 179.714 178.743  1.00  0.00     0.157 A 
BRANCH   5   8
ATOM      8  O   UNL     1     179.212 181.495 179.310  1.00  0.00    -0.504 OA
ATOM      9  H   UNL     1     179.521 182.106 180.058  1.00  0.00     0.293 HD
ENDBRANCH   5   8
BRANCH   7  10
ATOM     10  O   UNL     1     180.513 179.072 179.957  1.00  0.00    -0.504 OA
ATOM     11  H   UNL     1     180.163 178.122 180.002  1.00  0.00     0.293 HD
ENDBRANCH   7  10
ENDBRANCH   1   2
BRANCH   1  12
ATOM     12  C   UNL     1     183.739 180.251 174.962  1.00  0.00     0.161 C 
BRANCH  12  13
ATOM     13  O   UNL     1     185.102 179.928 174.982  1.00  0.00    -0.396 OA
ATOM     14  H   UNL     1     185.473 180.207 174.104  1.00  0.00     0.210 HD
ENDBRANCH  12  13
ENDBRANCH   1  12
TORSDOF 5
ENDMDL
MODEL 2
REMARK VINA RESULT:    -4.347      2.596      4.527
REMARK INTER + INTRA:          -5.304
REMARK INTER:                  -5.237
REMARK INTRA:                  -0.067
REMARK UNBOUND:                -0.068
REMARK SMILES OCCc1ccc(O)c(O)c1
REMARK SMILES IDX 3 1 4 2 5 3 6 4 7 5 11 6 9 7 8 8 10 10 2 12 1 13
REMARK H PARENT 8 9 10 11 1 14
REMARK Flexibility Score: inf
ROOT
ATOM      1  C   UNL     1     177.802 181.516 175.606  1.00  0.00     0.064 C 
ENDROOT
BRANCH   1   2
ATOM      2  C   UNL     1     178.789 180.907 176.565  1.00  0.00    -0.042 A 
ATOM      3  C   UNL     1     179.450 179.713 176.238  1.00  0.00     0.008 A 
ATOM      4  C   UNL     1     180.344 179.132 177.141  1.00  0.00     0.050 A 
ATOM      5  C   UNL     1     180.580 179.730 178.386  1.00  0.00     0.157 A 
ATOM      6  C   UNL     1     179.016 181.499 177.818  1.00  0.00     0.054 A 
ATOM      7  C   UNL     1     179.910 180.919 178.726  1.00  0.00     0.157 A 
BRANCH   5   8
ATOM      8  O   UNL     1     181.472 179.149 179.285  1.00  0.00    -0.504 OA
ATOM      9  H   UNL     1     181.581 179.503 180.229  1.00  0.00     0.293 HD
ENDBRANCH   5   8
BRANCH   7  10
ATOM     10  O   UNL     1     180.118 181.536 179.960  1.00  0.00    -0.504 OA
ATOM     11  H   UNL     1     180.414 181.016 180.777  1.00  0.00     0.293 HD
ENDBRANCH   7  10
ENDBRANCH   1   2
BRANCH   1  12
ATOM     12  C   UNL     1     176.911 180.436 174.988  1.00  0.00     0.161 C 
BRANCH  12  13
ATOM     13  O   UNL     1     175.561 180.785 175.123  1.00  0.00    -0.396 OA
ATOM     14  H   UNL     1     175.137 180.076 175.674  1.00  0.00     0.210 HD
ENDBRANCH  12  13
ENDBRANCH   1  12
TORSDOF 5
ENDMDL
MODEL 3
REMARK VINA RESULT:    -4.293      2.235      4.157
REMARK INTER + INTRA:          -5.240
REMARK INTER:                  -5.163
REMARK INTRA:                  -0.076
REMARK UNBOUND:                -0.068
REMARK SMILES OCCc1ccc(O)c(O)c1
REMARK SMILES IDX 3 1 4 2 5 3 6 4 7 5 11 6 9 7 8 8 10 10 2 12 1 13
REMARK H PARENT 8 9 10 11 1 14
REMARK Flexibility Score: inf
ROOT
ATOM      1  C   UNL     1     178.710 181.690 175.573  1.00  0.00     0.064 C 
ENDROOT
BRANCH   1   2
ATOM      2  C   UNL     1     179.426 181.158 176.785  1.00  0.00    -0.042 A 
ATOM      3  C   UNL     1     179.036 181.562 178.071  1.00  0.00     0.008 A 
ATOM      4  C   UNL     1     179.721 181.092 179.195  1.00  0.00     0.050 A 
ATOM      5  C   UNL     1     180.809 180.221 179.047  1.00  0.00     0.157 A 
ATOM      6  C   UNL     1     180.524 180.296 176.637  1.00  0.00     0.054 A 
ATOM      7  C   UNL     1     181.213 179.823 177.761  1.00  0.00     0.157 A 
BRANCH   5   8
ATOM      8  O   UNL     1     181.490 179.754 180.170  1.00  0.00    -0.504 OA
ATOM      9  H   UNL     1     182.498 179.645 180.172  1.00  0.00     0.293 HD
ENDBRANCH   5   8
BRANCH   7  10
ATOM     10  O   UNL     1     182.296 178.963 177.579  1.00  0.00    -0.504 OA
ATOM     11  H   UNL     1     182.181 177.959 177.520  1.00  0.00     0.293 HD
ENDBRANCH   7  10
ENDBRANCH   1   2
BRANCH   1  12
ATOM     12  C   UNL     1     177.460 180.858 175.273  1.00  0.00     0.161 C 
BRANCH  12  13
ATOM     13  O   UNL     1     176.326 181.477 175.814  1.00  0.00    -0.396 OA
ATOM     14  H   UNL     1     176.363 181.332 176.795  1.00  0.00     0.210 HD
ENDBRANCH  12  13
ENDBRANCH   1  12
TORSDOF 5
ENDMDL
MODEL 4
REMARK VINA RESULT:    -4.292      1.135      2.050
REMARK INTER + INTRA:          -5.238
REMARK INTER:                  -5.158
REMARK INTRA:                  -0.080
REMARK UNBOUND:                -0.068
REMARK SMILES OCCc1ccc(O)c(O)c1
REMARK SMILES IDX 3 1 4 2 5 3 6 4 7 5 11 6 9 7 8 8 10 10 2 12 1 13
REMARK H PARENT 8 9 10 11 1 14
REMARK Flexibility Score: inf
ROOT
ATOM      1  C   UNL     1     182.096 178.929 175.771  1.00  0.00     0.064 C 
ENDROOT
BRANCH   1   2
ATOM      2  C   UNL     1     181.355 179.526 176.937  1.00  0.00    -0.042 A 
ATOM      3  C   UNL     1     181.701 179.174 178.251  1.00  0.00     0.008 A 
ATOM      4  C   UNL     1     180.993 179.704 179.332  1.00  0.00     0.050 A 
ATOM      5  C   UNL     1     179.923 180.583 179.114  1.00  0.00     0.157 A 
ATOM      6  C   UNL     1     180.275 180.396 176.719  1.00  0.00     0.054 A 
ATOM      7  C   UNL     1     179.563 180.929 177.800  1.00  0.00     0.157 A 
BRANCH   5   8
ATOM      8  O   UNL     1     179.219 181.111 180.195  1.00  0.00    -0.504 OA
ATOM      9  H   UNL     1     179.289 182.091 180.446  1.00  0.00     0.293 HD
ENDBRANCH   5   8
BRANCH   7  10
ATOM     10  O   UNL     1     178.499 181.796 177.549  1.00  0.00    -0.504 OA
ATOM     11  H   UNL     1     178.000 182.265 178.295  1.00  0.00     0.293 HD
ENDBRANCH   7  10
ENDBRANCH   1   2
BRANCH   1  12
ATOM     12  C   UNL     1     183.260 179.829 175.352  1.00  0.00     0.161 C 
BRANCH  12  13
ATOM     13  O   UNL     1     184.474 179.290 175.797  1.00  0.00    -0.396 OA
ATOM     14  H   UNL     1     185.168 179.982 175.637  1.00  0.00     0.210 HD
ENDBRANCH  12  13
ENDBRANCH   1  12
TORSDOF 5
ENDMDL
MODEL 5
REMARK VINA RESULT:    -4.178      2.959      4.216
REMARK INTER + INTRA:          -5.101
REMARK INTER:                  -5.024
REMARK INTRA:                  -0.077
REMARK UNBOUND:                -0.068
REMARK SMILES OCCc1ccc(O)c(O)c1
REMARK SMILES IDX 3 1 4 2 5 3 6 4 7 5 11 6 9 7 8 8 10 10 2 12 1 13
REMARK H PARENT 8 9 10 11 1 14
REMARK Flexibility Score: inf
ROOT
ATOM      1  C   UNL     1     178.136 179.904 174.828  1.00  0.00     0.064 C 
ENDROOT
BRANCH   1   2
ATOM      2  C   UNL     1     178.876 180.238 176.095  1.00  0.00    -0.042 A 
ATOM      3  C   UNL     1     178.496 181.348 176.866  1.00  0.00     0.008 A 
ATOM      4  C   UNL     1     179.203 181.675 178.026  1.00  0.00     0.050 A 
ATOM      5  C   UNL     1     180.304 180.906 178.424  1.00  0.00     0.157 A 
ATOM      6  C   UNL     1     179.988 179.475 176.488  1.00  0.00     0.054 A 
ATOM      7  C   UNL     1     180.699 179.801 177.649  1.00  0.00     0.157 A 
BRANCH   5   8
ATOM      8  O   UNL     1     181.007 181.234 179.582  1.00  0.00    -0.504 OA
ATOM      9  H   UNL     1     181.648 182.019 179.609  1.00  0.00     0.293 HD
ENDBRANCH   5   8
BRANCH   7  10
ATOM     10  O   UNL     1     181.794 179.018 178.014  1.00  0.00    -0.504 OA
ATOM     11  H   UNL     1     181.934 178.085 177.647  1.00  0.00     0.293 HD
ENDBRANCH   7  10
ENDBRANCH   1   2
BRANCH   1  12
ATOM     12  C   UNL     1     176.737 180.524 174.840  1.00  0.00     0.161 C 
BRANCH  12  13
ATOM     13  O   UNL     1     175.779 179.566 174.483  1.00  0.00    -0.396 OA
ATOM     14  H   UNL     1     175.152 179.491 175.249  1.00  0.00     0.210 HD
ENDBRANCH  12  13
ENDBRANCH   1  12
TORSDOF 5
ENDMDL
MODEL 6
REMARK VINA RESULT:    -4.172      2.754      4.441
REMARK INTER + INTRA:          -5.094
REMARK INTER:                  -4.987
REMARK INTRA:                  -0.107
REMARK UNBOUND:                -0.068
REMARK SMILES OCCc1ccc(O)c(O)c1
REMARK SMILES IDX 3 1 4 2 5 3 6 4 7 5 11 6 9 7 8 8 10 10 2 12 1 13
REMARK H PARENT 8 9 10 11 1 14
REMARK Flexibility Score: inf
ROOT
ATOM      1  C   UNL     1     180.590 181.176 179.426  1.00  0.00     0.064 C 
ENDROOT
BRANCH   1   2
ATOM      2  C   UNL     1     180.065 181.195 178.016  1.00  0.00    -0.042 A 
ATOM      3  C   UNL     1     180.925 180.940 176.937  1.00  0.00     0.008 A 
ATOM      4  C   UNL     1     180.444 180.989 175.626  1.00  0.00     0.050 A 
ATOM      5  C   UNL     1     179.102 181.303 175.376  1.00  0.00     0.157 A 
ATOM      6  C   UNL     1     178.723 181.523 177.764  1.00  0.00     0.054 A 
ATOM      7  C   UNL     1     178.238 181.572 176.452  1.00  0.00     0.157 A 
BRANCH   5   8
ATOM      8  O   UNL     1     178.624 181.350 174.068  1.00  0.00    -0.504 OA
ATOM      9  H   UNL     1     178.365 180.507 173.567  1.00  0.00     0.293 HD
ENDBRANCH   5   8
BRANCH   7  10
ATOM     10  O   UNL     1     176.898 181.895 176.237  1.00  0.00    -0.504 OA
ATOM     11  H   UNL     1     176.453 182.678 176.699  1.00  0.00     0.293 HD
ENDBRANCH   7  10
ENDBRANCH   1   2
BRANCH   1  12
ATOM     12  C   UNL     1     181.062 179.772 179.809  1.00  0.00     0.161 C 
BRANCH  12  13
ATOM     13  O   UNL     1     180.015 178.852 179.665  1.00  0.00    -0.396 OA
ATOM     14  H   UNL     1     179.722 178.610 180.582  1.00  0.00     0.210 HD
ENDBRANCH  12  13
ENDBRANCH   1  12
TORSDOF 5
ENDMDL
MODEL 7
REMARK VINA RESULT:    -4.152      1.672      4.345
REMARK INTER + INTRA:          -5.070
REMARK INTER:                  -4.969
REMARK INTRA:                  -0.100
REMARK UNBOUND:                -0.068
REMARK SMILES OCCc1ccc(O)c(O)c1
REMARK SMILES IDX 3 1 4 2 5 3 6 4 7 5 11 6 9 7 8 8 10 10 2 12 1 13
REMARK H PARENT 8 9 10 11 1 14
REMARK Flexibility Score: inf
ROOT
ATOM      1  C   UNL     1     180.110 179.583 179.397  1.00  0.00     0.064 C 
ENDROOT
BRANCH   1   2
ATOM      2  C   UNL     1     180.658 179.558 177.995  1.00  0.00    -0.042 A 
ATOM      3  C   UNL     1     179.826 179.853 176.904  1.00  0.00     0.008 A 
ATOM      4  C   UNL     1     180.327 179.800 175.601  1.00  0.00     0.050 A 
ATOM      5  C   UNL     1     181.662 179.441 175.371  1.00  0.00     0.157 A 
ATOM      6  C   UNL     1     181.991 179.185 177.763  1.00  0.00     0.054 A 
ATOM      7  C   UNL     1     182.497 179.130 176.458  1.00  0.00     0.157 A 
BRANCH   5   8
ATOM      8  O   UNL     1     182.160 179.389 174.070  1.00  0.00    -0.504 OA
ATOM      9  H   UNL     1     182.459 178.515 173.651  1.00  0.00     0.293 HD
ENDBRANCH   5   8
BRANCH   7  10
ATOM     10  O   UNL     1     183.828 178.763 176.263  1.00  0.00    -0.504 OA
ATOM     11  H   UNL     1     184.521 179.415 175.917  1.00  0.00     0.293 HD
ENDBRANCH   7  10
ENDBRANCH   1   2
BRANCH   1  12
ATOM     12  C   UNL     1     179.673 180.998 179.782  1.00  0.00     0.161 C 
BRANCH  12  13
ATOM     13  O   UNL     1     180.737 181.895 179.619  1.00  0.00    -0.396 OA
ATOM     14  H   UNL     1     180.450 182.555 178.934  1.00  0.00     0.210 HD
ENDBRANCH  12  13
ENDBRANCH   1  12
TORSDOF 5
ENDMDL
MODEL 8
REMARK VINA RESULT:    -4.138      1.398      4.775
REMARK INTER + INTRA:          -5.054
REMARK INTER:                  -4.973
REMARK INTRA:                  -0.081
REMARK UNBOUND:                -0.068
REMARK SMILES OCCc1ccc(O)c(O)c1
REMARK SMILES IDX 3 1 4 2 5 3 6 4 7 5 11 6 9 7 8 8 10 10 2 12 1 13
REMARK H PARENT 8 9 10 11 1 14
REMARK Flexibility Score: inf
ROOT
ATOM      1  C   UNL     1     179.421 181.307 178.060  1.00  0.00     0.064 C 
ENDROOT
BRANCH   1   2
ATOM      2  C   UNL     1     180.568 180.739 177.268  1.00  0.00    -0.042 A 
ATOM      3  C   UNL     1     181.213 179.568 177.695  1.00  0.00     0.008 A 
ATOM      4  C   UNL     1     182.298 179.059 176.977  1.00  0.00     0.050 A 
ATOM      5  C   UNL     1     182.758 179.718 175.829  1.00  0.00     0.157 A 
ATOM      6  C   UNL     1     181.038 181.406 176.125  1.00  0.00     0.054 A 
ATOM      7  C   UNL     1     182.125 180.899 175.403  1.00  0.00     0.157 A 
BRANCH   5   8
ATOM      8  O   UNL     1     183.839 179.208 175.113  1.00  0.00    -0.504 OA
ATOM      9  H   UNL     1     183.886 178.230 174.847  1.00  0.00     0.293 HD
ENDBRANCH   5   8
BRANCH   7  10
ATOM     10  O   UNL     1     182.562 181.583 174.268  1.00  0.00    -0.504 OA
ATOM     11  H   UNL     1     182.389 182.572 174.137  1.00  0.00     0.293 HD
ENDBRANCH   7  10
ENDBRANCH   1   2
BRANCH   1  12
ATOM     12  C   UNL     1     179.728 181.270 179.559  1.00  0.00     0.161 C 
BRANCH  12  13
ATOM     13  O   UNL     1     180.762 182.164 179.864  1.00  0.00    -0.396 OA
ATOM     14  H   UNL     1     180.653 182.943 179.259  1.00  0.00     0.210 HD
ENDBRANCH  12  13
ENDBRANCH   1  12
TORSDOF 5
ENDMDL
MODEL 9
REMARK VINA RESULT:    -4.107      2.931      4.332
REMARK INTER + INTRA:          -5.016
REMARK INTER:                  -4.909
REMARK INTRA:                  -0.107
REMARK UNBOUND:                -0.068
REMARK SMILES OCCc1ccc(O)c(O)c1
REMARK SMILES IDX 3 1 4 2 5 3 6 4 7 5 11 6 9 7 8 8 10 10 2 12 1 13
REMARK H PARENT 8 9 10 11 1 14
REMARK Flexibility Score: inf
ROOT
ATOM      1  C   UNL     1     181.187 179.573 178.032  1.00  0.00     0.064 C 
ENDROOT
BRANCH   1   2
ATOM      2  C   UNL     1     180.033 180.047 177.190  1.00  0.00    -0.042 A 
ATOM      3  C   UNL     1     179.303 181.186 177.566  1.00  0.00     0.008 A 
ATOM      4  C   UNL     1     178.212 181.608 176.801  1.00  0.00     0.050 A 
ATOM      5  C   UNL     1     177.830 180.891 175.658  1.00  0.00     0.157 A 
ATOM      6  C   UNL     1     179.641 179.323 176.053  1.00  0.00     0.054 A 
ATOM      7  C   UNL     1     178.549 179.742 175.284  1.00  0.00     0.157 A 
BRANCH   5   8
ATOM      8  O   UNL     1     176.743 181.314 174.897  1.00  0.00    -0.504 OA
ATOM      9  H   UNL     1     176.425 182.277 174.914  1.00  0.00     0.293 HD
ENDBRANCH   5   8
BRANCH   7  10
ATOM     10  O   UNL     1     178.191 179.004 174.156  1.00  0.00    -0.504 OA
ATOM     11  H   UNL     1     177.235 178.715 173.984  1.00  0.00     0.293 HD
ENDBRANCH   7  10
ENDBRANCH   1   2
BRANCH   1  12
ATOM     12  C   UNL     1     180.837 179.645 179.520  1.00  0.00     0.161 C 
BRANCH  12  13
ATOM     13  O   UNL     1     179.979 178.593 179.867  1.00  0.00    -0.396 OA
ATOM     14  H   UNL     1     179.614 178.808 180.765  1.00  0.00     0.210 HD
ENDBRANCH  12  13
ENDBRANCH   1  12
TORSDOF 5
ENDMDL
