MODEL 1
REMARK VINA RESULT:    13.430      0.000      0.000
REMARK INTER + INTRA:          19.948
REMARK INTER:                  19.711
REMARK INTRA:                   0.238
REMARK UNBOUND:                 0.238
REMARK SMILES O=c1c(O[C@@H]2O[C@H](CO)[C@@H](O)[C@H](O)[C@@H]2O)c(-c2ccc(O)c(O)c2)oc2cc(O)cc(O)c12
REMARK SMILES IDX 4 1 3 2 16 3 25 4 2 5 26 6 1 7 33 8 27 9 31 10 28 11 30 12
REMARK SMILES IDX 17 13 18 14 19 15 20 16 24 17 22 18 21 19 23 21 32 23 29 25
REMARK SMILES IDX 5 27 14 28 6 29 12 30 7 31 10 32 15 33 13 35 8 37 9 38 11 40
REMARK H PARENT 21 20 23 22 32 24 29 26 15 34 13 36 9 39 11 41
REMARK Flexibility Score: inf
ROOT
ATOM      1  O   UNL     1     111.218 109.438 110.882  1.00  0.00    -0.454 OA
ENDROOT
BRANCH   1   2
ATOM      2  C   UNL     1     111.601 109.801 109.581  1.00  0.00     0.214 A 
ATOM      3  C   UNL     1     112.192 111.056 109.367  1.00  0.00     0.180 A 
ATOM      4  O   UNL     1     112.578 111.406 108.146  1.00  0.00    -0.452 OA
ATOM      5  C   UNL     1     111.421 108.938 108.485  1.00  0.00     0.239 A 
ATOM      6  C   UNL     1     112.440 110.623 107.082  1.00  0.00     0.146 A 
ATOM      7  O   UNL     1     110.816 107.850 108.663  1.00  0.00    -0.285 OA
ATOM      8  C   UNL     1     111.881 109.323 107.202  1.00  0.00     0.111 A 
ATOM      9  C   UNL     1     112.853 111.112 105.840  1.00  0.00     0.094 A 
ATOM     10  C   UNL     1     111.799 108.513 106.029  1.00  0.00     0.134 A 
ATOM     11  C   UNL     1     112.720 110.330 104.694  1.00  0.00     0.123 A 
ATOM     12  C   UNL     1     112.199 109.041 104.794  1.00  0.00     0.093 A 
BRANCH   3  13
ATOM     13  C   UNL     1     112.451 111.997 110.480  1.00  0.00     0.025 A 
ATOM     14  C   UNL     1     112.503 113.384 110.273  1.00  0.00     0.016 A 
ATOM     15  C   UNL     1     112.725 114.249 111.349  1.00  0.00     0.051 A 
ATOM     16  C   UNL     1     112.907 113.739 112.642  1.00  0.00     0.157 A 
ATOM     17  C   UNL     1     112.655 111.489 111.774  1.00  0.00     0.062 A 
ATOM     18  C   UNL     1     112.876 112.350 112.853  1.00  0.00     0.158 A 
BRANCH  16  19
ATOM     19  O   UNL     1     113.119 114.605 113.712  1.00  0.00    -0.504 OA
ATOM     20  H   UNL     1     112.929 114.325 114.668  1.00  0.00     0.293 HD
ENDBRANCH  16  19
BRANCH  18  21
ATOM     21  O   UNL     1     113.066 111.808 114.125  1.00  0.00    -0.504 OA
ATOM     22  H   UNL     1     113.336 112.376 114.922  1.00  0.00     0.293 HD
ENDBRANCH  18  21
ENDBRANCH   3  13
BRANCH  10  23
ATOM     23  O   UNL     1     111.363 107.184 106.024  1.00  0.00    -0.507 OA
ATOM     24  H   UNL     1     111.904 106.395 106.344  1.00  0.00     0.293 HD
ENDBRANCH  10  23
BRANCH  11  25
ATOM     25  O   UNL     1     113.111 110.820 103.451  1.00  0.00    -0.508 OA
ATOM     26  H   UNL     1     114.088 110.890 103.187  1.00  0.00     0.293 HD
ENDBRANCH  11  25
ENDBRANCH   1   2
BRANCH   1  27
ATOM     27  C   UNL     1     110.126 110.023 111.591  1.00  0.00     0.339 C 
ATOM     28  C   UNL     1     108.820 109.259 111.287  1.00  0.00     0.214 C 
ATOM     29  O   UNL     1     110.391 110.128 112.983  1.00  0.00    -0.332 OA
ATOM     30  C   UNL     1     108.817 107.878 111.959  1.00  0.00     0.180 C 
ATOM     31  C   UNL     1     110.438 108.881 113.669  1.00  0.00     0.179 C 
ATOM     32  C   UNL     1     109.178 108.007 113.445  1.00  0.00     0.177 C 
BRANCH  28  33
ATOM     33  O   UNL     1     108.634 109.102 109.900  1.00  0.00    -0.384 OA
ATOM     34  H   UNL     1     109.346 109.630 109.445  1.00  0.00     0.211 HD
ENDBRANCH  28  33
BRANCH  30  35
ATOM     35  O   UNL     1     109.724 107.014 111.320  1.00  0.00    -0.387 OA
ATOM     36  H   UNL     1     109.575 106.106 111.688  1.00  0.00     0.211 HD
ENDBRANCH  30  35
BRANCH  31  37
ATOM     37  C   UNL     1     111.773 108.136 113.462  1.00  0.00     0.191 C 
BRANCH  37  38
ATOM     38  O   UNL     1     112.842 109.018 113.672  1.00  0.00    -0.394 OA
ATOM     39  H   UNL     1     112.439 109.881 113.947  1.00  0.00     0.210 HD
ENDBRANCH  37  38
ENDBRANCH  31  37
BRANCH  32  40
ATOM     40  O   UNL     1     108.092 108.594 114.120  1.00  0.00    -0.387 OA
ATOM     41  H   UNL     1     108.245 109.574 114.136  1.00  0.00     0.211 HD
ENDBRANCH  32  40
ENDBRANCH   1  27
TORSDOF 12
ENDMDL
