MODEL 1
REMARK VINA RESULT:    -5.601      0.000      0.000
REMARK INTER + INTRA:          -6.201
REMARK INTER:                  -5.929
REMARK INTRA:                  -0.272
REMARK UNBOUND:                -0.272
REMARK SMILES CC1=CC[C@H]2[C@H]3[C@@H]1[C@]2(C)CC[C@H]3C(C)C
REMARK SMILES IDX 1 1 2 2 3 3 4 4 5 5 6 6 7 7 8 8 10 9 11 10 12 11 9 12 13 13
REMARK SMILES IDX 14 14 15 15
REMARK H PARENT
REMARK Flexibility Score: inf
ROOT
ATOM      1  C   UNL     1      -1.124  12.977  18.189  1.00  0.00     0.039 C 
ATOM      2  C   UNL     1      -0.023  13.562  17.354  1.00  0.00    -0.073 C 
ATOM      3  C   UNL     1       0.794  12.771  16.613  1.00  0.00    -0.027 C 
ATOM      4  C   UNL     1       1.917  13.423  15.800  1.00  0.00     0.031 C 
ATOM      5  C   UNL     1       1.879  14.976  15.966  1.00  0.00     0.003 C 
ATOM      6  C   UNL     1       0.405  15.428  15.794  1.00  0.00     0.004 C 
ATOM      7  C   UNL     1       0.221  15.072  17.287  1.00  0.00     0.024 C 
ATOM      8  C   UNL     1       1.726  15.386  17.454  1.00  0.00    -0.022 C 
ATOM      9  C   UNL     1       1.911  16.925  17.619  1.00  0.00     0.008 C 
ATOM     10  C   UNL     1       1.402  17.723  16.387  1.00  0.00     0.005 C 
ATOM     11  C   UNL     1       0.278  16.970  15.610  1.00  0.00    -0.005 C 
ATOM     12  C   UNL     1       2.524  14.615  18.532  1.00  0.00     0.012 C 
ENDROOT
BRANCH  11  13
ATOM     13  C   UNL     1       0.150  17.378  14.111  1.00  0.00    -0.014 C 
ATOM     14  C   UNL     1      -0.872  18.508  13.918  1.00  0.00     0.007 C 
ATOM     15  C   UNL     1       1.485  17.745  13.441  1.00  0.00     0.007 C 
ENDBRANCH  11  13
TORSDOF 1
ENDMDL
MODEL 2
REMARK VINA RESULT:    -5.360      1.499      4.128
REMARK INTER + INTRA:          -5.945
REMARK INTER:                  -5.536
REMARK INTRA:                  -0.409
REMARK UNBOUND:                -0.272
REMARK SMILES CC1=CC[C@H]2[C@H]3[C@@H]1[C@]2(C)CC[C@H]3C(C)C
REMARK SMILES IDX 1 1 2 2 3 3 4 4 5 5 6 6 7 7 8 8 10 9 11 10 12 11 9 12 13 13
REMARK SMILES IDX 14 14 15 15
REMARK H PARENT
REMARK Flexibility Score: inf
ROOT
ATOM      1  C   UNL     1       2.244  18.380  17.500  1.00  0.00     0.039 C 
ATOM      2  C   UNL     1       1.501  17.425  16.613  1.00  0.00    -0.073 C 
ATOM      3  C   UNL     1       0.617  17.870  15.684  1.00  0.00    -0.027 C 
ATOM      4  C   UNL     1      -0.132  16.846  14.824  1.00  0.00     0.031 C 
ATOM      5  C   UNL     1       0.325  15.395  15.183  1.00  0.00     0.003 C 
ATOM      6  C   UNL     1       1.875  15.398  15.252  1.00  0.00     0.004 C 
ATOM      7  C   UNL     1       1.716  15.911  16.701  1.00  0.00     0.024 C 
ATOM      8  C   UNL     1       0.357  15.172  16.717  1.00  0.00    -0.022 C 
ATOM      9  C   UNL     1       0.599  13.667  17.046  1.00  0.00     0.008 C 
ATOM     10  C   UNL     1       1.500  12.964  15.994  1.00  0.00     0.005 C 
ATOM     11  C   UNL     1       2.467  13.957  15.275  1.00  0.00    -0.005 C 
ATOM     12  C   UNL     1      -0.786  15.750  17.585  1.00  0.00     0.012 C 
ENDROOT
BRANCH  11  13
ATOM     13  C   UNL     1       2.937  13.487  13.866  1.00  0.00    -0.014 C 
ATOM     14  C   UNL     1       1.858  12.655  13.156  1.00  0.00     0.007 C 
ATOM     15  C   UNL     1       3.423  14.625  12.951  1.00  0.00     0.007 C 
ENDBRANCH  11  13
TORSDOF 1
ENDMDL
MODEL 3
REMARK VINA RESULT:    -5.050      1.050      4.504
REMARK INTER + INTRA:          -5.618
REMARK INTER:                  -5.215
REMARK INTRA:                  -0.403
REMARK UNBOUND:                -0.272
REMARK SMILES CC1=CC[C@H]2[C@H]3[C@@H]1[C@]2(C)CC[C@H]3C(C)C
REMARK SMILES IDX 1 1 2 2 3 3 4 4 5 5 6 6 7 7 8 8 10 9 11 10 12 11 9 12 13 13
REMARK SMILES IDX 14 14 15 15
REMARK H PARENT
REMARK Flexibility Score: inf
ROOT
ATOM      1  C   UNL     1       1.797  17.251  12.892  1.00  0.00     0.039 C 
ATOM      2  C   UNL     1       1.019  16.964  14.143  1.00  0.00    -0.073 C 
ATOM      3  C   UNL     1      -0.248  17.424  14.304  1.00  0.00    -0.027 C 
ATOM      4  C   UNL     1      -0.984  17.122  15.613  1.00  0.00     0.031 C 
ATOM      5  C   UNL     1      -0.087  16.256  16.556  1.00  0.00     0.003 C 
ATOM      6  C   UNL     1       0.521  15.113  15.700  1.00  0.00     0.004 C 
ATOM      7  C   UNL     1       1.608  16.130  15.284  1.00  0.00     0.024 C 
ATOM      8  C   UNL     1       1.355  16.820  16.645  1.00  0.00    -0.022 C 
ATOM      9  C   UNL     1       2.165  16.077  17.751  1.00  0.00     0.008 C 
ATOM     10  C   UNL     1       1.747  14.588  17.898  1.00  0.00     0.005 C 
ATOM     11  C   UNL     1       1.164  13.997  16.577  1.00  0.00    -0.005 C 
ATOM     12  C   UNL     1       1.559  18.350  16.745  1.00  0.00     0.012 C 
ENDROOT
BRANCH  11  13
ATOM     13  C   UNL     1       0.210  12.783  16.784  1.00  0.00    -0.014 C 
ATOM     14  C   UNL     1      -0.218  12.642  18.252  1.00  0.00     0.007 C 
ATOM     15  C   UNL     1      -1.025  12.786  15.865  1.00  0.00     0.007 C 
ENDBRANCH  11  13
TORSDOF 1
ENDMDL
MODEL 4
REMARK VINA RESULT:    -4.790      1.766      4.377
REMARK INTER + INTRA:          -5.342
REMARK INTER:                  -5.048
REMARK INTRA:                  -0.294
REMARK UNBOUND:                -0.272
REMARK SMILES CC1=CC[C@H]2[C@H]3[C@@H]1[C@]2(C)CC[C@H]3C(C)C
REMARK SMILES IDX 1 1 2 2 3 3 4 4 5 5 6 6 7 7 8 8 10 9 11 10 12 11 9 12 13 13
REMARK SMILES IDX 14 14 15 15
REMARK H PARENT
REMARK Flexibility Score: inf
ROOT
ATOM      1  C   UNL     1       1.512  18.236  13.754  1.00  0.00     0.039 C 
ATOM      2  C   UNL     1       0.802  17.249  14.633  1.00  0.00    -0.073 C 
ATOM      3  C   UNL     1      -0.417  17.527  15.162  1.00  0.00    -0.027 C 
ATOM      4  C   UNL     1      -1.082  16.491  16.073  1.00  0.00     0.031 C 
ATOM      5  C   UNL     1      -0.185  15.218  16.197  1.00  0.00     0.003 C 
ATOM      6  C   UNL     1       0.285  14.838  14.768  1.00  0.00     0.004 C 
ATOM      7  C   UNL     1       1.408  15.881  14.962  1.00  0.00     0.024 C 
ATOM      8  C   UNL     1       1.295  15.589  16.476  1.00  0.00    -0.022 C 
ATOM      9  C   UNL     1       2.125  14.312  16.812  1.00  0.00     0.008 C 
ATOM     10  C   UNL     1       1.618  13.055  16.055  1.00  0.00     0.005 C 
ATOM     11  C   UNL     1       0.908  13.411  14.712  1.00  0.00    -0.005 C 
ATOM     12  C   UNL     1       1.609  16.730  17.473  1.00  0.00     0.012 C 
ENDROOT
BRANCH  11  13
ATOM     13  C   UNL     1      -0.110  12.339  14.220  1.00  0.00    -0.014 C 
ATOM     14  C   UNL     1      -1.125  12.932  13.231  1.00  0.00     0.007 C 
ATOM     15  C   UNL     1       0.539  11.076  13.627  1.00  0.00     0.007 C 
ENDBRANCH  11  13
TORSDOF 1
ENDMDL
MODEL 5
REMARK VINA RESULT:    -4.775      1.958      3.947
REMARK INTER + INTRA:          -5.327
REMARK INTER:                  -5.137
REMARK INTRA:                  -0.189
REMARK UNBOUND:                -0.272
REMARK SMILES CC1=CC[C@H]2[C@H]3[C@@H]1[C@]2(C)CC[C@H]3C(C)C
REMARK SMILES IDX 1 1 2 2 3 3 4 4 5 5 6 6 7 7 8 8 10 9 11 10 12 11 9 12 13 13
REMARK SMILES IDX 14 14 15 15
REMARK H PARENT
REMARK Flexibility Score: inf
ROOT
ATOM      1  C   UNL     1       2.667  14.609  18.980  1.00  0.00     0.039 C 
ATOM      2  C   UNL     1       1.921  14.769  17.688  1.00  0.00    -0.073 C 
ATOM      3  C   UNL     1       1.025  15.774  17.512  1.00  0.00    -0.027 C 
ATOM      4  C   UNL     1       0.275  15.872  16.180  1.00  0.00     0.031 C 
ATOM      5  C   UNL     1       0.744  14.743  15.206  1.00  0.00     0.003 C 
ATOM      6  C   UNL     1       2.295  14.706  15.247  1.00  0.00     0.004 C 
ATOM      7  C   UNL     1       2.146  13.822  16.506  1.00  0.00     0.024 C 
ATOM      8  C   UNL     1       0.793  13.364  15.914  1.00  0.00    -0.022 C 
ATOM      9  C   UNL     1       1.048  12.226  14.878  1.00  0.00     0.008 C 
ATOM     10  C   UNL     1       1.943  12.686  13.695  1.00  0.00     0.005 C 
ATOM     11  C   UNL     1       2.896  13.858  14.087  1.00  0.00    -0.005 C 
ATOM     12  C   UNL     1      -0.345  12.979  16.888  1.00  0.00     0.012 C 
ENDROOT
BRANCH  11  13
ATOM     13  C   UNL     1       3.356  14.739  12.887  1.00  0.00    -0.014 C 
ATOM     14  C   UNL     1       4.183  13.931  11.875  1.00  0.00     0.007 C 
ATOM     15  C   UNL     1       2.212  15.480  12.172  1.00  0.00     0.007 C 
ENDBRANCH  11  13
TORSDOF 1
ENDMDL
MODEL 6
REMARK VINA RESULT:    -4.737      1.472      2.442
REMARK INTER + INTRA:          -5.286
REMARK INTER:                  -4.995
REMARK INTRA:                  -0.291
REMARK UNBOUND:                -0.272
REMARK SMILES CC1=CC[C@H]2[C@H]3[C@@H]1[C@]2(C)CC[C@H]3C(C)C
REMARK SMILES IDX 1 1 2 2 3 3 4 4 5 5 6 6 7 7 8 8 10 9 11 10 12 11 9 12 13 13
REMARK SMILES IDX 14 14 15 15
REMARK H PARENT
REMARK Flexibility Score: inf
ROOT
ATOM      1  C   UNL     1       0.074  11.545  13.787  1.00  0.00     0.039 C 
ATOM      2  C   UNL     1       0.692  12.677  14.554  1.00  0.00    -0.073 C 
ATOM      3  C   UNL     1       2.028  12.716  14.796  1.00  0.00    -0.027 C 
ATOM      4  C   UNL     1       2.598  13.884  15.606  1.00  0.00     0.031 C 
ATOM      5  C   UNL     1       1.463  14.887  15.992  1.00  0.00     0.003 C 
ATOM      6  C   UNL     1       0.612  15.140  14.719  1.00  0.00     0.004 C 
ATOM      7  C   UNL     1      -0.146  13.843  15.083  1.00  0.00     0.024 C 
ATOM      8  C   UNL     1       0.220  14.150  16.555  1.00  0.00    -0.022 C 
ATOM      9  C   UNL     1      -0.806  15.172  17.133  1.00  0.00     0.008 C 
ATOM     10  C   UNL     1      -0.805  16.519  16.362  1.00  0.00     0.005 C 
ATOM     11  C   UNL     1      -0.341  16.361  14.880  1.00  0.00    -0.005 C 
ATOM     12  C   UNL     1       0.425  12.963  17.525  1.00  0.00     0.012 C 
ENDROOT
BRANCH  11  13
ATOM     13  C   UNL     1       0.246  17.659  14.249  1.00  0.00    -0.014 C 
ATOM     14  C   UNL     1       1.470  17.358  13.370  1.00  0.00     0.007 C 
ATOM     15  C   UNL     1      -0.778  18.501  13.469  1.00  0.00     0.007 C 
ENDBRANCH  11  13
TORSDOF 1
ENDMDL
MODEL 7
REMARK VINA RESULT:    -4.720      1.726      4.545
REMARK INTER + INTRA:          -5.268
REMARK INTER:                  -5.120
REMARK INTRA:                  -0.148
REMARK UNBOUND:                -0.272
REMARK SMILES CC1=CC[C@H]2[C@H]3[C@@H]1[C@]2(C)CC[C@H]3C(C)C
REMARK SMILES IDX 1 1 2 2 3 3 4 4 5 5 6 6 7 7 8 8 10 9 11 10 12 11 9 12 13 13
REMARK SMILES IDX 14 14 15 15
REMARK H PARENT
REMARK Flexibility Score: inf
ROOT
ATOM      1  C   UNL     1       4.126  13.874  13.403  1.00  0.00     0.039 C 
ATOM      2  C   UNL     1       2.706  14.086  13.837  1.00  0.00    -0.073 C 
ATOM      3  C   UNL     1       1.669  13.851  12.992  1.00  0.00    -0.027 C 
ATOM      4  C   UNL     1       0.241  14.110  13.482  1.00  0.00     0.031 C 
ATOM      5  C   UNL     1       0.254  14.594  14.968  1.00  0.00     0.003 C 
ATOM      6  C   UNL     1       1.210  13.658  15.755  1.00  0.00     0.004 C 
ATOM      7  C   UNL     1       2.357  14.562  15.251  1.00  0.00     0.024 C 
ATOM      8  C   UNL     1       1.314  15.702  15.197  1.00  0.00    -0.022 C 
ATOM      9  C   UNL     1       1.161  16.320  16.620  1.00  0.00     0.008 C 
ATOM     10  C   UNL     1       0.668  15.287  17.669  1.00  0.00     0.005 C 
ATOM     11  C   UNL     1       1.060  13.822  17.297  1.00  0.00    -0.005 C 
ATOM     12  C   UNL     1       1.487  16.809  14.129  1.00  0.00     0.012 C 
ENDROOT
BRANCH  11  13
ATOM     13  C   UNL     1       0.138  12.733  17.922  1.00  0.00    -0.014 C 
ATOM     14  C   UNL     1      -0.241  13.075  19.371  1.00  0.00     0.007 C 
ATOM     15  C   UNL     1      -1.124  12.425  17.098  1.00  0.00     0.007 C 
ENDBRANCH  11  13
TORSDOF 1
ENDMDL
MODEL 8
REMARK VINA RESULT:    -4.716      1.229      2.738
REMARK INTER + INTRA:          -5.264
REMARK INTER:                  -4.860
REMARK INTRA:                  -0.404
REMARK UNBOUND:                -0.272
REMARK SMILES CC1=CC[C@H]2[C@H]3[C@@H]1[C@]2(C)CC[C@H]3C(C)C
REMARK SMILES IDX 1 1 2 2 3 3 4 4 5 5 6 6 7 7 8 8 10 9 11 10 12 11 9 12 13 13
REMARK SMILES IDX 14 14 15 15
REMARK H PARENT
REMARK Flexibility Score: inf
ROOT
ATOM      1  C   UNL     1       2.602  14.780  18.630  1.00  0.00     0.039 C 
ATOM      2  C   UNL     1       1.543  14.725  17.568  1.00  0.00    -0.073 C 
ATOM      3  C   UNL     1       0.295  14.263  17.842  1.00  0.00    -0.027 C 
ATOM      4  C   UNL     1      -0.737  14.207  16.712  1.00  0.00     0.031 C 
ATOM      5  C   UNL     1      -0.125  14.761  15.385  1.00  0.00     0.003 C 
ATOM      6  C   UNL     1       0.611  16.083  15.728  1.00  0.00     0.004 C 
ATOM      7  C   UNL     1       1.811  15.199  16.137  1.00  0.00     0.024 C 
ATOM      8  C   UNL     1       1.282  14.165  15.116  1.00  0.00    -0.022 C 
ATOM      9  C   UNL     1       1.778  14.557  13.690  1.00  0.00     0.008 C 
ATOM     10  C   UNL     1       1.268  15.955  13.245  1.00  0.00     0.005 C 
ATOM     11  C   UNL     1       0.980  16.900  14.454  1.00  0.00    -0.005 C 
ATOM     12  C   UNL     1       1.528  12.663  15.393  1.00  0.00     0.012 C 
ENDROOT
BRANCH  11  13
ATOM     13  C   UNL     1      -0.051  18.029  14.154  1.00  0.00    -0.014 C 
ATOM     14  C   UNL     1      -0.819  17.763  12.850  1.00  0.00     0.007 C 
ATOM     15  C   UNL     1      -1.033  18.308  15.305  1.00  0.00     0.007 C 
ENDBRANCH  11  13
TORSDOF 1
ENDMDL
MODEL 9
REMARK VINA RESULT:    -4.618      2.462      4.620
REMARK INTER + INTRA:          -5.160
REMARK INTER:                  -4.890
REMARK INTRA:                  -0.270
REMARK UNBOUND:                -0.272
REMARK SMILES CC1=CC[C@H]2[C@H]3[C@@H]1[C@]2(C)CC[C@H]3C(C)C
REMARK SMILES IDX 1 1 2 2 3 3 4 4 5 5 6 6 7 7 8 8 10 9 11 10 12 11 9 12 13 13
REMARK SMILES IDX 14 14 15 15
REMARK H PARENT
REMARK Flexibility Score: inf
ROOT
ATOM      1  C   UNL     1       1.541  10.282  13.277  1.00  0.00     0.039 C 
ATOM      2  C   UNL     1       1.024  11.618  13.722  1.00  0.00    -0.073 C 
ATOM      3  C   UNL     1       0.117  12.304  12.981  1.00  0.00    -0.027 C 
ATOM      4  C   UNL     1      -0.356  13.675  13.474  1.00  0.00     0.031 C 
ATOM      5  C   UNL     1       0.315  14.025  14.842  1.00  0.00     0.003 C 
ATOM      6  C   UNL     1       0.207  12.770  15.748  1.00  0.00     0.004 C 
ATOM      7  C   UNL     1       1.480  12.260  15.036  1.00  0.00     0.024 C 
ATOM      8  C   UNL     1       1.841  13.748  14.814  1.00  0.00    -0.022 C 
ATOM      9  C   UNL     1       2.522  14.305  16.101  1.00  0.00     0.008 C 
ATOM     10  C   UNL     1       1.595  14.231  17.345  1.00  0.00     0.005 C 
ATOM     11  C   UNL     1       0.538  13.087  17.237  1.00  0.00    -0.005 C 
ATOM     12  C   UNL     1       2.651  14.129  13.552  1.00  0.00     0.012 C 
ENDROOT
BRANCH  11  13
ATOM     13  C   UNL     1      -0.743  13.315  18.094  1.00  0.00    -0.014 C 
ATOM     14  C   UNL     1      -0.646  12.612  19.456  1.00  0.00     0.007 C 
ATOM     15  C   UNL     1      -1.123  14.794  18.282  1.00  0.00     0.007 C 
ENDBRANCH  11  13
TORSDOF 1
ENDMDL
