MODEL 1
REMARK VINA RESULT:    -4.732      0.000      0.000
REMARK INTER + INTRA:          -5.909
REMARK INTER:                  -5.701
REMARK INTRA:                  -0.208
REMARK UNBOUND:                -0.208
REMARK SMILES C=CCc1ccc(O)c(OC)c1
REMARK SMILES IDX 9 1 7 2 6 3 5 4 4 5 12 6 10 7 11 8 8 9 3 11 2 12 1 13
REMARK H PARENT 8 10
REMARK Flexibility Score: inf
ROOT
ATOM      1  C   UNL     1      41.117 -40.404  -2.546  1.00  0.00     0.160 A 
ATOM      2  C   UNL     1      39.858 -40.650  -3.125  1.00  0.00     0.157 A 
ATOM      3  C   UNL     1      39.755 -40.920  -4.492  1.00  0.00     0.050 A 
ATOM      4  C   UNL     1      40.896 -40.947  -5.294  1.00  0.00     0.008 A 
ATOM      5  C   UNL     1      42.158 -40.693  -4.739  1.00  0.00    -0.040 A 
ATOM      6  C   UNL     1      42.265 -40.431  -3.364  1.00  0.00     0.054 A 
ENDROOT
BRANCH   1   7
ATOM      7  O   UNL     1      41.192 -40.143  -1.169  1.00  0.00    -0.493 OA
ATOM      8  C   UNL     1      42.405 -40.035  -0.431  1.00  0.00     0.278 C 
ENDBRANCH   1   7
BRANCH   2   9
ATOM      9  O   UNL     1      38.695 -40.632  -2.352  1.00  0.00    -0.504 OA
ATOM     10  H   UNL     1      38.620 -41.139  -1.479  1.00  0.00     0.293 HD
ENDBRANCH   2   9
BRANCH   5  11
ATOM     11  C   UNL     1      43.390 -40.752  -5.603  1.00  0.00     0.062 C 
BRANCH  11  12
ATOM     12  C   UNL     1      43.997 -42.127  -5.571  1.00  0.00    -0.030 C 
ATOM     13  C   UNL     1      44.125 -42.865  -6.679  1.00  0.00     0.004 C 
ENDBRANCH  11  12
ENDBRANCH   5  11
TORSDOF 4
ENDMDL
MODEL 2
REMARK VINA RESULT:    -4.674      1.062      1.086
REMARK INTER + INTRA:          -5.839
REMARK INTER:                  -5.616
REMARK INTRA:                  -0.223
REMARK UNBOUND:                -0.208
REMARK SMILES C=CCc1ccc(O)c(OC)c1
REMARK SMILES IDX 9 1 7 2 6 3 5 4 4 5 12 6 10 7 11 8 8 9 3 11 2 12 1 13
REMARK H PARENT 8 10
REMARK Flexibility Score: inf
ROOT
ATOM      1  C   UNL     1      40.225 -40.322  -2.921  1.00  0.00     0.160 A 
ATOM      2  C   UNL     1      39.201 -40.759  -3.782  1.00  0.00     0.157 A 
ATOM      3  C   UNL     1      39.502 -41.135  -5.094  1.00  0.00     0.050 A 
ATOM      4  C   UNL     1      40.815 -41.081  -5.561  1.00  0.00     0.008 A 
ATOM      5  C   UNL     1      41.847 -40.639  -4.722  1.00  0.00    -0.040 A 
ATOM      6  C   UNL     1      41.550 -40.268  -3.401  1.00  0.00     0.054 A 
ENDROOT
BRANCH   1   7
ATOM      7  O   UNL     1      39.896 -39.957  -1.606  1.00  0.00    -0.493 OA
ATOM      8  C   UNL     1      39.868 -40.853  -0.500  1.00  0.00     0.278 C 
ENDBRANCH   1   7
BRANCH   2   9
ATOM      9  O   UNL     1      37.876 -40.827  -3.348  1.00  0.00    -0.504 OA
ATOM     10  H   UNL     1      37.568 -40.394  -2.486  1.00  0.00     0.293 HD
ENDBRANCH   2   9
BRANCH   5  11
ATOM     11  C   UNL     1      43.267 -40.609  -5.221  1.00  0.00     0.062 C 
BRANCH  11  12
ATOM     12  C   UNL     1      43.822 -42.002  -5.327  1.00  0.00    -0.030 C 
ATOM     13  C   UNL     1      44.094 -42.563  -6.510  1.00  0.00     0.004 C 
ENDBRANCH  11  12
ENDBRANCH   5  11
TORSDOF 4
ENDMDL
MODEL 3
REMARK VINA RESULT:    -4.647      1.113      2.807
REMARK INTER + INTRA:          -5.806
REMARK INTER:                  -5.584
REMARK INTRA:                  -0.223
REMARK UNBOUND:                -0.208
REMARK SMILES C=CCc1ccc(O)c(OC)c1
REMARK SMILES IDX 9 1 7 2 6 3 5 4 4 5 12 6 10 7 11 8 8 9 3 11 2 12 1 13
REMARK H PARENT 8 10
REMARK Flexibility Score: inf
ROOT
ATOM      1  C   UNL     1      39.503 -40.849  -4.015  1.00  0.00     0.160 A 
ATOM      2  C   UNL     1      39.678 -40.589  -2.643  1.00  0.00     0.157 A 
ATOM      3  C   UNL     1      40.955 -40.325  -2.138  1.00  0.00     0.050 A 
ATOM      4  C   UNL     1      42.062 -40.318  -2.985  1.00  0.00     0.008 A 
ATOM      5  C   UNL     1      41.910 -40.586  -4.352  1.00  0.00    -0.040 A 
ATOM      6  C   UNL     1      40.628 -40.843  -4.865  1.00  0.00     0.054 A 
ENDROOT
BRANCH   1   7
ATOM      7  O   UNL     1      38.209 -41.105  -4.498  1.00  0.00    -0.493 OA
ATOM      8  C   UNL     1      37.402 -40.157  -5.188  1.00  0.00     0.278 C 
ENDBRANCH   1   7
BRANCH   2   9
ATOM      9  O   UNL     1      38.592 -40.587  -1.767  1.00  0.00    -0.504 OA
ATOM     10  H   UNL     1      38.703 -40.725  -0.770  1.00  0.00     0.293 HD
ENDBRANCH   2   9
BRANCH   5  11
ATOM     11  C   UNL     1      43.104 -40.548  -5.268  1.00  0.00     0.062 C 
BRANCH  11  12
ATOM     12  C   UNL     1      43.843 -41.858  -5.232  1.00  0.00    -0.030 C 
ATOM     13  C   UNL     1      44.095 -42.553  -6.346  1.00  0.00     0.004 C 
ENDBRANCH  11  12
ENDBRANCH   5  11
TORSDOF 4
ENDMDL
MODEL 4
REMARK VINA RESULT:    -4.417      2.286      3.141
REMARK INTER + INTRA:          -5.530
REMARK INTER:                  -5.313
REMARK INTRA:                  -0.216
REMARK UNBOUND:                -0.208
REMARK SMILES C=CCc1ccc(O)c(OC)c1
REMARK SMILES IDX 9 1 7 2 6 3 5 4 4 5 12 6 10 7 11 8 8 9 3 11 2 12 1 13
REMARK H PARENT 8 10
REMARK Flexibility Score: inf
ROOT
ATOM      1  C   UNL     1      40.000 -39.824  -5.039  1.00  0.00     0.160 A 
ATOM      2  C   UNL     1      40.274 -38.517  -4.594  1.00  0.00     0.157 A 
ATOM      3  C   UNL     1      41.570 -38.167  -4.203  1.00  0.00     0.050 A 
ATOM      4  C   UNL     1      42.599 -39.107  -4.249  1.00  0.00     0.008 A 
ATOM      5  C   UNL     1      42.344 -40.416  -4.679  1.00  0.00    -0.040 A 
ATOM      6  C   UNL     1      41.046 -40.769  -5.081  1.00  0.00     0.054 A 
ENDROOT
BRANCH   1   7
ATOM      7  O   UNL     1      38.692 -40.146  -5.433  1.00  0.00    -0.493 OA
ATOM      8  C   UNL     1      37.760 -40.864  -4.630  1.00  0.00     0.278 C 
ENDBRANCH   1   7
BRANCH   2   9
ATOM      9  O   UNL     1      39.268 -37.551  -4.536  1.00  0.00    -0.504 OA
ATOM     10  H   UNL     1      38.895 -37.110  -5.368  1.00  0.00     0.293 HD
ENDBRANCH   2   9
BRANCH   5  11
ATOM     11  C   UNL     1      43.464 -41.419  -4.755  1.00  0.00     0.062 C 
BRANCH  11  12
ATOM     12  C   UNL     1      43.885 -41.640  -6.181  1.00  0.00    -0.030 C 
ATOM     13  C   UNL     1      44.099 -42.866  -6.669  1.00  0.00     0.004 C 
ENDBRANCH  11  12
ENDBRANCH   5  11
TORSDOF 4
ENDMDL
MODEL 5
REMARK VINA RESULT:    -4.362      2.260      2.495
REMARK INTER + INTRA:          -5.463
REMARK INTER:                  -5.251
REMARK INTRA:                  -0.212
REMARK UNBOUND:                -0.208
REMARK SMILES C=CCc1ccc(O)c(OC)c1
REMARK SMILES IDX 9 1 7 2 6 3 5 4 4 5 12 6 10 7 11 8 8 9 3 11 2 12 1 13
REMARK H PARENT 8 10
REMARK Flexibility Score: inf
ROOT
ATOM      1  C   UNL     1      40.704 -38.603  -4.458  1.00  0.00     0.160 A 
ATOM      2  C   UNL     1      39.607 -39.251  -5.054  1.00  0.00     0.157 A 
ATOM      3  C   UNL     1      39.743 -40.553  -5.546  1.00  0.00     0.050 A 
ATOM      4  C   UNL     1      40.965 -41.219  -5.450  1.00  0.00     0.008 A 
ATOM      5  C   UNL     1      42.073 -40.586  -4.869  1.00  0.00    -0.040 A 
ATOM      6  C   UNL     1      41.937 -39.282  -4.367  1.00  0.00     0.054 A 
ENDROOT
BRANCH   1   7
ATOM      7  O   UNL     1      40.538 -37.298  -3.967  1.00  0.00    -0.493 OA
ATOM      8  C   UNL     1      41.523 -36.274  -4.044  1.00  0.00     0.278 C 
ENDBRANCH   1   7
BRANCH   2   9
ATOM      9  O   UNL     1      38.369 -38.615  -5.166  1.00  0.00    -0.504 OA
ATOM     10  H   UNL     1      38.126 -37.805  -4.608  1.00  0.00     0.293 HD
ENDBRANCH   2   9
BRANCH   5  11
ATOM     11  C   UNL     1      43.381 -41.320  -4.742  1.00  0.00     0.062 C 
BRANCH  11  12
ATOM     12  C   UNL     1      43.983 -41.573  -6.097  1.00  0.00    -0.030 C 
ATOM     13  C   UNL     1      44.088 -42.807  -6.600  1.00  0.00     0.004 C 
ENDBRANCH  11  12
ENDBRANCH   5  11
TORSDOF 4
ENDMDL
MODEL 6
REMARK VINA RESULT:    -4.262      2.212      3.724
REMARK INTER + INTRA:          -5.342
REMARK INTER:                  -5.169
REMARK INTRA:                  -0.173
REMARK UNBOUND:                -0.208
REMARK SMILES C=CCc1ccc(O)c(OC)c1
REMARK SMILES IDX 9 1 7 2 6 3 5 4 4 5 12 6 10 7 11 8 8 9 3 11 2 12 1 13
REMARK H PARENT 8 10
REMARK Flexibility Score: inf
ROOT
ATOM      1  C   UNL     1      38.688 -40.098  -5.550  1.00  0.00     0.160 A 
ATOM      2  C   UNL     1      38.043 -40.243  -4.308  1.00  0.00     0.157 A 
ATOM      3  C   UNL     1      38.788 -40.536  -3.161  1.00  0.00     0.050 A 
ATOM      4  C   UNL     1      40.172 -40.686  -3.238  1.00  0.00     0.008 A 
ATOM      5  C   UNL     1      40.831 -40.557  -4.468  1.00  0.00    -0.040 A 
ATOM      6  C   UNL     1      40.087 -40.254  -5.620  1.00  0.00     0.054 A 
ENDROOT
BRANCH   1   7
ATOM      7  O   UNL     1      37.916 -39.798  -6.684  1.00  0.00    -0.493 OA
ATOM      8  C   UNL     1      38.450 -39.397  -7.941  1.00  0.00     0.278 C 
ENDBRANCH   1   7
BRANCH   2   9
ATOM      9  O   UNL     1      36.660 -40.098  -4.193  1.00  0.00    -0.504 OA
ATOM     10  H   UNL     1      36.194 -39.215  -4.365  1.00  0.00     0.293 HD
ENDBRANCH   2   9
BRANCH   5  11
ATOM     11  C   UNL     1      42.329 -40.692  -4.542  1.00  0.00     0.062 C 
BRANCH  11  12
ATOM     12  C   UNL     1      42.726 -41.607  -5.666  1.00  0.00    -0.030 C 
ATOM     13  C   UNL     1      43.976 -42.064  -5.792  1.00  0.00     0.004 C 
ENDBRANCH  11  12
ENDBRANCH   5  11
TORSDOF 4
ENDMDL
MODEL 7
REMARK VINA RESULT:    -4.250      2.895      4.527
REMARK INTER + INTRA:          -5.329
REMARK INTER:                  -5.132
REMARK INTRA:                  -0.197
REMARK UNBOUND:                -0.208
REMARK SMILES C=CCc1ccc(O)c(OC)c1
REMARK SMILES IDX 9 1 7 2 6 3 5 4 4 5 12 6 10 7 11 8 8 9 3 11 2 12 1 13
REMARK H PARENT 8 10
REMARK Flexibility Score: inf
ROOT
ATOM      1  C   UNL     1      37.943 -39.111  -6.036  1.00  0.00     0.160 A 
ATOM      2  C   UNL     1      37.304 -39.395  -4.815  1.00  0.00     0.157 A 
ATOM      3  C   UNL     1      37.865 -40.318  -3.928  1.00  0.00     0.050 A 
ATOM      4  C   UNL     1      39.060 -40.964  -4.244  1.00  0.00     0.008 A 
ATOM      5  C   UNL     1      39.706 -40.703  -5.460  1.00  0.00    -0.040 A 
ATOM      6  C   UNL     1      39.149 -39.771  -6.350  1.00  0.00     0.054 A 
ENDROOT
BRANCH   1   7
ATOM      7  O   UNL     1      37.361 -38.175  -6.906  1.00  0.00    -0.493 OA
ATOM      8  C   UNL     1      36.964 -38.453  -8.245  1.00  0.00     0.278 C 
ENDBRANCH   1   7
BRANCH   2   9
ATOM      9  O   UNL     1      36.108 -38.766  -4.466  1.00  0.00    -0.504 OA
ATOM     10  H   UNL     1      35.628 -38.132  -5.094  1.00  0.00     0.293 HD
ENDBRANCH   2   9
BRANCH   5  11
ATOM     11  C   UNL     1      41.010 -41.382  -5.784  1.00  0.00     0.062 C 
BRANCH  11  12
ATOM     12  C   UNL     1      42.103 -40.895  -4.874  1.00  0.00    -0.030 C 
ATOM     13  C   UNL     1      43.372 -41.289  -5.027  1.00  0.00     0.004 C 
ENDBRANCH  11  12
ENDBRANCH   5  11
TORSDOF 4
ENDMDL
MODEL 8
REMARK VINA RESULT:    -4.246      2.147      2.806
REMARK INTER + INTRA:          -5.323
REMARK INTER:                  -5.135
REMARK INTRA:                  -0.188
REMARK UNBOUND:                -0.208
REMARK SMILES C=CCc1ccc(O)c(OC)c1
REMARK SMILES IDX 9 1 7 2 6 3 5 4 4 5 12 6 10 7 11 8 8 9 3 11 2 12 1 13
REMARK H PARENT 8 10
REMARK Flexibility Score: inf
ROOT
ATOM      1  C   UNL     1      42.915 -39.588  -1.509  1.00  0.00     0.160 A 
ATOM      2  C   UNL     1      42.907 -38.213  -1.811  1.00  0.00     0.157 A 
ATOM      3  C   UNL     1      42.793 -37.787  -3.137  1.00  0.00     0.050 A 
ATOM      4  C   UNL     1      42.687 -38.717  -4.171  1.00  0.00     0.008 A 
ATOM      5  C   UNL     1      42.704 -40.091  -3.892  1.00  0.00    -0.040 A 
ATOM      6  C   UNL     1      42.810 -40.522  -2.560  1.00  0.00     0.054 A 
ENDROOT
BRANCH   1   7
ATOM      7  O   UNL     1      43.024 -39.988  -0.168  1.00  0.00    -0.493 OA
ATOM      8  C   UNL     1      41.919 -40.300   0.675  1.00  0.00     0.278 C 
ENDBRANCH   1   7
BRANCH   2   9
ATOM      9  O   UNL     1      43.009 -37.255  -0.801  1.00  0.00    -0.504 OA
ATOM     10  H   UNL     1      43.192 -36.278  -1.001  1.00  0.00     0.293 HD
ENDBRANCH   2   9
BRANCH   5  11
ATOM     11  C   UNL     1      42.561 -41.091  -5.008  1.00  0.00     0.062 C 
BRANCH  11  12
ATOM     12  C   UNL     1      43.872 -41.774  -5.282  1.00  0.00    -0.030 C 
ATOM     13  C   UNL     1      44.042 -42.572  -6.341  1.00  0.00     0.004 C 
ENDBRANCH  11  12
ENDBRANCH   5  11
TORSDOF 4
ENDMDL
MODEL 9
REMARK VINA RESULT:    -4.189      2.329      4.221
REMARK INTER + INTRA:          -5.255
REMARK INTER:                  -4.970
REMARK INTRA:                  -0.285
REMARK UNBOUND:                -0.208
REMARK SMILES C=CCc1ccc(O)c(OC)c1
REMARK SMILES IDX 9 1 7 2 6 3 5 4 4 5 12 6 10 7 11 8 8 9 3 11 2 12 1 13
REMARK H PARENT 8 10
REMARK Flexibility Score: inf
ROOT
ATOM      1  C   UNL     1      42.227 -40.119  -4.070  1.00  0.00     0.160 A 
ATOM      2  C   UNL     1      42.726 -40.896  -5.132  1.00  0.00     0.157 A 
ATOM      3  C   UNL     1      41.849 -41.622  -5.942  1.00  0.00     0.050 A 
ATOM      4  C   UNL     1      40.474 -41.585  -5.706  1.00  0.00     0.008 A 
ATOM      5  C   UNL     1      39.959 -40.826  -4.647  1.00  0.00    -0.040 A 
ATOM      6  C   UNL     1      40.837 -40.088  -3.836  1.00  0.00     0.054 A 
ENDROOT
BRANCH   1   7
ATOM      7  O   UNL     1      43.130 -39.394  -3.277  1.00  0.00    -0.493 OA
ATOM      8  C   UNL     1      43.147 -37.975  -3.162  1.00  0.00     0.278 C 
ENDBRANCH   1   7
BRANCH   2   9
ATOM      9  O   UNL     1      44.095 -40.956  -5.399  1.00  0.00    -0.504 OA
ATOM     10  H   UNL     1      44.788 -40.983  -4.660  1.00  0.00     0.293 HD
ENDBRANCH   2   9
BRANCH   5  11
ATOM     11  C   UNL     1      38.473 -40.765  -4.413  1.00  0.00     0.062 C 
BRANCH  11  12
ATOM     12  C   UNL     1      37.776 -40.132  -5.585  1.00  0.00    -0.030 C 
ATOM     13  C   UNL     1      37.940 -38.839  -5.885  1.00  0.00     0.004 C 
ENDBRANCH  11  12
ENDBRANCH   5  11
TORSDOF 4
ENDMDL
