MODEL 1
REMARK VINA RESULT:    -6.288      0.000      0.000
REMARK INTER + INTRA:          -6.288
REMARK INTER:                  -6.288
REMARK INTRA:                   0.000
REMARK UNBOUND:                 0.000
REMARK SMILES CC1=CC(=O)[C@H]2C[C@@H]1C2(C)C
REMARK SMILES IDX 1 1 2 2 3 3 4 4 5 5 6 6 7 7 8 8 9 9 10 10 11 11
REMARK H PARENT
REMARK Flexibility Score: inf
ROOT
ATOM      1  C   UNL     1      -6.384 -14.747  28.363  1.00  0.00     0.040 C 
ATOM      2  C   UNL     1      -5.065 -14.105  28.654  1.00  0.00    -0.066 C 
ATOM      3  C   UNL     1      -4.603 -13.980  29.929  1.00  0.00     0.047 C 
ATOM      4  C   UNL     1      -3.282 -13.290  30.091  1.00  0.00     0.159 C 
ATOM      5  O   UNL     1      -2.768 -13.079  31.220  1.00  0.00    -0.295 OA
ATOM      6  C   UNL     1      -2.603 -12.860  28.790  1.00  0.00     0.067 C 
ATOM      7  C   UNL     1      -2.741 -14.092  27.868  1.00  0.00     0.021 C 
ATOM      8  C   UNL     1      -4.156 -13.570  27.527  1.00  0.00     0.022 C 
ATOM      9  C   UNL     1      -3.657 -12.143  27.897  1.00  0.00    -0.019 C 
ATOM     10  C   UNL     1      -3.009 -11.414  26.693  1.00  0.00     0.012 C 
ATOM     11  C   UNL     1      -4.658 -11.167  28.576  1.00  0.00     0.012 C 
ENDROOT
TORSDOF 0
ENDMDL
MODEL 2
REMARK VINA RESULT:    -6.139      1.427      2.756
REMARK INTER + INTRA:          -6.139
REMARK INTER:                  -6.139
REMARK INTRA:                   0.000
REMARK UNBOUND:                 0.000
REMARK SMILES CC1=CC(=O)[C@H]2C[C@@H]1C2(C)C
REMARK SMILES IDX 1 1 2 2 3 3 4 4 5 5 6 6 7 7 8 8 9 9 10 10 11 11
REMARK H PARENT
REMARK Flexibility Score: inf
ROOT
ATOM      1  C   UNL     1      -4.929 -10.034  29.314  1.00  0.00     0.040 C 
ATOM      2  C   UNL     1      -4.122 -11.255  29.008  1.00  0.00    -0.066 C 
ATOM      3  C   UNL     1      -2.787 -11.308  29.277  1.00  0.00     0.047 C 
ATOM      4  C   UNL     1      -2.085 -12.577  28.896  1.00  0.00     0.159 C 
ATOM      5  O   UNL     1      -0.846 -12.733  29.057  1.00  0.00    -0.295 OA
ATOM      6  C   UNL     1      -2.976 -13.665  28.296  1.00  0.00     0.067 C 
ATOM      7  C   UNL     1      -4.209 -13.697  29.226  1.00  0.00     0.021 C 
ATOM      8  C   UNL     1      -4.760 -12.518  28.392  1.00  0.00     0.022 C 
ATOM      9  C   UNL     1      -3.882 -13.019  27.209  1.00  0.00    -0.019 C 
ATOM     10  C   UNL     1      -4.608 -14.078  26.343  1.00  0.00     0.012 C 
ATOM     11  C   UNL     1      -3.255 -11.960  26.260  1.00  0.00     0.012 C 
ENDROOT
TORSDOF 0
ENDMDL
MODEL 3
REMARK VINA RESULT:    -6.073      1.453      3.182
REMARK INTER + INTRA:          -6.073
REMARK INTER:                  -6.073
REMARK INTRA:                   0.000
REMARK UNBOUND:                 0.000
REMARK SMILES CC1=CC(=O)[C@H]2C[C@@H]1C2(C)C
REMARK SMILES IDX 1 1 2 2 3 3 4 4 5 5 6 6 7 7 8 8 9 9 10 10 11 11
REMARK H PARENT
REMARK Flexibility Score: inf
ROOT
ATOM      1  C   UNL     1      -0.777 -14.204  28.729  1.00  0.00     0.040 C 
ATOM      2  C   UNL     1      -2.035 -13.424  28.518  1.00  0.00    -0.066 C 
ATOM      3  C   UNL     1      -2.173 -12.157  29.000  1.00  0.00     0.047 C 
ATOM      4  C   UNL     1      -3.494 -11.494  28.750  1.00  0.00     0.159 C 
ATOM      5  O   UNL     1      -3.758 -10.340  29.178  1.00  0.00    -0.295 OA
ATOM      6  C   UNL     1      -4.498 -12.317  27.942  1.00  0.00     0.067 C 
ATOM      7  C   UNL     1      -3.667 -12.881  26.769  1.00  0.00     0.021 C 
ATOM      8  C   UNL     1      -3.230 -14.007  27.735  1.00  0.00     0.022 C 
ATOM      9  C   UNL     1      -4.545 -13.757  28.530  1.00  0.00    -0.019 C 
ATOM     10  C   UNL     1      -5.735 -14.580  27.977  1.00  0.00     0.012 C 
ATOM     11  C   UNL     1      -4.511 -13.925  30.075  1.00  0.00     0.012 C 
ENDROOT
TORSDOF 0
ENDMDL
MODEL 4
REMARK VINA RESULT:    -5.876      1.673      2.990
REMARK INTER + INTRA:          -5.876
REMARK INTER:                  -5.876
REMARK INTRA:                   0.000
REMARK UNBOUND:                 0.000
REMARK SMILES CC1=CC(=O)[C@H]2C[C@@H]1C2(C)C
REMARK SMILES IDX 1 1 2 2 3 3 4 4 5 5 6 6 7 7 8 8 9 9 10 10 11 11
REMARK H PARENT
REMARK Flexibility Score: inf
ROOT
ATOM      1  C   UNL     1      -3.134 -12.998  31.756  1.00  0.00     0.040 C 
ATOM      2  C   UNL     1      -3.837 -13.120  30.442  1.00  0.00    -0.066 C 
ATOM      3  C   UNL     1      -4.716 -14.132  30.199  1.00  0.00     0.047 C 
ATOM      4  C   UNL     1      -5.332 -14.161  28.833  1.00  0.00     0.159 C 
ATOM      5  O   UNL     1      -6.129 -15.068  28.474  1.00  0.00    -0.295 OA
ATOM      6  C   UNL     1      -4.923 -13.017  27.905  1.00  0.00     0.067 C 
ATOM      7  C   UNL     1      -5.033 -11.756  28.790  1.00  0.00     0.021 C 
ATOM      8  C   UNL     1      -3.617 -12.100  29.304  1.00  0.00     0.022 C 
ATOM      9  C   UNL     1      -3.377 -12.858  27.966  1.00  0.00    -0.019 C 
ATOM     10  C   UNL     1      -2.836 -11.929  26.851  1.00  0.00     0.012 C 
ATOM     11  C   UNL     1      -2.504 -14.144  27.997  1.00  0.00     0.012 C 
ENDROOT
TORSDOF 0
ENDMDL
MODEL 5
REMARK VINA RESULT:    -5.837      1.464      2.419
REMARK INTER + INTRA:          -5.837
REMARK INTER:                  -5.837
REMARK INTRA:                   0.000
REMARK UNBOUND:                 0.000
REMARK SMILES CC1=CC(=O)[C@H]2C[C@@H]1C2(C)C
REMARK SMILES IDX 1 1 2 2 3 3 4 4 5 5 6 6 7 7 8 8 9 9 10 10 11 11
REMARK H PARENT
REMARK Flexibility Score: inf
ROOT
ATOM      1  C   UNL     1      -5.972 -14.387  28.009  1.00  0.00     0.040 C 
ATOM      2  C   UNL     1      -4.746 -13.579  28.297  1.00  0.00    -0.066 C 
ATOM      3  C   UNL     1      -3.500 -14.117  28.186  1.00  0.00     0.047 C 
ATOM      4  C   UNL     1      -2.355 -13.213  28.531  1.00  0.00     0.159 C 
ATOM      5  O   UNL     1      -1.159 -13.605  28.505  1.00  0.00    -0.295 OA
ATOM      6  C   UNL     1      -2.741 -11.786  28.919  1.00  0.00     0.067 C 
ATOM      7  C   UNL     1      -3.775 -11.371  27.850  1.00  0.00     0.021 C 
ATOM      8  C   UNL     1      -4.831 -12.096  28.716  1.00  0.00     0.022 C 
ATOM      9  C   UNL     1      -3.908 -11.851  29.946  1.00  0.00    -0.019 C 
ATOM     10  C   UNL     1      -4.176 -10.482  30.620  1.00  0.00     0.012 C 
ATOM     11  C   UNL     1      -3.857 -12.939  31.054  1.00  0.00     0.012 C 
ENDROOT
TORSDOF 0
ENDMDL
MODEL 6
REMARK VINA RESULT:    -5.785      1.813      3.287
REMARK INTER + INTRA:          -5.785
REMARK INTER:                  -5.785
REMARK INTRA:                   0.000
REMARK UNBOUND:                 0.000
REMARK SMILES CC1=CC(=O)[C@H]2C[C@@H]1C2(C)C
REMARK SMILES IDX 1 1 2 2 3 3 4 4 5 5 6 6 7 7 8 8 9 9 10 10 11 11
REMARK H PARENT
REMARK Flexibility Score: inf
ROOT
ATOM      1  C   UNL     1      -0.533 -13.298  29.098  1.00  0.00     0.040 C 
ATOM      2  C   UNL     1      -2.009 -13.283  28.858  1.00  0.00    -0.066 C 
ATOM      3  C   UNL     1      -2.598 -14.172  28.010  1.00  0.00     0.047 C 
ATOM      4  C   UNL     1      -4.080 -14.034  27.831  1.00  0.00     0.159 C 
ATOM      5  O   UNL     1      -4.733 -14.770  27.046  1.00  0.00    -0.295 OA
ATOM      6  C   UNL     1      -4.742 -12.938  28.666  1.00  0.00     0.067 C 
ATOM      7  C   UNL     1      -4.133 -13.116  30.074  1.00  0.00     0.021 C 
ATOM      8  C   UNL     1      -2.938 -12.276  29.568  1.00  0.00     0.022 C 
ATOM      9  C   UNL     1      -3.901 -11.635  28.527  1.00  0.00    -0.019 C 
ATOM     10  C   UNL     1      -4.640 -10.396  29.092  1.00  0.00     0.012 C 
ATOM     11  C   UNL     1      -3.333 -11.270  27.128  1.00  0.00     0.012 C 
ENDROOT
TORSDOF 0
ENDMDL
MODEL 7
REMARK VINA RESULT:    -5.740      1.901      3.110
REMARK INTER + INTRA:          -5.740
REMARK INTER:                  -5.740
REMARK INTRA:                   0.000
REMARK UNBOUND:                 0.000
REMARK SMILES CC1=CC(=O)[C@H]2C[C@@H]1C2(C)C
REMARK SMILES IDX 1 1 2 2 3 3 4 4 5 5 6 6 7 7 8 8 9 9 10 10 11 11
REMARK H PARENT
REMARK Flexibility Score: inf
ROOT
ATOM      1  C   UNL     1      -5.832 -14.577  28.257  1.00  0.00     0.040 C 
ATOM      2  C   UNL     1      -4.794 -13.504  28.177  1.00  0.00    -0.066 C 
ATOM      3  C   UNL     1      -4.392 -12.994  26.979  1.00  0.00     0.047 C 
ATOM      4  C   UNL     1      -3.322 -11.945  27.031  1.00  0.00     0.159 C 
ATOM      5  O   UNL     1      -2.840 -11.425  25.990  1.00  0.00    -0.295 OA
ATOM      6  C   UNL     1      -2.856 -11.553  28.433  1.00  0.00     0.067 C 
ATOM      7  C   UNL     1      -4.167 -11.379  29.232  1.00  0.00     0.021 C 
ATOM      8  C   UNL     1      -4.139 -12.911  29.442  1.00  0.00     0.022 C 
ATOM      9  C   UNL     1      -2.595 -12.852  29.249  1.00  0.00    -0.019 C 
ATOM     10  C   UNL     1      -1.845 -12.572  30.576  1.00  0.00     0.012 C 
ATOM     11  C   UNL     1      -1.898 -14.044  28.536  1.00  0.00     0.012 C 
ENDROOT
TORSDOF 0
ENDMDL
MODEL 8
REMARK VINA RESULT:    -5.599      2.431      3.614
REMARK INTER + INTRA:          -5.599
REMARK INTER:                  -5.599
REMARK INTRA:                   0.000
REMARK UNBOUND:                 0.000
REMARK SMILES CC1=CC(=O)[C@H]2C[C@@H]1C2(C)C
REMARK SMILES IDX 1 1 2 2 3 3 4 4 5 5 6 6 7 7 8 8 9 9 10 10 11 11
REMARK H PARENT
REMARK Flexibility Score: inf
ROOT
ATOM      1  C   UNL     1      -4.128 -13.942  32.437  1.00  0.00     0.040 C 
ATOM      2  C   UNL     1      -3.193 -13.080  31.650  1.00  0.00    -0.066 C 
ATOM      3  C   UNL     1      -3.541 -11.819  31.269  1.00  0.00     0.047 C 
ATOM      4  C   UNL     1      -2.528 -11.069  30.458  1.00  0.00     0.159 C 
ATOM      5  O   UNL     1      -2.747  -9.911  30.014  1.00  0.00    -0.295 OA
ATOM      6  C   UNL     1      -1.214 -11.808  30.204  1.00  0.00     0.067 C 
ATOM      7  C   UNL     1      -0.839 -12.394  31.583  1.00  0.00     0.021 C 
ATOM      8  C   UNL     1      -1.786 -13.568  31.244  1.00  0.00     0.022 C 
ATOM      9  C   UNL     1      -1.542 -13.256  29.739  1.00  0.00    -0.019 C 
ATOM     10  C   UNL     1      -0.298 -13.990  29.178  1.00  0.00     0.012 C 
ATOM     11  C   UNL     1      -2.720 -13.463  28.746  1.00  0.00     0.012 C 
ENDROOT
TORSDOF 0
ENDMDL
MODEL 9
REMARK VINA RESULT:    -5.587      1.811      2.595
REMARK INTER + INTRA:          -5.587
REMARK INTER:                  -5.587
REMARK INTRA:                   0.000
REMARK UNBOUND:                 0.000
REMARK SMILES CC1=CC(=O)[C@H]2C[C@@H]1C2(C)C
REMARK SMILES IDX 1 1 2 2 3 3 4 4 5 5 6 6 7 7 8 8 9 9 10 10 11 11
REMARK H PARENT
REMARK Flexibility Score: inf
ROOT
ATOM      1  C   UNL     1      -4.506 -14.360  32.403  1.00  0.00     0.040 C 
ATOM      2  C   UNL     1      -3.640 -13.616  31.437  1.00  0.00    -0.066 C 
ATOM      3  C   UNL     1      -2.357 -13.280  31.748  1.00  0.00     0.047 C 
ATOM      4  C   UNL     1      -1.603 -12.508  30.708  1.00  0.00     0.159 C 
ATOM      5  O   UNL     1      -0.424 -12.106  30.892  1.00  0.00    -0.295 OA
ATOM      6  C   UNL     1      -2.366 -12.239  29.410  1.00  0.00     0.067 C 
ATOM      7  C   UNL     1      -3.013 -13.599  29.065  1.00  0.00     0.021 C 
ATOM      8  C   UNL     1      -4.148 -13.206  30.039  1.00  0.00     0.022 C 
ATOM      9  C   UNL     1      -3.786 -11.716  29.771  1.00  0.00    -0.019 C 
ATOM     10  C   UNL     1      -4.531 -11.141  28.540  1.00  0.00     0.012 C 
ATOM     11  C   UNL     1      -3.925 -10.704  30.942  1.00  0.00     0.012 C 
ENDROOT
TORSDOF 0
ENDMDL
