MODEL 1
REMARK VINA RESULT:    -4.811      0.000      0.000
REMARK INTER + INTRA:          -7.492
REMARK INTER:                  -7.342
REMARK INTRA:                  -0.150
REMARK UNBOUND:                -0.150
REMARK SMILES CC1=CCC[C@H](C)C(=O)C[C@H](C(C)C)C(=O)C1
REMARK SMILES IDX 8 1 9 2 6 3 7 4 5 5 4 6 3 7 2 8 1 9 10 11 11 12 15 13 16 14
REMARK SMILES IDX 17 15 12 17 13 18 14 19
REMARK H PARENT
REMARK Flexibility Score: 70.00
ROOT
ATOM      1  C   UNL     1     122.846 177.262 129.648  1.00  0.00     0.136 C 
ATOM      2  O   UNL     1     123.681 176.705 130.345  1.00  0.00    -0.299 OA
ENDROOT
BRANCH   1   3
ATOM      3  C   UNL     1     122.855 178.777 129.587  1.00  0.00     0.053 C 
ATOM      4  C   UNL     1     123.120 179.349 130.987  1.00  0.00     0.016 C 
BRANCH   3   5
ATOM      5  C   UNL     1     123.920 179.279 128.562  1.00  0.00     0.015 C 
BRANCH   5   6
ATOM      6  C   UNL     1     123.752 178.665 127.154  1.00  0.00     0.028 C 
BRANCH   6   7
ATOM      7  C   UNL     1     122.746 179.379 126.276  1.00  0.00    -0.028 C 
ATOM      8  C   UNL     1     121.483 178.970 125.990  1.00  0.00    -0.070 CG0
ATOM      9  C   UNL     1     120.613 179.914 125.196  1.00  0.00     0.039 C 
ATOM     10  G   UNL     1     120.927 177.596 126.337  1.00  0.00     0.000 G0
ENDBRANCH   6   7
ENDBRANCH   5   6
ENDBRANCH   3   5
ENDBRANCH   1   3
BRANCH   1  11
ATOM     11  C   UNL     1     121.849 176.385 128.913  1.00  0.00     0.087 C 
BRANCH  11  12
ATOM     12  C   UNL     1     120.363 176.851 128.845  1.00  0.00     0.066 C 
BRANCH  12  13
ATOM     13  C   UNL     1     120.012 177.579 127.550  1.00  0.00     0.140 C 
ATOM     14  O   UNL     1     118.892 178.059 127.440  1.00  0.00    -0.299 OA
BRANCH  13  15
ATOM     15  C   UNL     1     120.938 177.596 126.354  1.00  0.00     0.106 CG0
ATOM     16  G   UNL     1     121.483 178.974 126.003  1.00  0.00     0.000 G0
ENDBRANCH  13  15
ENDBRANCH  12  13
BRANCH  12  17
ATOM     17  C   UNL     1     119.386 175.646 129.067  1.00  0.00    -0.006 C 
ATOM     18  C   UNL     1     118.260 175.987 130.062  1.00  0.00     0.008 C 
ATOM     19  C   UNL     1     120.118 174.385 129.565  1.00  0.00     0.008 C 
ENDBRANCH  12  17
ENDBRANCH  11  12
ENDBRANCH   1  11
TORSDOF 1
ENDMDL
MODEL 2
REMARK VINA RESULT:    -4.743      2.192      5.006
REMARK INTER + INTRA:          -7.388
REMARK INTER:                  -7.091
REMARK INTRA:                  -0.298
REMARK UNBOUND:                -0.150
REMARK SMILES CC1=CCC[C@H](C)C(=O)C[C@H](C(C)C)C(=O)C1
REMARK SMILES IDX 8 1 9 2 6 3 7 4 5 5 4 6 3 7 2 8 1 9 10 11 11 12 15 13 16 14
REMARK SMILES IDX 17 15 12 17 13 18 14 19
REMARK H PARENT
REMARK Flexibility Score: 70.00
ROOT
ATOM      1  C   UNL     1     120.815 176.511 130.155  1.00  0.00     0.136 C 
ATOM      2  O   UNL     1     121.882 176.405 130.740  1.00  0.00    -0.299 OA
ENDROOT
BRANCH   1   3
ATOM      3  C   UNL     1     119.586 175.878 130.778  1.00  0.00     0.053 C 
ATOM      4  C   UNL     1     118.334 176.298 129.996  1.00  0.00     0.016 C 
BRANCH   3   5
ATOM      5  C   UNL     1     119.731 174.324 130.820  1.00  0.00     0.015 C 
BRANCH   5   6
ATOM      6  C   UNL     1     119.121 173.619 129.589  1.00  0.00     0.028 C 
BRANCH   6   7
ATOM      7  C   UNL     1     120.136 172.966 128.675  1.00  0.00    -0.028 C 
ATOM      8  C   UNL     1     120.772 173.543 127.623  1.00  0.00    -0.070 CG0
ATOM      9  C   UNL     1     121.846 172.736 126.935  1.00  0.00     0.039 C 
ATOM     10  G   UNL     1     120.410 174.904 127.045  1.00  0.00     0.000 G0
ENDBRANCH   6   7
ENDBRANCH   5   6
ENDBRANCH   3   5
ENDBRANCH   1   3
BRANCH   1  11
ATOM     11  C   UNL     1     120.813 177.254 128.831  1.00  0.00     0.087 C 
BRANCH  11  12
ATOM     12  C   UNL     1     121.951 176.950 127.810  1.00  0.00     0.066 C 
BRANCH  12  13
ATOM     13  C   UNL     1     121.600 175.843 126.820  1.00  0.00     0.140 C 
ATOM     14  O   UNL     1     122.227 175.783 125.771  1.00  0.00    -0.299 OA
BRANCH  13  15
ATOM     15  C   UNL     1     120.415 174.924 127.019  1.00  0.00     0.106 CG0
ATOM     16  G   UNL     1     120.768 173.568 127.617  1.00  0.00     0.000 G0
ENDBRANCH  13  15
ENDBRANCH  12  13
BRANCH  12  17
ATOM     17  C   UNL     1     122.377 178.247 127.041  1.00  0.00    -0.006 C 
ATOM     18  C   UNL     1     123.411 179.075 127.828  1.00  0.00     0.008 C 
ATOM     19  C   UNL     1     121.173 179.149 126.709  1.00  0.00     0.008 C 
ENDBRANCH  12  17
ENDBRANCH  11  12
ENDBRANCH   1  11
TORSDOF 1
ENDMDL
MODEL 3
REMARK VINA RESULT:    -4.699      2.543      4.891
REMARK INTER + INTRA:          -7.322
REMARK INTER:                  -7.042
REMARK INTRA:                  -0.279
REMARK UNBOUND:                -0.150
REMARK SMILES CC1=CCC[C@H](C)C(=O)C[C@H](C(C)C)C(=O)C1
REMARK SMILES IDX 8 1 9 2 6 3 7 4 5 5 4 6 3 7 2 8 1 9 10 11 11 12 15 13 16 14
REMARK SMILES IDX 17 15 12 17 13 18 14 19
REMARK H PARENT
REMARK Flexibility Score: 70.00
ROOT
ATOM      1  C   UNL     1     122.927 177.960 125.415  1.00  0.00     0.136 C 
ATOM      2  O   UNL     1     123.962 178.279 125.981  1.00  0.00    -0.299 OA
ENDROOT
BRANCH   1   3
ATOM      3  C   UNL     1     122.927 176.699 124.573  1.00  0.00     0.053 C 
ATOM      4  C   UNL     1     124.116 176.726 123.601  1.00  0.00     0.016 C 
BRANCH   3   5
ATOM      5  C   UNL     1     122.971 175.432 125.482  1.00  0.00     0.015 C 
BRANCH   5   6
ATOM      6  C   UNL     1     121.579 174.995 125.992  1.00  0.00     0.028 C 
BRANCH   6   7
ATOM      7  C   UNL     1     121.239 175.490 127.381  1.00  0.00    -0.028 C 
ATOM      8  C   UNL     1     120.116 176.157 127.754  1.00  0.00    -0.070 CG0
ATOM      9  C   UNL     1     119.932 176.436 129.226  1.00  0.00     0.039 C 
ATOM     10  G   UNL     1     119.089 176.716 126.779  1.00  0.00     0.000 G0
ENDBRANCH   6   7
ENDBRANCH   5   6
ENDBRANCH   3   5
ENDBRANCH   1   3
BRANCH   1  11
ATOM     11  C   UNL     1     121.725 178.870 125.588  1.00  0.00     0.087 C 
BRANCH  11  12
ATOM     12  C   UNL     1     120.332 178.355 125.111  1.00  0.00     0.066 C 
BRANCH  12  13
ATOM     13  C   UNL     1     119.354 178.102 126.255  1.00  0.00     0.140 C 
ATOM     14  O   UNL     1     118.884 179.068 126.840  1.00  0.00    -0.299 OA
BRANCH  13  15
ATOM     15  C   UNL     1     119.068 176.714 126.784  1.00  0.00     0.106 CG0
ATOM     16  G   UNL     1     120.118 176.183 127.750  1.00  0.00     0.000 G0
ENDBRANCH  13  15
ENDBRANCH  12  13
BRANCH  12  17
ATOM     17  C   UNL     1     119.698 179.336 124.067  1.00  0.00    -0.006 C 
ATOM     18  C   UNL     1     118.225 178.993 123.768  1.00  0.00     0.008 C 
ATOM     19  C   UNL     1     120.478 179.357 122.738  1.00  0.00     0.008 C 
ENDBRANCH  12  17
ENDBRANCH  11  12
ENDBRANCH   1  11
TORSDOF 1
ENDMDL
MODEL 4
REMARK VINA RESULT:    -4.655      2.767      5.395
REMARK INTER + INTRA:          -7.254
REMARK INTER:                  -6.888
REMARK INTRA:                  -0.367
REMARK UNBOUND:                -0.150
REMARK SMILES CC1=CCC[C@H](C)C(=O)C[C@H](C(C)C)C(=O)C1
REMARK SMILES IDX 8 1 9 2 6 3 7 4 5 5 4 6 3 7 2 8 1 9 10 11 11 12 15 13 16 14
REMARK SMILES IDX 17 15 12 17 13 18 14 19
REMARK H PARENT
REMARK Flexibility Score: 70.00
ROOT
ATOM      1  C   UNL     1     121.562 179.135 125.536  1.00  0.00     0.136 C 
ATOM      2  O   UNL     1     122.442 179.590 126.251  1.00  0.00    -0.299 OA
ENDROOT
BRANCH   1   3
ATOM      3  C   UNL     1     120.164 179.708 125.663  1.00  0.00     0.053 C 
ATOM      4  C   UNL     1     119.297 179.222 124.492  1.00  0.00     0.016 C 
BRANCH   3   5
ATOM      5  C   UNL     1     119.532 179.312 127.034  1.00  0.00     0.015 C 
BRANCH   5   6
ATOM      6  C   UNL     1     119.135 177.822 127.119  1.00  0.00     0.028 C 
BRANCH   6   7
ATOM      7  C   UNL     1     120.030 176.986 128.009  1.00  0.00    -0.028 C 
ATOM      8  C   UNL     1     120.973 176.095 127.606  1.00  0.00    -0.070 CG0
ATOM      9  C   UNL     1     121.839 175.473 128.674  1.00  0.00     0.039 C 
ATOM     10  G   UNL     1     121.147 175.623 126.169  1.00  0.00     0.000 G0
ENDBRANCH   6   7
ENDBRANCH   5   6
ENDBRANCH   3   5
ENDBRANCH   1   3
BRANCH   1  11
ATOM     11  C   UNL     1     121.941 178.013 124.587  1.00  0.00     0.087 C 
BRANCH  11  12
ATOM     12  C   UNL     1     123.080 177.037 125.014  1.00  0.00     0.066 C 
BRANCH  12  13
ATOM     13  C   UNL     1     122.569 175.741 125.637  1.00  0.00     0.140 C 
ATOM     14  O   UNL     1     123.287 174.752 125.590  1.00  0.00    -0.299 OA
BRANCH  13  15
ATOM     15  C   UNL     1     121.160 175.599 126.169  1.00  0.00     0.106 CG0
ATOM     16  G   UNL     1     120.981 176.074 127.605  1.00  0.00     0.000 G0
ENDBRANCH  13  15
ENDBRANCH  12  13
BRANCH  12  17
ATOM     17  C   UNL     1     124.027 176.717 123.806  1.00  0.00    -0.006 C 
ATOM     18  C   UNL     1     125.422 177.348 123.980  1.00  0.00     0.008 C 
ATOM     19  C   UNL     1     123.438 177.188 122.463  1.00  0.00     0.008 C 
ENDBRANCH  12  17
ENDBRANCH  11  12
ENDBRANCH   1  11
TORSDOF 1
ENDMDL
MODEL 5
REMARK VINA RESULT:    -4.582      1.907      4.245
REMARK INTER + INTRA:          -7.144
REMARK INTER:                  -7.033
REMARK INTRA:                  -0.110
REMARK UNBOUND:                -0.150
REMARK SMILES CC1=CCC[C@H](C)C(=O)C[C@H](C(C)C)C(=O)C1
REMARK SMILES IDX 8 1 9 2 6 3 7 4 5 5 4 6 3 7 2 8 1 9 10 11 11 12 15 13 16 14
REMARK SMILES IDX 17 15 12 17 13 18 14 19
REMARK H PARENT
REMARK Flexibility Score: 70.00
ROOT
ATOM      1  C   UNL     1     122.884 178.936 128.455  1.00  0.00     0.136 C 
ATOM      2  O   UNL     1     123.684 179.369 127.639  1.00  0.00    -0.299 OA
ENDROOT
BRANCH   1   3
ATOM      3  C   UNL     1     123.408 178.466 129.797  1.00  0.00     0.053 C 
ATOM      4  C   UNL     1     123.035 179.484 130.885  1.00  0.00     0.016 C 
BRANCH   3   5
ATOM      5  C   UNL     1     122.852 177.048 130.137  1.00  0.00     0.015 C 
BRANCH   5   6
ATOM      6  C   UNL     1     121.524 177.083 130.925  1.00  0.00     0.028 C 
BRANCH   6   7
ATOM      7  C   UNL     1     120.634 175.878 130.706  1.00  0.00    -0.028 C 
ATOM      8  C   UNL     1     119.772 175.681 129.675  1.00  0.00    -0.070 CG0
ATOM      9  C   UNL     1     119.085 174.340 129.594  1.00  0.00     0.039 C 
ATOM     10  G   UNL     1     119.392 176.750 128.660  1.00  0.00     0.000 G0
ENDBRANCH   6   7
ENDBRANCH   5   6
ENDBRANCH   3   5
ENDBRANCH   1   3
BRANCH   1  11
ATOM     11  C   UNL     1     121.423 178.886 128.045  1.00  0.00     0.087 C 
BRANCH  11  12
ATOM     12  C   UNL     1     121.012 177.919 126.893  1.00  0.00     0.066 C 
BRANCH  12  13
ATOM     13  C   UNL     1     120.207 176.712 127.370  1.00  0.00     0.140 C 
ATOM     14  O   UNL     1     120.134 175.737 126.635  1.00  0.00    -0.299 OA
BRANCH  13  15
ATOM     15  C   UNL     1     119.382 176.739 128.638  1.00  0.00     0.106 CG0
ATOM     16  G   UNL     1     119.771 175.680 129.661  1.00  0.00     0.000 G0
ENDBRANCH  13  15
ENDBRANCH  12  13
BRANCH  12  17
ATOM     17  C   UNL     1     120.225 178.682 125.773  1.00  0.00    -0.006 C 
ATOM     18  C   UNL     1     121.052 178.831 124.481  1.00  0.00     0.008 C 
ATOM     19  C   UNL     1     119.770 180.082 126.230  1.00  0.00     0.008 C 
ENDBRANCH  12  17
ENDBRANCH  11  12
ENDBRANCH   1  11
TORSDOF 1
ENDMDL
MODEL 6
REMARK VINA RESULT:    -4.493      2.348      3.321
REMARK INTER + INTRA:          -7.007
REMARK INTER:                  -6.587
REMARK INTRA:                  -0.420
REMARK UNBOUND:                -0.150
REMARK SMILES CC1=CCC[C@H](C)C(=O)C[C@H](C(C)C)C(=O)C1
REMARK SMILES IDX 8 1 9 2 6 3 7 4 5 5 4 6 3 7 2 8 1 9 10 11 11 12 15 13 16 14
REMARK SMILES IDX 17 15 12 17 13 18 14 19
REMARK H PARENT
REMARK Flexibility Score: 70.00
ROOT
ATOM      1  C   UNL     1     120.758 174.580 126.594  1.00  0.00     0.136 C 
ATOM      2  O   UNL     1     120.285 173.571 126.092  1.00  0.00    -0.299 OA
ENDROOT
BRANCH   1   3
ATOM      3  C   UNL     1     122.266 174.736 126.613  1.00  0.00     0.053 C 
ATOM      4  C   UNL     1     122.921 173.387 126.942  1.00  0.00     0.016 C 
BRANCH   3   5
ATOM      5  C   UNL     1     122.777 175.293 125.248  1.00  0.00     0.015 C 
BRANCH   5   6
ATOM      6  C   UNL     1     123.046 176.814 125.270  1.00  0.00     0.028 C 
BRANCH   6   7
ATOM      7  C   UNL     1     121.985 177.647 124.580  1.00  0.00    -0.028 C 
ATOM      8  C   UNL     1     121.224 178.620 125.141  1.00  0.00    -0.070 CG0
ATOM      9  C   UNL     1     120.321 179.410 124.225  1.00  0.00     0.039 C 
ATOM     10  G   UNL     1     121.157 178.900 126.637  1.00  0.00     0.000 G0
ENDBRANCH   6   7
ENDBRANCH   5   6
ENDBRANCH   3   5
ENDBRANCH   1   3
BRANCH   1  11
ATOM     11  C   UNL     1     119.788 175.590 127.181  1.00  0.00     0.087 C 
BRANCH  11  12
ATOM     12  C   UNL     1     120.369 176.782 128.001  1.00  0.00     0.066 C 
BRANCH  12  13
ATOM     13  C   UNL     1     120.088 178.145 127.374  1.00  0.00     0.140 C 
ATOM     14  O   UNL     1     118.936 178.557 127.373  1.00  0.00    -0.299 OA
BRANCH  13  15
ATOM     15  C   UNL     1     121.146 178.926 126.625  1.00  0.00     0.106 CG0
ATOM     16  G   UNL     1     121.217 178.615 125.136  1.00  0.00     0.000 G0
ENDBRANCH  13  15
ENDBRANCH  12  13
BRANCH  12  17
ATOM     17  C   UNL     1     119.851 176.753 129.480  1.00  0.00    -0.006 C 
ATOM     18  C   UNL     1     120.909 176.201 130.455  1.00  0.00     0.008 C 
ATOM     19  C   UNL     1     118.562 175.921 129.630  1.00  0.00     0.008 C 
ENDBRANCH  12  17
ENDBRANCH  11  12
ENDBRANCH   1  11
TORSDOF 1
ENDMDL
MODEL 7
REMARK VINA RESULT:    -4.472      1.993      3.894
REMARK INTER + INTRA:          -6.975
REMARK INTER:                  -6.555
REMARK INTRA:                  -0.420
REMARK UNBOUND:                -0.150
REMARK SMILES CC1=CCC[C@H](C)C(=O)C[C@H](C(C)C)C(=O)C1
REMARK SMILES IDX 8 1 9 2 6 3 7 4 5 5 4 6 3 7 2 8 1 9 10 11 11 12 15 13 16 14
REMARK SMILES IDX 17 15 12 17 13 18 14 19
REMARK H PARENT
REMARK Flexibility Score: 70.00
ROOT
ATOM      1  C   UNL     1     119.863 176.133 127.531  1.00  0.00     0.136 C 
ATOM      2  O   UNL     1     120.117 174.940 127.607  1.00  0.00    -0.299 OA
ENDROOT
BRANCH   1   3
ATOM      3  C   UNL     1     119.688 176.914 128.819  1.00  0.00     0.053 C 
ATOM      4  C   UNL     1     118.621 176.239 129.693  1.00  0.00     0.016 C 
BRANCH   3   5
ATOM      5  C   UNL     1     121.047 177.032 129.578  1.00  0.00     0.015 C 
BRANCH   5   6
ATOM      6  C   UNL     1     121.937 178.185 129.065  1.00  0.00     0.028 C 
BRANCH   6   7
ATOM      7  C   UNL     1     122.921 177.783 127.986  1.00  0.00    -0.028 C 
ATOM      8  C   UNL     1     123.071 178.362 126.767  1.00  0.00    -0.070 CG0
ATOM      9  C   UNL     1     124.211 177.876 125.905  1.00  0.00     0.039 C 
ATOM     10  G   UNL     1     122.116 179.395 126.186  1.00  0.00     0.000 G0
ENDBRANCH   6   7
ENDBRANCH   5   6
ENDBRANCH   3   5
ENDBRANCH   1   3
BRANCH   1  11
ATOM     11  C   UNL     1     119.721 176.732 126.144  1.00  0.00     0.087 C 
BRANCH  11  12
ATOM     12  C   UNL     1     119.713 178.286 126.007  1.00  0.00     0.066 C 
BRANCH  12  13
ATOM     13  C   UNL     1     120.977 178.846 125.361  1.00  0.00     0.140 C 
ATOM     14  O   UNL     1     121.114 178.723 124.152  1.00  0.00    -0.299 OA
BRANCH  13  15
ATOM     15  C   UNL     1     122.124 179.403 126.176  1.00  0.00     0.106 CG0
ATOM     16  G   UNL     1     123.067 178.346 126.735  1.00  0.00     0.000 G0
ENDBRANCH  13  15
ENDBRANCH  12  13
BRANCH  12  17
ATOM     17  C   UNL     1     118.446 178.774 125.224  1.00  0.00    -0.006 C 
ATOM     18  C   UNL     1     117.751 179.958 125.924  1.00  0.00     0.008 C 
ATOM     19  C   UNL     1     117.415 177.647 125.023  1.00  0.00     0.008 C 
ENDBRANCH  12  17
ENDBRANCH  11  12
ENDBRANCH   1  11
TORSDOF 1
ENDMDL
MODEL 8
REMARK VINA RESULT:    -4.330      3.694      5.934
REMARK INTER + INTRA:          -6.759
REMARK INTER:                  -6.622
REMARK INTRA:                  -0.137
REMARK UNBOUND:                -0.150
REMARK SMILES CC1=CCC[C@H](C)C(=O)C[C@H](C(C)C)C(=O)C1
REMARK SMILES IDX 8 1 9 2 6 3 7 4 5 5 4 6 3 7 2 8 1 9 10 11 11 12 15 13 16 14
REMARK SMILES IDX 17 15 12 17 13 18 14 19
REMARK H PARENT
REMARK Flexibility Score: 70.00
ROOT
ATOM      1  C   UNL     1     122.036 175.511 127.690  1.00  0.00     0.136 C 
ATOM      2  O   UNL     1     122.367 176.685 127.761  1.00  0.00    -0.299 OA
ENDROOT
BRANCH   1   3
ATOM      3  C   UNL     1     121.944 174.870 126.319  1.00  0.00     0.053 C 
ATOM      4  C   UNL     1     122.804 175.659 125.321  1.00  0.00     0.016 C 
BRANCH   3   5
ATOM      5  C   UNL     1     122.384 173.374 126.383  1.00  0.00     0.015 C 
BRANCH   5   6
ATOM      6  C   UNL     1     121.196 172.387 126.412  1.00  0.00     0.028 C 
BRANCH   6   7
ATOM      7  C   UNL     1     121.331 171.276 127.431  1.00  0.00    -0.028 C 
ATOM      8  C   UNL     1     120.524 171.052 128.500  1.00  0.00    -0.070 CG0
ATOM      9  C   UNL     1     120.773 169.801 129.307  1.00  0.00     0.039 C 
ATOM     10  G   UNL     1     119.453 172.020 128.984  1.00  0.00     0.000 G0
ENDBRANCH   6   7
ENDBRANCH   5   6
ENDBRANCH   3   5
ENDBRANCH   1   3
BRANCH   1  11
ATOM     11  C   UNL     1     121.720 174.794 128.990  1.00  0.00     0.087 C 
BRANCH  11  12
ATOM     12  C   UNL     1     120.224 174.546 129.353  1.00  0.00     0.066 C 
BRANCH  12  13
ATOM     13  C   UNL     1     119.951 173.140 129.882  1.00  0.00     0.140 C 
ATOM     14  O   UNL     1     120.272 172.882 131.034  1.00  0.00    -0.299 OA
BRANCH  13  15
ATOM     15  C   UNL     1     119.444 172.025 128.995  1.00  0.00     0.106 CG0
ATOM     16  G   UNL     1     120.528 171.073 128.505  1.00  0.00     0.000 G0
ENDBRANCH  13  15
ENDBRANCH  12  13
BRANCH  12  17
ATOM     17  C   UNL     1     119.710 175.616 130.377  1.00  0.00    -0.006 C 
ATOM     18  C   UNL     1     118.472 176.372 129.854  1.00  0.00     0.008 C 
ATOM     19  C   UNL     1     120.797 176.645 130.740  1.00  0.00     0.008 C 
ENDBRANCH  12  17
ENDBRANCH  11  12
ENDBRANCH   1  11
TORSDOF 1
ENDMDL
MODEL 9
REMARK VINA RESULT:    -4.231      2.151      4.603
REMARK INTER + INTRA:          -6.608
REMARK INTER:                  -6.233
REMARK INTRA:                  -0.375
REMARK UNBOUND:                -0.150
REMARK SMILES CC1=CCC[C@H](C)C(=O)C[C@H](C(C)C)C(=O)C1
REMARK SMILES IDX 8 1 9 2 6 3 7 4 5 5 4 6 3 7 2 8 1 9 10 11 11 12 15 13 16 14
REMARK SMILES IDX 17 15 12 17 13 18 14 19
REMARK H PARENT
REMARK Flexibility Score: 70.00
ROOT
ATOM      1  C   UNL     1     119.978 176.070 127.987  1.00  0.00     0.136 C 
ATOM      2  O   UNL     1     119.642 174.994 127.516  1.00  0.00    -0.299 OA
ENDROOT
BRANCH   1   3
ATOM      3  C   UNL     1     119.547 176.403 129.402  1.00  0.00     0.053 C 
ATOM      4  C   UNL     1     118.102 175.933 129.627  1.00  0.00     0.016 C 
BRANCH   3   5
ATOM      5  C   UNL     1     120.518 175.755 130.438  1.00  0.00     0.015 C 
BRANCH   5   6
ATOM      6  C   UNL     1     121.502 176.764 131.069  1.00  0.00     0.028 C 
BRANCH   6   7
ATOM      7  C   UNL     1     122.881 176.768 130.444  1.00  0.00    -0.028 C 
ATOM      8  C   UNL     1     123.454 177.783 129.746  1.00  0.00    -0.070 CG0
ATOM      9  C   UNL     1     124.894 177.610 129.328  1.00  0.00     0.039 C 
ATOM     10  G   UNL     1     122.713 179.031 129.285  1.00  0.00     0.000 G0
ENDBRANCH   6   7
ENDBRANCH   5   6
ENDBRANCH   3   5
ENDBRANCH   1   3
BRANCH   1  11
ATOM     11  C   UNL     1     120.787 177.000 127.101  1.00  0.00     0.087 C 
BRANCH  11  12
ATOM     12  C   UNL     1     120.840 178.514 127.471  1.00  0.00     0.066 C 
BRANCH  12  13
ATOM     13  C   UNL     1     122.237 178.998 127.853  1.00  0.00     0.140 C 
ATOM     14  O   UNL     1     123.031 179.242 126.956  1.00  0.00    -0.299 OA
BRANCH  13  15
ATOM     15  C   UNL     1     122.715 179.040 129.287  1.00  0.00     0.106 CG0
ATOM     16  G   UNL     1     123.469 177.793 129.732  1.00  0.00     0.000 G0
ENDBRANCH  13  15
ENDBRANCH  12  13
BRANCH  12  17
ATOM     17  C   UNL     1     120.262 179.396 126.312  1.00  0.00    -0.006 C 
ATOM     18  C   UNL     1     118.828 179.875 126.607  1.00  0.00     0.008 C 
ATOM     19  C   UNL     1     120.266 178.657 124.959  1.00  0.00     0.008 C 
ENDBRANCH  12  17
ENDBRANCH  11  12
ENDBRANCH   1  11
TORSDOF 1
ENDMDL
